#------------------------------------------------------------------------------
#$Date: 2019-11-25 23:06:11 +0200 (Mon, 25 Nov 2019) $
#$Revision: 242016 $
#$URL: file:///home/coder/svn-repositories/cod/cif/4/13/19/4131946.cif $
#------------------------------------------------------------------------------
#
# This file is available in the Crystallography Open Database (COD),
# http://www.crystallography.net/
#
# All data on this site have been placed in the public domain by the
# contributors.
#
data_4131946
loop_
_publ_author_name
'Miloserdov, Fedor M.'
'Kirillova, Mariia S.'
'Muratore, Michael E.'
'Echavarren, Antonio M.'
_publ_section_title
;
 Unified Total Synthesis of Pyrroloazocine Indole Alkaloids Sheds Light on
 Their Biosynthetic Relationship.
;
_journal_issue                   16
_journal_name_full               'Journal of the American Chemical Society'
_journal_page_first              5393
_journal_page_last               5400
_journal_paper_doi               10.1021/jacs.7b13484
_journal_volume                  140
_journal_year                    2018
_chemical_formula_sum            'C20 H16 Br3 N4 Ru'
_chemical_formula_weight         653.17
_space_group_IT_number           2
_space_group_name_Hall           '-P 1'
_space_group_name_H-M_alt        'P -1'
_symmetry_cell_setting           triclinic
_symmetry_space_group_name_H-M   'P -1'
_atom_sites_solution_hydrogens   geom
_audit_creation_method           SHELXL-2014/7
_cell_angle_alpha                77.686(4)
_cell_angle_beta                 83.158(3)
_cell_angle_gamma                69.733(4)
_cell_formula_units_Z            1
_cell_length_a                   7.2777(3)
_cell_length_b                   8.2938(4)
_cell_length_c                   9.0157(3)
_cell_measurement_reflns_used    10035
_cell_measurement_temperature    100(2)
_cell_measurement_theta_max      32.737
_cell_measurement_theta_min      2.315
_cell_volume                     498.14(4)
_computing_cell_refinement       'CrysAlisPro 1.171.38.39f (Rigaku OD, 2015)'
_computing_data_collection       'CrysAlisPro 1.171.38.39f (Rigaku OD, 2015)'
_computing_data_reduction        'CrysAlisPro 1.171.38.39f (Rigaku OD, 2015)'
_computing_molecular_graphics
;
 SHELXle: C.B. Huebschle, G.M. Sheldrick & B. Dittrich
 J.Appl.Cryst. (2011) 44, 1281-1284.
;
_computing_publication_material  'XCIF, SHELXL-2014/7 (Sheldrick, 2014)'
_computing_structure_refinement  'SHELXL-2014/7 (Sheldrick, 2014)'
_computing_structure_solution    'SHELXT V2014/4 (Sheldrick 2014)'
_diffrn_ambient_temperature      100(2)
_diffrn_detector_area_resol_mean 512
_diffrn_detector_type            'PILATUS 200K'
_diffrn_measured_fraction_theta_full 1.000
_diffrn_measured_fraction_theta_max 0.963
_diffrn_measurement_device_type  '1/4chi goniometer'
_diffrn_measurement_method
;
 Fullsphere data collection, phi and omega scans
;
_diffrn_measurement_specimen_support 'magnetic support with MicroMount'
_diffrn_radiation_monochromator  'Confocal Max Flux optic'
_diffrn_radiation_type           MoK\a
_diffrn_radiation_wavelength     0.7107
_diffrn_reflns_av_unetI/netI     0.0217
_diffrn_reflns_Laue_measured_fraction_full 1.000
_diffrn_reflns_Laue_measured_fraction_max 0.963
_diffrn_reflns_limit_h_max       11
_diffrn_reflns_limit_h_min       -10
_diffrn_reflns_limit_k_max       12
_diffrn_reflns_limit_k_min       -12
_diffrn_reflns_limit_l_max       13
_diffrn_reflns_limit_l_min       -13
_diffrn_reflns_number            10035
_diffrn_reflns_point_group_measured_fraction_full 1.000
_diffrn_reflns_point_group_measured_fraction_max 0.963
_diffrn_reflns_theta_full        25.242
_diffrn_reflns_theta_max         32.737
_diffrn_reflns_theta_min         2.315
_diffrn_source                   'Microfocus rotating anode X-ray tube'
_diffrn_source_current           24
_diffrn_source_power             50
_diffrn_source_size              '0.2 mm x 0.2 mm fine focus'
_diffrn_source_type              'Rigaku MicroMax-007HF'
_exptl_absorpt_coefficient_mu    6.817
_exptl_absorpt_correction_T_max  0.727
_exptl_absorpt_correction_T_min  0.559
_exptl_absorpt_correction_type   empirical
_exptl_absorpt_process_details
; 
 CrysAlisPro 1.171.38.39f (Rigaku Oxford Diffraction, 2015)
 Empirical absorption correction using spherical harmonics,
 implemented in SCALE3 ABSPACK scaling algorithm.
;
_exptl_crystal_colour            purple
_exptl_crystal_density_diffrn    2.177
_exptl_crystal_description       block
_exptl_crystal_F_000             313
_exptl_crystal_size_max          0.20
_exptl_crystal_size_mid          0.20
_exptl_crystal_size_min          0.15
_refine_diff_density_max         4.464
_refine_diff_density_min         -0.794
_refine_diff_density_rms         0.310
_refine_ls_extinction_method     none
_refine_ls_goodness_of_fit_ref   1.019
_refine_ls_hydrogen_treatment    constr
_refine_ls_matrix_type           full
_refine_ls_number_parameters     133
_refine_ls_number_reflns         10035
_refine_ls_number_restraints     0
_refine_ls_restrained_S_all      1.019
_refine_ls_R_factor_all          0.0734
_refine_ls_R_factor_gt           0.0603
_refine_ls_shift/su_max          0.001
_refine_ls_shift/su_mean         0.000
_refine_ls_structure_factor_coef Fsqd
_refine_ls_weighting_details
'w=1/[\s^2^(Fo^2^)+(0.1672P)^2^] where P=(Fo^2^+2Fc^2^)/3'
_refine_ls_weighting_scheme      calc
_refine_ls_wR_factor_gt          0.1769
_refine_ls_wR_factor_ref         0.2071
_reflns_Friedel_coverage         0.000
_reflns_number_gt                8029
_reflns_number_total             10035
_reflns_threshold_expression     'I > 2\s(I)'
_cod_data_source_file            ja7b13484_si_002.cif
_cod_data_source_block           FM22_twin1_hklf5
_cod_depositor_comments
;
The following automatic conversions were performed:

data item '_symmetry_cell_setting' value 'Triclinic' was changed to
'triclinic' in accordance with the
/home/saulius/struct/COD-crude-data/automatic-downloads/DataCite-retrospective/ACS/depositions/lib/dictionaries/cif_core.dic
dictionary named 'cif_core.dic' version 2.4.2 last updated on
2011-04-26.

Automatic conversion script
Id: cif_fix_values 6909 2019-04-08 15:41:33Z antanas 
;
_cod_original_sg_symbol_H-M      P-1
_cod_database_code               4131946
_shelx_shelxl_version_number     2014/7
_shelx_space_group_comment
;
The symmetry employed for this shelxl refinement is uniquely defined
by the following loop, which should always be used as a source of
symmetry information in preference to the above space-group names.
They are only intended as comments.
;
_shelx_estimated_absorpt_t_min   0.612
_shelx_estimated_absorpt_t_max   0.727
_shelx_res_file
;
    FM22_twin1_hklf5.res created by SHELXL-2014/7
TITL FM22_twin1_hklf5 in P-1
CELL 0.71073   7.27773   8.29377   9.01572  77.6859  83.1579  69.7328
ZERR    1.00   0.00029   0.00038   0.00034   0.0035   0.0032   0.0039
LATT 1
SFAC C  H  Cl Ru Br N
UNIT 20 16 0 1 3 4
LIST 4
L.S. 10
ACTA
MERG 0
FMAP 2
PLAN 5
conf
OMIT -2 -7 -4
size 0.08 0.08 0.05
WGHT    0.167200
BASF   0.20447   0.20851   0.16424
FVAR       1.97566
RU1   4    0.000000    1.000000    0.500000    10.50000    0.01469    0.01078 =
         0.01197   -0.00343   -0.00173   -0.00101
BR1   5    0.288502    1.037611    0.344741    11.00000    0.01759    0.01646 =
         0.01627   -0.00369   -0.00092   -0.00360
N1    6    0.131246    0.730496    0.525950    11.00000    0.01572    0.01359 =
         0.01469   -0.00499   -0.00018   -0.00399
N2    6   -0.092907    0.942626    0.314582    11.00000    0.01599    0.01327 =
         0.01259   -0.00387   -0.00200   -0.00206
C1    1    0.209709    0.618597    0.651740    11.00000    0.02019    0.01583 =
         0.01558   -0.00222   -0.00567   -0.00364
AFIX  43
H1    2    0.194293    0.660992    0.741588    11.00000   -1.20000
AFIX   0
C2    1    0.312255    0.443327    0.653209    11.00000    0.01846    0.01651 =
         0.01987    0.00134   -0.00555   -0.00331
AFIX  43
H2    2    0.366342    0.370016    0.741828    11.00000   -1.20000
AFIX   0
C3    1    0.332808    0.379306    0.520858    11.00000    0.01826    0.01090 =
         0.02964   -0.00404   -0.00426   -0.00085
AFIX  43
H3    2    0.404145    0.262622    0.518399    11.00000   -1.20000
AFIX   0
C4    1    0.245807    0.490914    0.390934    11.00000    0.01794    0.01484 =
         0.02280   -0.00947   -0.00031   -0.00332
AFIX  43
H4    2    0.255840    0.449453    0.301224    11.00000   -1.20000
AFIX   0
C5    1    0.143961    0.664927    0.397637    11.00000    0.01576    0.01232 =
         0.01645   -0.00556   -0.00144   -0.00161
C6    1    0.022818    0.785584    0.276592    11.00000    0.01772    0.01335 =
         0.01290   -0.00338   -0.00077   -0.00381
C7    1    0.002230    0.741751    0.139926    11.00000    0.02374    0.01625 =
         0.01619   -0.00604    0.00031   -0.00634
AFIX  43
H7    2    0.086328    0.637730    0.113165    11.00000   -1.20000
AFIX   0
C8    1   -0.142013    0.851875    0.044691    11.00000    0.03244    0.02145 =
         0.01401   -0.00626    0.00019   -0.01044
AFIX  43
H8    2   -0.155637    0.824204   -0.047175    11.00000   -1.20000
AFIX   0
C9    1   -0.267848    1.006350    0.088735    11.00000    0.02100    0.02058 =
         0.01763   -0.00146   -0.00704   -0.00716
AFIX  43
H9    2   -0.370242    1.080724    0.028600    11.00000   -1.20000
AFIX   0
C10   1   -0.238085    1.046876    0.222423    11.00000    0.01906    0.01386 =
         0.01746   -0.00276   -0.00300   -0.00251
AFIX  43
H10   2   -0.321532    1.150451    0.250406    11.00000   -1.20000
AFIX   0
MOLE 2
BR2   5    0.500000    0.500000    0.000000    10.50000    0.02677    0.02695 =
         0.01605   -0.00582   -0.00220    0.00622
HKLF 5
REM  FM22_twin1_hklf5 in P-1
REM R1 =  0.0603 for    8029 Fo > 4sig(Fo)  and  0.0734 for all   10035 data
REM    133 parameters refined using      0 restraints
END
WGHT      0.1672      0.0000
REM Highest difference peak  4.464,  deepest hole -0.794,  1-sigma level  0.310
Q1    1   0.0649  1.0426  0.4758  11.00000  0.05    3.50
Q2    1   0.2155  0.9921  0.3838  11.00000  0.05    2.74
Q3    1   0.4242  0.4506  0.0275  11.00000  0.05    2.73
Q4    1   0.3639  1.0851  0.3159  11.00000  0.05    2.34
Q5    1   0.4298  0.5702 -0.0617  11.00000  0.05    2.17
;
_shelx_res_checksum              62390
_shelx_hkl_file
;
   0   0  -1 8993.38 31.5629   1
   0   0  -1 7251.75 53.3915  -2
   0   0  -1 7251.75 53.3915   1
   0   0  -2 5376.74 7.05390   1
  -1   1   0 14995.1 31.5338  -3
   0   0  -2 14995.1 31.5338  -2
   0   0  -2 14995.1 31.5338   1
   0   0   3 6767.39 9.29879   1
  -2   1   0 14582.8 38.7525  -3
   0   0  -3 14582.8 38.7525  -2
   0   0  -3 14582.8 38.7525   1
   0   0  -4 569.513 4.11274   1
  -2   2   0 695.829 10.5535  -3
   0   0  -4 695.829 10.5535   1
  -2   2   0 1165.58 24.5335  -3
   0   0  -4 1165.58 24.5335  -2
   0   0  -4 1165.58 24.5335   1
   0   0   5 936.942 5.74117   1
   3  -2   0 2245.56 13.2668  -3
   0   0   5 2245.56 13.2668  -2
   0   0   5 2245.56 13.2668   1
   0   0  -6 10882.8 12.3339   1
   0   0   7 2202.91 13.7098   1
  -4   3   0 5903.81 24.0541  -3
   0   0  -7 5903.81 24.0541  -2
   0   0  -7 5903.81 24.0541   1
   0   0  -8 442.208 26.6527   1
   0   0  -9 341.900 19.4160   1
   5  -4   0 441.459 41.5756  -3
   0   0   9 441.459 41.5756   1
  -5   4   0 666.097 59.7202  -3
   0   0  -9 666.097 59.7202  -2
   0   0  -9 666.097 59.7202   1
   0   0 -10 70.9104 19.7354   1
  -6   5   0 177.200 37.6897  -3
   0   0 -11 177.200 37.6897   1
   0   0  12 1271.95 38.0918   1
  -7   6   0 433.929 83.1426  -3
  -1  -1 -13 433.929 83.1426  -2
   0   0 -13 433.929 83.1426   1
   7  -5   1 622.783 61.6634  -3
   1   0  12 622.783 61.6634  -2
   0  -1  12 622.783 61.6634   1
   0  -1  11 944.582 25.9160   1
   6  -4   1 620.562 38.5080  -3
   0  -1  10 620.562 38.5080  -2
   0  -1  10 620.562 38.5080   1
   0   1  -9 17.0958 17.6050   1
   0   1  -8 630.198 13.2054   1
   5  -3   1 1200.69 58.6916  -3
   0  -1   8 1200.69 58.6916  -2
   0  -1   8 1200.69 58.6916   1
   0   1  -7 5179.73 18.2129   1
   0   1  -6 2238.23 16.8067   1
  -4   2  -1 4347.02 16.9259  -3
   0   1  -6 4347.02 16.9259  -2
   0   1  -6 4347.02 16.9259   1
   0  -1   5 8568.19 12.3715   1
   0   1  -4 256.387 5.88652   1
  -3   1  -1 489.354 10.9877  -3
   0   1  -4 489.354 10.9877  -2
   0   1  -4 489.354 10.9877   1
   0   1  -3 394.118 4.15526   1
  -2   1  -1 1222.99 14.9550  -3
   0   1  -3 1222.99 14.9550  -2
   0   1  -3 1222.99 14.9550   1
   0   1  -2 3223.76 6.67476   1
   0   1  -1 9953.95 16.6138   1
   0  -1   1 17083.7 18.6969  -2
   0  -1   1 17083.7 18.6969   1
  -1   0  -1 22595.4 18.3592  -3
   0   1  -1 22595.4 18.3592  -2
   0   1  -1 22595.4 18.3592   1
   0   1   0 12964.6 11.5458  -2
   0   1   0 12964.6 11.5458   1
  -1  -1  -1 13581.0 20.0015  -3
   0   1   0 13581.0 20.0015  -2
   0   1   0 13581.0 20.0015   1
   0   1   1 13418.0 12.8515  -3
   0  -1  -1 13418.0 12.8515  -2
   0  -1  -1 13418.0 12.8515   1
   0   1   2 212.241 2.11491   1
   1  -2  -1 997.885 12.8860  -3
   0   1   3 997.885 12.8860   1
  -1   2   1 1086.89 5.12608  -3
   0  -1  -3 1086.89 5.12608  -2
   0  -1  -3 1086.89 5.12608   1
   0  -1  -4 405.255 3.48125   1
   0  -1  -5 5994.71 9.79560   1
  -2   3   1 6955.97 27.8257  -3
   0  -1  -5 6955.97 27.8257   1
  -2   3   1 10652.4 28.7377  -3
   0  -1  -5 10652.4 28.7377  -2
   0  -1  -5 10652.4 28.7377   1
   0   1   6 1065.07 8.36323   1
  -3   3   1 2424.65 13.4558  -3
   0  -1  -6 2424.65 13.4558  -2
   0  -1  -6 2424.65 13.4558   1
   0  -1  -7 9353.52 13.6098   1
   0   1   8 358.895 10.6162   1
   4  -4  -1 1068.47 20.1672  -3
   0   1   8 1068.47 20.1672  -2
   0   1   8 1068.47 20.1672   1
   0  -1  -9 310.225 11.1057   1
   0  -1 -10 478.734 22.3587   1
  -5   5   1 835.789 39.1852  -3
   0  -1 -10 835.789 39.1852  -2
   0  -1 -10 835.789 39.1852   1
   0   1  11 385.614 19.4045   1
   0  -1 -12 89.0080 48.5437   1
  -6   6   1 258.049 48.0358  -3
  -1  -2 -12 258.049 48.0358  -2
   0  -1 -12 258.049 48.0358   1
   0  -1 -13 1344.98 50.8268   1
   0  -2  12 1581.17 37.2579   1
   7  -4   2 397.591 47.1087  -3
   1  -1  11 397.591 47.1087  -2
   0  -2  11 397.591 47.1087   1
   0  -2  10 223.552 24.3328   1
   6  -3   2 1615.06 36.1143  -3
   0  -2   9 1615.06 36.1143  -2
   0  -2   9 1615.06 36.1143   1
   0  -2   8 249.204 18.4269   1
   0   2  -7 2028.10 16.0661   1
  -5   2  -2 5887.16 36.3216  -3
   0   2  -7 5887.16 36.3216  -2
   0   2  -7 5887.16 36.3216   1
   0  -2   6 8219.15 15.3157   1
   0   2  -5 826.413 15.6017   1
   4  -1   2 1545.30 13.3943  -3
   0  -2   5 1545.30 13.3943  -2
   0  -2   5 1545.30 13.3943   1
   0  -2   4 92.6855 4.69532   1
   0  -2   3 6633.69 13.0686   1
  -3   0  -2 14551.6 48.1193  -3
   0   2  -3 14551.6 48.1193  -2
   0   2  -3 14551.6 48.1193   1
   0   2  -2 178.114 3.31729   1
   0  -2   2 285.343 9.07722  -2
   0  -2   2 285.343 9.07722   1
  -2   0  -2 2747.71 9.31441  -3
   0   2  -2 2747.71 9.31441  -2
   0   2  -2 2747.71 9.31441   1
   0  -2   1 400.753 5.99718   1
   0   2  -1 564.713 4.51893  -2
   0   2  -1 564.713 4.51893   1
  -2  -1  -2 747.560 17.3852  -3
   0   2  -1 747.560 17.3852  -2
   0   2  -1 747.560 17.3852   1
   1   1   2 72224.8 29.0530  -3
   0  -2   0 72224.8 29.0530  -2
   0  -2   0 72224.8 29.0530   1
   0   2   1 5578.61 8.76730   1
   0   2   1 7647.76 15.4089  -2
   0   2   1 7647.76 15.4089   1
   1   2   2 11796.4 22.9095  -3
   0  -2  -1 11796.4 22.9095  -2
   0  -2  -1 11796.4 22.9095   1
   0   2   2 12764.1 15.3878  -3
   0  -2  -2 12764.1 15.3878  -2
   0  -2  -2 12764.1 15.3878   1
   0  -2  -3 5048.33 8.71483   1
   0   2   3 7939.14 25.2716  -2
   0   2   3 7939.14 25.2716   1
  -1   3   2 700.364 6.42770  -3
   0  -2  -4 700.364 6.42770  -2
   0  -2  -4 700.364 6.42770   1
   0  -2  -5 266.922 4.48550   1
   0   2   6 7477.18 43.8727   1
   2  -4  -2 8501.48 37.2111  -3
   0   2   6 8501.48 37.2111   1
  -2   4   2 12136.1 15.6985  -3
   0  -2  -6 12136.1 15.6985  -2
   0  -2  -6 12136.1 15.6985   1
   0  -2  -7 2840.42 17.2129   1
   3  -4  -2 5657.50 18.5101  -3
   0   2   7 5657.50 18.5101  -2
   0   2   7 5657.50 18.5101   1
   0  -2  -8 4130.19 18.8927   1
  -3   5   2 9345.35 28.0174  -3
   0  -2  -8 9345.35 28.0174  -2
   0  -2  -8 9345.35 28.0174   1
   0  -2  -9 343.683 17.9710   1
   4  -5  -2 572.151 25.4818  -3
   0   2   9 572.151 25.4818  -2
   0   2   9 572.151 25.4818   1
   0   2  10 209.906 15.8911   1
   0  -2 -11 110.486 21.7306   1
   5  -6  -2 497.595 55.8210  -3
   1   2  11 497.595 55.8210  -2
   0   2  11 497.595 55.8210   1
   5  -7  -2 1763.16 43.6483  -3
   1   3  12 1763.16 43.6483  -2
   0   2  12 1763.16 43.6483   1
  -6   7   2 591.140 81.8795  -3
  -1  -3 -13 591.140 81.8795  -2
   0  -2 -13 591.140 81.8795   1
   8  -4   3 745.875 92.6021  -3
   1  -2  12 745.875 92.6021  -2
   0  -3  12 745.875 92.6021   1
   0   3 -11 1327.94 30.6372   1
   7  -3   3 112.378 40.3877  -3
   0  -3  10 112.378 40.3877  -2
   0  -3  10 112.378 40.3877   1
   0   3  -9-3.98074 20.3263   1
  -6   2  -3 208.196 28.9902  -3
   0   3  -8 208.196 28.9902  -2
   0   3  -8 208.196 28.9902   1
   0   3  -7 4144.82 18.5384   1
   0   3  -6 2178.55 17.9418   1
   5  -1   3 5706.86 31.1633  -3
   0  -3   6 5706.86 31.1633  -2
   0  -3   6 5706.86 31.1633   1
   0   3  -5 8792.39 13.2366   1
   0   3  -4 12.8686 3.09241   1
   4   0   3 205.496 11.1124  -3
   0  -3   4 205.496 11.1124  -2
   0  -3   4 205.496 11.1124   1
   0  -3   3 1280.41 5.54953   1
   0  -3   3 1935.52 16.0062  -2
   0  -3   3 1935.52 16.0062   1
  -3   0  -3 2161.58 15.1235  -3
   0   3  -3 2161.58 15.1235  -2
   0   3  -3 2161.58 15.1235   1
   0  -3   2 846.267 6.17903   1
   0   3  -2 1222.34 8.83873  -2
   0   3  -2 1222.34 8.83873   1
  -3  -1  -3 1681.08 27.3868  -3
   0   3  -2 1681.08 27.3868  -2
   0   3  -2 1681.08 27.3868   1
   0  -3   1 5140.58 11.1469   1
   0  -3   1 7104.90 23.5909  -2
   0  -3   1 7104.90 23.5909   1
  -2  -1  -3 15191.5 14.5936  -3
   0   3  -1 15191.5 14.5936  -2
   0   3  -1 15191.5 14.5936   1
   0  -3   0 5882.59 20.0518   1
   0   3   0 10668.3 18.3186  -2
   0   3   0 10668.3 18.3186   1
  -2  -2  -3 13211.2 16.9845  -3
   0   3   0 13211.2 16.9845  -2
   0   3   0 13211.2 16.9845   1
   0   3   1 30239.3 35.3584   1
  -1  -2  -3 62835.8 23.5622  -3
   0   3   1 62835.8 23.5622  -2
   0   3   1 62835.8 23.5622   1
   0  -3  -2 188.135 5.04697   1
   0  -3  -2 256.825 7.08554  -2
   0  -3  -2 256.825 7.08554   1
   1   3   3 2325.74 17.1968  -3
   0  -3  -2 2325.74 17.1968  -2
   0  -3  -2 2325.74 17.1968   1
   0   3   3 3682.66 9.12352  -3
   0  -3  -3 3682.66 9.12352  -2
   0  -3  -3 3682.66 9.12352   1
   0  -3  -4 2535.91 6.78093   1
  -1   4   3 2377.75 9.95064  -3
   0  -3  -5 2377.75 9.95064  -2
   0  -3  -5 2377.75 9.95064   1
   0  -3  -6 509.000 7.83235   1
   2  -4  -3 1594.90 15.8443  -3
   0   3   6 1594.90 15.8443  -2
   0   3   6 1594.90 15.8443   1
   2  -5  -3 10159.0 34.5108  -3
   0   3   7 10159.0 34.5108   1
  -2   5   3 14026.2 26.1602  -3
   0  -3  -7 14026.2 26.1602  -2
   0  -3  -7 14026.2 26.1602   1
   0  -3  -8 674.285 18.6058   1
  -3   5   3 1242.77 19.4607  -3
   0  -3  -8 1242.77 19.4607  -2
   0  -3  -8 1242.77 19.4607   1
   0   3   9 729.844 29.1799   1
  -3   6   3 3094.96 44.0657  -3
   0  -3  -9 3094.96 44.0657   1
   3  -6  -3 3638.78 29.9263  -3
   0   3   9 3638.78 29.9263  -2
   0   3   9 3638.78 29.9263   1
   0   3  10 416.821 20.0205   1
   4  -6  -3 776.288 34.5788  -3
   0   3  10 776.288 34.5788  -2
   0   3  10 776.288 34.5788   1
   0   3  11 34.3493 22.4214   1
  -4   7   3 223.770 55.3112  -3
  -1  -3 -11 223.770 55.3112  -2
   0  -3 -11 223.770 55.3112   1
   0  -3 -12 49.4234 32.2778   1
   5  -7  -3 241.580 70.0065  -3
   1   4  12 241.580 70.0065  -2
   0   3  12 241.580 70.0065   1
  -5   8   3 678.425 67.1215  -3
  -1  -4 -13 678.425 67.1215  -2
   0  -3 -13 678.425 67.1215   1
  -8   3  -4 395.347 56.4149  -3
  -1   3 -11 395.347 56.4149  -2
   0   4 -11 395.347 56.4149   1
   0  -4  10 373.296 26.7077   1
  -7   2  -4 845.978 37.6208  -3
   0   4  -9 845.978 37.6208  -2
   0   4  -9 845.978 37.6208   1
   0  -4   8 17.6225 18.8225   1
   6  -1   4 607.139 28.2012  -3
   0  -4   7 607.139 28.2012  -2
   0  -4   7 607.139 28.2012   1
   0  -4   6 4189.33 20.4597   1
   0   4  -5 1171.41 13.8292   1
  -5   0  -4 2859.56 21.4961  -3
   0   4  -5 2859.56 21.4961  -2
   0   4  -5 2859.56 21.4961   1
   0  -4   4 2318.21 9.53667   1
   0  -4   3 173.508 5.51004   1
  -4  -1  -4 532.951 15.0436  -3
   0   4  -3 532.951 15.0436  -2
   0   4  -3 532.951 15.0436   1
   0  -4   2 81.7615 5.24918   1
   0   4  -2 80.7282 11.7242  -2
   0   4  -2 80.7282 11.7242   1
  -3  -1  -4 2027.54 21.8706  -3
   0   4  -2 2027.54 21.8706  -2
   0   4  -2 2027.54 21.8706   1
   0  -4   1 300.157 5.81356   1
   0   4  -1 421.489 8.48686  -2
   0   4  -1 421.489 8.48686   1
   3   2   4 604.240 13.8383  -3
   0  -4   1 604.240 13.8383  -2
   0  -4   1 604.240 13.8383   1
   0  -4   0 11911.7 28.8843   1
  -2  -2  -4 31427.2 22.3421  -3
   0   4   0 31427.2 22.3421  -2
   0   4   0 31427.2 22.3421   1
   0  -4  -1 5015.56 11.1532   1
   0   4   1 7999.94 20.5367  -2
   0   4   1 7999.94 20.5367   1
   2   3   4 9237.18 21.1661  -3
   0  -4  -1 9237.18 21.1661  -2
   0  -4  -1 9237.18 21.1661   1
   0  -4  -2 6708.19 16.3642   1
  -1  -3  -4 9509.86 19.1203  -3
   0   4   2 9509.86 19.1203   1
  -1  -3  -4 13921.3 15.1784  -3
   0   4   2 13921.3 15.1784  -2
   0   4   2 13921.3 15.1784   1
   0  -4  -3 82.2036 5.16342   1
  -1  -4  -4 861.139 14.9323  -3
   0   4   3 861.139 14.9323  -2
   0   4   3 861.139 14.9323   1
   0   4   4 43.2462 7.99136  -3
   0  -4  -4 43.2462 7.99136  -2
   0  -4  -4 43.2462 7.99136   1
   0   4   5 141.030 6.02647   1
   1  -5  -4 4750.70 15.4793  -3
   0   4   6 4750.70 15.4793  -2
   0   4   6 4750.70 15.4793   1
   0  -4  -7 1563.74 15.1931   1
   2  -5  -4 3444.08 23.5341  -3
   0   4   7 3444.08 23.5341  -2
   0   4   7 3444.08 23.5341   1
  -2   6   4 10929.0 58.2123  -3
   0  -4  -8 10929.0 58.2123   1
   2  -6  -4 14983.8 31.9658  -3
   0   4   8 14983.8 31.9658  -2
   0   4   8 14983.8 31.9658   1
   0  -4  -9 190.373 21.8147   1
   3  -6  -4 379.068 27.0207  -3
   0   4   9 379.068 27.0207  -2
   0   4   9 379.068 27.0207   1
  -3   7   4 1109.10 33.2842  -3
   0  -4 -10 1109.10 33.2842   1
   3  -7  -4 1338.23 33.0536  -3
   0   4  10 1338.23 33.0536  -2
   0   4  10 1338.23 33.0536   1
   0   4  11 510.286 22.8600   1
   0  -4 -12 158.122 58.2324   1
   4  -8  -4 267.218 49.2121  -3
   1   5  12 267.218 49.2121  -2
   0   4  12 267.218 49.2121   1
   0   4  13 66.4593 51.9044   1
   5  -8  -4 51.0267 120.455  -3
   1   5  13 51.0267 120.455  -2
   0   4  13 51.0267 120.455   1
  -8   2  -5 150.002 38.9017  -3
   0   5 -10 150.002 38.9017   1
   0   5  -9 13.2693 24.6004   1
   7  -1   5 499.060 35.3416  -3
   0  -5   8 499.060 35.3416  -2
   0  -5   8 499.060 35.3416   1
   0  -5   7 1039.99 20.0949   1
   6   0   5 3199.55 30.4994  -3
   0  -5   6 3199.55 30.4994  -2
   0  -5   6 3199.55 30.4994   1
   0  -5   5 3334.35 17.6416   1
  -5  -1  -5 261.816 16.1447  -3
   0   5  -4 261.816 16.1447   1
   5   1   5 338.679 16.8847  -3
   0  -5   4 338.679 16.8847  -2
   0  -5   4 338.679 16.8847   1
   0   5  -3 161.429 6.14672   1
  -4  -1  -5 312.008 39.4968  -3
   0   5  -3 312.008 39.4968  -2
   0   5  -3 312.008 39.4968   1
   0   5  -2 1512.22 7.70781   1
   4   2   5 2868.26 20.8738  -3
   0  -5   2 2868.26 20.8738  -2
   0  -5   2 2868.26 20.8738   1
   0  -5   1 577.000 6.70861   1
   3   2   5 5277.80 17.7219  -3
   0  -5   1 5277.80 17.7219  -2
   0  -5   1 5277.80 17.7219   1
   0  -5   0 758.270 11.0077   1
   3   3   5 2328.36 12.4728  -3
   0  -5   0 2328.36 12.4728  -2
   0  -5   0 2328.36 12.4728   1
   0  -5  -1 8032.79 20.1708   1
   2   3   5 18551.7 19.9505  -3
   0  -5  -1 18551.7 19.9505  -2
   0  -5  -1 18551.7 19.9505   1
   0  -5  -2 1190.20 7.89455   1
  -2  -4  -5 3376.86 16.5816  -3
   0   5   2 3376.86 16.5816  -2
   0   5   2 3376.86 16.5816   1
   0  -5  -3 2808.95 16.8139   1
   1   4   5 5605.17 12.0532  -3
   0  -5  -3 5605.17 12.0532  -2
   0  -5  -3 5605.17 12.0532   1
   0  -5  -4 289.449 6.20906   1
   0   5   5 4521.29 15.6011  -3
   0  -5  -5 4521.29 15.6011  -2
   0  -5  -5 4521.29 15.6011   1
   0  -5  -6 16.8086 8.36770   1
  -1   6   5 11515.9 26.1148  -3
   0  -5  -7 11515.9 26.1148  -2
   0  -5  -7 11515.9 26.1148   1
   0  -5  -8 1440.37 30.5875   1
   2  -6  -5 2983.18 25.5694  -3
   0   5   8 2983.18 25.5694  -2
   0   5   8 2983.18 25.5694   1
  -2   7   5 3466.29 49.4595  -3
   0  -5  -9 3466.29 49.4595   1
   2  -7  -5 4642.29 31.1832  -3
   0   5   9 4642.29 31.1832  -2
   0   5   9 4642.29 31.1832   1
   0  -5 -10 122.933 38.6162   1
  -3   7   5 222.755 29.1910  -3
   0  -5 -10 222.755 29.1910  -2
   0  -5 -10 222.755 29.1910   1
   3  -8  -5 236.843 70.4748  -3
   0   5  11 236.843 70.4748   1
  -3   8   5 242.541 43.0849  -3
  -1  -5 -11 242.541 43.0849  -2
   0  -5 -11 242.541 43.0849   1
   0  -5 -12 63.1524 27.5556   1
   0  -6  10 1193.35 75.7325   1
   0  -6   9 66.6555 58.9665   1
  -8   1  -6 108.235 53.8388  -3
   0   6  -9 108.235 53.8388  -2
   0   6  -9 108.235 53.8388   1
   0  -6   8 19.1935 23.9287   1
   7   0   6 413.855 35.0396  -3
   0  -6   7 413.855 35.0396  -2
   0  -6   7 413.855 35.0396   1
   0  -6   6 2149.74 18.5001   1
   6   1   6 1872.68 38.3025  -3
   0  -6   5 1872.68 38.3025   1
  -6  -1  -6 2210.59 29.0980  -3
   0   6  -5 2210.59 29.0980  -2
   0   6  -5 2210.59 29.0980   1
   0  -6   4 2580.22 11.6172   1
   5   2   6 869.097 23.9316  -3
   0  -6   3 869.097 23.9316   1
  -5  -2  -6 1188.17 14.9923  -3
   0   6  -3 1188.17 14.9923  -2
   0   6  -3 1188.17 14.9923   1
   0  -6   2 197.201 5.51561   1
   0  -6   1 739.047 8.59131   1
   4   3   6 835.615 14.0226  -3
   0  -6   1 835.615 14.0226   1
   4   3   6 1436.09 19.4553  -3
   0  -6   1 1436.09 19.4553  -2
   0  -6   1 1436.09 19.4553   1
   0  -6   0 2732.62 30.3864   1
  -3  -3  -6 8030.62 20.4282  -3
   0   6   0 8030.62 20.4282  -2
   0   6   0 8030.62 20.4282   1
   0  -6  -1 1902.38 16.3047   1
  -3  -4  -6 3904.12 18.6417  -3
   0   6   1 3904.12 18.6417  -2
   0   6   1 3904.12 18.6417   1
   0  -6  -2 7432.78 15.1347   1
  -2  -4  -6 13702.8 31.1641  -3
   0   6   2 13702.8 31.1641  -2
   0   6   2 13702.8 31.1641   1
   0   6   3 28.6812 2.96594   1
  -2  -5  -6 445.414 39.5336  -3
   0   6   3 445.414 39.5336  -2
   0   6   3 445.414 39.5336   1
   0  -6  -4 15.1244 14.4366   1
   1   5   6 40.6133 11.8678  -3
   0  -6  -4 40.6133 11.8678  -2
   0  -6  -4 40.6133 11.8678   1
   0  -6  -5 2440.06 11.4879   1
   0  -6  -6 8.34406 17.5544  -3
   0   6   6 8.34406 17.5544  -2
   0   6   6 8.34406 17.5544   1
   0  -6  -7 825.875 14.2711   1
  -1   7   6 10649.9 35.0777  -3
   0  -6  -8 10649.9 35.0777  -2
   0  -6  -8 10649.9 35.0777   1
   0  -6  -9 837.926 35.6203   1
   2  -7  -6 1526.46 29.2205  -3
   0   6   9 1526.46 29.2205  -2
   0   6   9 1526.46 29.2205   1
  -2   8   6 810.961 32.7758  -3
   0  -6 -10 810.961 32.7758  -2
   0  -6 -10 810.961 32.7758   1
   0   6  11 584.711 22.6002   1
  -3   9   6 20.3878 76.8569  -3
  -1  -7 -12 20.3878 76.8569  -2
   0  -6 -12 20.3878 76.8569   1
  -8   0  -7 235.479 53.2726  -3
   0   7  -8 235.479 53.2726  -2
   0   7  -8 235.479 53.2726   1
   0  -7   7 324.615 33.7210   1
  -8  -1  -7 679.765 89.6659  -3
   0   7  -7 679.765 89.6659  -2
   0   7  -7 679.765 89.6659   1
   7   1   7 978.736 54.7734  -3
   0  -7   6 978.736 54.7734   1
   7   1   7 705.434 41.5359  -3
   0  -7   6 705.434 41.5359  -2
   0  -7   6 705.434 41.5359   1
   0   7  -5 2721.55 24.1432   1
  -6  -2  -7 713.794 29.0617  -3
   0   7  -4 713.794 29.0617  -2
   0   7  -4 713.794 29.0617   1
   0   7  -3 1262.20 12.0300   1
   5   3   7 37.1999 22.7746  -3
   0  -7   2 37.1999 22.7746   1
  -5  -3  -7 42.4175 20.7426  -3
   0   7  -2 42.4175 20.7426  -2
   0   7  -2 42.4175 20.7426   1
   0  -7   1-0.87616 4.95120   1
   0  -7   0-8.91025 23.0622   1
  -4  -4  -7 65.8540 22.9253  -3
   0   7   0 65.8540 22.9253  -2
   0   7   0 65.8540 22.9253   1
   0  -7  -1 3727.59 23.9593   1
  -3  -4  -7 7471.43 26.9321  -3
   0   7   1 7471.43 26.9321  -2
   0   7   1 7471.43 26.9321   1
   0  -7  -2 29.0419 27.7441   1
  -3  -5  -7 3979.03 32.7571  -3
   0   7   2 3979.03 32.7571  -2
   0   7   2 3979.03 32.7571   1
   0   7   3 2695.28 21.5774   1
   2   5   7 5149.86 21.8139  -3
   0  -7  -3 5149.86 21.8139  -2
   0  -7  -3 5149.86 21.8139   1
   0  -7  -4 36.8386 3.34837   1
   1   6   7 328.997 16.9166  -3
   0  -7  -5 328.997 16.9166  -2
   0  -7  -5 328.997 16.9166   1
   0  -7  -6 28.8779 11.7557   1
   0  -7  -7 4767.58 27.3505  -3
   0   7   7 4767.58 27.3505  -2
   0   7   7 4767.58 27.3505   1
   0  -7  -8 813.326 20.0573   1
  -1   8   7 4328.60 51.2365  -3
   0  -7  -9 4328.60 51.2365  -2
   0  -7  -9 4328.60 51.2365   1
  -2   8   7 214.664 39.2690  -3
   0  -7 -10 214.664 39.2690  -2
   0  -7 -10 214.664 39.2690   1
  -2   9   7 89.5586 35.9080  -3
   0  -7 -11 89.5586 35.9080   1
   0  -7 -12 25.0593 64.9615   1
   8   1   8 316.325 54.6460  -3
   0  -8   7 316.325 54.6460  -2
   0  -8   7 316.325 54.6460   1
   0   8  -6 469.427 33.0128   1
  -7  -2  -8 1163.54 49.8973  -3
   0   8  -5 1163.54 49.8973  -2
   0   8  -5 1163.54 49.8973   1
   0  -8   4 1803.89 26.9921   1
  -6  -3  -8 717.639 33.3749  -3
   0   8  -3 717.639 33.3749  -2
   0   8  -3 717.639 33.3749   1
   0   8  -2 243.021 18.5475   1
  -5  -4  -8 1154.17 26.1539  -3
   0   8  -1 1154.17 26.1539  -2
   0   8  -1 1154.17 26.1539   1
   0  -8   0 868.961 20.9778   1
   4   4   8 2788.75 41.0018  -3
   0  -8   0 2788.75 41.0018  -2
   0  -8   0 2788.75 41.0018   1
   0  -8  -1 925.305 30.1233   1
  -4  -5  -8 2616.03 28.3104  -3
   0   8   1 2616.03 28.3104  -2
   0   8   1 2616.03 28.3104   1
   0   8   2 6879.35 24.5415   1
   3   5   8 12663.3 86.1951  -3
   0  -8  -2 12663.3 86.1951  -2
   0  -8  -2 12663.3 86.1951   1
   0  -8  -3 925.270 18.3623   1
  -3  -6  -8 2175.32 46.0029  -3
   0   8   3 2175.32 46.0029  -2
   0   8   3 2175.32 46.0029   1
  -2  -6  -8 689.458 23.7466  -3
   0   8   4 689.458 23.7466  -2
   0   8   4 689.458 23.7466   1
   0   8   5 239.026 16.1082   1
   0  -8  -6 215.815 33.8037   1
  -1  -7  -8 689.478 29.8557  -3
   0   8   6 689.478 29.8557  -2
   0   8   6 689.478 29.8557   1
   0  -8  -7 150.544 17.1140   1
   0  -8  -8 8229.64 49.6382  -3
   0   8   8 8229.64 49.6382  -2
   0   8   8 8229.64 49.6382   1
   0  -8  -9 797.549 27.0505   1
   1  -9  -8 1618.07 73.9203  -3
   0   8  10 1618.07 73.9203  -2
   0   8  10 1618.07 73.9203   1
   0   8  11 73.2631 48.6247   1
   0  -9   6 39.9710 70.7205   1
  -8  -2  -9 152.021 115.748  -3
   0   9  -6 152.021 115.748  -2
   0   9  -6 152.021 115.748   1
   0  -9   5 1025.79 32.6562   1
   7   3   9 724.419 55.1222  -3
   0  -9   4 724.419 55.1222  -2
   0  -9   4 724.419 55.1222   1
   0   9  -3 872.471 31.9300   1
   6   4   9 445.720 37.4477  -3
   0  -9   2 445.720 37.4477  -2
   0  -9   2 445.720 37.4477   1
   0   9  -1 39.8569 29.4411   1
   0  -9   1 15.4191 49.2080  -2
   0  -9   1 15.4191 49.2080   1
  -5  -5  -9 254.072 27.4446  -3
   0   9   0 254.072 27.4446  -2
   0   9   0 254.072 27.4446   1
   0   9   1 1272.52 21.4918   1
   4   5   9 3053.96 54.8654  -3
   0  -9  -1 3053.96 54.8654  -2
   0  -9  -1 3053.96 54.8654   1
   4   6   9 2889.67 30.0048  -3
   0  -9  -2 2889.67 30.0048  -2
   0  -9  -2 2889.67 30.0048   1
   0   9   3 1692.51 20.6903   1
   3   6   9 2850.11 80.1761  -3
   0  -9  -3 2850.11 80.1761  -2
   0  -9  -3 2850.11 80.1761   1
   0  -9  -4 4.77931 21.8476   1
  -3  -7  -9 0.92492 44.2775  -3
   0   9   4 0.92492 44.2775  -2
   0   9   4 0.92492 44.2775   1
   2   7   9 37.6839 28.9851  -3
   0  -9  -5 37.6839 28.9851  -2
   0  -9  -5 37.6839 28.9851   1
   0  -9  -6 455.712 23.1273   1
  -2  -8  -9 1224.53 91.1825  -3
   0   9   6 1224.53 91.1825  -2
   0   9   6 1224.53 91.1825   1
   0  -9  -7 268.660 42.7710   1
   1   8   9 933.629 37.5308  -3
   0  -9  -7 933.629 37.5308  -2
   0  -9  -7 933.629 37.5308   1
   0  -9  -8 771.682 29.8175   1
   0   9   9 3700.18 66.4876  -3
   0  -9  -9 3700.18 66.4876  -2
   0  -9  -9 3700.18 66.4876   1
   0  -9 -10 199.797 72.7373   1
   0  10  -4 1073.88 50.4867   1
   7   4  10 552.348 60.7995  -3
   0 -10   3 552.348 60.7995  -2
   0 -10   3 552.348 60.7995   1
   0 -10   2 532.371 40.4080   1
   6   5  10 96.6525 38.7772  -3
   0 -10   1 96.6525 38.7772  -2
   0 -10   1 96.6525 38.7772   1
   0 -10   0-2.93628 24.4707   1
   0 -10   0-28.6806 67.7847  -2
   0 -10   0-28.6806 67.7847   1
  -5  -6 -10 306.946 36.7791  -3
   0  10   1 306.946 36.7791  -2
   0  10   1 306.946 36.7791   1
   0 -10  -2 1433.14 25.5553   1
   4   6  10 2856.80 66.7567  -3
   0 -10  -2 2856.80 66.7567  -2
   0 -10  -2 2856.80 66.7567   1
   4   7  10 1354.71 40.3483  -3
   0 -10  -3 1354.71 40.3483  -2
   0 -10  -3 1354.71 40.3483   1
   0 -10  -4 605.177 27.4425   1
   3   7  10 969.233 94.4285  -3
   0 -10  -4 969.233 94.4285  -2
   0 -10  -4 969.233 94.4285   1
   0 -10  -5 44.5729 48.8982   1
   3   8  10 205.429 47.5761  -3
   0 -10  -5 205.429 47.5761  -2
   0 -10  -5 205.429 47.5761   1
   2   8  10 81.5842 56.6574  -3
   0 -10  -6 81.5842 56.6574  -2
   0 -10  -6 81.5842 56.6574   1
   0 -10  -7 30.0866 44.6038   1
  -2  -9 -10-49.7403 106.491  -3
   0  10   7-49.7403 106.491  -2
   0  10   7-49.7403 106.491   1
   1   9  10 2908.43 115.185  -3
   0 -10  -8 2908.43 115.185  -2
   0 -10  -8 2908.43 115.185   1
   0 -11   1 16.2007 66.1436   1
  -6  -6 -11 105.379 61.9525  -3
   0  11   0 105.379 61.9525  -2
   0  11   0 105.379 61.9525   1
   0 -11  -1 636.877 38.2930   1
   0 -11  -1 849.908 89.2603  -2
   0 -11  -1 849.908 89.2603   1
   5   7  11 2022.21 55.9189  -3
   0 -11  -2 2022.21 55.9189  -2
   0 -11  -2 2022.21 55.9189   1
   0 -11  -3 2484.63 41.5919   1
   4   7  11 3890.16 117.596  -3
   0 -11  -3 3890.16 117.596  -2
   0 -11  -3 3890.16 117.596   1
   4   8  11 63.1250 54.3558  -3
   0 -11  -4 63.1250 54.3558  -2
   0 -11  -4 63.1250 54.3558   1
   0  11   5 59.9359 39.3411   1
  -3  -8 -12 136.039 125.839  -3
  -1  11   5 136.039 125.839  -2
  -1  11   5 136.039 125.839   1
   4   7  12 437.558 114.991  -3
   1 -11  -3 437.558 114.991  -2
   1 -11  -3 437.558 114.991   1
  -1  11   2 1249.33 49.1358   1
   1 -11  -2 1748.53 95.6661  -2
   1 -11  -2 1748.53 95.6661   1
   5   6  12 1265.61 67.6984  -3
   1 -11  -1 1265.61 67.6984  -2
   1 -11  -1 1265.61 67.6984   1
   1 -11   0 809.113 78.3250   1
  -1  -8 -11 2956.87 122.517  -3
  -1  10   7 2956.87 122.517  -2
  -1  10   7 2956.87 122.517   1
   2   8  11 977.667 64.5998  -3
   1 -10  -6 977.667 64.5998  -2
   1 -10  -6 977.667 64.5998   1
   1 -10  -5 163.637 61.8841   1
  -2  -7 -11 840.324 57.9458  -3
  -1  10   5 840.324 57.9458  -2
  -1  10   5 840.324 57.9458   1
   3   7  11 296.287 48.9665  -3
   1 -10  -4 296.287 48.9665  -2
   1 -10  -4 296.287 48.9665   1
   1 -10  -3 66.3898 30.9146   1
   3   6  11 40.7714 68.1189  -3
   1 -10  -3 40.7714 68.1189  -2
   1 -10  -3 40.7714 68.1189   1
   4   6  11 143.532 47.1126  -3
   1 -10  -2 143.532 47.1126  -2
   1 -10  -2 143.532 47.1126   1
   1 -10  -1 1377.10 42.2215   1
   1 -10  -1 1920.79 59.0714  -2
   1 -10  -1 1920.79 59.0714   1
   5   5  11 662.154 54.9451  -3
   1 -10   0 662.154 54.9451  -2
   1 -10   0 662.154 54.9451   1
   6   5  11 1215.76 75.2657  -3
   1 -10   1 1215.76 75.2657  -2
   1 -10   1 1215.76 75.2657   1
   6   4  11 64.7454 74.1703  -3
   1 -10   2 64.7454 74.1703  -2
   1 -10   2 64.7454 74.1703   1
   1 -10   3-18.8294 64.2578   1
   0  -8 -10 2243.78 53.4565  -3
  -1   9   8 2243.78 53.4565  -2
  -1   9   8 2243.78 53.4565   1
   1  -9  -7 392.713 40.8697   1
  -1  -8 -10 813.835 69.9587  -3
  -1   9   7 813.835 69.9587  -2
  -1   9   7 813.835 69.9587   1
  -1  -7 -10 3001.60 56.4486  -3
  -1   9   6 3001.60 56.4486  -2
  -1   9   6 3001.60 56.4486   1
   1  -9  -5-2.38834 40.8825   1
   2   7  10 58.1473 42.0537  -3
   1  -9  -5 58.1473 42.0537  -2
   1  -9  -5 58.1473 42.0537   1
   1  -9  -4 27.5819 31.8961   1
   2   6  10 398.604 46.1321  -3
   1  -9  -4 398.604 46.1321  -2
   1  -9  -4 398.604 46.1321   1
   3   6  10 466.275 33.9086  -3
   1  -9  -3 466.275 33.9086  -2
   1  -9  -3 466.275 33.9086   1
   1  -9  -2 953.730 33.5530   1
  -3  -5 -10 1331.42 52.1377  -3
  -1   9   2 1331.42 52.1377  -2
  -1   9   2 1331.42 52.1377   1
   4   5  10 1020.53 34.2762  -3
   1  -9  -1 1020.53 34.2762  -2
   1  -9  -1 1020.53 34.2762   1
  -1   9   0 2284.31 50.9766   1
   1  -9   0 2800.63 36.0906  -2
   1  -9   0 2800.63 36.0906   1
  -5  -4 -10 749.483 36.8667  -3
  -1   9  -1 749.483 36.8667  -2
  -1   9  -1 749.483 36.8667   1
   1  -9   2 127.304 50.1850   1
   1  -9   2 147.853 44.7069  -2
   1  -9   2 147.853 44.7069   1
  -6  -3 -10 274.193 50.5888  -3
  -1   9  -3 274.193 50.5888  -2
  -1   9  -3 274.193 50.5888   1
  -1   9  -4 233.735 43.8183   1
   7   3  10 379.340 71.4637  -3
   1  -9   4 379.340 71.4637  -2
   1  -9   4 379.340 71.4637   1
   1  -8 -10 47.4823 45.3046   1
   1  -8  -9 525.824 49.7788  -3
  -1   8   9 525.824 49.7788  -2
  -1   8   9 525.824 49.7788   1
  -1   8   8 175.396 26.8956   1
   0   7   9 4912.19 46.3158  -3
   1  -8  -7 4912.19 46.3158  -2
   1  -8  -7 4912.19 46.3158   1
   1  -8  -6 1331.88 19.7478   1
  -1  -7  -9 2277.12 82.6979  -3
  -1   8   6 2277.12 82.6979  -2
  -1   8   6 2277.12 82.6979   1
  -1  -6  -9 3720.44 31.1683  -3
  -1   8   5 3720.44 31.1683  -2
  -1   8   5 3720.44 31.1683   1
   1  -8  -4 301.578 22.1546   1
  -2  -6  -9 762.604 34.4907  -3
  -1   8   4 762.604 34.4907  -2
  -1   8   4 762.604 34.4907   1
   1  -8  -3 56.7810 20.9206   1
   2   5   9 346.463 32.1338  -3
   1  -8  -3 346.463 32.1338  -2
   1  -8  -3 346.463 32.1338   1
   3   5   9 99.3807 23.2026  -3
   1  -8  -2 99.3807 23.2026  -2
   1  -8  -2 99.3807 23.2026   1
   1  -8  -1 2460.50 46.8244   1
   3   4   9 3160.70 29.8384  -3
   1  -8  -1 3160.70 29.8384  -2
   1  -8  -1 3160.70 29.8384   1
  -4  -4  -9 2242.46 27.3192  -3
  -1   8   0 2242.46 27.3192  -2
  -1   8   0 2242.46 27.3192   1
  -1   8  -1 1543.71 39.4162   1
   1  -8   1 2057.48 31.2633  -2
   1  -8   1 2057.48 31.2633   1
  -5  -3  -9 294.348 31.9825  -3
  -1   8  -2 294.348 31.9825  -2
  -1   8  -2 294.348 31.9825   1
  -1   8  -3-10.5085 32.0113   1
   1  -8   3-5.23649 40.7521  -2
   1  -8   3-5.23649 40.7521   1
   6   2   9 282.722 40.9925  -3
   1  -8   4 282.722 40.9925  -2
   1  -8   4 282.722 40.9925   1
  -1   8  -5 395.517 27.7674   1
   7   1   9 505.778 59.2965  -3
   1  -8   6 505.778 59.2965  -2
   1  -8   6 505.778 59.2965   1
   1  -8   7 904.929 69.2947   1
  -1   7  11 25.5836 44.2604   1
   2  -8  -8-3.54292 66.5057  -3
  -1   7  10-3.54292 66.5057  -2
  -1   7  10-3.54292 66.5057   1
   1  -7  -9 180.884 27.2825   1
   1  -7  -8 1128.52 34.1459  -3
  -1   7   8 1128.52 34.1459  -2
  -1   7   8 1128.52 34.1459   1
   1  -7  -7 593.713 16.0527   1
   0   6   8 10951.6 32.3399  -3
   1  -7  -6 10951.6 32.3399  -2
   1  -7  -6 10951.6 32.3399   1
   1  -7  -5 263.231 14.5211   1
   1   5   8 1044.32 21.2585  -3
   1  -7  -4 1044.32 21.2585  -2
   1  -7  -4 1044.32 21.2585   1
   1  -7  -3 257.576 8.67697   1
   2   5   8 834.011 28.6950  -3
   1  -7  -3 834.011 28.6950  -2
   1  -7  -3 834.011 28.6950   1
   1  -7  -2 654.088 32.8065   1
  -2  -4  -8 876.624 21.3091  -3
  -1   7   2 876.624 21.3091  -2
  -1   7   2 876.624 21.3091   1
  -3  -4  -8 1029.12 19.6826  -3
  -1   7   1 1029.12 19.6826  -2
  -1   7   1 1029.12 19.6826   1
   1  -7   0 3667.84 16.6942   1
   1  -7   0 7483.65 51.5848  -2
   1  -7   0 7483.65 51.5848   1
  -3  -3  -8 7671.54 25.4523  -3
  -1   7   0 7671.54 25.4523  -2
  -1   7   0 7671.54 25.4523   1
   4   3   8 2159.13 18.2833  -3
   1  -7   1 2159.13 18.2833  -2
   1  -7   1 2159.13 18.2833   1
   1  -7   2 1567.44 15.8389   1
   1  -7   2 2381.59 26.1169  -2
   1  -7   2 2381.59 26.1169   1
  -5  -2  -8 1207.17 23.6827  -3
  -1   7  -3 1207.17 23.6827  -2
  -1   7  -3 1207.17 23.6827   1
  -1   7  -4 38.6495 17.0638   1
  -6  -1  -8 205.145 37.3532  -3
  -1   7  -5 205.145 37.3532  -2
  -1   7  -5 205.145 37.3532   1
  -1   7  -6 2866.20 42.3268   1
  -7  -1  -8 4752.46 93.5819  -3
  -1   7  -6 4752.46 93.5819  -2
  -1   7  -6 4752.46 93.5819   1
  -7   0  -8 1435.15 54.8490  -3
  -1   7  -7 1435.15 54.8490  -2
  -1   7  -7 1435.15 54.8490   1
   1  -7   8 805.894 70.8691   1
  -8   0  -8 1537.65 109.672  -3
  -1   7  -8 1537.65 109.672  -2
  -1   7  -8 1537.65 109.672   1
  -3   8   7 999.204 43.9414  -3
   0  -6 -11 999.204 43.9414  -2
   1  -6 -11 999.204 43.9414   1
   3  -7  -7 152.407 31.1816  -3
  -1   6  10 152.407 31.1816  -2
  -1   6  10 152.407 31.1816   1
  -2   7   7 375.249 34.8318  -3
   1  -6  -9 375.249 34.8318  -2
   1  -6  -9 375.249 34.8318   1
  -1   6   8 28.6325 14.9098   1
   1  -6  -7 6528.00 25.9974  -3
  -1   6   7 6528.00 25.9974  -2
  -1   6   7 6528.00 25.9974   1
  -1   6   6 1338.17 12.4857   1
   0   5   7 10751.2 20.1556  -3
   1  -6  -5 10751.2 20.1556  -2
   1  -6  -5 10751.2 20.1556   1
  -1   6   4 30.6822 8.24402   1
  -1  -5  -7 165.427 31.6532  -3
  -1   6   4 165.427 31.6532  -2
  -1   6   4 165.427 31.6532   1
  -1   6   3 114.358 10.8823   1
   1   4   7 473.014 12.0673  -3
   1  -6  -3 473.014 12.0673  -2
   1  -6  -3 473.014 12.0673   1
   1  -6  -2 1128.64 16.3839  -2
   1  -6  -2 1128.64 16.3839   1
  -2  -4  -7 1891.62 15.0223  -3
  -1   6   2 1891.62 15.0223  -2
  -1   6   2 1891.62 15.0223   1
   1  -6  -1 2744.56 12.4620  -2
   1  -6  -1 2744.56 12.4620   1
   2   3   7 3611.56 16.6264  -3
   1  -6  -1 3611.56 16.6264  -2
   1  -6  -1 3611.56 16.6264   1
   1  -6   0 966.123 14.3209   1
  -3  -3  -7 2356.71 16.4382  -3
  -1   6   0 2356.71 16.4382  -2
  -1   6   0 2356.71 16.4382   1
   1  -6   1 7226.00 21.0158   1
   1  -6   1 12842.7 29.3723  -2
   1  -6   1 12842.7 29.3723   1
  -3  -2  -7 17467.0 33.7071  -3
  -1   6  -1 17467.0 33.7071  -2
  -1   6  -1 17467.0 33.7071   1
   4   2   7 3756.09 13.8956  -3
   1  -6   2 3756.09 13.8956  -2
   1  -6   2 3756.09 13.8956   1
  -1   6  -3 93.5509 7.80722   1
   1  -6   3 255.424 23.6252  -2
   1  -6   3 255.424 23.6252   1
   5   1   7 339.852 21.8717  -3
   1  -6   4 339.852 21.8717   1
   5   1   7 452.136 20.7921  -3
   1  -6   4 452.136 20.7921  -2
   1  -6   4 452.136 20.7921   1
   1  -6   5 564.050 18.8918   1
   6   0   7 940.828 35.6229  -3
   1  -6   6 940.828 35.6229  -2
   1  -6   6 940.828 35.6229   1
  -1   6  -7 2323.84 29.3422   1
  -7   0  -7 3695.76 88.1086  -3
  -1   6  -7 3695.76 88.1086  -2
  -1   6  -7 3695.76 88.1086   1
   1  -6   8 182.898 55.4545   1
   7  -1   7 557.580 47.8762  -3
   1  -6   8 557.580 47.8762  -2
   1  -6   8 557.580 47.8762   1
   1  -6   9 313.880 39.5068   1
  -8   1  -7 792.428 107.183  -3
  -1   6  -9 792.428 107.183  -2
  -1   6  -9 792.428 107.183   1
   4  -8  -6 2607.89 57.3407  -3
   0   6  12 2607.89 57.3407  -2
  -1   5  12 2607.89 57.3407   1
  -1   5  11 74.5706 21.6903   1
   3  -7  -6 742.790 32.2136  -3
  -1   5  10 742.790 32.2136  -2
  -1   5  10 742.790 32.2136   1
   1  -5  -9 468.378 35.8404   1
  -3   6   6 1052.05 34.9851  -3
   1  -5  -9 1052.05 34.9851  -2
   1  -5  -9 1052.05 34.9851   1
  -2   6   6 1220.04 36.0435  -3
   1  -5  -8 1220.04 36.0435   1
   2  -6  -6 1680.97 28.0341  -3
  -1   5   8 1680.97 28.0341  -2
  -1   5   8 1680.97 28.0341   1
  -1   5   7 42.9438 12.0588   1
   1  -5  -6 10536.9 20.9377  -3
  -1   5   6 10536.9 20.9377  -2
  -1   5   6 10536.9 20.9377   1
  -1   5   5 1415.80 8.64665   1
   0   4   6 3158.01 13.5794  -3
   1  -5  -4 3158.01 13.5794  -2
   1  -5  -4 3158.01 13.5794   1
   1  -5  -3 1638.25 9.92605   1
   1   4   6 3583.79 17.5015  -3
   1  -5  -3 3583.79 17.5015  -2
   1  -5  -3 3583.79 17.5015   1
  -1   5   2 36.2138 8.69664   1
   1  -5  -2 39.6275 15.3762  -2
   1  -5  -2 39.6275 15.3762   1
   1   3   6 52.5533 8.66910  -3
   1  -5  -2 52.5533 8.66910  -2
   1  -5  -2 52.5533 8.66910   1
   1  -5  -1 262.222 13.9004  -2
   1  -5  -1 262.222 13.9004   1
   2   3   6 420.262 10.8967  -3
   1  -5  -1 420.262 10.8967  -2
   1  -5  -1 420.262 10.8967   1
  -1   5   0 11798.4 22.1947  -2
  -1   5   0 11798.4 22.1947   1
   2   2   6 13163.3 18.3861  -3
   1  -5   0 13163.3 18.3861  -2
   1  -5   0 13163.3 18.3861   1
   1  -5   1 4784.42 23.9614  -2
   1  -5   1 4784.42 23.9614   1
   3   2   6 6038.43 12.4471  -3
   1  -5   1 6038.43 12.4471  -2
   1  -5   1 6038.43 12.4471   1
  -1   5  -2 1196.16 9.95321   1
   1  -5   2 2266.61 34.0379  -2
   1  -5   2 2266.61 34.0379   1
   3   1   6 4242.37 15.2586  -3
   1  -5   2 4242.37 15.2586  -2
   1  -5   2 4242.37 15.2586   1
  -1   5  -3 1810.57 12.4226   1
   4   1   6 3101.17 18.4155  -3
   1  -5   3 3101.17 18.4155   1
   4   1   6 4936.77 15.0962  -3
   1  -5   3 4936.77 15.0962  -2
   1  -5   3 4936.77 15.0962   1
   1  -5   4 73.7811 9.27983   1
   1  -5   4 112.795 28.6251  -2
   1  -5   4 112.795 28.6251   1
   5   0   6 478.621 22.8974  -3
   1  -5   5 478.621 22.8974   1
  -5   0  -6 619.488 27.0713  -3
  -1   5  -5 619.488 27.0713  -2
  -1   5  -5 619.488 27.0713   1
   1  -5   6 3691.97 22.6464   1
   6  -1   6 1644.73 34.0670  -3
   1  -5   7 1644.73 34.0670  -2
   1  -5   7 1644.73 34.0670   1
   1  -5   8 1601.92 33.7434   1
  -7   1  -6 2558.08 59.7105  -3
  -1   5  -8 2558.08 59.7105  -2
  -1   5  -8 2558.08 59.7105   1
   1  -5   9 37.3747 56.6900   1
  -7   2  -6 225.473 48.2053  -3
  -1   5  -9 225.473 48.2053  -2
  -1   5  -9 225.473 48.2053   1
   1  -5  10-14.3892 33.5412   1
   1  -4 -12 431.292 28.3270   1
   4  -7  -5 1993.51 74.2795  -3
  -1   4  11 1993.51 74.2795   1
   4  -7  -5 2082.11 45.9298  -3
   0   4  11 2082.11 45.9298  -2
  -1   4  11 2082.11 45.9298   1
  -1   4  10 31.9728 36.7683   1
   4  -6  -5 7.26234 33.3387  -3
  -1   4  10 7.26234 33.3387  -2
  -1   4  10 7.26234 33.3387   1
  -3   6   5 53.3451 34.9890  -3
   1  -4  -9 53.3451 34.9890   1
   3  -6  -5 85.3876 24.9652  -3
  -1   4   9 85.3876 24.9652  -2
  -1   4   9 85.3876 24.9652   1
   1  -4  -8 252.856 15.4748   1
   3  -5  -5 771.391 33.7499  -3
  -1   4   8 771.391 33.7499  -2
  -1   4   8 771.391 33.7499   1
  -2   5   5 2397.40 34.5658  -3
   1  -4  -7 2397.40 34.5658   1
  -2   5   5 3160.80 22.6314  -3
   1  -4  -7 3160.80 22.6314  -2
   1  -4  -7 3160.80 22.6314   1
  -1   4   6 3721.66 11.6954   1
   1  -4  -5 35865.6 27.9903  -3
  -1   4   5 35865.6 27.9903  -2
  -1   4   5 35865.6 27.9903   1
  -1   4   4 478.975 5.60134   1
   0  -4  -5 833.889 25.3943  -3
  -1   4   4 833.889 25.3943  -2
  -1   4   4 833.889 25.3943   1
   0  -3  -5 1661.97 8.79203  -3
  -1   4   3 1661.97 8.79203  -2
  -1   4   3 1661.97 8.79203   1
   1  -4  -2 8020.04 16.5942  -2
   1  -4  -2 8020.04 16.5942   1
  -1  -3  -5 10054.5 16.1604  -3
  -1   4   2 10054.5 16.1604  -2
  -1   4   2 10054.5 16.1604   1
  -1  -2  -5 2829.25 8.39820  -3
  -1   4   1 2829.25 8.39820  -2
  -1   4   1 2829.25 8.39820   1
  -1   4   0 1847.17 12.1411  -2
  -1   4   0 1847.17 12.1411   1
  -2  -2  -5 2678.03 10.9479  -3
  -1   4   0 2678.03 10.9479  -2
  -1   4   0 2678.03 10.9479   1
   1  -4   1 23042.3 24.5842  -2
   1  -4   1 23042.3 24.5842   1
   2   1   5 28561.2 22.5485  -3
   1  -4   1 28561.2 22.5485  -2
   1  -4   1 28561.2 22.5485   1
  -1   4  -2 1734.33 8.61521   1
   1  -4   2 3067.84 24.0298  -2
   1  -4   2 3067.84 24.0298   1
  -3  -1  -5 4506.40 10.2198  -3
  -1   4  -2 4506.40 10.2198  -2
  -1   4  -2 4506.40 10.2198   1
   1  -4   3 1091.41 14.3558   1
   1  -4   3 2977.95 26.7235  -2
   1  -4   3 2977.95 26.7235   1
   3   0   5 8632.28 30.3615  -3
   1  -4   3 8632.28 30.3615  -2
   1  -4   3 8632.28 30.3615   1
  -4   0  -5 1653.63 21.1382  -3
  -1   4  -4 1653.63 21.1382   1
   4   0   5 2383.85 14.6421  -3
   1  -4   4 2383.85 14.6421  -2
   1  -4   4 2383.85 14.6421   1
   1  -4   5 317.241 6.54604   1
  -5   1  -5 674.094 25.2046  -3
  -1   4  -6 674.094 25.2046  -2
  -1   4  -6 674.094 25.2046   1
  -1   4  -7 3413.75 22.7064   1
   6  -2   5 1244.94 34.6809  -3
   1  -4   8 1244.94 34.6809  -2
   1  -4   8 1244.94 34.6809   1
   1  -4   9 852.595 24.4138   1
   1  -4  10 333.450 60.7111   1
   7  -3   5 430.189 51.1448  -3
   1  -4  10 430.189 51.1448  -2
   1  -4  10 430.189 51.1448   1
  -1   4 -11-20.1763 44.4119   1
   6  -7  -4 101.620 126.172  -3
   0   4  13 101.620 126.172  -2
  -1   3  13 101.620 126.172   1
  -5   7   4 2552.76 46.5876  -3
   0  -4 -12 2552.76 46.5876  -2
   1  -3 -12 2552.76 46.5876   1
   1  -3 -11 588.528 23.3234   1
  -4   6   4 1367.79 31.4763  -3
   1  -3 -10 1367.79 31.4763   1
   4  -6  -4 2075.29 34.7919  -3
  -1   3  10 2075.29 34.7919  -2
  -1   3  10 2075.29 34.7919   1
   1  -3  -9 402.713 19.9047   1
  -4   5   4 879.247 29.0165  -3
   1  -3  -9 879.247 29.0165  -2
   1  -3  -9 879.247 29.0165   1
  -3   5   4 1115.05 31.6811  -3
   1  -3  -8 1115.05 31.6811   1
  -3   5   4 1457.75 21.9909  -3
   1  -3  -8 1457.75 21.9909  -2
   1  -3  -8 1457.75 21.9909   1
   1  -3  -7 87.4971 9.59879   1
   3  -4  -4 447.292 20.8196  -3
  -1   3   7 447.292 20.8196  -2
  -1   3   7 447.292 20.8196   1
  -2   4   4 17661.5 59.3234  -3
   1  -3  -6 17661.5 59.3234   1
   2  -4  -4 24288.7 29.3196  -3
  -1   3   6 24288.7 29.3196  -2
  -1   3   6 24288.7 29.3196   1
   1  -3  -5 3564.96 8.44934   1
  -1   3   4 14171.5 15.4028  -3
   1  -3  -4 14171.5 15.4028  -2
   1  -3  -4 14171.5 15.4028   1
   1  -3  -3 1227.32 6.58244   1
  -1   3   3 1931.99 17.9106  -2
  -1   3   3 1931.99 17.9106   1
   0   3   4 3237.32 13.2496  -3
   1  -3  -3 3237.32 13.2496  -2
   1  -3  -3 3237.32 13.2496   1
   0  -2  -4 476.920 6.10977  -3
  -1   3   2 476.920 6.10977  -2
  -1   3   2 476.920 6.10977   1
  -1   3   1 1352.86 7.24140  -2
  -1   3   1 1352.86 7.24140   1
   1   2   4 2666.17 12.8374  -3
   1  -3  -1 2666.17 12.8374  -2
   1  -3  -1 2666.17 12.8374   1
  -1   3   0 23021.6 41.0567  -2
  -1   3   0 23021.6 41.0567   1
   1   1   4 26723.0 20.2512  -3
   1  -3   0 26723.0 20.2512  -2
   1  -3   0 26723.0 20.2512   1
  -1   3  -1 8183.49 17.1278  -2
  -1   3  -1 8183.49 17.1278   1
   2   1   4 11226.3 17.1809  -3
   1  -3   1 11226.3 17.1809  -2
   1  -3   1 11226.3 17.1809   1
   1  -3   2 11929.2 20.2983   1
  -1   3  -2 22642.8 26.2830  -2
  -1   3  -2 22642.8 26.2830   1
   2   0   4 31010.2 29.4600  -3
   1  -3   2 31010.2 29.4600  -2
   1  -3   2 31010.2 29.4600   1
  -1   3  -3 35.1267 10.1780   1
   1  -3   3 30.6835 15.1518  -2
   1  -3   3 30.6835 15.1518   1
  -3   0  -4 106.278 9.85285  -3
  -1   3  -3 106.278 9.85285  -2
  -1   3  -3 106.278 9.85285   1
  -1   3  -4-9.81652 5.00684   1
   1  -3   5 408.714 27.0939   1
   4  -1   4 1041.92 17.8235  -3
   1  -3   5 1041.92 17.8235  -2
   1  -3   5 1041.92 17.8235   1
   1  -3   6 2479.20 15.7816   1
  -5   2  -4 2749.32 28.7455  -3
  -1   3  -7 2749.32 28.7455  -2
  -1   3  -7 2749.32 28.7455   1
   1  -3   8 3204.45 23.2724   1
  -6   3  -4 704.085 35.6306  -3
  -1   3  -9 704.085 35.6306  -2
  -1   3  -9 704.085 35.6306   1
   1  -3  10 64.0568 24.5187   1
   1  -3  11 128.120 63.8769   1
   7  -4   4 391.175 64.2336  -3
   2  -2  11 391.175 64.2336  -2
   1  -3  11 391.175 64.2336   1
   1  -2 -12 482.331 34.9552   1
   6  -6  -3 924.903 73.9476  -3
   0   3  12 924.903 73.9476  -2
  -1   2  12 924.903 73.9476   1
  -1   2  11 2620.09 34.8233   1
  -5   6   3 2550.76 50.4279  -3
   1  -2 -11 2550.76 50.4279   1
   1  -2 -10 8.41141 19.1042   1
  -5   5   3 30.9594 34.8230  -3
   1  -2 -10 30.9594 34.8230  -2
   1  -2 -10 30.9594 34.8230   1
  -1   2   9 18.1680 25.1657   1
  -4   5   3-23.7109 33.4626  -3
   1  -2  -9-23.7109 33.4626   1
   4  -5  -3 21.8373 26.7421  -3
  -1   2   9 21.8373 26.7421  -2
  -1   2   9 21.8373 26.7421   1
  -1   2   8 1335.38 18.1523   1
   4  -4  -3 2708.99 20.8628  -3
  -1   2   8 2708.99 20.8628  -2
  -1   2   8 2708.99 20.8628   1
   3  -4  -3 2683.43 21.8134  -3
  -1   2   7 2683.43 21.8134   1
  -3   4   3 3035.92 17.9631  -3
   1  -2  -7 3035.92 17.9631  -2
   1  -2  -7 3035.92 17.9631   1
   1  -2  -6 829.928 7.78668   1
   3  -3  -3 1323.20 16.8824  -3
  -1   2   6 1323.20 16.8824  -2
  -1   2   6 1323.20 16.8824   1
  -2   3   3 15649.6 46.9165  -3
   1  -2  -5 15649.6 46.9165   1
  -2   3   3 21430.1 21.9418  -3
   1  -2  -5 21430.1 21.9418  -2
   1  -2  -5 21430.1 21.9418   1
  -1   2   4 589.647 4.39635   1
   1  -2  -3 604.863 5.77021  -3
  -1   2   3 604.863 5.77021  -2
  -1   2   3 604.863 5.77021   1
  -1   2   2 6594.17 12.5527   1
  -1   2   2 10704.2 16.7473  -2
  -1   2   2 10704.2 16.7473   1
   0   2   3 13424.5 22.8806  -3
   1  -2  -2 13424.5 22.8806  -2
   1  -2  -2 13424.5 22.8806   1
   0  -1  -3 1963.40 5.26567  -3
  -1   2   1 1963.40 5.26567  -2
  -1   2   1 1963.40 5.26567   1
   1  -2   0 48.5077 3.07413  -2
   1  -2   0 48.5077 3.07413   1
   1   1   3 845.362 14.1102  -3
   1  -2   0 845.362 14.1102  -2
   1  -2   0 845.362 14.1102   1
  -1   2  -1 32654.8 20.2927  -2
  -1   2  -1 32654.8 20.2927   1
   1   0   3 38254.4 23.5202  -3
   1  -2   1 38254.4 23.5202  -2
   1  -2   1 38254.4 23.5202   1
   1  -2   2 5601.51 13.9702   1
  -1   2  -2 9177.00 24.8890  -2
  -1   2  -2 9177.00 24.8890   1
   2   0   3 12920.6 20.8873  -3
   1  -2   2 12920.6 20.8873  -2
   1  -2   2 12920.6 20.8873   1
   1  -2   3 1732.33 8.24139   1
  -2   1  -3 6245.38 17.9783  -3
  -1   2  -3 6245.38 17.9783  -2
  -1   2  -3 6245.38 17.9783   1
   1  -2   4 1741.13 12.0065   1
  -3   1  -3 4560.78 13.6012  -3
  -1   2  -4 4560.78 13.6012  -2
  -1   2  -4 4560.78 13.6012   1
  -1   2  -5-97.9913 8.51692   1
  -1   2  -6 19.6383 9.17704   1
  -4   2  -3 244.334 20.3386  -3
  -1   2  -6 244.334 20.3386  -2
  -1   2  -6 244.334 20.3386   1
  -1   2  -7 6019.56 16.5160   1
  -5   3  -3 1045.18 34.3001  -3
  -1   2  -8 1045.18 34.3001  -2
  -1   2  -8 1045.18 34.3001   1
   1  -2   9 2498.72 26.2914   1
  -6   4  -3 394.445 38.3337  -3
  -1   2 -10 394.445 38.3337  -2
  -1   2 -10 394.445 38.3337   1
  -1   2 -11 134.918 27.0212   1
   7  -5   3 155.738 84.1351  -3
   2  -1  12 155.738 84.1351  -2
   1  -2  12 155.738 84.1351   1
   1  -1 -12 2114.45 68.4080   1
  -6   6   2 3739.34 54.0619  -3
   0  -2 -12 3739.34 54.0619  -2
   1  -1 -12 3739.34 54.0619   1
   1  -1 -11 1460.74 28.2649   1
   1  -1 -10 1791.80 19.3100   1
  -1   1   9 485.658 18.5586   1
  -5   4   2 1123.14 28.0035  -3
   1  -1  -9 1123.14 28.0035  -2
   1  -1  -9 1123.14 28.0035   1
  -1   1   8 42.6081 10.1527   1
  -4   4   2 470.771 31.0525  -3
   1  -1  -8 470.771 31.0525   1
  -4   4   2 542.551 32.8146  -3
   1  -1  -8 542.551 32.8146  -2
   1  -1  -8 542.551 32.8146   1
   1  -1  -7 477.387 11.0086   1
   4  -3  -2 1051.95 17.5313  -3
  -1   1   7 1051.95 17.5313  -2
  -1   1   7 1051.95 17.5313   1
  -3   3   2 11466.9 23.0125  -3
   1  -1  -6 11466.9 23.0125   1
  -3   3   2 14821.8 19.5582  -3
   1  -1  -6 14821.8 19.5582  -2
   1  -1  -6 14821.8 19.5582   1
  -1   1   5 8224.90 10.1468   1
  -2   2   2 27577.1 46.8407  -3
   1  -1  -4 27577.1 46.8407   1
  -2   2   2 36904.5 23.9377  -3
   1  -1  -4 36904.5 23.9377  -2
   1  -1  -4 36904.5 23.9377   1
  -1   1   3 146.361 3.31958   1
  -1   1   3 205.458 8.44764  -2
  -1   1   3 205.458 8.44764   1
  -1   1   2 286.702 9.47144  -3
   1  -1  -2 286.702 9.47144   1
   1  -1  -2 311.217 5.05168  -3
  -1   1   2 311.217 5.05168  -2
  -1   1   2 311.217 5.05168   1
   1  -1  -1 5637.60 19.4330   1
  -1   1   1 6003.98 29.7319  -2
  -1   1   1 6003.98 29.7319   1
   0  -1  -2 9303.00 25.8811  -3
  -1   1   1 9303.00 25.8811  -2
  -1   1   1 9303.00 25.8811   1
  -1   1   0 15609.3 23.9008  -2
  -1   1   0 15609.3 23.9008   1
   0   0   2 19581.6 12.8633  -3
   1  -1   0 19581.6 12.8633  -2
   1  -1   0 19581.6 12.8633   1
  -1   1  -1 7274.92 7.98834  -2
  -1   1  -1 7274.92 7.98834   1
   1   0   2 12210.9 27.5229  -3
   1  -1   1 12210.9 27.5229  -2
   1  -1   1 12210.9 27.5229   1
   1  -1   2 25233.4 17.2994   1
   1  -1   2 41867.9 47.2819  -2
   1  -1   2 41867.9 47.2819   1
  -1   1  -2 58689.9 39.4773  -3
  -1   1  -2 58689.9 39.4773  -2
  -1   1  -2 58689.9 39.4773   1
   1  -1   3-33.2473 4.01853   1
  -2   1  -2 138.469 10.5472  -3
  -1   1  -3 138.469 10.5472  -2
  -1   1  -3 138.469 10.5472   1
   1  -1   4 668.581 8.81641   1
  -2   2  -2 8253.04 38.4304  -3
  -1   1  -4 8253.04 38.4304  -2
  -1   1  -4 8253.04 38.4304   1
  -1   1  -5 2300.20 11.4564   1
   3  -2   2 5199.91 13.7687  -3
   1  -1   5 5199.91 13.7687  -2
   1  -1   5 5199.91 13.7687   1
  -1   1  -6 2334.24 8.04373   1
   1  -1   7 955.354 13.4757   1
  -4   3  -2 1573.87 26.7182  -3
  -1   1  -7 1573.87 26.7182  -2
  -1   1  -7 1573.87 26.7182   1
  -1   1  -8 3804.46 17.2173   1
  -5   4  -2 2095.18 40.3234  -3
  -1   1  -9 2095.18 40.3234   1
   5  -4   2 2826.98 34.8757  -3
   1  -1   9 2826.98 34.8757  -2
   1  -1   9 2826.98 34.8757   1
  -1   1 -10 393.006 19.7678   1
  -6   5  -2 361.909 40.3523  -3
  -1   1 -11 361.909 40.3523   1
  -1   1 -12-0.54297 32.0095   1
   7  -5  -1 372.969 59.6217  -3
   0   1  12 372.969 59.6217  -2
  -1   0  12 372.969 59.6217   1
  -1   0  11 2909.82 31.5177   1
  -6   5   1 3304.85 92.8124  -3
   0  -1 -11 3304.85 92.8124  -2
   1   0 -11 3304.85 92.8124   1
  -1   0  10 321.708 22.6765   1
  -6   4   1 512.249 70.4163  -3
   1   0 -10 512.249 70.4163  -2
   1   0 -10 512.249 70.4163   1
   1   0  -9 1320.60 18.3931   1
  -1   0   8 131.116 13.2600   1
   5  -3  -1 322.435 25.1532  -3
  -1   0   8 322.435 25.1532  -2
  -1   0   8 322.435 25.1532   1
  -1   0   7 749.871 10.2054   1
  -4   3   1 3332.83 26.3210  -3
   1   0  -7 3332.83 26.3210   1
  -1   0   6 347.167 7.79222   1
   4  -2  -1 703.804 13.1994  -3
  -1   0   6 703.804 13.1994  -2
  -1   0   6 703.804 13.1994   1
  -1   0   5 17589.1 19.0678   1
  -3   2   1 28134.9 46.1799  -3
   1   0  -5 28134.9 46.1799   1
   3  -2  -1 36798.8 41.6260  -3
  -1   0   5 36798.8 41.6260  -2
  -1   0   5 36798.8 41.6260   1
   1   0  -4 1411.69 5.25875   1
  -2   1   1 6530.98 10.6827  -3
   1   0  -3 6530.98 10.6827   1
  -2   1   1 9338.12 16.8968  -3
   1   0  -3 9338.12 16.8968  -2
   1   0  -3 9338.12 16.8968   1
   1   0  -2 5443.44 8.74484   1
   1   0  -1 6677.27 22.3003  -3
  -1   0   1 6677.27 22.3003  -2
  -1   0   1 6677.27 22.3003   1
  -1   0   0 2686.95 10.0580   1
  -1   0   0 4247.22 10.4620  -2
  -1   0   0 4247.22 10.4620   1
  -1   0  -1 12522.9 18.6898   1
   0  -1   1 27013.8 16.9821  -3
   1   0   1 27013.8 16.9821  -2
   1   0   1 27013.8 16.9821   1
  -1   0  -2 6683.01 8.10783   1
  -1   0  -2 10885.5 21.8936  -2
  -1   0  -2 10885.5 21.8936   1
   1  -1   1 13979.0 16.3368  -3
   1   0   2 13979.0 16.3368  -2
   1   0   2 13979.0 16.3368   1
   1   0   3 12225.4 10.5936   1
  -1   2  -1 31114.0 25.8153  -3
  -1   0  -3 31114.0 25.8153  -2
  -1   0  -3 31114.0 25.8153   1
   1   0   4 89.4856 3.88327   1
  -2   2  -1 243.982 7.50258  -3
  -1   0  -4 243.982 7.50258  -2
  -1   0  -4 243.982 7.50258   1
  -1   0  -5 98.6060 3.68883   1
   1   0   6 563.461 6.31821   1
   3  -3   1 1772.86 15.3755  -3
   1   0   6 1772.86 15.3755  -2
   1   0   6 1772.86 15.3755   1
  -1   0  -7 416.197 16.2642   1
  -1   0  -8 347.304 13.8054   1
   4  -4   1 454.071 30.8116  -3
   1   0   8 454.071 30.8116   1
  -1   0  -9 3759.64 21.7910   1
   5  -5   1 503.271 46.4042  -3
   1   0  10 503.271 46.4042   1
  -5   5  -1 553.214 38.3870  -3
  -1   0 -10 553.214 38.3870  -2
  -1   0 -10 553.214 38.3870   1
  -1   0 -11 274.830 27.2676   1
  -6   6  -1 418.513 53.6372  -3
  -2  -1 -12 418.513 53.6372  -2
  -1   0 -12 418.513 53.6372   1
  -1   0 -13 291.911 42.9976   1
  -1  -1  12 1349.68 35.7055   1
  -1  -1  11 1225.26 64.4234   1
  -7   4   0 1415.83 64.3794  -3
   0   0 -11 1415.83 64.3794  -2
   1   1 -11 1415.83 64.3794   1
   1   1 -10 2269.22 22.1232   1
   1   1  -9 144.475 22.5187   1
   6  -3   0 622.420 44.5916  -3
  -1  -1   9 622.420 44.5916  -2
  -1  -1   9 622.420 44.5916   1
   1   1  -8 112.698 14.6201   1
  -1  -1   7-25.5986 27.2410   1
  -5   2   0 3555.42 32.3403  -3
   1   1  -7 3555.42 32.3403  -2
   1   1  -7 3555.42 32.3403   1
   1   1  -6 1977.64 8.04921   1
   1   1  -5 3268.36 8.52415   1
  -4   1   0 6967.21 19.0663  -3
   1   1  -5 6967.21 19.0663  -2
   1   1  -5 6967.21 19.0663   1
   1   1  -4 12784.6 11.8365   1
  -3   1   0 25694.1 68.8174  -3
   1   1  -4 25694.1 68.8174  -2
   1   1  -4 25694.1 68.8174   1
   1   1  -3 690.802 3.58266   1
   2   0   0 313.530 5.64109  -3
  -1  -1   2 313.530 5.64109   1
  -2   0   0 322.136 6.34877  -3
   1   1  -2 322.136 6.34877  -2
   1   1  -2 322.136 6.34877   1
  -1  -1   1 73.7185 2.25660   1
   1   1  -1 95.0922 8.23185  -2
   1   1  -1 95.0922 8.23185   1
   2   1   0 100.576 11.9158  -3
  -1  -1   1 100.576 11.9158  -2
  -1  -1   1 100.576 11.9158   1
  -1  -1   0 18321.6 15.8137  -3
   1   1   0 18321.6 15.8137  -2
   1   1   0 18321.6 15.8137   1
  -1  -1  -1 418.627 3.57919   1
  -1  -1  -1 731.248 9.93113  -2
  -1  -1  -1 731.248 9.93113   1
   1   1   2 34780.6 27.2884   1
   0   2   0 79522.8 29.7367  -3
  -1  -1  -2 79522.8 29.7367  -2
  -1  -1  -2 79522.8 29.7367   1
   1   1   3 1606.30 4.28138   1
  -1   2   0 2696.40 19.0525  -3
  -1  -1  -3 2696.40 19.0525  -2
  -1  -1  -3 2696.40 19.0525   1
  -1  -1  -4 6040.81 8.78549   1
  -1   3   0 19219.1 29.9044  -3
  -1  -1  -4 19219.1 29.9044  -2
  -1  -1  -4 19219.1 29.9044   1
  -1  -1  -5 2661.74 8.60214   1
   2  -3   0 5995.24 16.5582  -3
   1   1   5 5995.24 16.5582  -2
   1   1   5 5995.24 16.5582   1
   1   1   6 691.894 5.63165   1
  -1  -1  -7 650.538 11.3168   1
   3  -4   0 1125.58 13.8582  -3
   1   1   7 1125.58 13.8582  -2
   1   1   7 1125.58 13.8582   1
   1   1   8 9629.99 16.1475   1
  -1  -1  -9 1753.39 14.2520   1
   4  -5   0 3627.82 47.6439  -3
   1   1   9 3627.82 47.6439   1
   4  -5   0 5167.24 80.0781  -3
   1   1   9 5167.24 80.0781  -2
   1   1   9 5167.24 80.0781   1
   1   1  10 2025.00 19.0484   1
   5  -6   0 314.501 33.7012  -3
   1   1  11 314.501 33.7012   1
  -5   6   0 1595.40 58.4125  -3
  -2  -1 -11 1595.40 58.4125  -2
  -1  -1 -11 1595.40 58.4125   1
  -1  -1 -12 20.7687 24.3675   1
  -6   7   0 85.7209 78.9720  -3
  -2  -2 -13 85.7209 78.9720  -2
  -1  -1 -13 85.7209 78.9720   1
  -8   4  -1 501.786 79.2565  -3
   0   1 -12 501.786 79.2565  -2
   1   2 -12 501.786 79.2565   1
  -1  -2  11 1740.92 30.0417   1
   7  -3   1 1349.76 39.1576  -3
  -1  -2  10 1349.76 39.1576  -2
  -1  -2  10 1349.76 39.1576   1
   1   2  -9 657.149 17.3429   1
   1   2  -8 260.665 17.7676   1
   6  -2   1 771.235 38.9691  -3
  -1  -2   8 771.235 38.9691  -2
  -1  -2   8 771.235 38.9691   1
  -1  -2   7 287.253 12.3223   1
  -1  -2   6 32.1062 14.3250   1
   5  -1   1 104.918 18.2548  -3
  -1  -2   6 104.918 18.2548  -2
  -1  -2   6 104.918 18.2548   1
  -1  -2   5 7174.85 12.2404   1
  -1  -2   4 1877.48 13.5233   1
  -4   0  -1 4839.54 29.3806  -3
   1   2  -4 4839.54 29.3806  -2
   1   2  -4 4839.54 29.3806   1
   1   2  -3 9072.36 15.2382   1
   3   0   1 15060.4 21.6064  -3
  -1  -2   3 15060.4 21.6064  -2
  -1  -2   3 15060.4 21.6064   1
  -1  -2   2 1160.95 5.04523   1
   3   1   1 1780.88 13.3232  -3
  -1  -2   2 1780.88 13.3232  -2
  -1  -2   2 1780.88 13.3232   1
  -2  -1  -1 5231.62 9.24443  -3
   1   2  -1 5231.62 9.24443  -2
   1   2  -1 5231.62 9.24443   1
  -1  -2   0 6978.62 8.19925   1
   1   2   0 11090.8 20.3123  -2
   1   2   0 11090.8 20.3123   1
  -1  -2  -1 9894.11 12.5685  -3
   1   2   1 9894.11 12.5685   1
   1   2   1 13899.6 16.1955  -3
  -1  -2  -1 13899.6 16.1955  -2
  -1  -2  -1 13899.6 16.1955   1
   1   2   2 5358.60 7.69711   1
   0   3   1 60360.9 23.2354  -3
  -1  -2  -3 60360.9 23.2354  -2
  -1  -2  -3 60360.9 23.2354   1
  -1  -2  -4 2680.74 5.90551   1
   1   2   5 209.340 7.49586   1
   1  -4  -1 1314.99 20.8255  -3
   1   2   5 1314.99 20.8255   1
  -1   4   1 1489.81 10.4826  -3
  -1  -2  -5 1489.81 10.4826  -2
  -1  -2  -5 1489.81 10.4826   1
   1   2   6 1586.36 13.6382   1
   2  -4  -1 3521.39 12.6312  -3
   1   2   6 3521.39 12.6312  -2
   1   2   6 3521.39 12.6312   1
   1   2   7 1732.86 8.27028   1
   1   2   8 424.104 21.1493   1
  -3   5   1 845.061 17.1333  -3
  -1  -2  -8 845.061 17.1333  -2
  -1  -2  -8 845.061 17.1333   1
  -1  -2  -9 4773.43 17.0790   1
  -1  -2 -10 643.599 19.6252   1
   4  -6  -1 1626.60 52.2357  -3
   1   2  10 1626.60 52.2357   1
   4  -6  -1 2216.39 77.6607  -3
   1   2  10 2216.39 77.6607  -2
   1   2  10 2216.39 77.6607   1
  -1  -2 -11 447.086 19.0313   1
  -1  -2 -12 155.433 45.8702   1
   5  -7  -1 377.645 46.6832  -3
   2   3  12 377.645 46.6832  -2
   1   2  12 377.645 46.6832   1
  -1  -2 -13 98.4365 45.0964   1
  -8   3  -2 1052.87 52.5843  -3
   0   2 -11 1052.87 52.5843  -2
   1   3 -11 1052.87 52.5843   1
  -1  -3  10 2772.29 28.8531   1
  -7   2  -2 336.983 37.9683  -3
   1   3  -9 336.983 37.9683  -2
   1   3  -9 336.983 37.9683   1
   1   3  -8 768.229 17.0252   1
   1   3  -7 638.852 21.7506   1
  -6   1  -2 1056.88 32.2416  -3
   1   3  -7 1056.88 32.2416  -2
   1   3  -7 1056.88 32.2416   1
   1   3  -6 446.486 12.0275   1
  -1  -3   5 429.709 10.0368   1
  -5   0  -2 1294.62 30.3399  -3
   1   3  -5 1294.62 30.3399  -2
   1   3  -5 1294.62 30.3399   1
  -1  -3   4 7220.09 15.6154   1
  -1  -3   3 2302.75 6.72871   1
   1   3  -2 2221.85 7.46421   1
  -3  -1  -2 3150.96 12.1522  -3
   1   3  -2 3150.96 12.1522  -2
   1   3  -2 3150.96 12.1522   1
  -1  -3   1 2570.80 6.26346   1
   1   3  -1 3798.01 11.6831  -2
   1   3  -1 3798.01 11.6831   1
  -3  -2  -2 4350.85 25.0024  -3
   1   3  -1 4350.85 25.0024  -2
   1   3  -1 4350.85 25.0024   1
   2   2   2 528.214 5.77888  -3
  -1  -3   0 528.214 5.77888   1
   2   2   2 672.389 5.36413  -3
  -1  -3   0 672.389 5.36413  -2
  -1  -3   0 672.389 5.36413   1
  -1  -3  -1 29.1832 3.22467   1
   1   3   1 48.7826 14.3762  -2
   1   3   1 48.7826 14.3762   1
   1   3   2 20409.3 37.1230  -3
  -1  -3  -2 20409.3 37.1230   1
   1   3   2 26231.6 18.0321  -3
  -1  -3  -2 26231.6 18.0321  -2
  -1  -3  -2 26231.6 18.0321   1
  -1  -3  -3 4006.57 8.05080   1
   0  -4  -2 11097.5 13.5236  -3
   1   3   4 11097.5 13.5236  -2
   1   3   4 11097.5 13.5236   1
  -1  -3  -5 3369.19 7.61632   1
  -1   5   2 30.5956 9.07369  -3
  -1  -3  -6 30.5956 9.07369  -2
  -1  -3  -6 30.5956 9.07369   1
   1   3   7 236.627 20.7284   1
  -2   5   2 435.568 12.9314  -3
  -1  -3  -7 435.568 12.9314  -2
  -1  -3  -7 435.568 12.9314   1
   1   3   8 3016.74 18.2443   1
  -2   6   2 4654.21 28.0546  -3
  -1  -3  -8 4654.21 28.0546  -2
  -1  -3  -8 4654.21 28.0546   1
   1   3   9 1339.97 29.3668   1
  -3   6   2 3074.21 24.9388  -3
  -1  -3  -9 3074.21 24.9388  -2
  -1  -3  -9 3074.21 24.9388   1
  -1  -3 -10 2486.32 17.9434   1
  -3   7   2 5565.35 77.1750  -3
  -1  -3 -10 5565.35 77.1750  -2
  -1  -3 -10 5565.35 77.1750   1
  -1  -3 -11 68.3433 22.1145   1
   4  -7  -2 1898.99 58.7426  -3
   2   3  11 1898.99 58.7426  -2
   1   3  11 1898.99 58.7426   1
   4  -8  -2 746.295 37.0557  -3
   2   4  12 746.295 37.0557  -2
   1   3  12 746.295 37.0557   1
  -1  -3 -13 299.170 66.3815   1
  -5   8   2 418.352 114.046  -3
  -2  -4 -13 418.352 114.046  -2
  -1  -3 -13 418.352 114.046   1
   1   4 -11 1078.55 36.4117   1
  -8   2  -3 512.894 38.8651  -3
   1   4 -10 512.894 38.8651   1
  -1  -4   9 1069.78 26.2528   1
   7  -1   3 156.730 34.7971  -3
  -1  -4   8 156.730 34.7971  -2
  -1  -4   8 156.730 34.7971   1
  -1  -4   7 7.83505 16.0663   1
   1   4  -6 182.331 21.5077   1
   6   0   3 421.434 23.2099  -3
  -1  -4   6 421.434 23.2099  -2
  -1  -4   6 421.434 23.2099   1
   1   4  -5 1161.33 17.1112   1
  -1  -4   4 2928.61 8.83223   1
  -5  -1  -3 5443.24 30.5673  -3
   1   4  -4 5443.24 30.5673  -2
   1   4  -4 5443.24 30.5673   1
  -1  -4   3 11967.1 13.6375   1
   1   4  -2 50.1859 4.08739   1
  -1  -4   1 758.089 6.17621   1
  -3  -2  -3 1178.41 10.7049  -3
   1   4  -1 1178.41 10.7049  -2
   1   4  -1 1178.41 10.7049   1
  -1  -4   0 10.4342 5.86666   1
  -1  -4   0 186.132 19.2067  -2
  -1  -4   0 186.132 19.2067   1
  -3  -3  -3 359.030 16.4094  -3
   1   4   0 359.030 16.4094  -2
   1   4   0 359.030 16.4094   1
  -2  -3  -3 9112.02 26.8188  -3
   1   4   1 9112.02 26.8188   1
  -2  -3  -3 11650.7 13.6505  -3
   1   4   1 11650.7 13.6505  -2
   1   4   1 11650.7 13.6505   1
   1   4   2 1353.18 26.6380   1
   1   4   3 34403.8 58.5929  -3
  -1  -4  -3 34403.8 58.5929   1
   1   4   3 41088.3 27.7077  -3
  -1  -4  -3 41088.3 27.7077  -2
  -1  -4  -3 41088.3 27.7077   1
   1   4   4 1522.60 6.27066   1
   0  -5  -3 4289.08 12.1313  -3
   1   4   5 4289.08 12.1313  -2
   1   4   5 4289.08 12.1313   1
  -1  -4  -6 1877.59 14.0378   1
   1  -5  -3 3883.04 15.6725  -3
   1   4   6 3883.04 15.6725  -2
   1   4   6 3883.04 15.6725   1
  -1   6   3 1019.10 14.2965  -3
  -1  -4  -7 1019.10 14.2965  -2
  -1  -4  -7 1019.10 14.2965   1
   2  -6  -3 870.196 18.4659  -3
   1   4   8 870.196 18.4659  -2
   1   4   8 870.196 18.4659   1
   1   4   9 6743.11 48.8440   1
  -2   7   3 11755.1 32.7160  -3
  -1  -4  -9 11755.1 32.7160  -2
  -1  -4  -9 11755.1 32.7160   1
   1   4  10 928.753 35.9234   1
  -3   7   3 2135.73 28.8205  -3
  -1  -4 -10 2135.73 28.8205  -2
  -1  -4 -10 2135.73 28.8205   1
   1   4  11 791.674 24.2677   1
  -3   8   3 2696.40 60.1711  -3
  -2  -4 -11 2696.40 60.1711  -2
  -1  -4 -11 2696.40 60.1711   1
  -1  -4 -12 424.707 27.6389   1
   4  -8  -3 569.402 69.1960  -3
   2   5  12 569.402 69.1960  -2
   1   4  12 569.402 69.1960   1
  -1  -4 -13-36.3089 67.4452   1
  -4   9   3 735.231 68.8980  -3
  -2  -5 -13 735.231 68.8980  -2
  -1  -4 -13 735.231 68.8980   1
   1   5 -10 1631.27 28.5058   1
   8  -1   4 746.715 38.0422  -3
  -1  -5   9 746.715 38.0422  -2
  -1  -5   9 746.715 38.0422   1
   1   5  -8 614.724 19.7647   1
   7   0   4 1107.54 28.3269  -3
  -1  -5   7 1107.54 28.3269  -2
  -1  -5   7 1107.54 28.3269   1
  -1  -5   6 15.7660 11.4974   1
   1   5  -5 2.14226 8.54888   1
   6   1   4 137.735 17.1194  -3
  -1  -5   5 137.735 17.1194   1
  -6  -1  -4 241.732 20.4364  -3
   1   5  -5 241.732 20.4364  -2
   1   5  -5 241.732 20.4364   1
   1   5  -4 7355.63 16.1061   1
  -1  -5   3 3878.12 10.3535   1
  -1  -5   2 4277.21 8.78751   1
  -1  -5   1 450.034 4.64254   1
   1   5   0-0.26213 4.55405   1
  -3  -3  -4 478.831 20.9717  -3
   1   5   0 478.831 20.9717  -2
   1   5   0 478.831 20.9717   1
  -1  -5  -1 2395.80 7.68358   1
  -3  -4  -4 6385.72 44.3040  -3
   1   5   1 6385.72 44.3040  -2
   1   5   1 6385.72 44.3040   1
  -2  -4  -4 11939.7 35.0534  -3
   1   5   2 11939.7 35.0534   1
   2   4   4 15848.1 17.6903  -3
  -1  -5  -2 15848.1 17.6903  -2
  -1  -5  -2 15848.1 17.6903   1
  -1  -5  -3 4602.29 10.1034   1
   1   5   4 24339.0 56.7077  -3
  -1  -5  -4 24339.0 56.7077   1
   1   5   4 28684.5 25.9141  -3
  -1  -5  -4 28684.5 25.9141  -2
  -1  -5  -4 28684.5 25.9141   1
  -1  -5  -5 75.5851 6.78020   1
   0  -6  -4 59.6936 13.1291  -3
   1   5   6 59.6936 13.1291  -2
   1   5   6 59.6936 13.1291   1
  -1  -5  -7 240.264 31.7093   1
   1  -6  -4 412.725 15.9018  -3
   1   5   7 412.725 15.9018  -2
   1   5   7 412.725 15.9018   1
   1  -7  -4 2692.71 22.0901  -3
   1   5   8 2692.71 22.0901  -2
   1   5   8 2692.71 22.0901   1
  -2   7   4 3152.75 25.4961  -3
  -1  -5  -9 3152.75 25.4961  -2
  -1  -5  -9 3152.75 25.4961   1
   2  -8  -4 4165.05 59.8491  -3
   1   5  10 4165.05 59.8491   1
  -2   8   4 5496.59 33.0779  -3
  -1  -5 -10 5496.59 33.0779  -2
  -1  -5 -10 5496.59 33.0779   1
   1   5  11 45.9775 17.7776   1
  -1  -5 -12-17.0097 41.0920   1
   3  -9  -4 1021.85 47.1334  -3
   1   5  12 1021.85 47.1334   1
   4  -9  -4 431.147 127.015  -3
   2   6  13 431.147 127.015  -2
   1   5  13 431.147 127.015   1
  -9   1  -5 410.837 68.7656  -3
   1   6 -10 410.837 68.7656   1
   1   6  -9 1042.79 29.7037   1
   8   0   5 349.776 35.9596  -3
  -1  -6   8 349.776 35.9596  -2
  -1  -6   8 349.776 35.9596   1
  -1  -6   7 258.748 18.2376   1
   7   1   5 625.215 29.1721  -3
  -1  -6   6 625.215 29.1721  -2
  -1  -6   6 625.215 29.1721   1
  -1  -6   5 284.470 12.0592   1
  -6  -2  -5 612.769 17.7882  -3
   1   6  -4 612.769 17.7882   1
   6   2   5 721.827 19.3416  -3
  -1  -6   4 721.827 19.3416  -2
  -1  -6   4 721.827 19.3416   1
  -1  -6   3 3151.79 10.2892   1
  -1  -6   2 204.410 7.51723   1
  -5  -3  -5 293.428 23.1399  -3
   1   6  -2 293.428 23.1399  -2
   1   6  -2 293.428 23.1399   1
   1   6  -1 374.010 5.70446   1
   1   6   0 986.351 7.49117   1
   1   6   1 169.171 6.22906   1
  -3  -4  -5 1508.53 40.2357  -3
   1   6   1 1508.53 40.2357  -2
   1   6   1 1508.53 40.2357   1
   1   6   2 799.479 7.27386   1
  -2  -5  -5 15740.4 19.8229  -3
   1   6   3 15740.4 19.8229  -2
   1   6   3 15740.4 19.8229   1
   1   6   4 2021.18 8.71710   1
   1   6   5 683.858 29.7982  -3
  -1  -6  -5 683.858 29.7982   1
  -1  -6  -5 792.118 14.7000  -3
   1   6   5 792.118 14.7000  -2
   1   6   5 792.118 14.7000   1
   1   6   6 1652.21 12.1194   1
   0   7   5 450.355 18.7897  -3
  -1  -6  -7 450.355 18.7897  -2
  -1  -6  -7 450.355 18.7897   1
   1  -7  -5 143.829 20.6785  -3
   1   6   8 143.829 20.6785  -2
   1   6   8 143.829 20.6785   1
   1  -8  -5 6063.46 30.0645  -3
   1   6   9 6063.46 30.0645  -2
   1   6   9 6063.46 30.0645   1
  -2   8   5 1437.25 28.5895  -3
  -1  -6 -10 1437.25 28.5895  -2
  -1  -6 -10 1437.25 28.5895   1
  -2   9   5 2461.91 30.9529  -3
  -1  -6 -11 2461.91 30.9529   1
   1   6  12 33.9606 27.9928   1
  -9   0  -6 581.262 120.388  -3
   1   7  -9 581.262 120.388  -2
   1   7  -9 581.262 120.388   1
   1   7  -8 831.511 32.9003   1
   8   1   6 55.8921 62.5860  -3
  -1  -7   7 55.8921 62.5860   1
   8   1   6 77.5570 45.3506  -3
  -1  -7   7 77.5570 45.3506  -2
  -1  -7   7 77.5570 45.3506   1
  -1  -7   6 31.9255 20.4232   1
   7   2   6 233.039 39.1721  -3
  -1  -7   5 233.039 39.1721   1
  -7  -2  -6 310.166 32.9508  -3
   1   7  -5 310.166 32.9508  -2
   1   7  -5 310.166 32.9508   1
  -1  -7   4 2511.57 15.2645   1
   6   3   6 6925.07 29.5772  -3
  -1  -7   3 6925.07 29.5772   1
   6   3   6 9097.75 32.8952  -3
  -1  -7   3 9097.75 32.8952  -2
  -1  -7   3 9097.75 32.8952   1
  -1  -7   2 5536.37 12.7792   1
  -1  -7   1 1.68624 4.11040   1
  -5  -4  -6 50.2515 22.8262  -3
   1   7  -1 50.2515 22.8262  -2
   1   7  -1 50.2515 22.8262   1
   1   7   0-4.20877 9.96116   1
   1   7   1 926.519 9.42710   1
   1   7   2 1965.01 12.5726   1
  -3  -5  -6 6390.93 57.3271  -3
   1   7   2 6390.93 57.3271  -2
   1   7   2 6390.93 57.3271   1
  -1  -7  -3 2192.99 13.2438   1
  -2  -6  -6 15208.6 30.9578  -3
   1   7   4 15208.6 30.9578  -2
   1   7   4 15208.6 30.9578   1
   1   7   5 9.62051 8.69003   1
   1   7   6 294.970 18.2711  -3
  -1  -7  -6 294.970 18.2711  -2
  -1  -7  -6 294.970 18.2711   1
  -1  -7  -7 340.951 13.3040   1
   0   8   6 1074.10 25.7023  -3
  -1  -7  -8 1074.10 25.7023  -2
  -1  -7  -8 1074.10 25.7023   1
  -1   8   6 1620.26 27.5601  -3
  -1  -7  -9 1620.26 27.5601  -2
  -1  -7  -9 1620.26 27.5601   1
  -1   9   6 2249.92 64.4229  -3
  -1  -7 -10 2249.92 64.4229   1
  -1   9   6 3568.52 41.8484  -3
  -1  -7 -10 3568.52 41.8484  -2
  -1  -7 -10 3568.52 41.8484   1
  -1  -7 -11 274.490 25.9745   1
  -2  10   6 750.548 108.281  -3
  -2  -7 -12 750.548 108.281  -2
  -1  -7 -12 750.548 108.281   1
  -9  -1  -7 482.473 122.819  -3
   1   8  -8 482.473 122.819  -2
   1   8  -8 482.473 122.819   1
  -1  -8   7 362.414 32.1833   1
   8   2   7 135.867 55.2450  -3
  -1  -8   6 135.867 55.2450  -2
  -1  -8   6 135.867 55.2450   1
  -1  -8   5 85.3940 28.8109   1
   7   3   7 350.992 52.9393  -3
  -1  -8   4 350.992 52.9393  -2
  -1  -8   4 350.992 52.9393   1
   1   8  -3 4131.96 25.1798   1
  -6  -4  -7 1040.05 24.4562  -3
   1   8  -2 1040.05 24.4562  -2
   1   8  -2 1040.05 24.4562   1
   1   8  -1 692.898 14.4978   1
  -1  -8   0 257.836 29.6577   1
  -5  -5  -7 674.441 25.5639  -3
   1   8   0 674.441 25.5639  -2
   1   8   0 674.441 25.5639   1
  -1  -8  -1 48.8827 12.7517   1
   1   8   2 128.534 14.0068   1
  -4  -6  -7 291.758 57.6802  -3
   1   8   2 291.758 57.6802  -2
   1   8   2 291.758 57.6802   1
  -1  -8  -3 3237.32 21.9646   1
  -3  -6  -7 7863.84 51.1850  -3
   1   8   3 7863.84 51.1850  -2
   1   8   3 7863.84 51.1850   1
  -1  -8  -4 1625.81 16.1819   1
  -2  -7  -7 3641.33 31.6845  -3
   1   8   5 3641.33 31.6845  -2
   1   8   5 3641.33 31.6845   1
   1   8   6 44.6334 16.1747   1
   1   8   7-3.53063 26.8190  -3
  -1  -8  -7-3.53063 26.8190  -2
  -1  -8  -7-3.53063 26.8190   1
   1   8   8 31.3622 17.8579   1
   0  -9  -7 1229.23 42.5264  -3
   1   8   9 1229.23 42.5264  -2
   1   8   9 1229.23 42.5264   1
   1   8  10 434.973 25.8305   1
  -1  10   7 1988.69 51.6509  -3
  -1  -8 -11 1988.69 51.6509   1
   1   9  -6 19.1840 48.9899   1
   8   3   8 296.741 71.3465  -3
  -1  -9   5 296.741 71.3465  -2
  -1  -9   5 296.741 71.3465   1
   1   9  -4 381.585 37.8974   1
   7   4   8 2151.83 44.0659  -3
  -1  -9   3 2151.83 44.0659  -2
  -1  -9   3 2151.83 44.0659   1
   1   9  -2 1452.96 21.6104   1
  -6  -5  -8 184.351 27.5584  -3
   1   9  -1 184.351 27.5584  -2
   1   9  -1 184.351 27.5584   1
  -1  -9   0 50.2475 16.8172   1
  -1  -9  -1 187.328 32.9000   1
   5   6   8 460.869 30.0699  -3
  -1  -9  -1 460.869 30.0699  -2
  -1  -9  -1 460.869 30.0699   1
  -1  -9  -2 420.599 16.0191   1
  -1  -9  -3 391.725 17.4728   1
  -4  -7  -8 852.146 69.8430  -3
   1   9   3 852.146 69.8430  -2
   1   9   3 852.146 69.8430   1
  -1  -9  -4 3704.32 26.6950   1
   3   7   8 7553.50 62.3497  -3
  -1  -9  -4 7553.50 62.3497  -2
  -1  -9  -4 7553.50 62.3497   1
  -1  -9  -5 881.517 18.4911   1
  -1  -9  -6 266.096 41.0509   1
   2   8   8 472.175 41.4867  -3
  -1  -9  -6 472.175 41.4867  -2
  -1  -9  -6 472.175 41.4867   1
   1   9   7 101.287 20.4761   1
   1   9   8 458.256 37.8592  -3
  -1  -9  -8 458.256 37.8592  -2
  -1  -9  -8 458.256 37.8592   1
  -1  -9  -9 137.705 25.6462   1
   0  10   8 3439.01 65.8847  -3
  -1  -9 -10 3439.01 65.8847  -2
  -1  -9 -10 3439.01 65.8847   1
  -1  -9 -11 326.906 75.3627   1
   1  10  -5 29.6400 51.4388   1
   8   4   9 182.808 63.7307  -3
  -1 -10   4 182.808 63.7307  -2
  -1 -10   4 182.808 63.7307   1
   1  10  -3 1312.13 32.6176   1
  -7  -5  -9 1083.00 47.8991  -3
   1  10  -2 1083.00 47.8991  -2
   1  10  -2 1083.00 47.8991   1
   1  10  -1 924.954 26.7848   1
   6   6   9 136.331 36.0252  -3
  -1 -10   0 136.331 36.0252  -2
  -1 -10   0 136.331 36.0252   1
  -1 -10  -1 49.7386 18.5973   1
   5   7   9 75.9144 31.4283  -3
  -1 -10  -2 75.9144 31.4283  -2
  -1 -10  -2 75.9144 31.4283   1
   1  10   3 816.142 20.4157   1
  -1 -10  -4 896.053 25.1825   1
  -4  -8  -9 1956.14 63.7712  -3
   1  10   4 1956.14 63.7712  -2
   1  10   4 1956.14 63.7712   1
   1  10   5 1186.93 31.7244   1
  -3  -8  -9 2000.18 49.2728  -3
   1  10   5 2000.18 49.2728  -2
   1  10   5 2000.18 49.2728   1
   1  10   6 20.3816 23.0628   1
  -1 -10  -7 57.4949 47.9437   1
  -2  -9  -9 52.7399 46.3115  -3
   1  10   7 52.7399 46.3115  -2
   1  10   7 52.7399 46.3115   1
  -1 -10  -8 61.1512 30.6575   1
   1  10   9 1131.61 108.796  -3
  -1 -10  -9 1131.61 108.796  -2
  -1 -10  -9 1131.61 108.796   1
   8   5  10 441.784 89.1224  -3
  -1 -11   3 441.784 89.1224   1
  -1 -11   2 1340.80 65.3050   1
   7   6  10 333.355 53.3192  -3
  -1 -11   1 333.355 53.3192  -2
  -1 -11   1 333.355 53.3192   1
  -1 -11   0 158.847 26.4243   1
  -6  -7 -10 334.436 43.1769  -3
   1  11   1 334.436 43.1769  -2
   1  11   1 334.436 43.1769   1
   1  11   2-10.9583 25.1467   1
   5   8  10 131.196 39.8320  -3
  -1 -11  -3 131.196 39.8320  -2
  -1 -11  -3 131.196 39.8320   1
  -1 -11  -4 1209.46 29.0338   1
  -1 -11  -5 687.585 36.8842   1
  -4  -9 -10 1560.62 78.9600  -3
   1  11   5 1560.62 78.9600  -2
   1  11   5 1560.62 78.9600   1
  -1 -11  -6 558.060 37.6078   1
  -3  -9 -10 999.574 83.8545  -3
   1  11   6 999.574 83.8545  -2
   1  11   6 999.574 83.8545   1
  -1 -11  -7 3.10821 69.6544   1
   1  12   1 142.669 68.2712   1
  -1  -7 -12 1293.94 122.484  -3
  -2  10   6 1293.94 122.484  -2
  -2  10   6 1293.94 122.484   1
  -2  -7 -12 545.565 78.2885  -3
  -2  10   5 545.565 78.2885  -2
  -2  10   5 545.565 78.2885   1
  -2  10   4 1905.77 68.0218   1
   2   6  12 3674.82 112.472  -3
   2 -10  -4 3674.82 112.472  -2
   2 -10  -4 3674.82 112.472   1
   3   6  12 99.8629 74.1112  -3
   2 -10  -3 99.8629 74.1112  -2
   2 -10  -3 99.8629 74.1112   1
  -2  10   2 68.8365 57.7428   1
   2 -10  -2 112.893 80.9645  -2
   2 -10  -2 112.893 80.9645   1
   4   5  12 81.5193 58.8139  -3
   2 -10  -1 81.5193 58.8139  -2
   2 -10  -1 81.5193 58.8139   1
  -2  10   0 756.345 60.8460   1
   5   5  12 1180.48 80.0980  -3
   2 -10   0 1180.48 80.0980  -2
   2 -10   0 1180.48 80.0980   1
   5   4  12 865.716 115.949  -3
   2 -10   1 865.716 115.949  -2
   2 -10   1 865.716 115.949   1
   0  -7 -11 382.072 52.7093  -3
  -2   9   7 382.072 52.7093  -2
  -2   9   7 382.072 52.7093   1
  -1  -7 -11 476.361 57.9061  -3
  -2   9   6 476.361 57.9061  -2
  -2   9   6 476.361 57.9061   1
  -1  -6 -11 4066.69 50.3016  -3
  -2   9   5 4066.69 50.3016  -2
  -2   9   5 4066.69 50.3016   1
  -2  -6 -11 1623.27 45.8114  -3
  -2   9   4 1623.27 45.8114  -2
  -2   9   4 1623.27 45.8114   1
   2  -9  -3 133.616 45.8652   1
  -2  -5 -11 1186.28 49.5092  -3
  -2   9   3 1186.28 49.5092  -2
  -2   9   3 1186.28 49.5092   1
  -3  -5 -11 906.663 47.4382  -3
  -2   9   2 906.663 47.4382  -2
  -2   9   2 906.663 47.4382   1
  -2   9   1-11.6136 38.1317  -2
  -2   9   1-11.6136 38.1317   1
   4   4  11 159.084 41.9786  -3
   2  -9   0 159.084 41.9786  -2
   2  -9   0 159.084 41.9786   1
   5   4  11 5245.65 50.6299  -3
   2  -9   1 5245.65 50.6299  -2
   2  -9   1 5245.65 50.6299   1
   5   3  11 1126.82 55.9228  -3
   2  -9   2 1126.82 55.9228  -2
   2  -9   2 1126.82 55.9228   1
   2  -9   3 550.527 67.1653   1
   6   3  11 1520.24 117.274  -3
   2  -9   3 1520.24 117.274  -2
   2  -9   3 1520.24 117.274   1
   6   2  11 58.5017 117.696  -3
   2  -9   4 58.5017 117.696  -2
   2  -9   4 58.5017 117.696   1
   2  -8  -9 1.90676 37.0001   1
   1  -7 -10-5.12145 47.9762  -3
  -2   8   8-5.12145 47.9762  -2
  -2   8   8-5.12145 47.9762   1
   2  -8  -7 224.375 38.3903   1
   0  -7 -10 413.156 64.9488  -3
  -2   8   7 413.156 64.9488  -2
  -2   8   7 413.156 64.9488   1
   0   6  10 1621.01 50.1046  -3
   2  -8  -6 1621.01 50.1046  -2
   2  -8  -6 1621.01 50.1046   1
  -1  -6 -10 1493.05 47.5258  -3
  -2   8   5 1493.05 47.5258  -2
  -2   8   5 1493.05 47.5258   1
  -1  -5 -10 4816.08 38.8389  -3
  -2   8   4 4816.08 38.8389  -2
  -2   8   4 4816.08 38.8389   1
  -2  -5 -10 92.6817 33.1914  -3
  -2   8   3 92.6817 33.1914  -2
  -2   8   3 92.6817 33.1914   1
   2   4  10 758.894 33.4295  -3
   2  -8  -2 758.894 33.4295  -2
   2  -8  -2 758.894 33.4295   1
   3   4  10 1452.10 33.7970  -3
   2  -8  -1 1452.10 33.7970  -2
   2  -8  -1 1452.10 33.7970   1
   2  -8   0 995.303 29.2720  -2
   2  -8   0 995.303 29.2720   1
   4   3  10 678.124 35.5810  -3
   2  -8   1 678.124 35.5810  -2
   2  -8   1 678.124 35.5810   1
  -5  -3 -10 3466.97 46.5225  -3
  -2   8  -2 3466.97 46.5225  -2
  -2   8  -2 3466.97 46.5225   1
  -5  -2 -10 396.809 48.2827  -3
  -2   8  -3 396.809 48.2827  -2
  -2   8  -3 396.809 48.2827   1
  -2   8  -4 154.647 57.1275   1
   6   2  10 310.359 105.026  -3
   2  -8   4 310.359 105.026  -2
   2  -8   4 310.359 105.026   1
  -6  -1 -10 428.644 75.5400  -3
  -2   8  -5 428.644 75.5400  -2
  -2   8  -5 428.644 75.5400   1
  -7  -1 -10 133.461 109.870  -3
  -2   8  -6 133.461 109.870  -2
  -2   8  -6 133.461 109.870   1
   2  -7 -10 447.567 37.9906   1
   2  -7  -9 1742.91 51.2337  -3
  -2   7   9 1742.91 51.2337  -2
  -2   7   9 1742.91 51.2337   1
  -2   7   8 384.408 26.0270   1
  -1   6   9 492.716 38.5293  -3
   2  -7  -7 492.716 38.5293  -2
   2  -7  -7 492.716 38.5293   1
  -2   7   6 268.843 24.7260   1
   0  -6  -9 886.393 75.6059  -3
  -2   7   6 886.393 75.6059  -2
  -2   7   6 886.393 75.6059   1
   2  -7  -5 2787.67 34.8267   1
   0  -5  -9 6419.23 37.4522  -3
  -2   7   5 6419.23 37.4522  -2
  -2   7   5 6419.23 37.4522   1
   2  -7  -4 1409.93 21.8246   1
   1   5   9 3636.51 40.3217  -3
   2  -7  -4 3636.51 40.3217  -2
   2  -7  -4 3636.51 40.3217   1
   2  -7  -3 2843.34 23.8102   1
  -1  -4  -9 8908.40 44.5740  -3
  -2   7   3 8908.40 44.5740  -2
  -2   7   3 8908.40 44.5740   1
  -2  -4  -9 278.774 21.6116  -3
  -2   7   2 278.774 21.6116  -2
  -2   7   2 278.774 21.6116   1
   2   3   9 562.767 20.4064  -3
   2  -7  -1 562.767 20.4064  -2
   2  -7  -1 562.767 20.4064   1
   3   3   9 152.369 20.1151  -3
   2  -7   0 152.369 20.1151  -2
   2  -7   0 152.369 20.1151   1
  -2   7  -1 5108.98 21.8393  -2
  -2   7  -1 5108.98 21.8393   1
  -4  -2  -9 2782.94 28.8711  -3
  -2   7  -2 2782.94 28.8711  -2
  -2   7  -2 2782.94 28.8711   1
  -2   7  -3 1818.19 46.3497   1
   2  -7   3 3160.70 29.2104  -2
   2  -7   3 3160.70 29.2104   1
  -5  -1  -9 322.833 36.2286  -3
  -2   7  -4 322.833 36.2286  -2
  -2   7  -4 322.833 36.2286   1
  -2   7  -5-11.8555 28.5077   1
   6   1   9 42.3344 73.5676  -3
   2  -7   5 42.3344 73.5676  -2
   2  -7   5 42.3344 73.5676   1
   6   0   9 26.2973 52.3896  -3
   2  -7   6 26.2973 52.3896  -2
   2  -7   6 26.2973 52.3896   1
   2  -7   7 762.858 47.7737   1
  -7   0  -9 873.250 98.4810  -3
  -2   7  -7 873.250 98.4810  -2
  -2   7  -7 873.250 98.4810   1
   2  -7   8 708.789 72.5976   1
  -2   6  11 376.513 46.4060   1
  -3   7   8 3566.14 55.4457  -3
   2  -6 -10 3566.14 55.4457  -2
   2  -6 -10 3566.14 55.4457   1
   2  -6  -9 18.1886 23.7731   1
  -2   6   8 19.3719 44.2625  -3
   2  -6  -8 19.3719 44.2625   1
   2  -6  -8-2.45892 31.9582  -3
  -2   6   8-2.45892 31.9582  -2
  -2   6   8-2.45892 31.9582   1
  -2   6   7 320.894 15.0587   1
   1  -5  -8 2494.21 20.4460  -3
  -2   6   6 2494.21 20.4460  -2
  -2   6   6 2494.21 20.4460   1
   2  -6  -5 1044.99 12.6571   1
   0  -4  -8 14898.3 30.1801  -3
  -2   6   4 14898.3 30.1801  -2
  -2   6   4 14898.3 30.1801   1
   2  -6  -3 446.320 11.2997   1
  -1  -4  -8 946.507 15.6185  -3
  -2   6   3 946.507 15.6185  -2
  -2   6   3 946.507 15.6185   1
  -2   6   2 105.280 15.2943  -2
  -2   6   2 105.280 15.2943   1
   1   3   8 1333.54 20.5630  -3
   2  -6  -2 1333.54 20.5630  -2
   2  -6  -2 1333.54 20.5630   1
   2   3   8 3121.65 14.5744  -3
   2  -6  -1 3121.65 14.5744  -2
   2  -6  -1 3121.65 14.5744   1
   2  -6   0 143.517 17.0727  -2
   2  -6   0 143.517 17.0727   1
   2   2   8 232.092 16.4276  -3
   2  -6   0 232.092 16.4276  -2
   2  -6   0 232.092 16.4276   1
   3   2   8 2330.21 15.1668  -3
   2  -6   1 2330.21 15.1668  -2
   2  -6   1 2330.21 15.1668   1
  -2   6  -2 4666.14 27.9787   1
  -2   6  -2 9338.58 23.8669  -2
  -2   6  -2 9338.58 23.8669   1
   4   1   8 1614.15 22.1917  -3
   2  -6   3 1614.15 22.1917  -2
   2  -6   3 1614.15 22.1917   1
  -2   6  -4 845.397 21.7938   1
   2  -6   4 1348.60 27.0260  -2
   2  -6   4 1348.60 27.0260   1
  -5   0  -8 543.058 30.1475  -3
  -2   6  -5 543.058 30.1475  -2
  -2   6  -5 543.058 30.1475   1
   2  -6   6 191.940 23.4738   1
  -6   0  -8 215.743 75.0291  -3
  -2   6  -6 215.743 75.0291  -2
  -2   6  -6 215.743 75.0291   1
   2  -6   7 65.4670 52.8080   1
  -6   1  -8 171.172 60.3093  -3
  -2   6  -7 171.172 60.3093  -2
  -2   6  -7 171.172 60.3093   1
   2  -6   8 1780.53 48.8291   1
  -7   1  -8 2188.02 100.298  -3
  -2   6  -8 2188.02 100.298  -2
  -2   6  -8 2188.02 100.298   1
  -2   6  -9 173.859 64.7209   1
   7  -2   8 206.839 124.630  -3
   2  -6   9 206.839 124.630  -2
   2  -6   9 206.839 124.630   1
  -2   5  12 11.4293 67.6408   1
   4  -7  -7 2399.81 82.1862  -3
  -2   5  11 2399.81 82.1862   1
   4  -7  -7 2400.41 60.4572  -3
  -1   5  11 2400.41 60.4572  -2
  -2   5  11 2400.41 60.4572   1
  -4   6   7 2203.40 33.9063  -3
   2  -5 -10 2203.40 33.9063  -2
   2  -5 -10 2203.40 33.9063   1
  -3   6   7 3355.41 34.3390  -3
   2  -5  -9 3355.41 34.3390  -2
   2  -5  -9 3355.41 34.3390   1
   2  -5  -8 178.403 16.5945   1
   2  -5  -7 104.201 22.2407  -3
  -2   5   7 104.201 22.2407  -2
  -2   5   7 104.201 22.2407   1
   2  -5  -6 627.397 10.2236   1
   1  -4  -7 4430.53 15.9307  -3
  -2   5   5 4430.53 15.9307  -2
  -2   5   5 4430.53 15.9307   1
   2  -5  -4 1504.26 10.2760   1
   0  -4  -7 3172.27 29.9827  -3
  -2   5   4 3172.27 29.9827  -2
  -2   5   4 3172.27 29.9827   1
   2  -5  -3 4989.84 27.1242   1
   0  -3  -7 12212.0 18.0709  -3
  -2   5   3 12212.0 18.0709  -2
  -2   5   3 12212.0 18.0709   1
   2  -5  -2 152.880 17.4004  -2
   2  -5  -2 152.880 17.4004   1
  -1  -3  -7 274.518 8.46846  -3
  -2   5   2 274.518 8.46846  -2
  -2   5   2 274.518 8.46846   1
  -2   5   1 49.5269 18.3781  -2
  -2   5   1 49.5269 18.3781   1
   1   2   7 850.144 10.7764  -3
   2  -5  -1 850.144 10.7764  -2
   2  -5  -1 850.144 10.7764   1
   2   2   7 2056.67 11.3706  -3
   2  -5   0 2056.67 11.3706  -2
   2  -5   0 2056.67 11.3706   1
   2  -5   1 7553.26 18.6663  -2
   2  -5   1 7553.26 18.6663   1
   2   1   7 7520.59 22.6721  -3
   2  -5   1 7520.59 22.6721  -2
   2  -5   1 7520.59 22.6721   1
  -3  -1  -7 1117.54 10.3374  -3
  -2   5  -2 1117.54 10.3374  -2
  -2   5  -2 1117.54 10.3374   1
   2  -5   3 3153.16 26.1115   1
   2  -5   3 7670.94 18.8816  -2
   2  -5   3 7670.94 18.8816   1
   4   0   7 842.782 19.6275  -3
   2  -5   4 842.782 19.6275  -2
   2  -5   4 842.782 19.6275   1
  -2   5  -5 256.199 15.9691   1
   2  -5   5 408.539 32.9810  -2
   2  -5   5 408.539 32.9810   1
   5  -1   7 556.573 31.7700  -3
   2  -5   6 556.573 31.7700  -2
   2  -5   6 556.573 31.7700   1
   2  -5   7 193.504 29.7954   1
  -6   1  -7 317.537 53.6093  -3
  -2   5  -7 317.537 53.6093  -2
  -2   5  -7 317.537 53.6093   1
   2  -5   8 526.817 55.7738   1
   6  -2   7 680.449 52.7141  -3
   2  -5   8 680.449 52.7141  -2
   2  -5   8 680.449 52.7141   1
   2  -5   9 3030.94 44.6704   1
  -7   2  -7 3915.94 102.369  -3
  -2   5  -9 3915.94 102.369  -2
  -2   5  -9 3915.94 102.369   1
  -2   5 -10 497.192 50.8551   1
   7  -3   7 911.160 128.502  -3
   2  -5  10 911.160 128.502  -2
   2  -5  10 911.160 128.502   1
  -5   7   6 2351.98 58.9988  -3
   1  -5 -12 2351.98 58.9988  -2
   2  -4 -12 2351.98 58.9988   1
   2  -4 -11 651.474 26.6304   1
  -4   6   6 6439.15 43.2157  -3
   2  -4 -10 6439.15 43.2157  -2
   2  -4 -10 6439.15 43.2157   1
  -2   4   9 222.007 26.4826   1
   4  -5  -6 708.892 43.3607  -3
  -2   4   9 708.892 43.3607  -2
  -2   4   9 708.892 43.3607   1
  -3   5   6 507.481 24.5777  -3
   2  -4  -8 507.481 24.5777  -2
   2  -4  -8 507.481 24.5777   1
   2  -4  -7 1501.84 11.7294   1
   2  -4  -6 3636.49 19.6551  -3
  -2   4   6 3636.49 19.6551   1
  -2   4   6 4971.71 21.1532  -3
   2  -4  -6 4971.71 21.1532  -2
   2  -4  -6 4971.71 21.1532   1
   2  -4  -5 1462.45 8.65814   1
  -1   3   6 24711.8 22.7142  -3
   2  -4  -4 24711.8 22.7142  -2
   2  -4  -4 24711.8 22.7142   1
   2  -4  -3 1531.26 16.1750   1
   0   3   6 2568.80 12.6968  -3
   2  -4  -3 2568.80 12.6968  -2
   2  -4  -3 2568.80 12.6968   1
   2  -4  -2 3670.75 19.4408  -2
   2  -4  -2 3670.75 19.4408   1
   0  -2  -6 7279.32 12.3512  -3
  -2   4   2 7279.32 12.3512  -2
  -2   4   2 7279.32 12.3512   1
  -2   4   1 2057.66 12.7417  -2
  -2   4   1 2057.66 12.7417   1
   1   2   6 3253.95 10.7846  -3
   2  -4  -1 3253.95 10.7846  -2
   2  -4  -1 3253.95 10.7846   1
   2  -4   0 460.979 16.3640  -2
   2  -4   0 460.979 16.3640   1
   1   1   6 817.955 8.95787  -3
   2  -4   0 817.955 8.95787  -2
   2  -4   0 817.955 8.95787   1
   2  -4   1 134.054 18.9184  -2
   2  -4   1 134.054 18.9184   1
   2   1   6 163.216 8.16456  -3
   2  -4   1 163.216 8.16456  -2
   2  -4   1 163.216 8.16456   1
   2  -4   2 3318.12 10.9044   1
   2  -4   2 6969.15 15.5790  -2
   2  -4   2 6969.15 15.5790   1
   2   0   6 7623.96 18.7516  -3
   2  -4   2 7623.96 18.7516  -2
   2  -4   2 7623.96 18.7516   1
   3   0   6 3512.80 12.9726  -3
   2  -4   3 3512.80 12.9726  -2
   2  -4   3 3512.80 12.9726   1
  -2   4  -4 2417.08 11.7419   1
   2  -4   4 3790.30 32.5311  -2
   2  -4   4 3790.30 32.5311   1
   4  -1   6 578.363 24.1949  -3
   2  -4   5 578.363 24.1949   1
   4  -1   6 602.813 20.5594  -3
   2  -4   5 602.813 20.5594  -2
   2  -4   5 602.813 20.5594   1
  -2   4  -6 104.768 16.3590   1
  -5   2  -6 576.110 32.3854  -3
  -2   4  -7 576.110 32.3854  -2
  -2   4  -7 576.110 32.3854   1
   2  -4   8 2169.33 44.1670   1
  -6   2  -6 2844.40 45.7594  -3
  -2   4  -8 2844.40 45.7594  -2
  -2   4  -8 2844.40 45.7594   1
   2  -4   9 615.645 59.2996   1
  -6   3  -6 778.693 55.2567  -3
  -2   4  -9 778.693 55.2567  -2
  -2   4  -9 778.693 55.2567   1
   2  -4  10 630.719 49.3046   1
  -7   3  -6 1058.30 78.1026  -3
  -2   4 -10 1058.30 78.1026  -2
  -2   4 -10 1058.30 78.1026   1
  -2   4 -11 4.73605 66.6821   1
   2  -3 -12 147.407 28.9457   1
  -5   6   5 3043.08 36.2001  -3
   2  -3 -11 3043.08 36.2001   1
  -2   3  10 1204.10 33.1768   1
   5  -5  -5 2336.98 41.8064  -3
  -2   3  10 2336.98 41.8064  -2
  -2   3  10 2336.98 41.8064   1
  -4   5   5 7400.97 37.1326  -3
   2  -3  -9 7400.97 37.1326  -2
   2  -3  -9 7400.97 37.1326   1
   2  -3  -8 77.6548 13.6407   1
   4  -4  -5 124.218 34.0304  -3
  -2   3   8 124.218 34.0304  -2
  -2   3   8 124.218 34.0304   1
  -3   4   5 26.8487 20.2884  -3
   2  -3  -7 26.8487 20.2884   1
   3  -4  -5 5.36082 17.2465  -3
  -2   3   7 5.36082 17.2465  -2
  -2   3   7 5.36082 17.2465   1
  -2   3   6 116.148 6.78806   1
   2  -3  -5 3862.40 14.8801  -3
  -2   3   5 3862.40 14.8801   1
  -2   3   5 5379.62 17.3061  -3
   2  -3  -5 5379.62 17.3061  -2
   2  -3  -5 5379.62 17.3061   1
   2  -3  -4 2296.84 6.70872   1
   1  -3  -5 5431.23 38.0086  -3
  -2   3   4 5431.23 38.0086  -2
  -2   3   4 5431.23 38.0086   1
   2  -3  -3 9543.23 28.2504   1
   1  -2  -5 20695.0 19.9236  -3
  -2   3   3 20695.0 19.9236  -2
  -2   3   3 20695.0 19.9236   1
  -2   3   2 721.117 7.53580  -2
  -2   3   2 721.117 7.53580   1
   0  -2  -5 834.325 9.53399  -3
  -2   3   2 834.325 9.53399  -2
  -2   3   2 834.325 9.53399   1
   2  -3  -1 1863.86 9.10837  -2
   2  -3  -1 1863.86 9.10837   1
   0   1   5 5195.73 10.4165  -3
   2  -3  -1 5195.73 10.4165  -2
   2  -3  -1 5195.73 10.4165   1
  -2   3   0 3408.87 12.3078  -2
  -2   3   0 3408.87 12.3078   1
   1   1   5 5245.77 13.7940  -3
   2  -3   0 5245.77 13.7940  -2
   2  -3   0 5245.77 13.7940   1
   2  -3   1 3090.82 9.95320  -2
   2  -3   1 3090.82 9.95320   1
   1   0   5 3281.80 17.3103  -3
   2  -3   1 3281.80 17.3103  -2
   2  -3   1 3281.80 17.3103   1
   2  -3   2 2777.39 10.7392  -2
   2  -3   2 2777.39 10.7392   1
   2   0   5 3632.91 9.53135  -3
   2  -3   2 3632.91 9.53135  -2
   2  -3   2 3632.91 9.53135   1
   2  -3   3 12104.8 21.2295   1
   2  -3   3 19735.0 46.6787  -2
   2  -3   3 19735.0 46.6787   1
  -2   1  -5 20680.7 24.5152  -3
  -2   3  -3 20680.7 24.5152  -2
  -2   3  -3 20680.7 24.5152   1
   2  -3   4 1093.94 19.1780   1
   3  -1   5 3395.22 13.9633  -3
   2  -3   4 3395.22 13.9633  -2
   2  -3   4 3395.22 13.9633   1
   2  -3   5 1252.95 10.1929   1
   2  -3   6 680.872 4.86594   1
  -4   2  -5 2136.02 23.5560  -3
  -2   3  -6 2136.02 23.5560  -2
  -2   3  -6 2136.02 23.5560   1
  -2   3  -7 18.1930 15.1218   1
   5  -3   5 384.041 30.9052  -3
   2  -3   8 384.041 30.9052  -2
   2  -3   8 384.041 30.9052   1
   2  -3   9 3304.60 48.7024   1
  -6   3  -5 4523.01 49.6689  -3
  -2   3  -9 4523.01 49.6689  -2
  -2   3  -9 4523.01 49.6689   1
   2  -3  10 601.311 63.9764   1
  -6   4  -5 786.296 57.5625  -3
  -2   3 -10 786.296 57.5625  -2
  -2   3 -10 786.296 57.5625   1
   2  -3  11 1015.44 36.3746   1
   2  -2 -13 166.877 83.5490   1
  -2   2  12 123.099 45.7844   1
  -6   6   4 1665.25 111.123  -3
   1  -3 -12 1665.25 111.123  -2
   2  -2 -12 1665.25 111.123   1
   2  -2 -11 154.771 24.0622   1
  -2   2  10 3184.89 57.2087   1
  -5   5   4 5310.89 43.9224  -3
   2  -2 -10 5310.89 43.9224  -2
   2  -2 -10 5310.89 43.9224   1
  -2   2   9 675.411 25.2967   1
   5  -4  -4 1349.87 34.5363  -3
  -2   2   9 1349.87 34.5363  -2
  -2   2   9 1349.87 34.5363   1
   4  -4  -4 658.275 22.2792  -3
  -2   2   8 658.275 22.2792   1
  -4   4   4 953.297 28.2686  -3
   2  -2  -8 953.297 28.2686  -2
   2  -2  -8 953.297 28.2686   1
   2  -2  -7 754.497 11.5732   1
   4  -3  -4 1236.81 19.0018  -3
  -2   2   7 1236.81 19.0018  -2
  -2   2   7 1236.81 19.0018   1
  -3   3   4 707.583 18.7298  -3
   2  -2  -6 707.583 18.7298   1
  -3   3   4 930.569 12.9299  -3
   2  -2  -6 930.569 12.9299  -2
   2  -2  -6 930.569 12.9299   1
   2  -2  -5 110.877 4.55218   1
   2  -2  -4 14730.2 36.2941  -3
  -2   2   4 14730.2 36.2941   1
  -2   2   4 23750.9 27.3155  -3
   2  -2  -4 23750.9 27.3155  -2
   2  -2  -4 23750.9 27.3155   1
   2  -2  -3 1974.31 11.4368   1
  -2   2   3 3640.08 15.6752  -2
  -2   2   3 3640.08 15.6752   1
   1  -2  -4 3881.11 30.1348  -3
  -2   2   3 3881.11 30.1348  -2
  -2   2   3 3881.11 30.1348   1
   2  -2  -2 13451.6 16.6083   1
   1  -1  -4 33030.5 21.6139  -3
  -2   2   2 33030.5 21.6139  -2
  -2   2   2 33030.5 21.6139   1
  -2   2   1 307.514 5.97842  -2
  -2   2   1 307.514 5.97842   1
   0  -1  -4 524.854 9.66929  -3
  -2   2   1 524.854 9.66929  -2
  -2   2   1 524.854 9.66929   1
   2  -2   0 306.616 3.63449  -2
   2  -2   0 306.616 3.63449   1
   0   0   4 654.473 6.78594  -3
   2  -2   0 654.473 6.78594  -2
   2  -2   0 654.473 6.78594   1
   2  -2   1 242.715 4.69357  -2
   2  -2   1 242.715 4.69357   1
   1   0   4 296.410 9.74607  -3
   2  -2   1 296.410 9.74607  -2
   2  -2   1 296.410 9.74607   1
   2  -2   2 8473.82 16.6624   1
   2  -2   2 18962.3 21.7598  -2
   2  -2   2 18962.3 21.7598   1
  -1   1  -4 18825.7 19.1675  -3
  -2   2  -2 18825.7 19.1675  -2
  -2   2  -2 18825.7 19.1675   1
   2  -2   3 2612.83 18.4164   1
   2  -1   4 5433.69 11.7219  -3
   2  -2   3 5433.69 11.7219  -2
   2  -2   3 5433.69 11.7219   1
   2  -2   4 12074.0 14.4168   1
   2  -2   5 104.327 10.4948   1
  -3   2  -4 1104.64 13.4633  -3
  -2   2  -5 1104.64 13.4633  -2
  -2   2  -5 1104.64 13.4633   1
   2  -2   6 529.375 11.0371   1
  -4   3  -4 1055.47 23.1862  -3
  -2   2  -7 1055.47 23.1862  -2
  -2   2  -7 1055.47 23.1862   1
  -2   2  -8 1211.26 17.7594   1
  -5   4  -4 1544.39 41.6749  -3
  -2   2  -9 1544.39 41.6749  -2
  -2   2  -9 1544.39 41.6749   1
  -2   2 -10 3001.84 28.1276   1
   2  -2  11 404.088 67.8160   1
   6  -5   4 684.481 49.5549  -3
   2  -2  11 684.481 49.5549   1
  -2   2 -12 55.4561 68.1340   1
  -2   1  12 86.0517 39.0941   1
   7  -5  -3 220.206 107.931  -3
  -1   2  12 220.206 107.931  -2
  -2   1  12 220.206 107.931   1
   2  -1 -11 1172.23 30.0479   1
   2  -1 -10 482.378 26.8955   1
  -6   4   3 999.872 57.9599  -3
   2  -1 -10 999.872 57.9599  -2
   2  -1 -10 999.872 57.9599   1
   2  -1  -9 4237.27 28.6959   1
  -5   4   3 6583.43 79.8046  -3
   2  -1  -9 6583.43 79.8046  -2
   2  -1  -9 6583.43 79.8046   1
   2  -1  -8 78.7679 18.8491   1
   5  -3  -3 223.181 27.3439  -3
  -2   1   8 223.181 27.3439  -2
  -2   1   8 223.181 27.3439   1
   4  -3  -3 391.450 20.9852  -3
  -2   1   7 391.450 20.9852   1
   4  -3  -3 559.841 18.5312  -3
  -2   1   7 559.841 18.5312  -2
  -2   1   7 559.841 18.5312   1
  -2   1   6 1496.05 8.06663   1
   4  -2  -3 2766.28 41.6990  -3
  -2   1   6 2766.28 41.6990  -2
  -2   1   6 2766.28 41.6990   1
  -3   2   3 2903.95 21.8457  -3
   2  -1  -5 2903.95 21.8457   1
  -3   2   3 3652.35 12.2390  -3
   2  -1  -5 3652.35 12.2390  -2
   2  -1  -5 3652.35 12.2390   1
  -2   1   4 464.404 3.70519   1
  -2   1   3 19518.4 46.6422  -3
   2  -1  -3 19518.4 46.6422   1
   2  -1  -3 27069.0 23.6251  -3
  -2   1   3 27069.0 23.6251  -2
  -2   1   3 27069.0 23.6251   1
   2  -1  -2 2822.94 7.78659   1
  -2   1   2 4828.31 13.2944  -2
  -2   1   2 4828.31 13.2944   1
   2  -1  -1 1677.21 8.80987   1
   2  -1  -1 3520.87 11.9471  -2
   2  -1  -1 3520.87 11.9471   1
  -1   0   3 6570.51 9.99842  -3
   2  -1  -1 6570.51 9.99842  -2
   2  -1  -1 6570.51 9.99842   1
   2  -1   0 8478.86 11.8899  -2
   2  -1   0 8478.86 11.8899   1
   0   0   3 12154.2 16.3053  -3
   2  -1   0 12154.2 16.3053  -2
   2  -1   0 12154.2 16.3053   1
   2  -1   1 1037.05 7.41383   1
  -2   1  -1 1793.48 6.06164  -2
  -2   1  -1 1793.48 6.06164   1
   0  -1   3 1997.88 6.16207  -3
   2  -1   1 1997.88 6.16207  -2
   2  -1   1 1997.88 6.16207   1
  -2   1  -2 143.701 3.50786   1
  -2   1  -2 262.775 6.24206  -2
  -2   1  -2 262.775 6.24206   1
  -1   1  -3 257.626 8.62660  -3
  -2   1  -2 257.626 8.62660  -2
  -2   1  -2 257.626 8.62660   1
   2  -1   3 5789.02 8.97001   1
  -1   2  -3 10761.1 19.3907  -3
  -2   1  -3 10761.1 19.3907  -2
  -2   1  -3 10761.1 19.3907   1
   2  -1   4 190.017 26.2277   1
   2  -2   3 4755.97 13.0841  -3
   2  -1   4 4755.97 13.0841  -2
   2  -1   4 4755.97 13.0841   1
   2  -1   5 2461.46 12.6474   1
   2  -1   6 149.527 4.62664   1
   3  -3   3 269.130 13.6169  -3
   2  -1   6 269.130 13.6169   1
   3  -3   3 452.580 15.6909  -3
   2  -1   6 452.580 15.6909  -2
   2  -1   6 452.580 15.6909   1
  -2   1  -7 17.4881 7.94227   1
  -4   4  -3 555.046 24.4479  -3
  -2   1  -8 555.046 24.4479  -2
  -2   1  -8 555.046 24.4479   1
  -2   1  -9 3579.57 23.0009   1
   5  -5   3 1292.46 34.6878  -3
   2  -1  10 1292.46 34.6878  -2
   2  -1  10 1292.46 34.6878   1
  -2   1 -11 1311.54 28.6120   1
   6  -6   3 491.743 124.086  -3
   3   0  12 491.743 124.086  -2
   2  -1  12 491.743 124.086   1
  -2   0  12 40.8883 39.6888   1
  -7   5   2 1413.61 110.689  -3
   1  -1 -12 1413.61 110.689  -2
   2   0 -12 1413.61 110.689   1
  -2   0  11 20.6400 33.2252   1
  -7   4   2 110.552 73.5158  -3
   2   0 -11 110.552 73.5158   1
   7  -4  -2 777.374 95.2159  -3
  -1   1  11 777.374 95.2159  -2
  -2   0  11 777.374 95.2159   1
   2   0 -10 2022.59 25.3053   1
  -2   0   9 1973.09 31.5738   1
  -6   3   2 3247.89 43.0716  -3
   2   0  -9 3247.89 43.0716  -2
   2   0  -9 3247.89 43.0716   1
   2   0  -8 3021.70 20.8671   1
   5  -3  -2 3485.85 47.2228  -3
  -2   0   8 3485.85 47.2228   1
  -2   0   7 439.686 10.3611   1
   5  -2  -2 816.954 34.8041  -3
  -2   0   7 816.954 34.8041  -2
  -2   0   7 816.954 34.8041   1
   4  -2  -2 389.046 12.7113  -3
  -2   0   6 389.046 12.7113   1
  -4   2   2 468.960 28.8874  -3
   2   0  -6 468.960 28.8874  -2
   2   0  -6 468.960 28.8874   1
   2   0  -5 112.316 5.45841   1
  -3   1   2 12708.1 20.0912  -3
   2   0  -4 12708.1 20.0912   1
  -3   1   2 15540.6 29.1708  -3
   2   0  -4 15540.6 29.1708  -2
   2   0  -4 15540.6 29.1708   1
  -2   0   3 5480.54 9.82329   1
   2   0  -3 8080.22 23.8733  -2
   2   0  -3 8080.22 23.8733   1
   2   0  -2 21652.3 29.7487  -3
  -2   0   2 21652.3 29.7487   1
   2   0  -2 30362.2 22.5879  -3
  -2   0   2 30362.2 22.5879  -2
  -2   0   2 30362.2 22.5879   1
   2   0  -1 303.476 2.98373   1
  -2   0   1 419.598 4.49223  -2
  -2   0   1 419.598 4.49223   1
   1   1  -2 484.004 5.18927  -3
  -2   0   0 484.004 5.18927   1
  -2   0   0 765.724 5.85075  -2
  -2   0   0 765.724 5.85075   1
   1   1  -2 800.168 4.55480  -3
  -2   0   0 800.168 4.55480  -2
  -2   0   0 800.168 4.55480   1
  -2   0  -1 5392.01 8.19364   1
   2   0   1 8940.61 12.7440  -2
   2   0   1 8940.61 12.7440   1
   0  -1   2 10570.4 26.5593  -3
   2   0   1 10570.4 26.5593  -2
   2   0   1 10570.4 26.5593   1
   2   0   2 4262.70 7.17438   1
   0   2  -2 6843.97 12.2920  -3
  -2   0  -2 6843.97 12.2920  -2
  -2   0  -2 6843.97 12.2920   1
  -2   0  -3 5566.76 10.1740   1
  -1   2  -2 12769.4 18.3713  -3
  -2   0  -3 12769.4 18.3713  -2
  -2   0  -3 12769.4 18.3713   1
   2   0   4 20750.1 14.9240   1
   2   0   5 894.177 8.04516   1
   2  -3   2 2423.35 11.2142  -3
   2   0   5 2423.35 11.2142  -2
   2   0   5 2423.35 11.2142   1
   2   0   6 680.938 5.44170   1
  -2   0  -7 4408.68 13.8342   1
   3  -4   2 8320.98 36.7955  -3
   2   0   7 8320.98 36.7955   1
  -3   4  -2 11190.7 30.2953  -3
  -2   0  -7 11190.7 30.2953  -2
  -2   0  -7 11190.7 30.2953   1
  -2   0  -8 182.974 7.10702   1
   4  -5   2 611.810 34.7060  -3
   2   0   9 611.810 34.7060   1
  -4   5  -2 885.960 29.2897  -3
  -2   0  -9 885.960 29.2897  -2
  -2   0  -9 885.960 29.2897   1
  -2   0 -10 3622.32 26.3996   1
  -5   6  -2 588.871 44.3111  -3
  -2   0 -11 588.871 44.3111   1
  -5   6  -2 1347.60 62.3994  -3
  -3   0 -11 1347.60 62.3994  -2
  -2   0 -11 1347.60 62.3994   1
  -2   0 -12 189.895 33.4106   1
  -8   4   1 208.350 65.8854  -3
   1   0 -12 208.350 65.8854  -2
   2   1 -12 208.350 65.8854   1
   2   1 -11 199.081 28.4028   1
   2   1 -10 312.272 24.4490   1
  -7   3   1 648.143 63.2150  -3
   2   1 -10 648.143 63.2150   1
  -2  -1   9 5091.66 26.2208   1
  -2  -1   8 907.033 17.2214   1
   6  -2  -1 1725.86 31.5394  -3
  -2  -1   8 1725.86 31.5394  -2
  -2  -1   8 1725.86 31.5394   1
   2   1  -7 1191.52 10.5183   1
  -5   2   1 1213.47 24.5213  -3
   2   1  -7 1213.47 24.5213   1
   2   1  -6 291.695 8.17849   1
  -5   1   1 686.653 30.4139  -3
   2   1  -6 686.653 30.4139  -2
   2   1  -6 686.653 30.4139   1
   4  -1  -1 1920.34 13.3011  -3
  -2  -1   5 1920.34 13.3011   1
   4  -1  -1 2003.95 17.0413  -3
  -2  -1   5 2003.95 17.0413  -2
  -2  -1   5 2003.95 17.0413   1
  -2  -1   4 30.1967 4.56377   1
   3   0  -1 21596.9 31.9284  -3
  -2  -1   3 21596.9 31.9284   1
   3   0  -1 27298.1 23.9316  -3
  -2  -1   3 27298.1 23.9316  -2
  -2  -1   3 27298.1 23.9316   1
   2   1  -2 7779.22 10.6230   1
   2   1  -2 11682.5 24.4904  -2
   2   1  -2 11682.5 24.4904   1
  -2  -1   1 77038.9 64.6326  -3
   2   1  -1 77038.9 64.6326   1
   2   1  -1 107301. 31.5176  -3
  -2  -1   1 107301. 31.5176  -2
  -2  -1   1 107301. 31.5176   1
  -2  -1   0 42.0181 2.42979   1
  -2  -1   0 68.0146 5.29844  -2
  -2  -1   0 68.0146 5.29844   1
  -1  -2   1 3575.11 9.45911  -3
   2   1   1 3575.11 9.45911   1
  -1  -2   1 4674.95 7.77144  -3
   2   1   1 4674.95 7.77144  -2
   2   1   1 4674.95 7.77144   1
   2   1   2 306.439 2.93709   1
   0   2  -1 714.143 12.2385  -3
  -2  -1  -2 714.143 12.2385  -2
  -2  -1  -2 714.143 12.2385   1
   2   1   3 12579.3 18.6419   1
   0  -3   1 15467.9 36.3436  -3
   2   1   3 15467.9 36.3436   1
   0   3  -1 24033.9 21.5142  -3
  -2  -1  -3 24033.9 21.5142  -2
  -2  -1  -3 24033.9 21.5142   1
  -2  -1  -4 5030.44 8.34898   1
  -1   3  -1 11282.9 20.6589  -3
  -2  -1  -4 11282.9 20.6589  -2
  -2  -1  -4 11282.9 20.6589   1
  -2  -1  -5 9518.01 10.1844   1
  -2  -1  -6 57.2051 8.78528   1
   2  -4   1 129.555 10.1214  -3
   2   1   6 129.555 10.1214  -2
   2   1   6 129.555 10.1214   1
   2   1   7-14.9006 6.28218   1
  -2  -1  -8 70.4188 11.8683   1
  -3   5  -1 138.177 22.8868  -3
  -2  -1  -8 138.177 22.8868   1
  -3   5  -1 189.561 19.6818  -3
  -2  -1  -8 189.561 19.6818  -2
  -2  -1  -8 189.561 19.6818   1
   2   1   9 2047.71 12.6311   1
   4  -6   1 1419.03 46.6506  -3
   2   1  10 1419.03 46.6506   1
   4  -6   1 2018.68 35.0469  -3
   2   1  10 2018.68 35.0469  -2
   2   1  10 2018.68 35.0469   1
   2   1  11 2086.42 24.4865   1
  -5   7  -1 207.905 71.3145  -3
  -2  -1 -12 207.905 71.3145   1
  -5   7  -1 644.095 56.2384  -3
  -3  -2 -12 644.095 56.2384  -2
  -2  -1 -12 644.095 56.2384   1
  -2  -1 -13 163.619 65.6295   1
   8  -3   0 673.438 51.1176  -3
  -1  -1  11 673.438 51.1176  -2
  -2  -2  11 673.438 51.1176   1
  -2  -2  10 1058.63 22.3304   1
  -2  -2   9 496.674 20.1045   1
  -7   2   0 829.378 65.4042  -3
   2   2  -9 829.378 65.4042  -2
   2   2  -9 829.378 65.4042   1
  -2  -2   8 2677.02 18.8785   1
  -2  -2   7 50.7483 8.21899   1
   6  -1   0 245.191 38.7143  -3
  -2  -2   7 245.191 38.7143  -2
  -2  -2   7 245.191 38.7143   1
   2   2  -6 145.932 7.25874   1
   2   2  -5 1361.33 8.24612   1
  -5   0   0 2712.10 29.1749  -3
   2   2  -5 2712.10 29.1749  -2
   2   2  -5 2712.10 29.1749   1
   2   2  -4 3392.02 14.6043   1
   4   0   0 7162.70 20.0148  -3
  -2  -2   4 7162.70 20.0148   1
   4   0   0 8980.04 21.2536  -3
  -2  -2   4 8980.04 21.2536  -2
  -2  -2   4 8980.04 21.2536   1
  -2  -2   3 2030.38 7.71212   1
   3   1   0 36457.7 19.1295  -3
  -2  -2   2 36457.7 19.1295  -2
  -2  -2   2 36457.7 19.1295   1
   2   2  -1 1526.45 4.43572   1
  -3  -2   0 4025.85 18.1788  -3
   2   2  -1 4025.85 18.1788  -2
   2   2  -1 4025.85 18.1788   1
   2   2   0 11272.6 9.51480  -3
  -2  -2   0 11272.6 9.51480  -2
  -2  -2   0 11272.6 9.51480   1
  -2  -2  -1 7663.58 8.17820   1
   1   3   0 933.941 4.81560  -3
  -2  -2  -2 933.941 4.81560   1
   1   3   0 1540.18 7.19525  -3
  -2  -2  -2 1540.18 7.19525  -2
  -2  -2  -2 1540.18 7.19525   1
   2   2   3 4279.19 7.17778   1
   2   2   4 19602.0 19.3644   1
   0  -4   0 40505.9 26.2685  -3
   2   2   4 40505.9 26.2685  -2
   2   2   4 40505.9 26.2685   1
   2   2   5 1511.00 9.55704   1
   1  -4   0 3254.04 12.4781  -3
   2   2   5 3254.04 12.4781  -2
   2   2   5 3254.04 12.4781   1
  -2  -2  -6 1944.17 7.50890   1
   2   2   7 1301.82 16.9590   1
  -2   5   0 2568.06 15.9408  -3
  -2  -2  -7 2568.06 15.9408  -2
  -2  -2  -7 2568.06 15.9408   1
   2   2   8 152.638 8.82494   1
   2   2   9 87.7776 12.7936   1
  -3   6   0 314.730 52.1534  -3
  -2  -2  -9 314.730 52.1534  -2
  -2  -2  -9 314.730 52.1534   1
   2   2  10 3934.22 22.5934   1
  -4   7   0 660.312 33.4091  -3
  -2  -2 -11 660.312 33.4091   1
  -4   7   0 1081.22 59.4856  -3
  -3  -2 -11 1081.22 59.4856  -2
  -2  -2 -11 1081.22 59.4856   1
  -2  -2 -12 791.210 27.9690   1
  -5   8   0 105.473 87.5567  -3
  -2  -2 -13 105.473 87.5567   1
  -5   8   0 501.519 103.363  -3
  -3  -3 -13 501.519 103.363  -2
  -2  -2 -13 501.519 103.363   1
  -2  -3  11 36.5148 32.0276   1
  -8   2  -1 364.561 33.2795  -3
   2   3 -10 364.561 33.2795   1
  -2  -3   9 2288.65 21.6781   1
   2   3  -8 2282.88 20.9492   1
   7  -1   1 4904.13 79.1049  -3
  -2  -3   8 4904.13 79.1049  -2
  -2  -3   8 4904.13 79.1049   1
  -2  -3   7 2129.70 16.6106   1
   2   3  -6 340.984 5.48924   1
   6   0   1 864.457 36.7910  -3
  -2  -3   6 864.457 36.7910  -2
  -2  -3   6 864.457 36.7910   1
   2   3  -5 174.093 6.77263   1
   2   3  -4 822.411 6.27522   1
  -2  -3   3 4614.63 14.4449   1
  -4  -1  -1 10409.8 16.5820  -3
   2   3  -3 10409.8 16.5820  -2
   2   3  -3 10409.8 16.5820   1
   2   3  -2 6662.07 11.7549   1
   3   2   1 17373.8 40.0541  -3
  -2  -3   1 17373.8 40.0541   1
  -3  -2  -1 24387.5 16.0443  -3
   2   3  -1 24387.5 16.0443  -2
   2   3  -1 24387.5 16.0443   1
  -2  -3   0 1197.87 4.12496   1
  -3  -3  -1 2371.96 25.4680  -3
   2   3   0 2371.96 25.4680  -2
   2   3   0 2371.96 25.4680   1
  -2  -3  -1 157.888 5.27446  -3
   2   3   1 157.888 5.27446   1
  -2  -3  -1 222.140 8.60272  -3
   2   3   1 222.140 8.60272  -2
   2   3   1 222.140 8.60272   1
   2   3   2 2562.74 6.04970   1
   1   4   1 10472.0 24.0044  -3
  -2  -3  -3 10472.0 24.0044   1
   1   4   1 16594.7 19.5287  -3
  -2  -3  -3 16594.7 19.5287  -2
  -2  -3  -3 16594.7 19.5287   1
   2   3   4 2255.80 6.18877   1
   2   3   5 8497.67 25.5063   1
   0  -5  -1 19135.2 18.2213  -3
   2   3   5 19135.2 18.2213  -2
   2   3   5 19135.2 18.2213   1
   2   3   6 285.257 18.8386   1
   1  -5  -1 556.231 10.7523  -3
   2   3   6 556.231 10.7523  -2
   2   3   6 556.231 10.7523   1
  -2  -3  -7 79.1340 7.99036   1
  -1   6   1 1400.97 41.5598  -3
  -2  -3  -7 1400.97 41.5598  -2
  -2  -3  -7 1400.97 41.5598   1
   2   3   8 1314.52 28.1992   1
   2  -6  -1 3358.09 20.8464  -3
   2   3   8 3358.09 20.8464  -2
   2   3   8 3358.09 20.8464   1
   2   3   9 1239.02 13.6270   1
  -2  -3 -10 650.343 18.0624   1
   3  -7  -1 734.894 50.6486  -3
   2   3  10 734.894 50.6486   1
   3  -7  -1 1205.16 51.5561  -3
   2   3  10 1205.16 51.5561  -2
   2   3  10 1205.16 51.5561   1
  -2  -3 -11 3559.71 23.3879   1
  -2  -3 -12 290.785 51.2970   1
  -4   8   1 562.858 68.4788  -3
  -2  -3 -12 562.858 68.4788   1
  -4   8   1 775.709 55.6207  -3
  -3  -4 -12 775.709 55.6207  -2
  -2  -3 -12 775.709 55.6207   1
  -2  -3 -13 230.288 37.3440   1
  -9   2  -2 624.182 81.5973  -3
   1   3 -11 624.182 81.5973  -2
   2   4 -11 624.182 81.5973   1
   2   4 -10 158.516 23.8896   1
   8  -1   2 1907.45 40.7623  -3
  -2  -4   9 1907.45 40.7623  -2
  -2  -4   9 1907.45 40.7623   1
  -2  -4   8 4865.05 23.7597   1
   2   4  -7 349.329 20.3362   1
   7   0   2 755.392 36.8499  -3
  -2  -4   7 755.392 36.8499  -2
  -2  -4   7 755.392 36.8499   1
   2   4  -6 301.571 10.9503   1
   2   4  -5 953.072 8.78653   1
   6   1   2 2092.36 37.4511  -3
  -2  -4   5 2092.36 37.4511  -2
  -2  -4   5 2092.36 37.4511   1
  -2  -4   4 1292.76 8.42531   1
   2   4  -3 1367.70 6.64697   1
  -2  -4   2 14731.3 21.6968   1
  -4  -2  -2 27096.6 26.1083  -3
   2   4  -2 27096.6 26.1083  -2
   2   4  -2 27096.6 26.1083   1
   2   4  -1 3660.61 8.38373   1
   3   3   2 4592.53 13.7765  -3
  -2  -4   0 4592.53 13.7765   1
  -3  -3  -2 6593.47 11.1554  -3
   2   4   0 6593.47 11.1554  -2
   2   4   0 6593.47 11.1554   1
   2   4   1 2169.67 6.03895   1
  -2  -4  -2 545.487 8.20070  -3
   2   4   2 545.487 8.20070   1
   2   4   2 771.131 9.38012  -3
  -2  -4  -2 771.131 9.38012  -2
  -2  -4  -2 771.131 9.38012   1
   2   4   3 364.968 4.99563   1
  -1  -5  -2 18111.2 19.6452  -3
   2   4   4 18111.2 19.6452  -2
   2   4   4 18111.2 19.6452   1
  -2  -4  -5 2600.22 7.89861   1
   0  -6  -2 10096.2 16.7064  -3
   2   4   6 10096.2 16.7064  -2
   2   4   6 10096.2 16.7064   1
   1  -6  -2 1864.33 15.6032  -3
   2   4   7 1864.33 15.6032  -2
   2   4   7 1864.33 15.6032   1
   2   4   8 4.70973 14.3331   1
  -1   7   2 324.964 24.4959  -3
  -2  -4  -8 324.964 24.4959  -2
  -2  -4  -8 324.964 24.4959   1
   2   4   9 57.3656 28.9004   1
  -2   7   2 207.692 23.2302  -3
  -2  -4  -9 207.692 23.2302  -2
  -2  -4  -9 207.692 23.2302   1
  -2  -4 -10 1534.25 16.6637   1
  -2  -4 -11 796.041 23.7218   1
   3  -8  -2 1208.95 47.8344  -3
   2   4  11 1208.95 47.8344   1
  -2  -4 -12 640.983 22.5996   1
  -2  -4 -13 12.3728 59.4768   1
  -4   9   2 802.258 111.629  -3
  -3  -5 -13 802.258 111.629  -2
  -2  -4 -13 802.258 111.629   1
  -2  -5  11 4.95085 56.0000   1
   9  -1   3 255.173 39.2589  -3
  -2  -5  10 255.173 39.2589   1
  -2  -5   9 1548.92 27.0163   1
   8   0   3 1493.99 41.4678  -3
  -2  -5   8 1493.99 41.4678  -2
  -2  -5   8 1493.99 41.4678   1
   2   5  -7 1428.07 18.8972   1
   2   5  -6 75.5151 36.0147   1
   7   1   3 423.164 27.0753  -3
  -2  -5   6 423.164 27.0753  -2
  -2  -5   6 423.164 27.0753   1
  -2  -5   5 5.25702 8.37968   1
   2   5  -4 86.1976 7.84568   1
  -6  -2  -3 86.8313 29.3685  -3
   2   5  -4 86.8313 29.3685  -2
   2   5  -4 86.8313 29.3685   1
  -2  -5   3 2367.86 8.83244   1
   2   5  -2 2354.61 7.32749   1
  -2  -5   1 10875.2 13.6220   1
  -4  -3  -3 18356.5 36.2050  -3
   2   5  -1 18356.5 36.2050  -2
   2   5  -1 18356.5 36.2050   1
  -2  -5   0 140.729 4.07020   1
  -3  -4  -3 13.4041 5.70604  -3
   2   5   1 13.4041 5.70604   1
   3   4   3 63.5739 8.07595  -3
  -2  -5  -1 63.5739 8.07595  -2
  -2  -5  -1 63.5739 8.07595   1
   2   5   2 701.556 5.74033   1
  -2  -5  -3 2697.91 17.7015  -3
   2   5   3 2697.91 17.7015   1
  -2  -5  -3 3822.85 12.9281  -3
   2   5   3 3822.85 12.9281  -2
   2   5   3 3822.85 12.9281   1
  -2  -5  -4 2107.68 7.64941   1
   1   6   3 13036.2 58.8167  -3
  -2  -5  -5 13036.2 58.8167   1
   1   6   3 17239.6 23.7503  -3
  -2  -5  -5 17239.6 23.7503  -2
  -2  -5  -5 17239.6 23.7503   1
   2   5   6 769.708 12.9332   1
   0  -6  -3 1369.06 19.4490  -3
   2   5   6 1369.06 19.4490  -2
   2   5   6 1369.06 19.4490   1
   0  -7  -3 3162.14 18.0936  -3
   2   5   7 3162.14 18.0936  -2
   2   5   7 3162.14 18.0936   1
  -1   7   3 703.467 19.8495  -3
  -2  -5  -8 703.467 19.8495  -2
  -2  -5  -8 703.467 19.8495   1
  -1   8   3 863.923 22.9208  -3
  -2  -5  -9 863.923 22.9208  -2
  -2  -5  -9 863.923 22.9208   1
   2   5  10 144.344 36.8735   1
   2  -8  -3 272.428 27.6486  -3
   2   5  10 272.428 27.6486  -2
   2   5  10 272.428 27.6486   1
   2   5  11 2063.80 23.6508   1
  -2   9   3 2170.96 50.9059  -3
  -2  -5 -11 2170.96 50.9059   1
  -2  -5 -12 123.643 31.8978   1
   3  -9  -3 701.057 71.2612  -3
   3   5  12 701.057 71.2612  -2
   2   5  12 701.057 71.2612   1
   3 -10  -3 2932.97 124.005  -3
   3   6  13 2932.97 124.005  -2
   2   5  13 2932.97 124.005   1
  -2  -6  10 29.5735 51.6054   1
  -9   0  -4 637.616 47.6875  -3
   2   6  -9 637.616 47.6875  -2
   2   6  -9 637.616 47.6875   1
  -2  -6   8 2391.10 25.3076   1
   8   1   4 1748.14 35.9277  -3
  -2  -6   7 1748.14 35.9277  -2
  -2  -6   7 1748.14 35.9277   1
   2   6  -6 498.221 15.1475   1
   2   6  -5 439.216 27.6240   1
   7   2   4 1317.31 26.1401  -3
  -2  -6   5 1317.31 26.1401  -2
  -2  -6   5 1317.31 26.1401   1
  -2  -6   4 3.09719 7.99975   1
   2   6  -3 15.6532 7.44017   1
   6   3   4 79.7382 44.1106  -3
  -2  -6   3 79.7382 44.1106  -2
  -2  -6   3 79.7382 44.1106   1
  -2  -6   2 5100.27 11.9381   1
   2   6  -1 3549.92 9.87612   1
   2   6   0 547.877 21.2685   1
  -4  -4  -4 3589.08 43.2072  -3
   2   6   0 3589.08 43.2072  -2
   2   6   0 3589.08 43.2072   1
  -2  -6  -1 685.569 6.85365   1
  -3  -5  -4 110.392 10.2768  -3
   2   6   2 110.392 10.2768  -2
   2   6   2 110.392 10.2768   1
   2   6   3-107.137 6.13260   1
  -2  -6  -4 12153.8 31.6338  -3
   2   6   4 12153.8 31.6338   1
   2   6   4 17521.2 28.0488  -3
  -2  -6  -4 17521.2 28.0488  -2
  -2  -6  -4 17521.2 28.0488   1
  -2  -6  -5 1970.92 10.5326   1
   1   7   4 11236.7 63.5285  -3
  -2  -6  -6 11236.7 63.5285   1
   1   7   4 14195.2 31.6854  -3
  -2  -6  -6 14195.2 31.6854  -2
  -2  -6  -6 14195.2 31.6854   1
  -2  -6  -7 10.4017 33.6054   1
   0  -7  -4 88.9206 17.9889  -3
   2   6   7 88.9206 17.9889  -2
   2   6   7 88.9206 17.9889   1
   0   8   4 260.124 21.1335  -3
  -2  -6  -8 260.124 21.1335  -2
  -2  -6  -8 260.124 21.1335   1
  -1   8   4 804.899 24.1634  -3
  -2  -6  -9 804.899 24.1634  -2
  -2  -6  -9 804.899 24.1634   1
   2   6  10 716.078 44.3902   1
  -1   9   4 1159.90 30.6202  -3
  -2  -6 -10 1159.90 30.6202  -2
  -2  -6 -10 1159.90 30.6202   1
   2   6  11 883.891 19.5575   1
   2   6  12 2388.89 47.7832   1
   2 -10  -4 3518.54 64.3052  -3
   3   6  12 3518.54 64.3052  -2
   2   6  12 3518.54 64.3052   1
  -2  -7   9 424.873 54.8808   1
  -9  -1  -5 1177.93 63.9688  -3
   2   7  -8 1177.93 63.9688  -2
   2   7  -8 1177.93 63.9688   1
   2   7  -7 1774.60 29.6434   1
   8   2   5 198.492 32.2228  -3
  -2  -7   6 198.492 32.2228  -2
  -2  -7   6 198.492 32.2228   1
   2   7  -5 73.5203 15.2151   1
   2   7  -4 386.153 27.3306   1
   7   3   5 687.033 27.2661  -3
  -2  -7   4 687.033 27.2661   1
  -7  -3  -5 837.533 26.3611  -3
   2   7  -4 837.533 26.3611  -2
   2   7  -4 837.533 26.3611   1
  -2  -7   3 571.763 10.0513   1
  -2  -7   2 646.434 9.06296   1
   6   4   5 1738.53 59.0467  -3
  -2  -7   2 1738.53 59.0467  -2
  -2  -7   2 1738.53 59.0467   1
  -2  -7   1 5036.17 10.2415   1
  -2  -7   0 467.701 9.00702   1
  -2  -7  -1 809.310 13.3531   1
  -4  -5  -5 1240.07 32.3052  -3
   2   7   1 1240.07 32.3052  -2
   2   7   1 1240.07 32.3052   1
  -2  -7  -2 730.255 11.1465   1
  -3  -6  -5 531.090 16.1222  -3
   2   7   3 531.090 16.1222  -2
   2   7   3 531.090 16.1222   1
   2   7   4 9.00407 10.8960   1
   2   7   5 2295.30 17.2268  -3
  -2  -7  -5 2295.30 17.2268  -2
  -2  -7  -5 2295.30 17.2268   1
  -2  -7  -6 1239.11 13.4239   1
   1   8   5 2981.03 25.5281  -3
  -2  -7  -7 2981.03 25.5281  -2
  -2  -7  -7 2981.03 25.5281   1
   0  -8  -5 250.284 22.7908  -3
   2   7   8 250.284 22.7908  -2
   2   7   8 250.284 22.7908   1
   0  -9  -5 48.2585 26.0348  -3
   2   7   9 48.2585 26.0348  -2
   2   7   9 48.2585 26.0348   1
  -1   9   5-10.6597 31.8554  -3
  -2  -7 -10-10.6597 31.8554  -2
  -2  -7 -10-10.6597 31.8554   1
  -2  -7 -11 1025.14 56.3704   1
  -1  10   5 1147.46 34.1190  -3
  -2  -7 -11 1147.46 34.1190   1
   2   7  12 344.567 38.3200   1
   9   2   6 660.434 50.3462  -3
  -2  -8   7 660.434 50.3462   1
   2   8  -6 859.648 34.0839   1
   8   3   6 280.856 41.4010  -3
  -2  -8   5 280.856 41.4010  -2
  -2  -8   5 280.856 41.4010   1
  -2  -8   4 46.9728 22.1802   1
   7   4   6 450.082 36.8303  -3
  -2  -8   3 450.082 36.8303   1
   7   4   6 682.047 25.6332  -3
  -2  -8   3 682.047 25.6332  -2
  -2  -8   3 682.047 25.6332   1
  -2  -8   2 1351.84 14.5952   1
  -2  -8   1 1532.85 17.0414   1
  -6  -5  -6 3657.06 43.6306  -3
   2   8  -1 3657.06 43.6306  -2
   2   8  -1 3657.06 43.6306   1
   2   8   0 2499.72 17.2731   1
   2   8   1 11.2485 12.8314   1
   2   8   2-0.70219 14.7593   1
   4   6   6-22.5872 50.5356  -3
  -2  -8  -2-22.5872 50.5356  -2
  -2  -8  -2-22.5872 50.5356   1
   2   8   3 138.876 13.9732   1
   3   7   6 3248.90 24.9488  -3
  -2  -8  -4 3248.90 24.9488  -2
  -2  -8  -4 3248.90 24.9488   1
  -2  -8  -5 1525.66 18.2301   1
   2   8   6 12476.7 37.4391  -3
  -2  -8  -6 12476.7 37.4391  -2
  -2  -8  -6 12476.7 37.4391   1
  -2  -8  -7 215.043 16.3936   1
   1   9   6 244.854 30.8406  -3
  -2  -8  -8 244.854 30.8406  -2
  -2  -8  -8 244.854 30.8406   1
   2   8   9 721.330 20.5212   1
   0 -10  -6 252.492 36.3909  -3
   2   8  10 252.492 36.3909  -2
   2   8  10 252.492 36.3909   1
   1 -10  -6 922.994 52.7412  -3
   2   8  11 922.994 52.7412  -2
   2   8  11 922.994 52.7412   1
   9   3   7 336.711 44.8202  -3
  -2  -9   6 336.711 44.8202   1
  -2  -9   5 77.6777 30.0452   1
   8   4   7 10.2962 35.0535  -3
  -2  -9   4 10.2962 35.0535   1
   2   9  -3 43.6157 26.9202   1
  -7  -5  -7 170.617 30.1107  -3
   2   9  -2 170.617 30.1107  -2
   2   9  -2 170.617 30.1107   1
   2   9  -1 3095.33 20.7416   1
   2   9   0 1459.18 25.8111   1
   6   6   7 2798.83 43.2377  -3
  -2  -9   0 2798.83 43.2377  -2
  -2  -9   0 2798.83 43.2377   1
   2   9   1 2004.53 22.3103   1
  -2  -9  -2 46.6064 16.5428   1
  -5  -7  -7 151.983 68.7237  -3
   2   9   2 151.983 68.7237  -2
   2   9   2 151.983 68.7237   1
  -2  -9  -3 34.1015 18.3206   1
  -4  -7  -7 150.060 62.8120  -3
   2   9   3 150.060 62.8120  -2
   2   9   3 150.060 62.8120   1
   2   9   4 12.4139 17.2259   1
   3   8   7 4689.21 34.3207  -3
  -2  -9  -5 4689.21 34.3207  -2
  -2  -9  -5 4689.21 34.3207   1
  -2  -9  -6 1293.66 21.0597   1
   2   9   7 4463.50 35.7080  -3
  -2  -9  -7 4463.50 35.7080  -2
  -2  -9  -7 4463.50 35.7080   1
   2   9   8 26.0611 20.0051   1
   1  10   7 77.7524 39.1748  -3
  -2  -9  -9 77.7524 39.1748  -2
  -2  -9  -9 77.7524 39.1748   1
   2   9  10 14.7953 27.5338   1
  -2  -9 -11 565.046 72.6283   1
  -2 -10   4 32.5446 31.6957   1
   8   5   8 343.845 56.6895  -3
  -2 -10   4 343.845 56.6895  -2
  -2 -10   3 343.845 56.6895   1
  -2 -10   2 79.9976 26.9118   1
  -7  -6  -8 874.671 38.9449  -3
   2  10  -2 874.671 38.9449  -2
   2  10  -1 874.671 38.9449   1
  -2 -10   0 1716.92 21.7187   1
  -2 -10  -1 286.402 40.7473   1
  -6  -7  -8 606.320 35.4687  -3
   2  10   1 606.320 35.4687  -2
   2  10   1 606.320 35.4687   1
  -2 -10  -2 25.0735 18.1085   1
  -2 -10  -3 317.494 20.3998   1
  -5  -8  -8 691.653 79.9863  -3
   2  10   3 691.653 79.9863  -2
   2  10   3 691.653 79.9863   1
  -2 -10  -4 126.256 25.1057   1
   4   8   8 612.028 56.5568  -3
  -2 -10  -4 612.028 56.5568  -2
  -2 -10  -4 612.028 56.5568   1
   2  10   5 102.268 20.8591   1
  -2 -10  -6 1540.81 52.9452   1
   3   9   8 3201.04 51.4871  -3
  -2 -10  -6 3201.04 51.4871  -2
  -2 -10  -6 3201.04 51.4871   1
  -2 -10  -7 614.560 23.0744   1
   2  10   8 396.439 39.5503  -3
  -2 -10  -8 396.439 39.5503  -2
  -2 -10  -8 396.439 39.5503   1
  -2 -10  -9 70.9231 29.9713   1
   1  11   8-16.1483 113.715  -3
  -2 -10 -10-16.1483 113.715  -2
  -2 -10 -10-16.1483 113.715   1
  -2 -11   3 22.0779 66.4167   1
   8   6   9 327.796 54.7919  -3
  -2 -11   2 327.796 54.7919   1
   8   6   9 127.993 103.617  -3
  -2 -11   3 127.993 103.617  -2
  -2 -11   2 127.993 103.617   1
   2  11  -1 893.858 33.0306   1
   7   7   9 1669.44 57.3145  -3
  -2 -11   1 1669.44 57.3145  -2
  -2 -11   0 1669.44 57.3145   1
  -2 -11  -1 674.128 23.2660   1
   6   8   9 393.031 37.6483  -3
  -2 -11  -1 393.031 37.6483  -2
  -2 -11  -2 393.031 37.6483   1
  -2 -11  -3-8.07878 22.0170   1
  -2 -11  -4 2.37028 27.1660   1
  -5  -9  -9 75.5415 70.3591  -3
   2  11   4 75.5415 70.3591  -2
   2  11   4 75.5415 70.3591   1
  -2 -11  -5 432.024 32.8581   1
  -4  -9  -9 1277.10 73.4246  -3
   2  11   5 1277.10 73.4246  -2
   2  11   5 1277.10 73.4246   1
  -2 -11  -6 779.434 30.7142   1
  -2 -11  -7 1364.10 63.9239   1
   3  10   9 2851.86 64.3128  -3
  -2 -11  -7 2851.86 64.3128  -2
  -2 -11  -7 2851.86 64.3128   1
  -2 -11  -8 61.9728 46.3880   1
  -2 -12   0 1172.38 68.6615   1
   7   8  10 1326.56 109.373  -3
  -2 -12   0 1326.56 109.373  -2
  -2 -12  -1 1326.56 109.373   1
   2  12   2 419.441 68.9896   1
   6   8  10 672.773 99.0627  -3
  -2 -12  -1 672.773 99.0627  -2
  -2 -12  -2 672.773 99.0627   1
  -6  -9 -10 86.0010 94.9307  -3
   2  12   3 86.0010 94.9307   1
   6   9  10 156.300 77.7523  -3
  -2 -12  -2 156.300 77.7523  -2
  -2 -12  -3 156.300 77.7523   1
  -2 -12  -4 32.4583 40.9747   1
  -2 -12  -5 24.4608 50.1838   1
   2   6  13 1934.07 122.760  -3
   3 -10  -4 1934.07 122.760  -2
   3 -10  -4 1934.07 122.760   1
   0   6  12 80.0351 78.7295  -3
   3  -9  -6 80.0351 78.7295  -2
   3  -9  -6 80.0351 78.7295   1
  -1  -6 -12 117.796 59.5228  -3
  -3   9   5 117.796 59.5228  -2
  -3   9   5 117.796 59.5228   1
  -1  -5 -12 2434.88 59.8650  -3
  -3   9   4 2434.88 59.8650  -2
  -3   9   4 2434.88 59.8650   1
   2   5  12 368.698 55.6800  -3
   3  -9  -3 368.698 55.6800  -2
   3  -9  -3 368.698 55.6800   1
  -3   9   2 1155.15 47.1369  -2
  -3   9   2 1155.15 47.1369   1
   3   4  12 86.3926 54.0104  -3
   3  -9  -1 86.3926 54.0104  -2
   3  -9  -1 86.3926 54.0104   1
   4   4  12 144.101 58.7863  -3
   3  -9   0 144.101 58.7863  -2
   3  -9   0 144.101 58.7863   1
   4   3  12 109.916 57.8710  -3
   3  -9   1 109.916 57.8710  -2
   3  -9   1 109.916 57.8710   1
   5   3  12 993.850 84.3076  -3
   3  -9   2 993.850 84.3076  -2
   3  -9   2 993.850 84.3076   1
   5   2  12 684.132 122.075  -3
   3  -9   3 684.132 122.075  -2
   3  -9   3 684.132 122.075   1
   3  -8  -8 41.8436 66.6289   1
   1  -6 -11 374.774 58.9498  -3
  -3   8   7 374.774 58.9498  -2
  -3   8   7 374.774 58.9498   1
   0  -6 -11 1298.21 68.5015  -3
  -3   8   6 1298.21 68.5015  -2
  -3   8   6 1298.21 68.5015   1
   0  -5 -11 506.529 50.1414  -3
  -3   8   5 506.529 50.1414  -2
  -3   8   5 506.529 50.1414   1
  -1  -5 -11 380.454 47.2837  -3
  -3   8   4 380.454 47.2837  -2
  -3   8   4 380.454 47.2837   1
   1   4  11 4837.91 45.7827  -3
   3  -8  -3 4837.91 45.7827  -2
   3  -8  -3 4837.91 45.7827   1
  -2  -4 -11 1206.33 35.2711  -3
  -3   8   2 1206.33 35.2711  -2
  -3   8   2 1206.33 35.2711   1
   3  -8  -1 726.137 31.9783  -2
   3  -8  -1 726.137 31.9783   1
   3   3  11 171.824 38.9654  -3
   3  -8   0 171.824 38.9654  -2
   3  -8   0 171.824 38.9654   1
  -4  -3 -11 136.968 40.7053  -3
  -3   8  -1 136.968 40.7053  -2
  -3   8  -1 136.968 40.7053   1
   4   2  11 212.654 49.0613  -3
   3  -8   2 212.654 49.0613  -2
   3  -8   2 212.654 49.0613   1
   5   2  11 3944.89 78.9236  -3
   3  -8   3 3944.89 78.9236  -2
   3  -8   3 3944.89 78.9236   1
   3  -8   4 420.038 63.8432   1
   5   1  11 893.247 114.626  -3
   3  -8   4 893.247 114.626  -2
   3  -8   4 893.247 114.626   1
   6   1  11 1095.84 87.8116  -3
   3  -8   5 1095.84 87.8116  -2
   3  -8   5 1095.84 87.8116   1
   3  -7  -9 694.311 34.4963   1
  -2   6  10 3173.60 52.0557  -3
   3  -7  -8 3173.60 52.0557  -2
   3  -7  -8 3173.60 52.0557   1
   3  -7  -7 27.3023 29.8338   1
   1  -6 -10 59.3737 96.5075  -3
  -3   7   7 59.3737 96.5075  -2
  -3   7   7 59.3737 96.5075   1
   1  -5 -10 358.554 46.2091  -3
  -3   7   6 358.554 46.2091  -2
  -3   7   6 358.554 46.2091   1
   0   5  10 337.888 52.2516  -3
   3  -7  -5 337.888 52.2516  -2
   3  -7  -5 337.888 52.2516   1
   0   4  10 2779.60 37.9200  -3
   3  -7  -4 2779.60 37.9200  -2
   3  -7  -4 2779.60 37.9200   1
  -1  -4 -10 2511.99 31.0573  -3
  -3   7   3 2511.99 31.0573  -2
  -3   7   3 2511.99 31.0573   1
  -1  -3 -10 5686.86 35.2334  -3
  -3   7   2 5686.86 35.2334  -2
  -3   7   2 5686.86 35.2334   1
  -2  -3 -10 394.871 27.5249  -3
  -3   7   1 394.871 27.5249  -2
  -3   7   1 394.871 27.5249   1
   3  -7   0 151.821 26.1056  -2
   3  -7   0 151.821 26.1056   1
   3   2  10 1109.20 34.1705  -3
   3  -7   1 1109.20 34.1705  -2
   3  -7   1 1109.20 34.1705   1
  -4  -2 -10 629.266 35.2704  -3
  -3   7  -2 629.266 35.2704  -2
  -3   7  -2 629.266 35.2704   1
   4   1  10 632.105 51.6834  -3
   3  -7   3 632.105 51.6834  -2
   3  -7   3 632.105 51.6834   1
  -3   7  -4 1491.40 59.0490   1
   5   1  10 3099.55 108.218  -3
   3  -7   4 3099.55 108.218  -2
   3  -7   4 3099.55 108.218   1
  -3   7  -5 109.240 56.8009   1
   5   0  10 367.446 104.609  -3
   3  -7   5 367.446 104.609  -2
   3  -7   5 367.446 104.609   1
   6   0  10 544.317 78.3195  -3
   3  -7   6 544.317 78.3195  -2
   3  -7   6 544.317 78.3195   1
  -3   7  -7 147.151 68.5975   1
   4  -7  -9 424.884 115.511  -3
  -2   6  11 424.884 115.511  -2
  -3   6  11 424.884 115.511   1
   3  -6 -10 151.742 38.3466   1
  -3   6   9 3741.91 54.2854  -3
   3  -6  -9 3741.91 54.2854  -2
   3  -6  -9 3741.91 54.2854   1
   3  -6  -8 343.939 22.2534   1
   2  -5  -9 2843.01 38.9230  -3
  -3   6   7 2843.01 38.9230  -2
  -3   6   7 2843.01 38.9230   1
  -3   6   6 478.539 22.7401   1
   1  -5  -9 1017.38 76.6821  -3
  -3   6   6 1017.38 76.6821  -2
  -3   6   6 1017.38 76.6821   1
   1  -4  -9 112.722 32.4043  -3
  -3   6   5 112.722 32.4043  -2
  -3   6   5 112.722 32.4043   1
   3  -6  -4 107.987 16.9011   1
   0  -4  -9 330.447 41.8291  -3
  -3   6   4 330.447 41.8291  -2
  -3   6   4 330.447 41.8291   1
   0  -3  -9 7493.53 26.4499  -3
  -3   6   3 7493.53 26.4499  -2
  -3   6   3 7493.53 26.4499   1
  -1  -3  -9 2916.59 22.5517  -3
  -3   6   2 2916.59 22.5517  -2
  -3   6   2 2916.59 22.5517   1
   3  -6  -1 3330.68 23.9765  -2
   3  -6  -1 3330.68 23.9765   1
  -1  -2  -9 6549.28 32.0317  -3
  -3   6   1 6549.28 32.0317  -2
  -3   6   1 6549.28 32.0317   1
   2   2   9 272.058 16.7185  -3
   3  -6   0 272.058 16.7185  -2
   3  -6   0 272.058 16.7185   1
   3  -6   1 304.733 14.3111  -2
   3  -6   1 304.733 14.3111   1
   3   1   9 746.183 21.6689  -3
   3  -6   2 746.183 21.6689  -2
   3  -6   2 746.183 21.6689   1
   3  -6   3 2057.76 27.5781   1
  -3   6  -3 3451.10 28.4482  -2
  -3   6  -3 3451.10 28.4482   1
   4   0   9 1513.71 29.9954  -3
   3  -6   4 1513.71 29.9954  -2
   3  -6   4 1513.71 29.9954   1
   3  -6   5 3202.56 39.6585   1
   5   0   9 6126.51 63.8221  -3
   3  -6   5 6126.51 63.8221  -2
   3  -6   5 6126.51 63.8221   1
   3  -6   6 79.0940 52.2224   1
   5  -1   9 507.401 49.9841  -3
   3  -6   6 507.401 49.9841  -2
   3  -6   6 507.401 49.9841   1
   3  -6   7 227.929 36.1718   1
  -6   1  -9 564.563 90.8185  -3
  -3   6  -7 564.563 90.8185  -2
  -3   6  -7 564.563 90.8185   1
  -3   6  -8 93.7338 61.7830   1
  -3   5  11 54.2908 62.0928   1
   4  -6  -8 2694.67 47.9183  -3
  -3   5  10 2694.67 47.9183  -2
  -3   5  10 2694.67 47.9183   1
   3  -5  -9 536.476 26.3676   1
  -3   5   8 6633.10 46.4014  -3
   3  -5  -8 6633.10 46.4014  -2
   3  -5  -8 6633.10 46.4014   1
  -3   5   7 94.5447 19.2959   1
   3  -5  -6 89.9905 21.9641   1
   2  -4  -8 321.417 28.2575  -3
  -3   5   6 321.417 28.2575  -2
  -3   5   6 321.417 28.2575   1
  -3   5   5 558.872 9.72647   1
   3  -5  -4 1438.37 16.0436   1
   1  -3  -8 2623.81 17.7846  -3
  -3   5   4 2623.81 17.7846  -2
  -3   5   4 2623.81 17.7846   1
   3  -5  -3 332.001 10.0265   1
   0   3   8 1011.58 13.5071  -3
   3  -5  -3 1011.58 13.5071  -2
   3  -5  -3 1011.58 13.5071   1
   3  -5  -2 4199.73 15.8501   1
   3  -5  -2 8996.38 46.7349  -2
   3  -5  -2 8996.38 46.7349   1
   0  -2  -8 10799.2 21.3851  -3
  -3   5   2 10799.2 21.3851  -2
  -3   5   2 10799.2 21.3851   1
   3  -5  -1 229.375 8.91332  -2
   3  -5  -1 229.375 8.91332   1
   1   2   8 516.599 13.5590  -3
   3  -5  -1 516.599 13.5590  -2
   3  -5  -1 516.599 13.5590   1
   3  -5   0 1902.66 16.9501  -2
   3  -5   0 1902.66 16.9501   1
   1   1   8 7294.23 27.4597  -3
   3  -5   0 7294.23 27.4597  -2
   3  -5   0 7294.23 27.4597   1
   2   1   8 279.572 11.7707  -3
   3  -5   1 279.572 11.7707  -2
   3  -5   1 279.572 11.7707   1
   3  -5   2 499.689 11.3393  -2
   3  -5   2 499.689 11.3393   1
   3   0   8 1169.45 26.3603  -3
   3  -5   3 1169.45 26.3603  -2
   3  -5   3 1169.45 26.3603   1
  -3   5  -4 4872.21 27.2489   1
   3  -5   4 8231.30 36.5049  -2
   3  -5   4 8231.30 36.5049   1
   4  -1   8 1758.25 28.9904  -3
   3  -5   5 1758.25 28.9904  -2
   3  -5   5 1758.25 28.9904   1
   3  -5   6 638.475 34.8175   1
   5  -1   8 1520.06 51.6734  -3
   3  -5   6 1520.06 51.6734  -2
   3  -5   6 1520.06 51.6734   1
   3  -5   7 300.414 52.7056   1
  -5   2  -8 620.805 48.7532  -3
  -3   5  -7 620.805 48.7532  -2
  -3   5  -7 620.805 48.7532   1
   3  -5   8 20.1465 36.5077   1
  -6   2  -8 36.8681 85.4492  -3
  -3   5  -8 36.8681 85.4492  -2
  -3   5  -8 36.8681 85.4492   1
   3  -5   9 43.4037 38.1732   1
  -5   6   7 390.917 44.1688  -3
   3  -4 -11 390.917 44.1688   1
   3  -4 -10 5.42802 24.2960   1
  -4   5   7 4268.04 64.6313  -3
   3  -4  -9 4268.04 64.6313   1
   4  -5  -7 5625.57 43.8109  -3
  -3   4   9 5625.57 43.8109  -2
  -3   4   9 5625.57 43.8109   1
  -3   4   8 740.085 18.0544   1
  -3   4   7 2791.99 41.4529  -3
   3  -4  -7 2791.99 41.4529   1
   3  -4  -7 3834.27 35.8610  -3
  -3   4   7 3834.27 35.8610  -2
  -3   4   7 3834.27 35.8610   1
  -3   4   6 422.775 13.2230   1
   3  -4  -5 5.25204 4.22211   1
   2  -3  -7 13.1790 22.3517  -3
  -3   4   5 13.1790 22.3517  -2
  -3   4   5 13.1790 22.3517   1
   3  -4  -4 519.912 6.72318   1
   1  -3  -7 968.174 26.3050  -3
  -3   4   4 968.174 26.3050  -2
  -3   4   4 968.174 26.3050   1
   3  -4  -3 2584.80 8.17845   1
   1  -2  -7 5780.76 18.8389  -3
  -3   4   3 5780.76 18.8389  -2
  -3   4   3 5780.76 18.8389   1
   0   2   7 5596.75 13.7533  -3
   3  -4  -2 5596.75 13.7533  -2
   3  -4  -2 5596.75 13.7533   1
   3  -4  -1 9847.57 37.4521  -2
   3  -4  -1 9847.57 37.4521   1
   0  -1  -7 14194.1 21.5659  -3
  -3   4   1 14194.1 21.5659  -2
  -3   4   1 14194.1 21.5659   1
   3  -4   0 201.215 8.86791  -2
   3  -4   0 201.215 8.86791   1
   1   1   7 623.239 10.7505  -3
   3  -4   0 623.239 10.7505  -2
   3  -4   0 623.239 10.7505   1
   3  -4   1 87.4168 10.1273  -2
   3  -4   1 87.4168 10.1273   1
   1   0   7 793.517 19.3317  -3
   3  -4   1 793.517 19.3317  -2
   3  -4   1 793.517 19.3317   1
   2   0   7 9464.26 18.3706  -3
   3  -4   2 9464.26 18.3706  -2
   3  -4   2 9464.26 18.3706   1
  -3   4  -3 744.071 23.0433   1
   3  -4   3 1272.58 10.4921  -2
   3  -4   3 1272.58 10.4921   1
   3  -1   7 1141.66 15.4760  -3
   3  -4   4 1141.66 15.4760  -2
   3  -4   4 1141.66 15.4760   1
   3  -4   5 6253.91 22.9030   1
   3  -4   5 10364.1 52.4630  -2
   3  -4   5 10364.1 52.4630   1
   4  -2   7 828.202 27.6119  -3
   3  -4   6 828.202 27.6119  -2
   3  -4   6 828.202 27.6119   1
   3  -4   7 222.767 35.7343   1
  -5   2  -7 607.564 50.9208  -3
  -3   4  -7 607.564 50.9208  -2
  -3   4  -7 607.564 50.9208   1
   3  -4   8 399.365 55.0118   1
   5  -3   7 470.413 57.8026  -3
   3  -4   8 470.413 57.8026  -2
   3  -4   8 470.413 57.8026   1
   3  -4   9 280.134 67.5363   1
   6  -3   7 237.821 65.8042  -3
   3  -4   9 237.821 65.8042  -2
   3  -4   9 237.821 65.8042   1
  -3   4 -10 95.0857 46.7931   1
   6  -4   7 444.324 121.562  -3
   3  -4  10 444.324 121.562  -2
   3  -4  10 444.324 121.562   1
  -3   3  11 107.501 35.9098   1
   5  -5  -6 1423.64 46.2614  -3
  -3   3  10 1423.64 46.2614  -2
  -3   3  10 1423.64 46.2614   1
   3  -3  -9 426.693 17.6194   1
  -4   4   6 4428.87 56.2929  -3
   3  -3  -8 4428.87 56.2929   1
   4  -4  -6 6069.87 42.3384  -3
  -3   3   8 6069.87 42.3384  -2
  -3   3   8 6069.87 42.3384   1
   3  -3  -7 1088.02 17.2304   1
  -3   3   6 4025.65 38.4261  -3
   3  -3  -6 4025.65 38.4261   1
   3  -3  -6 5416.86 28.8374  -3
  -3   3   6 5416.86 28.8374  -2
  -3   3   6 5416.86 28.8374   1
  -3   3   5 580.322 9.51924   1
   3  -3  -4 724.316 15.0107   1
   2  -2  -6 1483.82 12.4605  -3
  -3   3   4 1483.82 12.4605  -2
  -3   3   4 1483.82 12.4605   1
  -3   3   3 69.1298 4.27608   1
  -1   2   6 501.990 12.8187  -3
   3  -3  -3 501.990 12.8187  -2
   3  -3  -3 501.990 12.8187   1
   3  -3  -2 15014.9 34.8620  -2
   3  -3  -2 15014.9 34.8620   1
  -1   1   6 18856.7 21.0642  -3
   3  -3  -2 18856.7 21.0642  -2
   3  -3  -2 18856.7 21.0642   1
   3  -3  -1 1772.82 18.7759  -2
   3  -3  -1 1772.82 18.7759   1
   0   1   6 2450.23 11.4092  -3
   3  -3  -1 2450.23 11.4092  -2
   3  -3  -1 2450.23 11.4092   1
  -3   3   0 5536.16 22.6986  -2
  -3   3   0 5536.16 22.6986   1
   0   0  -6 12790.9 19.2332  -3
  -3   3   0 12790.9 19.2332  -2
  -3   3   0 12790.9 19.2332   1
   3  -3   1 2127.82 15.4777  -2
   3  -3   1 2127.82 15.4777   1
  -1   0  -6 2448.62 10.4211  -3
  -3   3  -1 2448.62 10.4211  -2
  -3   3  -1 2448.62 10.4211   1
   3  -3   2 775.792 7.80157  -2
   3  -3   2 775.792 7.80157   1
   1  -1   6 1883.26 14.3114  -3
   3  -3   2 1883.26 14.3114  -2
   3  -3   2 1883.26 14.3114   1
   2  -1   6 315.139 9.13281  -3
   3  -3   3 315.139 9.13281  -2
   3  -3   3 315.139 9.13281   1
   3  -3   4 6792.87 13.5320   1
   3  -3   4 11681.7 35.1989  -2
   3  -3   4 11681.7 35.1989   1
   3  -2   6 2759.01 31.9508  -3
   3  -3   5 2759.01 31.9508   1
  -3   2  -6 3581.15 20.0772  -3
  -3   3  -5 3581.15 20.0772  -2
  -3   3  -5 3581.15 20.0772   1
  -3   3  -6 1758.70 14.6198   1
   4  -3   6 622.190 29.4577  -3
   3  -3   7 622.190 29.4577  -2
   3  -3   7 622.190 29.4577   1
  -5   3  -6 281.966 43.0516  -3
  -3   3  -8 281.966 43.0516  -2
  -3   3  -8 281.966 43.0516   1
   3  -3   9 202.572 60.0923   1
  -5   4  -6 316.878 51.7554  -3
  -3   3  -9 316.878 51.7554  -2
  -3   3  -9 316.878 51.7554   1
   3  -3  10 1066.47 73.3396   1
  -6   4  -6 1464.18 62.2671  -3
  -3   3 -10 1464.18 62.2671  -2
  -3   3 -10 1464.18 62.2671   1
   6  -5   6 688.107 108.366  -3
   3  -3  11 688.107 108.366   1
  -3   2  12 50.9875 53.6250   1
   6  -5  -5 926.435 70.2437  -3
  -2   3  11 926.435 70.2437  -2
  -3   2  11 926.435 70.2437   1
  -3   2  10 24.9513 53.6720   1
  -6   4   5 81.6421 60.4476  -3
   3  -2 -10 81.6421 60.4476  -2
   3  -2 -10 81.6421 60.4476   1
   5  -4  -5 5693.06 61.4110  -3
  -3   2   9 5693.06 61.4110  -2
  -3   2   9 5693.06 61.4110   1
   3  -2  -8 686.280 23.3495   1
   5  -3  -5 1425.09 39.2215  -3
  -3   2   8 1425.09 39.2215  -2
  -3   2   8 1425.09 39.2215   1
  -4   3   5 10042.4 63.1776  -3
   3  -2  -7 10042.4 63.1776   1
   4  -3  -5 14248.5 39.9311  -3
  -3   2   7 14248.5 39.9311  -2
  -3   2   7 14248.5 39.9311   1
  -3   2   6 11.0977 10.6866   1
  -3   2   5 9.72271 21.5253  -3
   3  -2  -5 9.72271 21.5253   1
  -3   2   5 16.6777 14.6958  -3
   3  -2  -5 16.6777 14.6958  -2
   3  -2  -5 16.6777 14.6958   1
  -3   2   4 1756.25 7.47570   1
  -3   2   3 3246.96 13.6967   1
   2  -1  -5 5392.17 11.7016  -3
  -3   2   3 5392.17 11.7016  -2
  -3   2   3 5392.17 11.7016   1
   3  -2  -2 10729.0 24.9655  -2
   3  -2  -2 10729.0 24.9655   1
  -1   1   5 14425.4 21.2413  -3
   3  -2  -2 14425.4 21.2413  -2
   3  -2  -2 14425.4 21.2413   1
   3  -2  -1 28741.5 31.5371  -2
   3  -2  -1 28741.5 31.5371   1
   1   0  -5 38147.9 25.9769  -3
  -3   2   1 38147.9 25.9769  -2
  -3   2   1 38147.9 25.9769   1
   3  -2   0 1923.98 11.4676  -2
   3  -2   0 1923.98 11.4676   1
   0   0   5 2447.15 10.1855  -3
   3  -2   0 2447.15 10.1855  -2
   3  -2   0 2447.15 10.1855   1
   3  -2   1 1323.81 6.57855  -2
   3  -2   1 1323.81 6.57855   1
   0  -1   5 5528.88 12.8598  -3
   3  -2   1 5528.88 12.8598  -2
   3  -2   1 5528.88 12.8598   1
   3  -2   2 1766.75 14.9666   1
   3  -2   2 4034.01 16.2851  -2
   3  -2   2 4034.01 16.2851   1
   1  -1   5 5227.66 11.1426  -3
   3  -2   2 5227.66 11.1426  -2
   3  -2   2 5227.66 11.1426   1
   3  -2   3 646.029 8.91843   1
   3  -2   3 1428.60 13.0750  -2
   3  -2   3 1428.60 13.0750   1
   1  -2   5 1585.22 14.5023  -3
   3  -2   3 1585.22 14.5023  -2
   3  -2   3 1585.22 14.5023   1
  -2   2  -5 2446.56 10.1076  -3
  -3   2  -4 2446.56 10.1076  -2
  -3   2  -4 2446.56 10.1076   1
   3  -2   5 8666.18 14.8591   1
   3  -3   5 1896.96 24.6993  -3
   3  -2   6 1896.96 24.6993   1
   3  -3   5 2380.53 19.4162  -3
   3  -2   6 2380.53 19.4162  -2
   3  -2   6 2380.53 19.4162   1
  -3   2  -7 780.189 16.4392   1
  -4   4  -5 788.630 34.2407  -3
  -3   2  -8 788.630 34.2407  -2
  -3   2  -8 788.630 34.2407   1
  -3   2  -9 24.4650 43.7589   1
  -5   4  -5-15.1601 52.1596  -3
  -3   2  -9-15.1601 52.1596  -2
  -3   2  -9-15.1601 52.1596   1
   3  -2  10 161.419 63.4579   1
  -5   5  -5 80.7639 73.4311  -3
  -3   2 -10 80.7639 73.4311  -2
  -3   2 -10 80.7639 73.4311   1
   3  -2  11 2354.00 48.4898   1
   3  -1 -12 226.587 73.8095   1
   7  -5  -4 230.707 125.573  -3
  -2   2  12 230.707 125.573  -2
  -3   1  12 230.707 125.573   1
   3  -1 -11 387.796 27.7974   1
  -3   1  10 18.6099 48.1577   1
  -6   4   4 436.819 50.7103  -3
   3  -1 -10 436.819 50.7103  -2
   3  -1 -10 436.819 50.7103   1
   3  -1  -9-11.0453 42.7168   1
   6  -3  -4 26.2233 39.7643  -3
  -3   1   9 26.2233 39.7643  -2
  -3   1   9 26.2233 39.7643   1
   5  -3  -4 7154.45 52.2701  -3
  -3   1   8 7154.45 52.2701  -2
  -3   1   8 7154.45 52.2701   1
  -3   1   7 1643.17 13.6998   1
   5  -2  -4 3912.83 44.4704  -3
  -3   1   7 3912.83 44.4704  -2
  -3   1   7 3912.83 44.4704   1
   4  -2  -4-60.7632 7.47660  -3
  -3   1   6-60.7632 7.47660   1
   4  -2  -4 2178.29 24.3269  -3
  -3   1   6 2178.29 24.3269  -2
  -3   1   6 2178.29 24.3269   1
   3  -1  -5 1700.26 10.0425   1
   3  -1  -4 232.222 18.9570  -3
  -3   1   4 232.222 18.9570   1
  -3   1   4 292.770 11.1212  -3
   3  -1  -4 292.770 11.1212  -2
   3  -1  -4 292.770 11.1212   1
  -3   1   3 222.979 4.73452   1
   3  -1  -3 406.313 23.9378  -2
   3  -1  -3 406.313 23.9378   1
   2  -1  -4 567.917 31.3302  -3
  -3   1   3 567.917 31.3302  -2
  -3   1   3 567.917 31.3302   1
  -3   1   2 10127.5 14.5450   1
  -2   0   4 20719.2 20.5946  -3
   3  -1  -2 20719.2 20.5946  -2
   3  -1  -2 20719.2 20.5946   1
  -3   1   1 1925.44 8.83566   1
   3  -1  -1 2776.26 10.4841  -2
   3  -1  -1 2776.26 10.4841   1
   1   0  -4 3475.13 21.2444  -3
  -3   1   1 3475.13 21.2444  -2
  -3   1   1 3475.13 21.2444   1
  -3   1   0 8021.24 21.9194   1
  -3   1   0 12855.0 19.7753  -2
  -3   1   0 12855.0 19.7753   1
  -1  -1   4 19292.0 17.3616  -3
   3  -1   0 19292.0 17.3616  -2
   3  -1   0 19292.0 17.3616   1
   3  -1   1 187.514 4.21435   1
  -3   1  -1 305.771 6.95613  -2
  -3   1  -1 305.771 6.95613   1
   0  -1   4 449.517 8.98929  -3
   3  -1   1 449.517 8.98929  -2
   3  -1   1 449.517 8.98929   1
  -3   1  -2 171.187 7.07364   1
   3  -1   2 241.064 8.87606  -2
   3  -1   2 241.064 8.87606   1
   0   2  -4 297.799 9.36612  -3
  -3   1  -2 297.799 9.36612  -2
  -3   1  -2 297.799 9.36612   1
   3  -1   3 1070.78 7.63869   1
   1  -2   4 3485.98 9.97941  -3
   3  -1   3 3485.98 9.97941  -2
   3  -1   3 3485.98 9.97941   1
   3  -1   4 5444.61 11.9796   1
  -3   1  -5 1363.45 18.0503   1
   2  -3   4 5222.81 16.5807  -3
   3  -1   5 5222.81 16.5807  -2
   3  -1   5 5222.81 16.5807   1
  -3   1  -6 6635.13 13.9789   1
   3  -1   7 19.0688 14.1667   1
   3  -4   4 372.719 32.4757  -3
   3  -1   7 372.719 32.4757   1
   3  -4   4 471.673 28.4942  -3
   3  -1   7 471.673 28.4942  -2
   3  -1   7 471.673 28.4942   1
  -3   1  -8 265.485 15.0087   1
  -4   5  -4 430.639 29.2544  -3
  -3   1  -9 430.639 29.2544  -2
  -3   1  -9 430.639 29.2544   1
   3  -1  10 1219.02 26.4252   1
   3  -1  11 495.361 42.8030   1
  -5   6  -4 727.173 98.9376  -3
  -4   1 -11 727.173 98.9376  -2
  -3   1 -11 727.173 98.9376   1
  -3   0  12 133.636 78.5001   1
  -8   4   3 101.394 118.962  -3
   2  -1 -12 101.394 118.962  -2
   3   0 -12 101.394 118.962   1
  -3   0  11 53.4695 30.1250   1
   7  -4  -3 678.219 106.809  -3
  -2   1  11 678.219 106.809  -2
  -3   0  11 678.219 106.809   1
  -3   0  10 339.473 22.8835   1
  -3   0   9 874.415 45.3497   1
  -6   3   3 3147.92 58.1812  -3
   3   0  -9 3147.92 58.1812  -2
   3   0  -9 3147.92 58.1812   1
  -3   0   8 787.445 26.6337   1
   6  -2  -3 1585.53 32.0187  -3
  -3   0   8 1585.53 32.0187  -2
  -3   0   8 1585.53 32.0187   1
  -5   2   3 7969.61 32.4003  -3
   3   0  -7 7969.61 32.4003   1
   5  -2  -3 12277.5 46.6255  -3
  -3   0   7 12277.5 46.6255  -2
  -3   0   7 12277.5 46.6255   1
  -3   0   6 681.843 8.02745   1
   4  -1  -3 1457.73 10.4370  -3
  -3   0   5 1457.73 10.4370   1
   4  -1  -3 2161.46 12.7454  -3
  -3   0   5 2161.46 12.7454  -2
  -3   0   5 2161.46 12.7454   1
   3   0  -4 926.621 15.3680   1
   3   0  -3 3281.69 24.8758  -3
  -3   0   3 3281.69 24.8758   1
  -3   0   3 4657.30 12.2503  -3
   3   0  -3 4657.30 12.2503  -2
   3   0  -3 4657.30 12.2503   1
  -3   0   2 1114.33 6.09410   1
   3   0  -2 1914.74 23.3950  -2
   3   0  -2 1914.74 23.3950   1
   2   0  -3 4268.36 31.6097  -3
  -3   0   2 4268.36 31.6097  -2
  -3   0   2 4268.36 31.6097   1
   3   0  -1 16038.0 30.5962   1
   2   1  -3 21343.9 32.0349  -3
  -3   0   1 21343.9 32.0349   1
  -2  -1   3 29731.4 19.6406  -3
   3   0  -1 29731.4 19.6406  -2
   3   0  -1 29731.4 19.6406   1
  -3   0   0 2650.83 6.26618   1
   3   0   0 4423.91 9.10573  -2
   3   0   0 4423.91 9.10573   1
   3   0   1 3222.62 10.8561   1
   1   2  -3 10046.8 14.8192  -3
  -3   0  -1 10046.8 14.8192  -2
  -3   0  -1 10046.8 14.8192   1
  -3   0  -2 5929.12 8.77739   1
   0   2  -3 13670.0 22.3802  -3
  -3   0  -2 13670.0 22.3802  -2
  -3   0  -2 13670.0 22.3802   1
   3   0   3 547.322 4.89663   1
   0   3  -3 1433.16 21.9462  -3
  -3   0  -3 1433.16 21.9462  -2
  -3   0  -3 1433.16 21.9462   1
   3   0   4 88.8908 6.94824   1
   1  -3   3 165.435 7.01411  -3
   3   0   4 165.435 7.01411  -2
   3   0   4 165.435 7.01411   1
   3   0   5 10868.8 11.7988   1
  -3   0  -6 1796.45 12.2559   1
  -2   4  -3 3741.92 14.7071  -3
  -3   0  -6 3741.92 14.7071  -2
  -3   0  -6 3741.92 14.7071   1
   3   0   7 1181.26 8.35726   1
   3   0   8 68.0436 14.8681   1
   3  -5   3 465.508 26.4860  -3
   3   0   8 465.508 26.4860   1
  -3   5  -3 447.524 24.6800  -3
  -3   0  -8 447.524 24.6800  -2
  -3   0  -8 447.524 24.6800   1
  -3   0  -9 13.8489 16.7279   1
  -4   6  -3 269.211 34.5764  -3
  -3   0 -10 269.211 34.5764  -2
  -3   0 -10 269.211 34.5764   1
  -3   0 -11 807.406 30.1454   1
  -5   7  -3 430.093 74.9448  -3
  -4  -1 -12 430.093 74.9448  -2
  -3   0 -12 430.093 74.9448   1
  -3  -1  12 594.737 80.5456   1
  -3  -1  11 302.294 37.2779   1
  -8   3   2 442.722 98.0981  -3
   2   0 -11 442.722 98.0981  -2
   3   1 -11 442.722 98.0981   1
   3   1 -10 81.6920 26.5612   1
   3   1  -9 112.864 45.9377   1
   7  -2  -2 351.083 54.8651  -3
  -3  -1   9 351.083 54.8651  -2
  -3  -1   9 351.083 54.8651   1
   3   1  -8 3917.52 26.3141   1
   6  -2  -2 6332.49 51.2649  -3
  -3  -1   8 6332.49 51.2649   1
  -3  -1   7 2279.65 16.6125   1
   6  -1  -2 5495.86 49.6761  -3
  -3  -1   7 5495.86 49.6761  -2
  -3  -1   7 5495.86 49.6761   1
   5  -1  -2 6939.82 21.0092  -3
  -3  -1   6 6939.82 21.0092   1
   5  -1  -2 10748.4 49.8744  -3
  -3  -1   6 10748.4 49.8744  -2
  -3  -1   6 10748.4 49.8744   1
  -3  -1   5 595.125 6.64963   1
   4   0  -2 88.9756 10.0118  -3
  -3  -1   4 88.9756 10.0118   1
   4   0  -2 121.673 9.21412  -3
  -3  -1   4 121.673 9.21412  -2
  -3  -1   4 121.673 9.21412   1
  -3  -1   3 932.515 5.18639   1
   3   1  -2 15037.3 26.3588  -3
  -3  -1   2 15037.3 26.3588   1
   3   1  -2 19838.3 18.2965  -3
  -3  -1   2 19838.3 18.2965  -2
  -3  -1   2 19838.3 18.2965   1
   3   1  -1 8047.92 10.1530   1
  -3  -1   1 12777.7 24.0970  -2
  -3  -1   1 12777.7 24.0970   1
  -2  -2   2 24623.9 43.3235  -3
   3   1   0 24623.9 43.3235   1
   2   2  -2 31874.8 15.0150  -3
  -3  -1   0 31874.8 15.0150  -2
  -3  -1   0 31874.8 15.0150   1
   3   1   1 9.40539 2.48287   1
   3   1   1 16.7343 6.88669  -2
   3   1   1 16.7343 6.88669   1
   1   2  -2 498.138 25.2570  -3
  -3  -1  -1 498.138 25.2570  -2
  -3  -1  -1 498.138 25.2570   1
   3   1   2 41.7734 2.54606   1
   1   3  -2 1235.28 15.8161  -3
  -3  -1  -2 1235.28 15.8161  -2
  -3  -1  -2 1235.28 15.8161   1
   3   1   3 815.382 4.44853   1
   0   3  -2 1701.40 10.3266  -3
  -3  -1  -3 1701.40 10.3266  -2
  -3  -1  -3 1701.40 10.3266   1
   3   1   4 2949.25 5.76953   1
   3   1   5 2670.91 13.4165   1
   1  -4   2 5220.45 13.5006  -3
   3   1   5 5220.45 13.5006  -2
   3   1   5 5220.45 13.5006   1
   3   1   6 4122.82 9.10818   1
  -3  -1  -7 2.69282 9.29821   1
   2  -5   2 482.872 27.3493  -3
   3   1   7 482.872 27.3493   1
  -2   5  -2 446.058 18.4701  -3
  -3  -1  -7 446.058 18.4701  -2
  -3  -1  -7 446.058 18.4701   1
   3   1   8 414.905 9.25731   1
   3  -6   2 1160.06 37.8642  -3
   3   1   9 1160.06 37.8642   1
  -3   6  -2 1779.46 29.2096  -3
  -3  -1  -9 1779.46 29.2096  -2
  -3  -1  -9 1779.46 29.2096   1
  -3  -1 -10 395.252 18.3942   1
  -4   7  -2 163.090 40.9155  -3
  -3  -1 -11 163.090 40.9155   1
  -4   7  -2 233.776 59.4754  -3
  -4  -1 -11 233.776 59.4754  -2
  -3  -1 -11 233.776 59.4754   1
  -3  -1 -12 2377.47 40.4241   1
   3   2 -11 86.6516 31.9176   1
  -3  -2  10 378.735 27.3434   1
   8  -2  -1 652.077 72.5059  -3
  -3  -2  10 652.077 72.5059   1
   3   2  -9-2.20753 19.6425   1
  -3  -2   8 0.10049 24.1046   1
   7  -1  -1 47.3305 46.9162  -3
  -3  -2   8 47.3305 46.9162  -2
  -3  -2   8 47.3305 46.9162   1
  -3  -2   7 4852.40 19.4614   1
   6  -1  -1 6544.76 49.2580  -3
  -3  -2   7 6544.76 49.2580   1
   3   2  -6 1429.06 12.3062   1
  -6   0   1 2751.75 39.6538  -3
   3   2  -6 2751.75 39.6538  -2
   3   2  -6 2751.75 39.6538   1
   5   0  -1 818.293 13.8776  -3
  -3  -2   5 818.293 13.8776   1
  -5   0   1 1242.74 16.4273  -3
   3   2  -5 1242.74 16.4273  -2
   3   2  -5 1242.74 16.4273   1
   3   2  -4 1200.58 6.67647   1
  -4  -1   1 77.2289 13.8258  -3
   3   2  -3 77.2289 13.8258   1
   4   1  -1 93.7018 9.05328  -3
  -3  -2   3 93.7018 9.05328  -2
  -3  -2   3 93.7018 9.05328   1
   3   2  -2 1874.44 5.73352   1
   3   2  -1 33772.8 19.4617  -3
  -3  -2   1 33772.8 19.4617  -2
  -3  -2   1 33772.8 19.4617   1
   3   2   0 3228.83 6.15992   1
   2   2  -1 5696.77 21.2875  -3
  -3  -2   0 5696.77 21.2875  -2
  -3  -2   0 5696.77 21.2875   1
   3   2   1 9113.03 17.4074   1
  -2  -3   1 16524.9 25.4854  -3
   3   2   1 16524.9 25.4854   1
  -2  -3   1 22520.9 18.4316  -3
   3   2   1 22520.9 18.4316  -2
   3   2   1 22520.9 18.4316   1
   3   2   2 846.435 4.33908   1
  -3  -2  -3 176.918 4.32898   1
   1   4  -1 692.634 14.9960  -3
  -3  -2  -3 692.634 14.9960  -2
  -3  -2  -3 692.634 14.9960   1
   3   2   4 340.756 5.05901   1
   0  -4   1 683.122 11.0484  -3
   3   2   4 683.122 11.0484  -2
   3   2   4 683.122 11.0484   1
   3   2   5 7668.76 9.74101   1
   3   2   6 2891.20 19.7218   1
   1  -5   1 6327.55 15.3440  -3
   3   2   6 6327.55 15.3440  -2
   3   2   6 6327.55 15.3440   1
  -3  -2  -7 8593.07 13.7085   1
  -3  -2  -8 308.951 9.94314   1
  -2   6  -1 1387.68 32.9588  -3
  -3  -2  -8 1387.68 32.9588  -2
  -3  -2  -8 1387.68 32.9588   1
   3   2   9 220.308 11.6335   1
   3  -7   1 678.071 46.2470  -3
   3   2  10 678.071 46.2470   1
  -3   7  -1 799.337 30.4692  -3
  -3  -2 -10 799.337 30.4692  -2
  -3  -2 -10 799.337 30.4692   1
  -3  -2 -11 388.689 21.5877   1
   4  -8   1 738.808 58.7866  -3
   4   3  12 738.808 58.7866  -2
   3   2  12 738.808 58.7866   1
  -3  -2 -13 1723.23 69.9150   1
   9  -2   0 131.431 55.6466  -3
  -2  -2  11 131.431 55.6466  -2
  -3  -3  11 131.431 55.6466   1
  -3  -3  10 4.46537 24.7499   1
  -3  -3   9 79.0807 23.3595   1
   8  -1   0 144.251 57.6146  -3
  -3  -3   9 144.251 57.6146  -2
  -3  -3   9 144.251 57.6146   1
   3   3  -8 1854.01 19.4131   1
  -3  -3   7 2275.10 24.6944   1
  -7   0   0 3346.76 30.8126  -3
   3   3  -7 3346.76 30.8126  -2
   3   3  -7 3346.76 30.8126   1
  -3  -3   6 4562.33 15.3845   1
   3   3  -5 6.83914 8.69700   1
   3   3  -4 38.7117 11.2123   1
   5   1   0 54.7499 25.3670  -3
  -3  -3   4 54.7499 25.3670   1
  -5  -1   0 64.0601 13.1303  -3
   3   3  -4 64.0601 13.1303  -2
   3   3  -4 64.0601 13.1303   1
  -3  -3   3 1756.42 6.88054   1
  -4  -2   0 14572.3 14.3589  -3
   3   3  -2 14572.3 14.3589  -2
   3   3  -2 14572.3 14.3589   1
   3   3  -1 149.627 3.76933   1
  -3  -3   0 19197.3 14.3162  -3
   3   3   0 19197.3 14.3162  -2
   3   3   0 19197.3 14.3162   1
   3   3   1 849.629 4.13275   1
   2   4   0 3538.16 13.3183  -3
  -3  -3  -2 3538.16 13.3183   1
  -2  -4   0 4769.85 10.7709  -3
   3   3   2 4769.85 10.7709  -2
   3   3   2 4769.85 10.7709   1
  -3  -3  -3 289.058 3.21127   1
   3   3   4 565.569 7.97157   1
   1   5   0 665.499 15.8311  -3
  -3  -3  -4 665.499 15.8311   1
  -1  -5   0 1051.82 9.80839  -3
   3   3   4 1051.82 9.80839  -2
   3   3   4 1051.82 9.80839   1
   3   3   5 813.944 12.0244   1
   0  -5   0 2091.30 11.4964  -3
   3   3   5 2091.30 11.4964  -2
   3   3   5 2091.30 11.4964   1
  -3  -3  -6 7609.33 11.9061   1
   3   3   7 811.485 28.1206   1
  -1   6   0 2087.53 15.1689  -3
  -3  -3  -7 2087.53 15.1689  -2
  -3  -3  -7 2087.53 15.1689   1
   3   3   8 680.315 10.8654   1
   3   3   9 344.802 14.6256   1
  -2   7   0 561.797 42.7596  -3
  -3  -3  -9 561.797 42.7596  -2
  -3  -3  -9 561.797 42.7596   1
   3   3  10 36.0255 14.7564   1
   3  -8   0 89.5389 30.9873  -3
   3   3  11 89.5389 30.9873   1
   3   3  12 2202.04 37.3537   1
   9  -1   1 515.931 43.0436  -3
  -3  -4  10 515.931 43.0436   1
  -3  -4   9 231.033 23.4111   1
  -3  -4   8 73.9595 22.1045   1
   8   0   1 593.301 52.7094  -3
  -3  -4   8 593.301 52.7094  -2
  -3  -4   8 593.301 52.7094   1
   3   4  -7 3056.05 18.5934   1
  -3  -4   6 1264.46 14.0258   1
  -7  -1  -1 2270.82 34.8315  -3
   3   4  -6 2270.82 34.8315  -2
   3   4  -6 2270.82 34.8315   1
   3   4  -5 1783.23 11.5603   1
  -3  -4   4 521.124 7.92154   1
  -3  -4   3-3.83833 11.4651   1
  -5  -2  -1 62.2669 10.6001  -3
   3   4  -3 62.2669 10.6001  -2
   3   4  -3 62.2669 10.6001   1
  -3  -4   2 24.0799 4.78952   1
   4   3   1 6552.67 31.9372  -3
  -3  -4   1 6552.67 31.9372   1
   4   3   1 8367.31 12.1020  -3
  -3  -4   1 8367.31 12.1020  -2
  -3  -4   1 8367.31 12.1020   1
  -3  -4   0 3840.90 6.85033   1
  -3  -4  -1 11129.7 19.5617  -3
   3   4   1 11129.7 19.5617   1
   3   4   1 15445.5 16.9842  -3
  -3  -4  -1 15445.5 16.9842  -2
  -3  -4  -1 15445.5 16.9842   1
  -3  -4  -2 13.2434 4.10959   1
  -2  -5  -1 43.8979 8.59827  -3
   3   4   3 43.8979 8.59827   1
   2   5   1 81.8099 11.5566  -3
  -3  -4  -3 81.8099 11.5566  -2
  -3  -4  -3 81.8099 11.5566   1
   3   4   4 3826.38 9.35608   1
   1   6   1 3346.58 12.8273  -3
  -3  -4  -5 3346.58 12.8273  -2
  -3  -4  -5 3346.58 12.8273   1
   3   4   6 1333.38 21.5740   1
   0   6   1 3757.37 16.2821  -3
  -3  -4  -6 3757.37 16.2821  -2
  -3  -4  -6 3757.37 16.2821   1
  -3  -4  -7 4598.19 13.3850   1
   3   4   8 168.868 29.5543   1
   1  -7  -1 722.559 19.9654  -3
   3   4   8 722.559 19.9654  -2
   3   4   8 722.559 19.9654   1
   3   4   9 119.839 13.3416   1
   3   4  10 795.302 20.3074   1
  -2   8   1 1653.64 53.9884  -3
  -3  -4 -10 1653.64 53.9884  -2
  -3  -4 -10 1653.64 53.9884   1
   3   4  11 225.083 21.4182   1
  -3  -4 -12 97.8608 53.8132   1
   3  -9  -1 158.986 51.0204  -3
   3   4  12 158.986 51.0204   1
   3  -9  -1 434.885 114.325  -3
   4   4  12 434.885 114.325  -2
   3   4  12 434.885 114.325   1
  -3  -4 -13 2078.72 71.7797   1
  -3  -5  10 13.7658 29.3139   1
   9   0   2 107.376 43.2473  -3
  -3  -5   9 107.376 43.2473  -2
  -3  -5   9 107.376 43.2473   1
  -3  -5   8 248.524 21.7784   1
   3   5  -7 643.220 22.2096   1
   8   1   2 1901.49 42.0547  -3
  -3  -5   7 1901.49 42.0547  -2
  -3  -5   7 1901.49 42.0547   1
  -3  -5   6 3592.31 18.4072   1
  -3  -5   5 864.288 11.0648   1
  -3  -5   4 922.944 9.04794   1
  -3  -5   3 828.874 8.17070   1
   3   5  -2 564.443 7.88047   1
  -5  -3  -2 2478.14 28.0629  -3
   3   5  -2 2478.14 28.0629  -2
   3   5  -2 2478.14 28.0629   1
  -3  -5   1 1052.02 6.18629   1
   4   4   2 18520.6 30.5005  -3
  -3  -5   0 18520.6 30.5005   1
   4   4   2 24811.6 20.8581  -3
  -3  -5   0 24811.6 20.8581  -2
  -3  -5   0 24811.6 20.8581   1
   3   5   1 3721.23 7.70782   1
  -3  -5  -2 7971.86 29.5034  -3
   3   5   2 7971.86 29.5034   1
  -3  -5  -2 10782.1 19.3437  -3
   3   5   2 10782.1 19.3437  -2
   3   5   2 10782.1 19.3437   1
   3   5   3 668.578 6.23867   1
   2   6   2 71.0978 11.5410  -3
  -3  -5  -4 71.0978 11.5410   1
  -2  -6  -2 134.860 13.0667  -3
   3   5   4 134.860 13.0667  -2
   3   5   4 134.860 13.0667   1
   3   5   5 83.2497 8.26844   1
  -1  -7  -2 9607.45 24.4230  -3
   3   5   6 9607.45 24.4230  -2
   3   5   6 9607.45 24.4230   1
   3   5   7 1566.65 30.5320   1
   0  -7  -2 4216.76 20.9454  -3
   3   5   7 4216.76 20.9454  -2
   3   5   7 4216.76 20.9454   1
   3   5   8 3692.46 19.5021   1
   0   8   2 9695.98 52.5345  -3
  -3  -5  -8 9695.98 52.5345  -2
  -3  -5  -8 9695.98 52.5345   1
   1  -8  -2 60.6223 22.3289  -3
   3   5   9 60.6223 22.3289  -2
   3   5   9 60.6223 22.3289   1
  -3  -5 -10 27.5400 15.6697   1
  -3  -5 -11 219.753 28.6425   1
   2  -9  -2 494.598 49.9436  -3
   3   5  11 494.598 49.9436   1
   3   5  12 673.784 26.7054   1
  -3  -5 -13 906.006 67.4425   1
  -3  10   2 1287.74 94.4515  -3
  -3  -5 -13 1287.74 94.4515   1
  10   0   3 22.7515 67.3071  -3
  -3  -6  10 22.7515 67.3071   1
  -3  -6   9 27.6008 28.0496   1
   9   1   3 216.027 32.5517  -3
  -3  -6   8 216.027 32.5517   1
  -3  -6   7 1044.71 21.9853   1
   3   6  -6 554.667 28.0250   1
   8   2   3 1431.70 34.4742  -3
  -3  -6   6 1431.70 34.4742  -2
  -3  -6   6 1431.70 34.4742   1
  -3  -6   5 3159.37 15.5726   1
  -3  -6   4 83.1630 10.1887   1
  -7  -3  -3 40.8791 57.4454  -3
   3   6  -4 40.8791 57.4454  -2
   3   6  -4 40.8791 57.4454   1
  -3  -6   3 13.2087 8.30524   1
  -3  -6   2 196.462 8.03713   1
   3   6  -1 1563.81 8.30370   1
  -3  -6   0 472.444 6.04417   1
   4   5   3 7498.79 17.8141  -3
  -3  -6  -1 7498.79 17.8141   1
   4   5   3 11605.4 18.6688  -3
  -3  -6  -1 11605.4 18.6688  -2
  -3  -6  -1 11605.4 18.6688   1
   3   6   2 479.775 5.65421   1
  -3  -6  -3 1172.95 14.1143  -3
   3   6   3 1172.95 14.1143   1
  -3  -6  -3 1554.81 14.7020  -3
   3   6   3 1554.81 14.7020  -2
   3   6   3 1554.81 14.7020   1
  -3  -6  -4 445.826 9.12441   1
   2   7   3 623.642 18.9501  -3
  -3  -6  -5 623.642 18.9501   1
   2   7   3 1089.13 22.9041  -3
  -3  -6  -5 1089.13 22.9041  -2
  -3  -6  -5 1089.13 22.9041   1
  -3  -6  -6 1161.84 13.2822   1
  -1  -7  -3 3334.23 39.4309  -3
   3   6   6 3334.23 39.4309  -2
   3   6   6 3334.23 39.4309   1
  -3  -6  -7 4957.85 42.4416   1
  -1  -8  -3 9939.32 30.0931  -3
   3   6   7 9939.32 30.0931  -2
   3   6   7 9939.32 30.0931   1
   0   8   3 2082.11 22.9465  -3
  -3  -6  -8 2082.11 22.9465  -2
  -3  -6  -8 2082.11 22.9465   1
   3   6   9 273.625 15.9127   1
   0   9   3 1227.50 67.0181  -3
  -3  -6  -9 1227.50 67.0181  -2
  -3  -6  -9 1227.50 67.0181   1
  -3  -6 -10 292.526 31.0619   1
   1  -9  -3 604.449 33.8441  -3
   3   6  10 604.449 33.8441  -2
   3   6  10 604.449 33.8441   1
  -3  -6 -11 5.52517 20.6682   1
  -3  -6 -12 185.614 43.8647   1
  -2  10   3 248.298 60.7400  -3
  -4  -6 -12 248.298 60.7400  -2
  -3  -6 -12 248.298 60.7400   1
   3   6  13 1678.45 38.5018   1
  10   1   4 128.001 101.544  -3
  -3  -7   9 128.001 101.544   1
  -3  -7   8 90.0171 26.2579   1
   9   2   4 881.070 65.1038  -3
  -3  -7   7 881.070 65.1038   1
   9   2   4 769.796 57.6032  -3
  -3  -7   8 769.796 57.6032  -2
  -3  -7   7 769.796 57.6032   1
  -3  -7   6 2005.00 21.2946   1
   3   7  -5 625.003 28.5015   1
   8   3   4 1070.59 26.4200  -3
  -3  -7   5 1070.59 26.4200   1
  -3  -7   4 157.182 11.5666   1
  -3  -7   3 1159.20 12.9164   1
   7   4   4 2300.32 52.5699  -3
  -3  -7   3 2300.32 52.5699  -2
  -3  -7   3 2300.32 52.5699   1
  -3  -7   2 27.1557 8.83949   1
  -3  -7   1 0.34913 7.75298   1
   3   7   0 3064.62 10.5825   1
  -5  -5  -4 7255.33 58.3570  -3
   3   7   0 7255.33 58.3570  -2
   3   7   0 7255.33 58.3570   1
   3   7   1 1471.91 26.7253   1
  -4  -6  -4 5647.97 25.1545  -3
   3   7   2 5647.97 25.1545  -2
   3   7   2 5647.97 25.1545   1
   3   7   3-3.62208 5.33587   1
  -3  -7  -4 736.776 19.0998  -3
   3   7   4 736.776 19.0998   1
   3   7   4 1038.19 18.3316  -3
  -3  -7  -4 1038.19 18.3316  -2
  -3  -7  -4 1038.19 18.3316   1
  -3  -7  -5 674.759 11.2043   1
   2   8   4 4995.53 25.0646  -3
  -3  -7  -6 4995.53 25.0646  -2
  -3  -7  -6 4995.53 25.0646   1
  -3  -7  -7 1516.99 19.7187   1
  -1  -8  -4 3188.04 34.8621  -3
   3   7   7 3188.04 34.8621  -2
   3   7   7 3188.04 34.8621   1
   1   9   4 6833.97 29.2900  -3
  -3  -7  -8 6833.97 29.2900  -2
  -3  -7  -8 6833.97 29.2900   1
   0  -9  -4 1.94709 25.7239  -3
   3   7   9 1.94709 25.7239  -2
   3   7   9 1.94709 25.7239   1
   3   7  10 19.8354 44.9651   1
   0 -10  -4 354.776 36.9730  -3
   3   7  10 354.776 36.9730  -2
   3   7  10 354.776 36.9730   1
   3   7  11 64.2312 36.7416   1
   1 -10  -4 291.628 55.8822  -3
   3   7  11 291.628 55.8822  -2
   3   7  11 291.628 55.8822   1
   3   7  12 879.740 38.2130   1
   3   8  -7 138.445 32.3654   1
  -9  -3  -5 820.351 51.3949  -3
   3   8  -7 820.351 51.3949  -2
   3   8  -6 820.351 51.3949   1
  -3  -8   5 2489.65 25.7938   1
   3   8  -4 736.937 36.1334   1
   8   4   5 2095.57 35.7013  -3
  -3  -8   5 2095.57 35.7013  -2
  -3  -8   4 2095.57 35.7013   1
   3   8  -3 556.153 14.0829   1
   3   8  -2 121.306 12.5803   1
   3   8  -1 197.896 12.2469   1
   3   8   0 355.607 13.7393   1
   3   8   1 4091.09 22.2686   1
  -5  -6  -5 8093.88 66.6847  -3
   3   8   1 8093.88 66.6847  -2
   3   8   1 8093.88 66.6847   1
   3   8   2 1104.33 13.2663   1
   4   7   5 1802.89 21.3198  -3
  -3  -8  -3 1802.89 21.3198  -2
  -3  -8  -3 1802.89 21.3198   1
   3   8   4 1272.07 15.6215   1
   3   8   5 250.318 24.9941  -3
  -3  -8  -5 250.318 24.9941  -2
  -3  -8  -5 250.318 24.9941   1
  -3  -8  -6 336.343 15.1914   1
   2   9   5 5655.22 35.3986  -3
  -3  -8  -7 5655.22 35.3986  -2
  -3  -8  -7 5655.22 35.3986   1
  -3  -8  -8 1063.64 18.8410   1
   1  10   5 1439.25 37.9208  -3
  -3  -8  -9 1439.25 37.9208  -2
  -3  -8  -9 1439.25 37.9208   1
   0  10   5 76.9248 39.4654  -3
  -3  -8 -10 76.9248 39.4654  -2
  -3  -8 -10 76.9248 39.4654   1
  -3  -8 -11 19.2708 57.6928   1
   0 -11  -5-16.0486 53.1874  -3
   3   8  11-16.0486 53.1874  -2
   3   8  11-16.0486 53.1874   1
   3   9  -6 999.905 35.3412   1
   9   4   6 1219.16 53.2612  -3
  -3  -9   6 1219.16 53.2612  -2
  -3  -9   5 1219.16 53.2612   1
  -3  -9   4 1522.69 29.6561   1
   3   9  -3 107.032 39.1816   1
  -8  -5  -6 863.627 43.1299  -3
   3   9  -4 863.627 43.1299  -2
   3   9  -3 863.627 43.1299   1
  -3  -9   2 51.1119 16.9884   1
  -3  -9   1 64.9157 19.9645   1
  -7  -6  -6 55.8296 63.3499  -3
   3   9  -2 55.8296 63.3499  -2
   3   9  -1 55.8296 63.3499   1
   3   9   0 1323.27 16.9953   1
  -3  -9  -1 1973.01 20.2787   1
  -3  -9  -2 2740.37 21.6231   1
  -5  -7  -6 4695.16 74.4634  -3
   3   9   2 4695.16 74.4634  -2
   3   9   2 4695.16 74.4634   1
   3   9   3 63.6811 15.2616   1
   4   8   6 53.1866 25.6063  -3
  -3  -9  -4 53.1866 25.6063  -2
  -3  -9  -4 53.1866 25.6063   1
  -3  -9  -5 61.0127 16.2585   1
   3   9   6 1337.49 31.9942  -3
  -3  -9  -6 1337.49 31.9942  -2
  -3  -9  -6 1337.49 31.9942   1
   3   9   7 768.450 19.5836   1
  -2 -10  -6 2994.67 39.2261  -3
   3   9   8 2994.67 39.2261  -2
   3   9   8 2994.67 39.2261   1
   3   9   9 53.1755 24.4513   1
  -1 -11  -6 508.827 45.9510  -3
   3   9  10 508.827 45.9510  -2
   3   9  10 508.827 45.9510   1
  -3  -9 -11 55.6270 64.9984   1
   0 -11  -6 190.202 112.065  -3
   3   9  11 190.202 112.065  -2
   3   9  11 190.202 112.065   1
  -9  -5  -7 692.878 49.5348  -3
   3  10  -4 692.878 49.5348   1
  -3 -10   3 14.3511 28.1678   1
   8   6   7 320.746 45.8636  -3
  -3 -10   3 320.746 45.8636  -2
  -3 -10   2 320.746 45.8636   1
   3  10  -1 15.9543 21.4537   1
   3  10   0 168.812 28.1442   1
   7   7   7 403.692 55.6058  -3
  -3 -10   1 403.692 55.6058  -2
  -3 -10   0 403.692 55.6058   1
   3  10   1 2080.85 24.1607   1
   3  10   2 902.410 24.0510   1
  -6  -8  -7 2394.09 84.7525  -3
   3  10   1 2394.09 84.7525  -2
   3  10   2 2394.09 84.7525   1
   3  10   3 910.365 23.6137   1
  -5  -8  -7 1244.20 77.4805  -3
   3  10   2 1244.20 77.4805  -2
   3  10   3 1244.20 77.4805   1
   3  10   4 24.2048 18.6982   1
  -4  -9  -7 14.7178 25.1629  -3
   3  10   5 14.7178 25.1629   1
   3  10   6 33.8288 21.8284   1
  -3 -10  -7 3364.14 39.4294  -3
   3  10   7 3364.14 39.4294  -2
   3  10   7 3364.14 39.4294   1
   3  10   8 819.977 27.5761   1
  -2 -11  -7 2506.35 54.7481  -3
   3  10   9 2506.35 54.7481  -2
   3  10   9 2506.35 54.7481   1
  -3 -10 -10 29.6100 65.8867   1
   3  11  -2 38.7146 37.4444   1
   8   7   8 129.931 61.2138  -3
  -3 -11   2 129.931 61.2138  -2
  -3 -11   1 129.931 61.2138   1
  -3 -11   0 340.641 28.7812   1
   3  11   1 371.026 41.0177   1
   7   8   8 867.288 47.0729  -3
  -3 -11   0 867.288 47.0729  -2
  -3 -11  -1 867.288 47.0729   1
   3  11   2 1358.80 29.7558   1
   6   8   8 1707.25 84.9731  -3
  -3 -11  -1 1707.25 84.9731  -2
  -3 -11  -2 1707.25 84.9731   1
  -3 -11  -3 352.044 27.0250   1
  -6  -9  -8 1268.85 99.4116  -3
   3  11   2 1268.85 99.4116  -2
   3  11   3 1268.85 99.4116   1
  -3 -11  -4 17.2422 31.0153   1
   5   9   8 273.499 64.7149  -3
  -3 -11  -3 273.499 64.7149  -2
  -3 -11  -4 273.499 64.7149   1
  -3 -11  -5 366.515 23.4430   1
  -3 -11  -6 118.672 56.9707   1
  -4 -10  -8 409.900 43.5970  -3
   3  11   5 409.900 43.5970  -2
   3  11   6 409.900 43.5970   1
  -3 -11  -7 180.858 31.4503   1
   3  11   8 1643.86 63.5806  -3
  -3 -11  -8 1643.86 63.5806   1
  -3 -11  -9 313.113 69.5788   1
   8   8   9 80.5258 84.4161  -3
  -3 -12   0 80.5258 84.4161   1
   3  12   1 343.164 66.2058   1
   7   8   9 597.726 102.860  -3
  -3 -12   0 597.726 102.860  -2
  -3 -12  -1 597.726 102.860   1
   3  12   2 348.461 65.7159   1
  -7  -9  -9 817.611 63.5853  -3
   3  12   1 817.611 63.5853  -2
   3  12   2 817.611 63.5853   1
   3  12   3 646.105 34.5270   1
   6   9   9 894.880 97.4556  -3
  -3 -12  -2 894.880 97.4556  -2
  -3 -12  -3 894.880 97.4556   1
  -3 -12  -4 22.3690 38.8399   1
   6  10   9 221.778 100.227  -3
  -3 -12  -3 221.778 100.227  -2
  -3 -12  -4 221.778 100.227   1
  -3 -12  -5 24.1473 45.2224   1
   5  10   9 64.2349 82.3489  -3
  -3 -12  -4 64.2349 82.3489  -2
  -3 -12  -5 64.2349 82.3489   1
  -3 -12  -6 18.2989 65.9747   1
  -3  -4 -13 4671.01 126.322  -3
  -4   9   1 4671.01 126.322  -2
  -4   9   1 4671.01 126.322   1
  -3  -3 -13 665.679 111.726  -3
  -4   9   0 665.679 111.726  -2
  -4   9   0 665.679 111.726   1
  -1   6  12 578.496 117.655  -3
   4  -8  -7 578.496 117.655  -2
   4  -8  -7 578.496 117.655   1
   1  -5 -12 2263.38 80.7809  -3
  -4   8   6 2263.38 80.7809  -2
  -4   8   6 2263.38 80.7809   1
   0   5  12 20.9211 49.9677  -3
   4  -8  -5 20.9211 49.9677  -2
   4  -8  -5 20.9211 49.9677   1
  -4   8   4 33.5583 38.5330  -2
  -4   8   4 33.5583 38.5330   1
   1   4  12 497.532 52.6553  -3
   4  -8  -3 497.532 52.6553  -2
   4  -8  -3 497.532 52.6553   1
  -4   8   2 1083.03 57.8205  -2
  -4   8   2 1083.03 57.8205   1
  -2  -3 -12 1197.43 69.6730  -3
  -4   8   1 1197.43 69.6730  -2
  -4   8   1 1197.43 69.6730   1
  -3  -3 -12 4033.89 78.3701  -3
  -4   8   0 4033.89 78.3701  -2
  -4   8   0 4033.89 78.3701   1
  -3  -2 -12 229.996 55.0253  -3
  -4   8  -1 229.996 55.0253  -2
  -4   8  -1 229.996 55.0253   1
   4   2  12 187.841 75.0060  -3
   4  -8   2 187.841 75.0060  -2
   4  -8   2 187.841 75.0060   1
   4   1  12 94.3023 79.7479  -3
   4  -8   3 94.3023 79.7479  -2
   4  -8   3 94.3023 79.7479   1
   5   1  12 472.529 134.594  -3
   4  -8   4 472.529 134.594  -2
   4  -8   4 472.529 134.594   1
  -2   6  11 489.025 111.248  -3
   4  -7  -8 489.025 111.248  -2
   4  -7  -8 489.025 111.248   1
   2  -5 -11 3047.41 63.9455  -3
  -4   7   7 3047.41 63.9455  -2
  -4   7   7 3047.41 63.9455   1
   1  -5 -11 296.543 47.6556  -3
  -4   7   6 296.543 47.6556  -2
  -4   7   6 296.543 47.6556   1
   1  -4 -11 1209.96 51.2675  -3
  -4   7   5 1209.96 51.2675  -2
  -4   7   5 1209.96 51.2675   1
   0   4  11 1311.49 41.3498  -3
   4  -7  -4 1311.49 41.3498  -2
   4  -7  -4 1311.49 41.3498   1
   0  -3 -11 331.200 38.2694  -3
  -4   7   3 331.200 38.2694  -2
  -4   7   3 331.200 38.2694   1
  -1  -3 -11 230.737 36.8277  -3
  -4   7   2 230.737 36.8277  -2
  -4   7   2 230.737 36.8277   1
   4  -7  -1 5685.44 39.9291  -2
   4  -7  -1 5685.44 39.9291   1
  -2  -2 -11 887.204 38.1322  -3
  -4   7   0 887.204 38.1322  -2
  -4   7   0 887.204 38.1322   1
   3   2  11 479.604 47.0924  -3
   4  -7   1 479.604 47.0924  -2
   4  -7   1 479.604 47.0924   1
   3   1  11 589.830 61.2533  -3
   4  -7   2 589.830 61.2533  -2
   4  -7   2 589.830 61.2533   1
   4   1  11 50.4687 68.6292  -3
   4  -7   3 50.4687 68.6292  -2
   4  -7   3 50.4687 68.6292   1
   4  -7   4 7.26146 58.4382   1
   4   0  11 61.3707 107.499  -3
   4  -7   4 61.3707 107.499  -2
   4  -7   4 61.3707 107.499   1
   5   0  11 2739.41 130.330  -3
   4  -7   5 2739.41 130.330  -2
   4  -7   5 2739.41 130.330   1
  -4   6   9 36.3219 47.0602   1
   3  -5 -10 3461.10 62.8228  -3
  -4   6   8 3461.10 62.8228  -2
  -4   6   8 3461.10 62.8228   1
  -4   6   7 1172.99 29.1161   1
   2  -4 -10 5875.48 49.9617  -3
  -4   6   6 5875.48 49.9617  -2
  -4   6   6 5875.48 49.9617   1
  -4   6   5 15.3717 31.4815   1
   1  -4 -10 25.9050 43.4806  -3
  -4   6   5 25.9050 43.4806  -2
  -4   6   5 25.9050 43.4806   1
  -4   6   4 230.218 32.5558   1
   1  -3 -10 1118.08 36.0672  -3
  -4   6   4 1118.08 36.0672  -2
  -4   6   4 1118.08 36.0672   1
   0  -3 -10 548.367 26.5373  -3
  -4   6   3 548.367 26.5373  -2
  -4   6   3 548.367 26.5373   1
   0  -2 -10 2603.03 26.0488  -3
  -4   6   2 2603.03 26.0488  -2
  -4   6   2 2603.03 26.0488   1
   1   2  10 3016.07 31.3583  -3
   4  -6  -1 3016.07 31.3583  -2
   4  -6  -1 3016.07 31.3583   1
   4  -6   0 6717.56 33.6222  -2
   4  -6   0 6717.56 33.6222   1
  -2  -1 -10 827.501 28.3161  -3
  -4   6  -1 827.501 28.3161  -2
  -4   6  -1 827.501 28.3161   1
   4  -6   2 498.410 51.3557  -2
   4  -6   2 498.410 51.3557   1
   3   1  10 718.547 54.2010  -3
   4  -6   2 718.547 54.2010  -2
   4  -6   2 718.547 54.2010   1
   3   0  10 756.310 37.1778  -3
   4  -6   3 756.310 37.1778  -2
   4  -6   3 756.310 37.1778   1
   4  -6   4 239.718 49.1428   1
   4   0  10 443.436 58.4197  -3
   4  -6   4 443.436 58.4197  -2
   4  -6   4 443.436 58.4197   1
  -4   6  -5 432.260 36.0134   1
   4  -1  10 992.136 103.268  -3
   4  -6   5 992.136 103.268  -2
   4  -6   5 992.136 103.268   1
   4  -6   6 2226.51 80.3000   1
  -5   1 -10 3230.93 105.908  -3
  -4   6  -6 3230.93 105.908  -2
  -4   6  -6 3230.93 105.908   1
   4  -6   7 420.858 51.1768   1
  -4   5  10 358.724 45.0277   1
   4  -5  -9 18.9755 42.7035  -3
  -4   5   9 18.9755 42.7035  -2
  -4   5   9 18.9755 42.7035   1
  -4   5   8 159.722 22.7936   1
   3  -4  -9 6456.07 36.5364  -3
  -4   5   7 6456.07 36.5364  -2
  -4   5   7 6456.07 36.5364   1
  -4   5   6 680.203 19.5114   1
   2  -4  -9 1106.80 60.1966  -3
  -4   5   6 1106.80 60.1966  -2
  -4   5   6 1106.80 60.1966   1
   2  -3  -9 4724.79 30.2247  -3
  -4   5   5 4724.79 30.2247  -2
  -4   5   5 4724.79 30.2247   1
  -4   5   4 389.563 22.5773   1
   1  -3  -9 757.779 30.8660  -3
  -4   5   4 757.779 30.8660  -2
  -4   5   4 757.779 30.8660   1
  -1   2   9 18.9001 17.1389  -3
   4  -5  -3 18.9001 17.1389  -2
   4  -5  -3 18.9001 17.1389   1
   0   2   9 286.944 19.2514  -3
   4  -5  -2 286.944 19.2514  -2
   4  -5  -2 286.944 19.2514   1
   4  -5  -1 5577.72 40.2087  -2
   4  -5  -1 5577.72 40.2087   1
   0   1   9 5411.91 33.2445  -3
   4  -5  -1 5411.91 33.2445  -2
   4  -5  -1 5411.91 33.2445   1
   1   1   9 4742.36 34.5395  -3
   4  -5   0 4742.36 34.5395  -2
   4  -5   0 4742.36 34.5395   1
   4  -5   1 4413.38 22.7627  -2
   4  -5   1 4413.38 22.7627   1
   2   0   9 614.348 27.1810  -3
   4  -5   2 614.348 27.1810  -2
   4  -5   2 614.348 27.1810   1
   4  -5   3 28.0311 25.6621   1
   4  -5   3 90.4547 20.4594  -2
   4  -5   3 90.4547 20.4594   1
   3  -1   9 288.078 28.4425  -3
   4  -5   4 288.078 28.4425  -2
   4  -5   4 288.078 28.4425   1
   4  -1   9 3602.62 41.1403  -3
   4  -5   5 3602.62 41.1403  -2
   4  -5   5 3602.62 41.1403   1
   4  -5   6 852.528 35.4482   1
   4  -2   9 1412.05 65.1490  -3
   4  -5   6 1412.05 65.1490  -2
   4  -5   6 1412.05 65.1490   1
  -5   2  -9 4112.46 61.3596  -3
  -4   5  -7 4112.46 61.3596  -2
  -4   5  -7 4112.46 61.3596   1
   4  -5   8 50.8895 38.7390   1
  -4   4  11 9.39863 48.8989   1
   5  -5  -8 89.4578 57.2813  -3
  -4   4  10 89.4578 57.2813  -2
  -4   4  10 89.4578 57.2813   1
  -4   4   9 145.048 26.1591   1
   4  -4  -8 2301.94 38.0474  -3
  -4   4   8 2301.94 38.0474  -2
  -4   4   8 2301.94 38.0474   1
  -4   4   7 379.410 17.2578   1
  -3   3   8 5592.35 30.8455  -3
   4  -4  -6 5592.35 30.8455  -2
   4  -4  -6 5592.35 30.8455   1
  -4   4   5 24.6250 14.9753   1
   2  -3  -8 99.0595 47.0691  -3
  -4   4   5 99.0595 47.0691  -2
  -4   4   5 99.0595 47.0691   1
  -2   2   8 406.404 20.0976  -3
   4  -4  -4 406.404 20.0976  -2
   4  -4  -4 406.404 20.0976   1
   1  -2  -8 2352.53 19.0151  -3
  -4   4   3 2352.53 19.0151  -2
  -4   4   3 2352.53 19.0151   1
   4  -4  -2 1213.96 23.7164  -2
   4  -4  -2 1213.96 23.7164   1
  -1   1   8 1249.05 17.6923  -3
   4  -4  -2 1249.05 17.6923  -2
   4  -4  -2 1249.05 17.6923   1
   0   1   8 1399.88 12.8637  -3
   4  -4  -1 1399.88 12.8637  -2
   4  -4  -1 1399.88 12.8637   1
   4  -4   0 15061.1 33.6993  -2
   4  -4   0 15061.1 33.6993   1
   0   0  -8 16566.9 45.8148  -3
  -4   4   0 16566.9 45.8148  -2
  -4   4   0 16566.9 45.8148   1
   4  -4   1 194.576 8.94059  -2
   4  -4   1 194.576 8.94059   1
   1   0   8 363.018 14.4116  -3
   4  -4   1 363.018 14.4116  -2
   4  -4   1 363.018 14.4116   1
   4  -4   2 875.566 11.8287  -2
   4  -4   2 875.566 11.8287   1
   2  -1   8 1123.43 21.2015  -3
   4  -4   3 1123.43 21.2015  -2
   4  -4   3 1123.43 21.2015   1
  -4   4  -4 355.830 16.2191   1
   4  -4   4 735.740 26.4843  -2
   4  -4   4 735.740 26.4843   1
   3  -2   8 506.309 27.4295  -3
   4  -4   5 506.309 27.4295  -2
   4  -4   5 506.309 27.4295   1
   4  -4   6 3070.52 50.9109   1
   4  -2   8 4900.42 49.1195  -3
   4  -4   6 4900.42 49.1195  -2
   4  -4   6 4900.42 49.1195   1
   4  -4   7 607.991 51.8758   1
  -4   3  -8 916.097 48.1483  -3
  -4   4  -7 916.097 48.1483  -2
  -4   4  -7 916.097 48.1483   1
   4  -4   8 829.215 65.9944   1
  -5   3  -8 2026.25 56.6927  -3
  -4   4  -8 2026.25 56.6927  -2
  -4   4  -8 2026.25 56.6927   1
   4  -4   9-24.1891 71.1037   1
   5  -4   8 246.775 112.443  -3
   4  -4   9 246.775 112.443  -2
   4  -4   9 246.775 112.443   1
   4  -4  10 223.769 82.2492   1
   6  -5  -7 1252.45 111.611  -3
  -3   4  11 1252.45 111.611  -2
  -4   3  11 1252.45 111.611   1
  -4   3  10 317.932 29.3478   1
   5  -4  -7-3.47306 42.5231  -3
  -4   3   9-3.47306 42.5231  -2
  -4   3   9-3.47306 42.5231   1
  -4   3   8 33.5025 20.7909   1
   4  -3  -7 10772.2 45.9979  -3
  -4   3   7 10772.2 45.9979  -2
  -4   3   7 10772.2 45.9979   1
  -4   3   6 2908.65 16.0458   1
  -4   3   5 5348.99 29.2608   1
   3  -2  -7 12267.2 32.8514  -3
  -4   3   5 12267.2 32.8514  -2
  -4   3   5 12267.2 32.8514   1
  -4   3   4-147.700 11.0514   1
   2  -2  -7 818.922 50.6467  -3
  -4   3   4 818.922 50.6467  -2
  -4   3   4 818.922 50.6467   1
   2  -1  -7 237.632 16.3354  -3
  -4   3   3 237.632 16.3354  -2
  -4   3   3 237.632 16.3354   1
   4  -3  -2 801.443 18.8608  -2
   4  -3  -2 801.443 18.8608   1
   1  -1  -7 1176.32 13.4713  -3
  -4   3   2 1176.32 13.4713  -2
  -4   3   2 1176.32 13.4713   1
   4  -3  -1 7163.21 22.9799  -2
   4  -3  -1 7163.21 22.9799   1
  -1   0   7 7383.07 19.6961  -3
   4  -3  -1 7383.07 19.6961  -2
   4  -3  -1 7383.07 19.6961   1
   0   0   7 6511.27 14.0894  -3
   4  -3   0 6511.27 14.0894  -2
   4  -3   0 6511.27 14.0894   1
   4  -3   1 2279.54 10.9403   1
   4  -3   1 4916.67 15.1242  -2
   4  -3   1 4916.67 15.1242   1
   0  -1   7 7673.34 21.6362  -3
   4  -3   1 7673.34 21.6362  -2
   4  -3   1 7673.34 21.6362   1
   1  -1   7 514.395 8.65618  -3
   4  -3   2 514.395 8.65618  -2
   4  -3   2 514.395 8.65618   1
   4  -3   3 15.3647 5.31266   1
   4  -3   3 11.0387 15.8913  -2
   4  -3   3 11.0387 15.8913   1
   2  -2   7 605.237 20.6049  -3
   4  -3   4 605.237 20.6049   1
   2  -2   7 1307.54 17.5232  -3
   4  -3   4 1307.54 17.5232  -2
   4  -3   4 1307.54 17.5232   1
   4  -3   5 1183.51 13.4229   1
   3  -3   7 1083.89 28.5690  -3
   4  -3   6 1083.89 28.5690  -2
   4  -3   6 1083.89 28.5690   1
   4  -3   7 8496.60 49.8474  -3
   4  -3   7 8496.60 49.8474  -2
   4  -3   7 8496.60 49.8474   1
   4  -3   8 66.5466 53.3916   1
   4  -4   7 442.182 53.4830  -3
   4  -3   8 442.182 53.4830  -2
   4  -3   8 442.182 53.4830   1
   4  -3   9-9.74471 62.9787   1
  -5   4  -7 249.895 62.7982  -3
  -4   3  -9 249.895 62.7982  -2
  -4   3  -9 249.895 62.7982   1
   4  -3  10 583.403 53.3444   1
   4  -2 -11 96.2449 30.4705   1
   6  -4  -6 352.382 57.0120  -3
  -4   2  10 352.382 57.0120  -2
  -4   2  10 352.382 57.0120   1
  -4   2   9 509.551 22.1801   1
   5  -3  -6 1045.03 54.0431  -3
  -4   2   8 1045.03 54.0431   1
   5  -3  -6 1098.30 33.0942  -3
  -4   2   8 1098.30 33.0942  -2
  -4   2   8 1098.30 33.0942   1
   4  -2  -7 1276.08 16.6504   1
   4  -2  -6 8751.42 51.7994  -3
  -4   2   6 8751.42 51.7994   1
   4  -2  -6 10971.3 40.9001  -3
  -4   2   6 10971.3 40.9001  -2
  -4   2   6 10971.3 40.9001   1
  -4   2   5 545.985 9.24901   1
  -4   2   4 661.868 12.7561   1
  -3   1   6 1468.60 14.6808  -3
   4  -2  -4 1468.60 14.6808  -2
   4  -2  -4 1468.60 14.6808   1
   4  -2  -3 707.895 9.68376   1
   2  -1  -6 2587.27 30.9116  -3
  -4   2   3 2587.27 30.9116  -2
  -4   2   3 2587.27 30.9116   1
   4  -2  -2 327.486 7.42352   1
   4  -2  -2 446.821 10.5468  -2
   4  -2  -2 446.821 10.5468   1
  -2   0   6 708.952 12.5032  -3
   4  -2  -2 708.952 12.5032  -2
   4  -2  -2 708.952 12.5032   1
   4  -2  -1 487.451 13.3021  -2
   4  -2  -1 487.451 13.3021   1
  -1   0   6 659.121 11.5782  -3
   4  -2  -1 659.121 11.5782  -2
   4  -2  -1 659.121 11.5782   1
   4  -2   0 12790.3 24.8250  -2
   4  -2   0 12790.3 24.8250   1
  -1  -1   6 14063.3 16.9760  -3
   4  -2   0 14063.3 16.9760  -2
   4  -2   0 14063.3 16.9760   1
   4  -2   1 1249.51 8.75542   1
   4  -2   1 2473.96 19.2647  -2
   4  -2   1 2473.96 19.2647   1
   0  -1   6 3764.27 9.88873  -3
   4  -2   1 3764.27 9.88873  -2
   4  -2   1 3764.27 9.88873   1
   4  -2   2 3674.18 21.7757   1
   4  -2   2 6316.99 18.3502  -2
   4  -2   2 6316.99 18.3502   1
   0  -2   6 11504.3 20.5978  -3
   4  -2   2 11504.3 20.5978  -2
   4  -2   2 11504.3 20.5978   1
   4  -2   3 217.863 7.24859   1
   1  -2   6 501.712 8.79588  -3
   4  -2   3 501.712 8.79588  -2
   4  -2   3 501.712 8.79588   1
   4  -2   4 234.540 5.31905   1
   4  -2   4 552.117 23.1546  -2
   4  -2   4 552.117 23.1546   1
   4  -2   5 172.677 28.4144   1
   2  -3   6 620.081 17.5377  -3
   4  -2   5 620.081 17.5377   1
   2  -3   6 1034.82 16.1819  -3
   4  -2   5 1034.82 16.1819  -2
   4  -2   5 1034.82 16.1819   1
  -4   2  -6 2211.92 13.3167   1
  -3   4  -6 1792.78 32.0346  -3
  -4   2  -7 1792.78 32.0346  -2
  -4   2  -7 1792.78 32.0346   1
  -4   4  -6 3966.26 54.4507  -3
  -4   2  -8 3966.26 54.4507  -2
  -4   2  -8 3966.26 54.4507   1
   4  -2   9 72.5409 58.5737   1
  -4   5  -6 475.485 68.6401  -3
  -4   2  -9 475.485 68.6401  -2
  -4   2  -9 475.485 68.6401   1
   4  -2  10 275.574 67.0518   1
   5  -6   6 42.2097 106.038  -3
   4  -2  11 42.2097 106.038   1
  -7   4   5 898.363 63.1258  -3
   3  -2 -11 898.363 63.1258  -2
   4  -1 -11 898.363 63.1258   1
   4  -1 -10 81.2246 24.9342   1
  -6   3   5 120.021 35.5032  -3
   4  -1  -9 120.021 35.5032  -2
   4  -1  -9 120.021 35.5032   1
  -4   1   8 125.820 15.5989   1
   5  -2  -5 6202.98 60.3731  -3
  -4   1   7 6202.98 60.3731   1
  -5   2   5 7299.29 33.8533  -3
   4  -1  -7 7299.29 33.8533  -2
   4  -1  -7 7299.29 33.8533   1
  -4   1   6 893.762 11.6537   1
   4  -1  -5 9102.21 44.9085  -3
  -4   1   5 9102.21 44.9085   1
   4  -1  -5 12579.9 28.2126  -3
  -4   1   5 12579.9 28.2126  -2
  -4   1   5 12579.9 28.2126   1
   4  -1  -4 30.0004 7.13211   1
  -4   1   3 682.427 11.7390   1
  -3   0   5 1552.76 10.3396  -3
   4  -1  -3 1552.76 10.3396  -2
   4  -1  -3 1552.76 10.3396   1
   4  -1  -2-19.8822 15.6639   1
   2   0  -5 1604.38 37.5525  -3
  -4   1   2 1604.38 37.5525  -2
  -4   1   2 1604.38 37.5525   1
   4  -1  -1 3263.45 17.8136   1
   4  -1  -1 5052.08 19.0287  -2
   4  -1  -1 5052.08 19.0287   1
   2   1  -5 5206.37 14.7551  -3
  -4   1   1 5206.37 14.7551  -2
  -4   1   1 5206.37 14.7551   1
   4  -1   0 2694.99 9.44205   1
   4  -1   0 4669.61 16.9170  -2
   4  -1   0 4669.61 16.9170   1
  -1  -1   5 5950.07 16.1453  -3
   4  -1   0 5950.07 16.1453  -2
   4  -1   0 5950.07 16.1453   1
   4  -1   1 10944.2 20.5607   1
  -4   1  -1 18093.9 31.5581  -2
  -4   1  -1 18093.9 31.5581   1
  -1  -2   5 22486.6 21.9324  -3
   4  -1   1 22486.6 21.9324  -2
   4  -1   1 22486.6 21.9324   1
   4  -1   2 404.166 12.6211   1
   0  -2   5 1070.05 8.37612  -3
   4  -1   2 1070.05 8.37612  -2
   4  -1   2 1070.05 8.37612   1
   4  -1   3 1121.43 8.01370   1
  -4   1  -3 1940.75 24.6357  -2
  -4   1  -3 1940.75 24.6357   1
   0   3  -5 6760.78 30.9638  -3
  -4   1  -3 6760.78 30.9638  -2
  -4   1  -3 6760.78 30.9638   1
   4  -1   4 558.688 9.45622   1
   1  -3   5 1337.51 12.2469  -3
   4  -1   4 1337.51 12.2469  -2
   4  -1   4 1337.51 12.2469   1
   4  -1   5 615.398 6.52590   1
   4  -1   6 588.003 9.89348   1
  -2   4  -5 1152.73 18.8844  -3
  -4   1  -6 1152.73 18.8844  -2
  -4   1  -6 1152.73 18.8844   1
   4  -1   7 5949.64 17.8148   1
  -3   5  -5 1703.84 36.9523  -3
  -4   1  -8 1703.84 36.9523  -2
  -4   1  -8 1703.84 36.9523   1
  -4   5  -5 2371.45 45.1855  -3
  -4   1  -9 2371.45 45.1855  -2
  -4   1  -9 2371.45 45.1855   1
   4  -1  10 32.9680 60.8134   1
  -4   6  -5 410.609 62.7750  -3
  -4   1 -10 410.609 62.7750  -2
  -4   1 -10 410.609 62.7750   1
  -4   1 -11 27.2844 37.5766   1
   8  -4  -4 2186.37 136.704  -3
  -3   1  12 2186.37 136.704  -2
  -4   0  12 2186.37 136.704   1
  -4   0  11 273.918 32.9304   1
  -4   0  10 431.567 53.8283   1
  -7   3   4 316.667 54.5102  -3
   4   0 -10 316.667 54.5102   1
   7  -2  -4 1155.22 37.4960  -3
  -4   0   9 1155.22 37.4960  -2
  -4   0   9 1155.22 37.4960   1
   6  -2  -4 877.370 26.4926  -3
  -4   0   8 877.370 26.4926  -2
  -4   0   8 877.370 26.4926   1
  -4   0   7 58.7225 13.1724   1
   5  -1  -4 8248.88 54.7830  -3
  -4   0   6 8248.88 54.7830   1
   5  -1  -4 10704.2 29.5686  -3
  -4   0   6 10704.2 29.5686  -2
  -4   0   6 10704.2 29.5686   1
   4   0  -5 1267.32 10.1575   1
   4   0  -4 2796.28 29.0524  -3
  -4   0   4 2796.28 29.0524   1
  -4   0   4 3916.25 15.3108  -3
   4   0  -4 3916.25 15.3108  -2
   4   0  -4 3916.25 15.3108   1
  -4   0   3 456.125 5.98893   1
  -4   0   2 36.0174 3.17767   1
  -3  -1   4 114.710 8.92024  -3
   4   0  -2 114.710 8.92024  -2
   4   0  -2 114.710 8.92024   1
   4   0  -1 399.116 3.75641   1
   4   0  -1 635.704 20.3431  -2
   4   0  -1 635.704 20.3431   1
   4   0   0 8138.08 12.0035   1
   2   2  -4 14397.5 20.5001  -3
  -4   0   0 14397.5 20.5001  -2
  -4   0   0 14397.5 20.5001   1
  -4   0  -1 475.408 20.2564   1
  -4   0  -1 3096.16 18.9354  -2
  -4   0  -1 3096.16 18.9354   1
   1   2  -4 4419.31 21.0206  -3
  -4   0  -1 4419.31 21.0206  -2
  -4   0  -1 4419.31 21.0206   1
  -4   0  -2 3074.98 7.58728   1
  -1  -3   4 8905.38 33.1649  -3
   4   0   2 8905.38 33.1649  -2
   4   0   2 8905.38 33.1649   1
   4   0   3 304.040 13.2116   1
   0   3  -4 507.023 8.99122  -3
  -4   0  -3 507.023 8.99122  -2
  -4   0  -3 507.023 8.99122   1
   4   0   4 7.11886 4.90684   1
  -4   0  -5 422.146 5.50588   1
   1  -4   4 1678.58 12.2179  -3
   4   0   5 1678.58 12.2179  -2
   4   0   5 1678.58 12.2179   1
  -4   0  -6 1455.41 7.26359   1
   4   0   7 1111.13 16.5829   1
   2  -5   4 1166.39 25.2124  -3
   4   0   7 1166.39 25.2124   1
   2  -5   4 1937.43 27.6376  -3
   4   0   7 1937.43 27.6376  -2
   4   0   7 1937.43 27.6376   1
   4   0   8 4002.03 17.4420   1
  -3   6  -4 568.096 36.5218  -3
  -4   0  -9 568.096 36.5218  -2
  -4   0  -9 568.096 36.5218   1
   4   0  10 60.9856 28.6211   1
   4   0  11 456.318 69.7803   1
  -4   7  -4 848.749 71.9345  -3
  -5   0 -11 848.749 71.9345  -2
  -4   0 -11 848.749 71.9345   1
  -4  -1  11 1205.07 51.1814   1
  -4  -1  10 75.9673 40.0546   1
   4   1  -9 89.7231 49.5622   1
   7  -2  -3 99.6766 80.4976  -3
  -4  -1   9 99.6766 80.4976  -2
  -4  -1   9 99.6766 80.4976   1
  -7   1   3 818.411 30.9663  -3
   4   1  -8 818.411 30.9663  -2
   4   1  -8 818.411 30.9663   1
   6  -1  -3 1942.41 32.8294  -3
  -4  -1   7 1942.41 32.8294   1
   6  -1  -3 2881.53 26.7498  -3
  -4  -1   7 2881.53 26.7498  -2
  -4  -1   7 2881.53 26.7498   1
   4   1  -6 1322.97 10.0384   1
   5   0  -3 10878.7 23.8640  -3
  -4  -1   5 10878.7 23.8640   1
   5   0  -3 13662.8 24.7284  -3
  -4  -1   5 13662.8 24.7284  -2
  -4  -1   5 13662.8 24.7284   1
   4   1  -4 884.695 5.93960   1
   4   1  -3 1817.79 15.2770  -3
  -4  -1   3 1817.79 15.2770   1
  -4  -1   3 2401.00 10.9133  -3
   4   1  -3 2401.00 10.9133  -2
   4   1  -3 2401.00 10.9133   1
  -4  -1   2 2945.12 7.91155   1
  -4  -1   1 137.045 8.83181   1
   3   2  -3 207.174 7.51034  -3
  -4  -1   1 207.174 7.51034  -2
  -4  -1   1 207.174 7.51034   1
   4   1   0 412.715 4.16250   1
   4   1   0 721.876 16.4293  -2
   4   1   0 721.876 16.4293   1
  -4  -1  -1 8043.30 12.3220   1
   4   1   1 14182.6 28.7450  -2
   4   1   1 14182.6 28.7450   1
  -4  -1  -2 2769.16 9.78225   1
   4   1   3 4781.42 10.4816   1
   4   1   4-11.4807 16.4556   1
   0  -4   3 880.400 10.3660  -3
   4   1   4 880.400 10.3660  -2
   4   1   4 880.400 10.3660   1
   4   1   5 210.324 5.10194   1
  -4  -1  -6 668.225 9.91214   1
   1  -5   3 2817.90 16.5926  -3
   4   1   6 2817.90 16.5926  -2
   4   1   6 2817.90 16.5926   1
   4   1   7 4345.65 11.0181   1
   4   1   8 1396.66 19.5254   1
   2  -6   3 1744.42 36.6533  -3
   4   1   8 1744.42 36.6533   1
  -2   6  -3 2534.30 36.4821  -3
  -4  -1  -8 2534.30 36.4821  -2
  -4  -1  -8 2534.30 36.4821   1
  -4  -1  -9 1582.80 18.0554   1
  -3   7  -3 463.510 54.3985  -3
  -4  -1 -10 463.510 54.3985  -2
  -4  -1 -10 463.510 54.3985   1
  -4  -1 -11-14.4896 32.4262   1
   4   1  12 21.7594 80.4866   1
  -4  -2  11 437.917 51.9187   1
  -4  -2  10 1191.11 31.0646   1
  -4  -2   9 126.703 28.1077   1
  -8   1   2 309.437 61.8711  -3
   4   2  -9 309.437 61.8711  -2
   4   2  -9 309.437 61.8711   1
  -4  -2   8 52.0391 21.5048   1
   7  -1  -2 461.664 72.8804  -3
  -4  -2   8 461.664 72.8804  -2
  -4  -2   8 461.664 72.8804   1
  -4  -2   7 72.5774 15.5017   1
   7   0  -2 61.4024 36.6503  -3
  -4  -2   7 61.4024 36.6503  -2
  -4  -2   7 61.4024 36.6503   1
   6   0  -2 6340.03 23.2792  -3
  -4  -2   6 6340.03 23.2792   1
   6   0  -2 8710.03 32.5587  -3
  -4  -2   6 8710.03 32.5587  -2
  -4  -2   6 8710.03 32.5587   1
   4   2  -5 1204.39 9.19083   1
   5   1  -2 6192.47 23.3369  -3
  -4  -2   4 6192.47 23.3369   1
  -5  -1   2 7856.95 17.9619  -3
   4   2  -4 7856.95 17.9619  -2
   4   2  -4 7856.95 17.9619   1
  -4  -2   3 18.6859 5.54606   1
  -4  -2   2 2495.93 25.9330  -3
   4   2  -2 2495.93 25.9330   1
   4   2  -2 3397.36 10.9916  -3
  -4  -2   2 3397.36 10.9916  -2
  -4  -2   2 3397.36 10.9916   1
   4   2  -1 27.6405 4.31921   1
   4   2   0 8958.54 33.5986   1
  -3  -3   2 18375.2 14.1407  -3
   4   2   0 18375.2 14.1407  -2
   4   2   0 18375.2 14.1407   1
  -4  -2  -1 4093.41 8.34307   1
   4   2   2 12074.0 12.2572   1
  -4  -2  -3 89.4873 4.91788   1
  -1  -4   2 186.555 16.5137  -3
   4   2   3 186.555 16.5137  -2
   4   2   3 186.555 16.5137   1
  -4  -2  -4 377.837 5.11639   1
   4   2   5 1005.55 9.37504   1
   0  -5   2 2805.06 14.7859  -3
   4   2   5 2805.06 14.7859  -2
   4   2   5 2805.06 14.7859   1
  -4  -2  -6 452.921 6.43081   1
   4   2   7 2720.04 14.9484   1
  -1   6  -2 5325.97 23.8448  -3
  -4  -2  -7 5325.97 23.8448  -2
  -4  -2  -7 5325.97 23.8448   1
  -4  -2  -8 5554.96 16.7188   1
   2  -7   2 1455.44 29.5132  -3
   4   2   9 1455.44 29.5132   1
  -2   7  -2 1614.22 26.9054  -3
  -4  -2  -9 1614.22 26.9054  -2
  -4  -2  -9 1614.22 26.9054   1
  -4  -2 -10 186.659 26.4409   1
  -3   8  -2 356.790 42.5355  -3
  -4  -2 -11 356.790 42.5355   1
  -4  -2 -12 243.982 37.1868   1
   4   3 -10 147.177 36.0309   1
   9  -1  -1 246.667 58.3140  -3
  -4  -3  10 246.667 58.3140   1
  -4  -3   9 0.27341 21.1617   1
  -4  -3   8 884.758 20.3077   1
  -8   0   1 1459.15 78.0370  -3
   4   3  -8 1459.15 78.0370  -2
   4   3  -8 1459.15 78.0370   1
   4   3  -7 122.497 13.3610   1
  -4  -3   6 74.2531 10.9045   1
  -6  -1   1 8130.10 25.3726  -3
   4   3  -5 8130.10 25.3726   1
   6   1  -1 11750.7 29.7039  -3
  -4  -3   5 11750.7 29.7039  -2
  -4  -3   5 11750.7 29.7039   1
   4   3  -4 1784.37 10.4319   1
  -5  -2   1 3622.01 38.2262  -3
   4   3  -3 3622.01 38.2262   1
   5   2  -1 4986.08 13.1845  -3
  -4  -3   3 4986.08 13.1845  -2
  -4  -3   3 4986.08 13.1845   1
  -4  -3   2 914.947 6.01126   1
  -4  -3   1 5126.59 11.0841  -3
   4   3  -1 5126.59 11.0841  -2
   4   3  -1 5126.59 11.0841   1
   4   3   0 417.452 4.71004   1
   4   3   1 6522.42 17.0112   1
  -3  -4   1 11748.6 13.8421  -3
   4   3   1 11748.6 13.8421  -2
   4   3   1 11748.6 13.8421   1
  -4  -3  -2 5492.76 10.4073   1
   4   3   3 5788.87 14.7520   1
   2   5  -1 11144.9 27.3333  -3
  -4  -3  -3 11144.9 27.3333   1
   2   5  -1 14973.5 34.4842  -3
  -4  -3  -3 14973.5 34.4842  -2
  -4  -3  -3 14973.5 34.4842   1
  -4  -3  -4 217.945 11.4514   1
  -1  -5   1 603.024 11.1204  -3
   4   3   4 603.024 11.1204  -2
   4   3   4 603.024 11.1204   1
   4   3   5 15.5363 4.32644   1
   4   3   6 284.926 11.5477   1
   0  -6   1 990.842 14.4494  -3
   4   3   6 990.842 14.4494  -2
   4   3   6 990.842 14.4494   1
   4   3   7 4006.50 10.8923   1
   4   3   8 1737.66 13.7439   1
  -1   7  -1 3384.47 40.8265  -3
  -4  -3  -8 3384.47 40.8265  -2
  -4  -3  -8 3384.47 40.8265   1
   4   3   9 3414.17 16.9448   1
  -4  -3 -10 72.3003 43.6482   1
   2  -8   1 294.278 52.9471  -3
   4   3  10 294.278 52.9471   1
  -2   8  -1 356.640 40.6405  -3
  -4  -3 -10 356.640 40.6405  -2
  -4  -3 -10 356.640 40.6405   1
   4   3  11 30.0132 29.8944   1
   3  -9   1 406.205 63.1089  -3
   5   3  12 406.205 63.1089  -2
   4   3  12 406.205 63.1089   1
  -4  -4  10 1005.57 34.4359   1
   4   4  -9 23.1388 28.3654   1
   9   0   0 32.4102 53.0564  -3
  -4  -4   9 32.4102 53.0564   1
   4   4  -8 73.9876 17.4970   1
  -4  -4   7 103.861 17.3777   1
  -8  -1   0 107.975 67.9764  -3
   4   4  -7 107.975 67.9764  -2
   4   4  -7 107.975 67.9764   1
   4   4  -6 671.993 13.1149   1
  -4  -4   5 872.556 11.6763   1
   4   4  -4 3070.16 18.5305   1
  -6  -2   0 4057.74 53.2588  -3
   4   4  -4 4057.74 53.2588   1
   6   2   0 5788.94 25.1608  -3
  -4  -4   4 5788.94 25.1608  -2
  -4  -4   4 5788.94 25.1608   1
   4   4  -3 624.564 7.51993   1
  -5  -3   0 172.986 9.51052  -3
   4   4  -2 172.986 9.51052  -2
   4   4  -2 172.986 9.51052   1
   4   4  -1 2810.96 8.22403   1
  -4  -4   0 3899.66 20.8724  -3
   4   4   0 3899.66 20.8724   1
  -4  -4   0 5129.98 11.8624  -3
   4   4   0 5129.98 11.8624  -2
   4   4   0 5129.98 11.8624   1
   4   4   1 1532.56 6.02751   1
   4   4   2 11788.5 28.1128   1
   3   5   0 17966.3 29.7311  -3
  -4  -4  -2 17966.3 29.7311   1
  -3  -5   0 25394.6 22.8538  -3
   4   4   2 25394.6 22.8538  -2
   4   4   2 25394.6 22.8538   1
   4   4   3 462.469 4.17377   1
   4   4   4 415.295 9.03498   1
   2   6   0 1146.07 12.3493  -3
  -4  -4  -4 1146.07 12.3493   1
   2   6   0 1893.17 25.4800  -3
  -4  -4  -4 1893.17 25.4800  -2
  -4  -4  -4 1893.17 25.4800   1
  -4  -4  -5 803.081 8.92975   1
   1   6   0 2036.89 20.3042  -3
  -4  -4  -5 2036.89 20.3042  -2
  -4  -4  -5 2036.89 20.3042   1
   4   4   6 162.158 8.93945   1
   4   4   7 125.296 16.4131   1
   0  -7   0 221.569 17.6247  -3
   4   4   7 221.569 17.6247  -2
   4   4   7 221.569 17.6247   1
   4   4   8 4617.71 16.8414   1
   4   4   9 844.225 19.4934   1
   1  -8   0 1808.43 52.7003  -3
   4   4   9 1808.43 52.7003   1
  -1   8   0 2296.97 40.0944  -3
  -4  -4  -9 2296.97 40.0944  -2
  -4  -4  -9 2296.97 40.0944   1
  -4  -4 -10 781.952 18.1491   1
  -4  -4 -11 34.9594 50.7685   1
   2  -9   0 104.042 33.8056  -3
   4   4  11 104.042 33.8056   1
  -4  -4 -12 79.8792 34.9932   1
  10   0   1 855.571 67.0696  -3
  -4  -5  10 855.571 67.0696   1
  -4  -5   9 825.553 27.9722   1
   4   5  -8 142.022 29.9680   1
   9   1   1 358.033 68.5918  -3
  -4  -5   8 358.033 68.5918   1
   9   1   1 641.120 53.7800  -3
  -4  -5   9 641.120 53.7800  -2
  -4  -5   8 641.120 53.7800   1
   4   5  -7 30.9121 16.1769   1
  -4  -5   6 10.2645 15.0538   1
   4   5  -5 4147.53 17.1736   1
   4   5  -4 2596.49 12.7658   1
  -4  -5   3 4721.50 14.0720   1
   6   3   1 9052.22 68.5694  -3
  -4  -5   3 9052.22 68.5694  -2
  -4  -5   3 9052.22 68.5694   1
   4   5  -2 280.816 7.22705   1
   5   4   1 42.0273 23.2415  -3
  -4  -5   1 42.0273 23.2415   1
   5   4   1 37.6998 10.2431  -3
  -4  -5   1 37.6998 10.2431  -2
  -4  -5   1 37.6998 10.2431   1
   4   5   0 78.8056 5.27725   1
  -4  -5  -1 7544.16 20.3163  -3
   4   5   1 7544.16 20.3163   1
   4   5   1 10521.9 16.7880  -3
  -4  -5  -1 10521.9 16.7880  -2
  -4  -5  -1 10521.9 16.7880   1
   4   5   2 4503.93 9.06437   1
   4   5   3 4394.47 30.3901   1
  -3  -6  -1 7690.02 17.6931  -3
   4   5   3 7690.02 17.6931   1
   3   6   1 9794.76 33.4040  -3
  -4  -5  -3 9794.76 33.4040  -2
  -4  -5  -3 9794.76 33.4040   1
   4   5   4 7.32946 7.67992   1
   4   5   5 2.15748 25.8990   1
  -2  -7  -1 384.715 16.3665  -3
   4   5   5 384.715 16.3665   1
  -2  -7  -1 476.544 22.2791  -3
   4   5   5 476.544 22.2791  -2
   4   5   5 476.544 22.2791   1
  -4  -5  -6 1022.11 14.2809   1
  -1  -7  -1 2245.14 29.6224  -3
   4   5   6 2245.14 29.6224  -2
   4   5   6 2245.14 29.6224   1
   4   5   7 928.269 11.5983   1
   0  -8  -1 2933.15 23.6106  -3
   4   5   8 2933.15 23.6106  -2
   4   5   8 2933.15 23.6106   1
  -4  -5  -9 2523.69 20.9892   1
   4   5  10 72.9666 24.4515   1
  -1   9   1 578.088 54.4364  -3
  -4  -5 -10 578.088 54.4364  -2
  -4  -5 -10 578.088 54.4364   1
   4   5  11 3.87935 26.4524   1
  -4  -5 -12 235.245 60.4562   1
   2 -10  -1 670.937 125.342  -3
   5   5  12 670.937 125.342  -2
   4   5  12 670.937 125.342   1
  10   1   2 69.7538 44.3326  -3
  -4  -6   9 69.7538 44.3326   1
  -4  -6   8-2.41334 22.8735   1
   4   6  -7 312.531 28.4494   1
   9   2   2 637.715 43.3722  -3
  -4  -6   8 637.715 43.3722  -2
  -4  -6   7 637.715 43.3722   1
   4   6  -6 116.105 15.6709   1
   4   6  -5 947.859 14.0152   1
  -4  -6   4 3921.34 16.9131   1
   4   6  -3 979.455 10.5864   1
  -4  -6   2 457.383 8.93818   1
   4   6  -1 889.049 8.11870   1
   5   5   2 115.048 20.0716  -3
  -4  -6   0 115.048 20.0716   1
   5   5   2 150.213 12.1960  -3
  -4  -6   0 150.213 12.1960  -2
  -4  -6   0 150.213 12.1960   1
   4   6   1 705.589 7.08206   1
  -4  -6  -2 11784.5 30.9989  -3
   4   6   2 11784.5 30.9989   1
  -4  -6  -2 15615.7 27.2263  -3
   4   6   2 15615.7 27.2263  -2
   4   6   2 15615.7 27.2263   1
   4   6   3 1762.94 10.5387   1
   3   7   2 3398.77 18.9890  -3
  -4  -6  -4 3398.77 18.9890   1
   3   7   2 4354.31 52.9149  -3
  -4  -6  -4 4354.31 52.9149  -2
  -4  -6  -4 4354.31 52.9149   1
   4   6   5 323.952 10.4653   1
  -2  -8  -2 5.92128 34.8195  -3
   4   6   6 5.92128 34.8195   1
   2   8   2 26.5309 19.9490  -3
  -4  -6  -6 26.5309 19.9490  -2
  -4  -6  -6 26.5309 19.9490   1
   1   8   2 268.090 20.4731  -3
  -4  -6  -7 268.090 20.4731  -2
  -4  -6  -7 268.090 20.4731   1
   4   6   8 3654.92 18.9811   1
   4   6   9 1304.87 44.6838   1
   0  -9  -2 3171.40 38.1235  -3
   4   6   9 3171.40 38.1235  -2
   4   6   9 3171.40 38.1235   1
   4   6  10 1321.26 21.1378   1
  -4  -6 -11 177.550 31.0866   1
   1 -10  -2 263.303 53.8813  -3
   4   6  11 263.303 53.8813  -2
   4   6  11 263.303 53.8813   1
  -4  -6 -12 107.077 33.4429   1
  -4  -7   9 515.508 70.0725   1
  10   2   3 73.0796 34.5787  -3
  -4  -7   8 73.0796 34.5787   1
  -4  -7   7 17.9278 21.9097   1
   4   7  -6 13.4384 27.1635   1
   9   3   3 76.4587 41.6565  -3
  -4  -7   7 76.4587 41.6565  -2
  -4  -7   6 76.4587 41.6565   1
  -4  -7   5 1200.48 17.2162   1
   4   7  -4 751.852 15.0580   1
   4   7  -3 2664.26 16.4091   1
   4   7  -2 112.190 10.9231   1
   4   7  -1 40.6115 9.93247   1
   4   7   0 563.591 8.96861   1
   5   6   3 2216.48 18.1698  -3
  -4  -7  -1 2216.48 18.1698   1
   5   6   3 3074.44 18.6042  -3
  -4  -7  -1 3074.44 18.6042  -2
  -4  -7  -1 3074.44 18.6042   1
  -4  -7  -2 1760.03 9.76049   1
   4   7   3 10788.7 25.2245  -3
  -4  -7  -3 10788.7 25.2245   1
  -4  -7  -3 14984.9 39.0116  -3
   4   7   3 14984.9 39.0116  -2
   4   7   3 14984.9 39.0116   1
  -4  -7  -4 475.245 9.90837   1
   3   8   3 843.615 31.5691  -3
  -4  -7  -5 843.615 31.5691   1
  -3  -8  -3 1322.04 23.2442  -3
   4   7   5 1322.04 23.2442  -2
   4   7   5 1322.04 23.2442   1
   4   7   6 320.123 12.0079   1
   2   9   3 468.872 21.9159  -3
  -4  -7  -7 468.872 21.9159  -2
  -4  -7  -7 468.872 21.9159   1
  -1  -9  -3 583.414 23.8871  -3
   4   7   8 583.414 23.8871  -2
   4   7   8 583.414 23.8871   1
  -4  -7  -9 2105.78 21.5040   1
  -4  -7 -10 439.563 35.6333   1
   0 -10  -3 1186.13 43.8323  -3
   4   7  10 1186.13 43.8323  -2
   4   7  10 1186.13 43.8323   1
  -4  -7 -11 508.585 26.3591   1
  -4  -7 -12 85.5767 63.3061   1
  -1  11   3 291.808 87.7763  -3
  -4  -7 -12 291.808 87.7763   1
   1 -11  -3 893.107 122.671  -3
   5   7  12 893.107 122.671  -2
   4   7  12 893.107 122.671   1
 -10  -3  -4 247.882 61.1303  -3
   4   8  -7 247.882 61.1303   1
   4   8  -6 48.9321 27.7913   1
   4   8  -5 163.439 36.1747   1
   9   4   4 404.573 62.2192  -3
  -4  -8   6 404.573 62.2192  -2
  -4  -8   5 404.573 62.2192   1
   4   8  -4 1745.53 22.1950   1
  -4  -8   3 1039.73 17.4222   1
   8   5   4 2200.11 65.7753  -3
  -4  -8   4 2200.11 65.7753  -2
  -4  -8   3 2200.11 65.7753   1
  -4  -8   2 742.955 13.1811   1
   4   8  -1 464.246 11.4723   1
   4   8   0 21.3615 8.93998   1
   4   8   1 36.6643 11.9135   1
  -5  -7  -4 5512.56 34.4700  -3
   4   8   1 5512.56 34.4700  -2
   4   8   2 5512.56 34.4700   1
  -4  -8  -3 785.235 16.0655   1
   4   8   4 403.895 39.0597  -3
  -4  -8  -4 403.895 39.0597   1
   4   8   4 491.610 28.9877  -3
  -4  -8  -4 491.610 28.9877  -2
  -4  -8  -4 491.610 28.9877   1
  -4  -8  -5 70.6380 15.0724   1
  -3  -9  -4 94.3394 26.3336  -3
   4   8   6 94.3394 26.3336  -2
   4   8   6 94.3394 26.3336   1
  -4  -8  -7 35.4621 15.5935   1
  -2 -10  -4 1630.42 35.0195  -3
   4   8   8 1630.42 35.0195  -2
   4   8   8 1630.42 35.0195   1
  -1 -10  -4 1959.85 38.2250  -3
   4   8   9 1959.85 38.2250  -2
   4   8   9 1959.85 38.2250   1
  -4  -8 -10 1193.50 26.8966   1
   4   8  11 19.1298 36.8513   1
   0  11   4 28.7748 72.9032  -3
  -4  -8 -11 28.7748 72.9032  -2
  -4  -8 -11 28.7748 72.9032   1
 -10  -4  -5 52.9968 62.8831  -3
   4   9  -6 52.9968 62.8831   1
  -4  -9   5 347.453 30.7387   1
   4   9  -4 864.957 39.5037   1
   9   5   5 2311.34 72.8325  -3
  -4  -9   5 2311.34 72.8325  -2
  -4  -9   4 2311.34 72.8325   1
   4   9  -3 2109.37 21.8069   1
  -4  -9   2 438.088 17.1610   1
   4   9  -1 18.6623 15.3870   1
   4   9   0 249.325 15.6827   1
   4   9   1 61.4963 15.2405   1
   4   9   2 670.757 18.3798   1
   5   8   5 4329.12 30.1912  -3
  -4  -9  -2 4329.12 30.1912  -2
  -4  -9  -3 4329.12 30.1912   1
  -4  -9  -4 1163.28 17.8831   1
  -4  -9  -5 3411.12 33.6417  -3
   4   9   4 3411.12 33.6417  -2
   4   9   5 3411.12 33.6417   1
   4   9   6 97.5754 17.4421   1
   3  10   5 4.17752 30.2568  -3
  -4  -9  -7 4.17752 30.2568   1
   4   9   8 5.04359 22.7184   1
  -2 -11  -5 2109.51 44.5252  -3
   4   9   9 2109.51 44.5252  -2
   4   9   9 2109.51 44.5252   1
   4   9  10 770.274 68.0270   1
  -1 -11  -5 1459.92 52.4158  -3
   4   9  10 1459.92 52.4158  -2
   4   9  10 1459.92 52.4158   1
   4   9  11 486.951 49.5663   1
  -4 -10   4 747.523 33.7877   1
   4  10  -3 316.481 63.7482   1
  -9  -6  -6 870.409 58.0545  -3
   4  10  -4 870.409 58.0545  -2
   4  10  -3 870.409 58.0545   1
   4  10  -2 963.282 25.1106   1
   4  10  -1 24.6561 23.2318   1
   8   7   6 468.966 95.6182  -3
  -4 -10   2 468.966 95.6182  -2
  -4 -10   1 468.966 95.6182   1
   4  10   0 93.4886 23.0824   1
   4  10   1-2.62747 21.8892   1
   4  10   2 1086.40 22.6600   1
   6   8   6 1988.35 74.9027  -3
  -4 -10  -1 1988.35 74.9027  -2
  -4 -10  -2 1988.35 74.9027   1
  -4 -10  -3 728.317 19.7832   1
  -5  -9  -6 2885.63 34.0172  -3
   4  10   3 2885.63 34.0172  -2
   4  10   4 2885.63 34.0172   1
   4  10   5 207.534 19.5511   1
  -4 -10  -6 189.687 35.8987  -3
   4  10   5 189.687 35.8987  -2
   4  10   6 189.687 35.8987   1
   4  10   7 32.7598 23.7711   1
   3  11   6 241.534 47.9775  -3
  -4 -10  -7 241.534 47.9775  -2
  -4 -10  -8 241.534 47.9775   1
  -4 -10  -9 708.651 30.2841   1
  -4 -10 -10 1199.45 72.2160   1
   9   7   7 421.351 52.7755  -3
  -4 -11   2 421.351 52.7755   1
  -9  -7  -7 598.822 106.500  -3
   4  11  -3 598.822 106.500  -2
   4  11  -2 598.822 106.500   1
  -4 -11   1 134.193 31.2791   1
   4  11   0 84.2077 32.2716   1
  -8  -8  -7 144.340 97.2176  -3
   4  11  -1 144.340 97.2176  -2
   4  11   0 144.340 97.2176   1
   4  11   1 42.5078 27.5819   1
   7   8   7 142.936 84.4763  -3
  -4 -11   0 142.936 84.4763  -2
  -4 -11  -1 142.936 84.4763   1
  -4 -11  -2 25.1177 24.7377   1
   7   9   7 50.7723 86.8853  -3
  -4 -11  -1 50.7723 86.8853  -2
  -4 -11  -2 50.7723 86.8853   1
   4  11   3 952.390 23.3001   1
   4  11   4 568.562 26.0641   1
   6  10   7 1129.09 87.7236  -3
  -4 -11  -3 1129.09 87.7236  -2
  -4 -11  -4 1129.09 87.7236   1
  -5 -10  -7 776.468 42.8827  -3
   4  11   4 776.468 42.8827  -2
   4  11   5 776.468 42.8827   1
  -4 -11  -6-4.53142 26.9099   1
  -4 -11  -7 81.8518 50.3128  -3
   4  11   6 81.8518 50.3128  -2
   4  11   7 81.8518 50.3128   1
  -4 -11  -8-37.5828 45.6469   1
  -4 -12   0-13.7994 70.0290   1
   4  12   1 117.288 47.0526   1
  -8  -9  -8 225.701 82.6689  -3
   4  12   0 225.701 82.6689  -2
   4  12   1 225.701 82.6689   1
   4  12   2 138.593 47.5714   1
   7   9   8 528.231 74.8642  -3
  -4 -12  -1 528.231 74.8642  -2
  -4 -12  -2 528.231 74.8642   1
   4  12   3 325.978 39.7190   1
   6  10   8 1237.22 76.4027  -3
  -4 -12  -3 1237.22 76.4027  -2
  -4 -12  -4 1237.22 76.4027   1
  -4 -12  -4 816.191 84.6328  -2
  -4 -12  -5 816.191 84.6328   1
   2   3  13 635.691 118.758  -3
   5  -8  -1 635.691 118.758  -2
   5  -8  -1 635.691 118.758   1
   2   2  13 458.686 86.2055  -3
   5  -8   0 458.686 86.2055  -2
   5  -8   0 458.686 86.2055   1
   3   2  13 3580.06 141.556  -3
   5  -8   1 3580.06 141.556  -2
   5  -8   1 3580.06 141.556   1
  -2   5  12 90.0171 117.107  -3
   5  -7  -7 90.0171 117.107  -2
   5  -7  -7 90.0171 117.107   1
  -2   4  12 3152.49 111.611  -3
   5  -7  -6 3152.49 111.611  -2
   5  -7  -6 3152.49 111.611   1
  -1   4  12 777.036 72.7210  -3
   5  -7  -5 777.036 72.7210  -2
   5  -7  -5 777.036 72.7210   1
  -5   7   4 1366.90 60.8506  -2
  -5   7   4 1366.90 60.8506   1
   0   3  12 51.7964 67.9655  -3
   5  -7  -3 51.7964 67.9655  -2
   5  -7  -3 51.7964 67.9655   1
  -5   7   2 57.0098 53.2115  -2
  -5   7   2 57.0098 53.2115   1
   1   2  12 8.97288 81.1125  -3
   5  -7  -1 8.97288 81.1125  -2
   5  -7  -1 8.97288 81.1125   1
   2   2  12 2022.14 104.643  -3
   5  -7   0 2022.14 104.643  -2
   5  -7   0 2022.14 104.643   1
   2   1  12 1105.94 73.7385  -3
   5  -7   1 1105.94 73.7385  -2
   5  -7   1 1105.94 73.7385   1
   3   1  12 3716.31 66.9662  -3
   5  -7   2 3716.31 66.9662  -2
   5  -7   2 3716.31 66.9662   1
   3   0  12 122.447 78.3790  -3
   5  -7   3 122.447 78.3790  -2
   5  -7   3 122.447 78.3790   1
   4   0  12 116.435 86.2182  -3
   5  -7   4 116.435 86.2182  -2
   5  -7   4 116.435 86.2182   1
  -3   5  11 348.849 114.169  -3
   5  -6  -8 348.849 114.169  -2
   5  -6  -8 348.849 114.169   1
  -3   4  11 685.949 76.0690  -3
   5  -6  -7 685.949 76.0690  -2
   5  -6  -7 685.949 76.0690   1
  -2   4  11 1235.08 55.4239  -3
   5  -6  -6 1235.08 55.4239  -2
   5  -6  -6 1235.08 55.4239   1
  -2   3  11 4809.20 68.9909  -3
   5  -6  -5 4809.20 68.9909  -2
   5  -6  -5 4809.20 68.9909   1
  -1   3  11 778.713 47.4869  -3
   5  -6  -4 778.713 47.4869  -2
   5  -6  -4 778.713 47.4869   1
  -5   6   3 435.124 36.5224  -2
  -5   6   3 435.124 36.5224   1
   0  -2 -11 615.730 42.0441  -3
  -5   6   2 615.730 42.0441  -2
  -5   6   2 615.730 42.0441   1
   5  -6  -1 405.324 43.2897  -2
   5  -6  -1 405.324 43.2897   1
   1   1  11 131.298 42.2312  -3
   5  -6   0 131.298 42.2312  -2
   5  -6   0 131.298 42.2312   1
   5  -6   1 3478.18 77.2258  -2
   5  -6   1 3478.18 77.2258   1
   2   1  11 4682.85 67.7941  -3
   5  -6   1 4682.85 67.7941  -2
   5  -6   1 4682.85 67.7941   1
   2   0  11 1094.06 50.2146  -3
   5  -6   2 1094.06 50.2146  -2
   5  -6   2 1094.06 50.2146   1
   3   0  11 783.450 52.9936  -3
   5  -6   3 783.450 52.9936  -2
   5  -6   3 783.450 52.9936   1
   5  -6   4 262.222 56.2766   1
   3  -1  11 733.605 105.364  -3
   5  -6   4 733.605 105.364  -2
   5  -6   4 733.605 105.364   1
   4  -1  11 57.9669 76.6335  -3
   5  -6   5 57.9669 76.6335  -2
   5  -6   5 57.9669 76.6335   1
   5  -6   6-3.59223 51.3004   1
   5  -5  -9 95.7478 53.9356   1
   4  -4 -10 80.0742 58.0454  -3
  -5   5   8 80.0742 58.0454  -2
  -5   5   8 80.0742 58.0454   1
   5  -5  -7 68.3512 24.7352   1
   3  -3 -10 2248.02 49.1419  -3
  -5   5   6 2248.02 49.1419  -2
  -5   5   6 2248.02 49.1419   1
  -5   5   5 1058.59 32.4706   1
  -2   3  10 2252.52 56.4335  -3
   5  -5  -5 2252.52 56.4335  -2
   5  -5  -5 2252.52 56.4335   1
  -5   5   4 2331.40 42.5078   1
  -2   2  10 6150.25 57.5668  -3
   5  -5  -4 6150.25 57.5668  -2
   5  -5  -4 6150.25 57.5668   1
  -1   2  10 21.0106 30.2547  -3
   5  -5  -3 21.0106 30.2547  -2
   5  -5  -3 21.0106 30.2547   1
   5  -5  -2 362.120 23.1728  -2
   5  -5  -2 362.120 23.1728   1
   0  -1 -10 513.409 24.5622  -3
  -5   5   1 513.409 24.5622  -2
  -5   5   1 513.409 24.5622   1
   5  -5   0 2097.05 24.1102  -2
   5  -5   0 2097.05 24.1102   1
   1   0  10 1523.52 36.4165  -3
   5  -5   1 1523.52 36.4165  -2
   5  -5   1 1523.52 36.4165   1
   5  -5   2 6116.31 37.9496  -2
   5  -5   2 6116.31 37.9496   1
   2  -1  10 431.991 37.1481  -3
   5  -5   3 431.991 37.1481  -2
   5  -5   3 431.991 37.1481   1
   5  -5   4 406.516 46.7435   1
   3  -1  10 1523.45 50.5868  -3
   5  -5   4 1523.45 50.5868  -2
   5  -5   4 1523.45 50.5868   1
   5  -5   5 84.8985 36.4679   1
   3  -2  10 262.246 103.900  -3
   5  -5   5 262.246 103.900  -2
   5  -5   5 262.246 103.900   1
   4  -2  10 1328.40 76.7875  -3
   5  -5   6 1328.40 76.7875  -2
   5  -5   6 1328.40 76.7875   1
   5  -5   7 226.601 51.4209   1
   5  -3  10 1273.24 112.134  -3
   5  -5   8 1273.24 112.134   1
  -5   4  10 116.092 41.9783   1
  -5   4   9 665.504 46.9224  -3
   5  -4  -9 665.504 46.9224  -2
   5  -4  -9 665.504 46.9224   1
  -5   4   8 266.460 24.3559   1
   4  -3  -9-10.9774 38.3934  -3
  -5   4   7-10.9774 38.3934  -2
  -5   4   7-10.9774 38.3934   1
   5  -4  -6 124.128 17.6242   1
   3  -2  -9 7359.07 39.9179  -3
  -5   4   5 7359.07 39.9179  -2
  -5   4   5 7359.07 39.9179   1
   5  -4  -4 645.641 22.0249   1
   2  -2  -9 995.834 50.1512  -3
  -5   4   4 995.834 50.1512  -2
  -5   4   4 995.834 50.1512   1
   5  -4  -3 1025.42 33.5302   1
   2  -1  -9 3173.52 33.3985  -3
  -5   4   3 3173.52 33.3985  -2
  -5   4   3 3173.52 33.3985   1
  -1   1   9 1245.40 19.1483  -3
   5  -4  -2 1245.40 19.1483  -2
   5  -4  -2 1245.40 19.1483   1
   5  -4  -1 134.246 13.8277  -2
   5  -4  -1 134.246 13.8277   1
   0   0   9 210.898 19.5042  -3
   5  -4   0 210.898 19.5042  -2
   5  -4   0 210.898 19.5042   1
   5  -4   1 5700.47 24.0698  -2
   5  -4   1 5700.47 24.0698   1
   1  -1   9 4408.35 36.4176  -3
   5  -4   2 4408.35 36.4176  -2
   5  -4   2 4408.35 36.4176   1
   5  -4   3 5312.76 33.1606  -2
   5  -4   3 5312.76 33.1606   1
   2  -2   9 517.171 34.8279  -3
   5  -4   4 517.171 34.8279  -2
   5  -4   4 517.171 34.8279   1
   5  -4   5 7.79437 24.7544   1
   3  -2   9-21.7430 78.1221  -3
   5  -4   5-21.7430 78.1221  -2
   5  -4   5-21.7430 78.1221   1
   5  -4   6 165.308 34.7069   1
   3  -3   9 314.629 105.894  -3
   5  -4   6 314.629 105.894  -2
   5  -4   6 314.629 105.894   1
   4  -3   9 878.700 75.2743  -3
   5  -4   7 878.700 75.2743  -2
   5  -4   7 878.700 75.2743   1
   5  -4   8 650.766 54.1065   1
   6  -4  -8 1594.47 54.8438  -3
  -5   3  10 1594.47 54.8438   1
  -5   3   9 13.4509 24.5033   1
   5  -3  -8 46.0812 37.8504  -3
  -5   3   8 46.0812 37.8504  -2
  -5   3   8 46.0812 37.8504   1
   5  -3  -7 546.370 19.5368   1
  -4   2   8 1476.92 29.1604  -3
   5  -3  -6 1476.92 29.1604  -2
   5  -3  -6 1476.92 29.1604   1
  -5   3   5 440.084 15.5512   1
   3  -1  -8 6264.61 31.0396  -3
  -5   3   4 6264.61 31.0396  -2
  -5   3   4 6264.61 31.0396   1
   5  -3  -3 193.098 18.1455   1
   2  -1  -8 257.942 31.6930  -3
  -5   3   3 257.942 31.6930  -2
  -5   3   3 257.942 31.6930   1
   5  -3  -2 344.354 12.9828   1
   2   0  -8 1836.34 25.1659  -3
  -5   3   2 1836.34 25.1659  -2
  -5   3   2 1836.34 25.1659   1
  -1   0   8 355.075 14.8961  -3
   5  -3  -1 355.075 14.8961  -2
   5  -3  -1 355.075 14.8961   1
   5  -3   0 334.714 14.6935  -2
   5  -3   0 334.714 14.6935   1
  -1  -1   8 382.516 27.6225  -3
   5  -3   0 382.516 27.6225  -2
   5  -3   0 382.516 27.6225   1
   0  -1   8 404.026 13.8647  -3
   5  -3   1 404.026 13.8647  -2
   5  -3   1 404.026 13.8647   1
   5  -3   2 2979.63 15.7083   1
   5  -3   2 5092.29 20.1264  -2
   5  -3   2 5092.29 20.1264   1
   1  -2   8 546.463 17.2061  -3
   5  -3   3 546.463 17.2061  -2
   5  -3   3 546.463 17.2061   1
   5  -3   4 799.598 17.8252   1
   5  -3   4 1396.90 60.9776  -2
   5  -3   4 1396.90 60.9776   1
   5  -3   5 619.405 35.7248   1
   2  -3   8 794.330 44.8822  -3
   5  -3   5 794.330 44.8822  -2
   5  -3   5 794.330 44.8822   1
  -3   3  -8 390.484 39.9468  -3
  -5   3  -6 390.484 39.9468  -2
  -5   3  -6 390.484 39.9468   1
  -5   3  -7 0.70694 26.4698   1
   4  -4   8 3833.57 64.2152  -3
   5  -3   8 3833.57 64.2152  -2
   5  -3   8 3833.57 64.2152   1
   5  -3   9 475.526 50.7013   1
   4  -5   8 652.841 139.532  -3
   5  -3   9 652.841 139.532  -2
   5  -3   9 652.841 139.532   1
  -5   2  10 425.468 30.1537   1
   6  -3  -7 897.145 40.4450  -3
  -5   2   9 897.145 40.4450  -2
  -5   2   9 897.145 40.4450   1
  -5   2   8 120.358 20.1739   1
   5  -2  -7 469.516 31.7270  -3
  -5   2   7 469.516 31.7270  -2
  -5   2   7 469.516 31.7270   1
   5  -2  -6 53.3391 15.5898   1
   4  -1  -7 9002.63 31.7929  -3
  -5   2   5 9002.63 31.7929  -2
  -5   2   5 9002.63 31.7929   1
   5  -2  -4 1853.36 15.8904   1
   3   0  -7 9097.14 25.5935  -3
  -5   2   3 9097.14 25.5935  -2
  -5   2   3 9097.14 25.5935   1
   5  -2  -2 246.284 7.34168   1
   2   0  -7 728.101 23.9008  -3
  -5   2   2 728.101 23.9008  -2
  -5   2   2 728.101 23.9008   1
   5  -2  -1 139.795 8.40476   1
  -2  -1   7 787.495 20.0840  -3
   5  -2  -1 787.495 20.0840  -2
   5  -2  -1 787.495 20.0840   1
  -1  -1   7 2692.63 11.5937  -3
   5  -2   0 2692.63 11.5937  -2
   5  -2   0 2692.63 11.5937   1
   5  -2   1 2998.13 21.4674   1
   5  -2   1 5423.44 23.5489  -2
   5  -2   1 5423.44 23.5489   1
  -1  -2   7 5570.10 20.7686  -3
   5  -2   1 5570.10 20.7686  -2
   5  -2   1 5570.10 20.7686   1
   5  -2   2 3522.58 19.2548   1
   0  -2   7 7040.55 19.4712  -3
   5  -2   2 7040.55 19.4712  -2
   5  -2   2 7040.55 19.4712   1
   5  -2   3 6192.81 22.2832   1
   5  -2   3 11540.0 32.8774  -2
   5  -2   3 11540.0 32.8774   1
   5  -2   4 112.915 11.9303   1
   1  -3   7 1168.76 21.6909  -3
   5  -2   4 1168.76 21.6909  -2
   5  -2   4 1168.76 21.6909   1
  -5   2  -5-11.3084 13.5049   1
  -5   2  -6 522.589 34.1952   1
  -2   4  -7 902.725 30.2490  -3
  -5   2  -6 902.725 30.2490  -2
  -5   2  -6 902.725 30.2490   1
   3  -4   7 1175.70 40.1167  -3
   5  -2   7 1175.70 40.1167  -2
   5  -2   7 1175.70 40.1167   1
   5  -2   8 484.954 56.7783   1
  -3   5  -7 736.873 86.0211  -3
  -5   2  -8 736.873 86.0211  -2
  -5   2  -8 736.873 86.0211   1
   4  -5   7 5003.41 114.726  -3
   5  -2   9 5003.41 114.726  -2
   5  -2   9 5003.41 114.726   1
   5  -2  10 211.171 53.9654   1
  -7   3   6 2580.06 41.9680  -3
   5  -1 -10 2580.06 41.9680   1
  -5   1   9 95.9660 22.3427   1
   6  -2  -6 1399.84 34.7394  -3
  -5   1   8 1399.84 34.7394  -2
  -5   1   8 1399.84 34.7394   1
  -5   1   7 613.169 16.0967   1
   5  -1  -6 212.982 37.2641  -3
  -5   1   6 212.982 37.2641   1
   5  -1  -6 230.525 27.3596  -3
  -5   1   6 230.525 27.3596  -2
  -5   1   6 230.525 27.3596   1
  -5   1   5 142.178 11.6842   1
   4   0  -6 7202.93 32.4631  -3
  -5   1   4 7202.93 32.4631   1
  -4   0   6 10975.7 23.8970  -3
   5  -1  -4 10975.7 23.8970  -2
   5  -1  -4 10975.7 23.8970   1
  -5   1   3 1568.87 11.2786   1
   5  -1  -2 1528.58 5.79246   1
   3   1  -6 6543.26 19.0316  -3
  -5   1   2 6543.26 19.0316  -2
  -5   1   2 6543.26 19.0316   1
   5  -1  -1 283.811 6.50561   1
  -2  -1   6 589.965 26.9493  -3
   5  -1  -1 589.965 26.9493  -2
   5  -1  -1 589.965 26.9493   1
  -5   1   0 45.1855 5.63516   1
  -2  -2   6 141.709 32.4439  -3
   5  -1   0 141.709 32.4439  -2
   5  -1   0 141.709 32.4439   1
   5  -1   1 52.5116 5.17051   1
  -1  -2   6 120.679 8.44128  -3
   5  -1   1 120.679 8.44128  -2
   5  -1   1 120.679 8.44128   1
   5  -1   2 6130.07 11.0148   1
  -1  -3   6 9389.00 55.6687  -3
   5  -1   2 9389.00 55.6687  -2
   5  -1   2 9389.00 55.6687   1
   0  -3   6 5110.47 14.5924  -3
   5  -1   3 5110.47 14.5924  -2
   5  -1   3 5110.47 14.5924   1
   5  -1   4 2516.05 9.40058   1
   5  -1   5 434.868 13.1579   1
   1  -4   6 878.467 18.1519  -3
   5  -1   5 878.467 18.1519  -2
   5  -1   5 878.467 18.1519   1
   5  -1   6 103.862 13.5412   1
  -5   1  -7 30.6744 34.9845   1
   2  -5   6 266.684 27.6879  -3
   5  -1   7 266.684 27.6879  -2
   5  -1   7 266.684 27.6879   1
  -3   5  -6 2518.37 46.9725  -3
  -5   1  -8 2518.37 46.9725  -2
  -5   1  -8 2518.37 46.9725   1
  -5   1  -9 1153.79 40.1258   1
  -3   6  -6 1708.79 90.1826  -3
  -5   1  -9 1708.79 90.1826  -2
  -5   1  -9 1708.79 90.1826   1
   5  -1  10 1780.30 76.2201   1
  -4   6  -6 3672.73 102.245  -3
  -5   1 -10 3672.73 102.245  -2
  -5   1 -10 3672.73 102.245   1
  -5   1 -11 26.0104 65.9367   1
  -5   0  10 280.451 28.3493   1
   7  -2  -5 1208.99 68.0520  -3
  -5   0   9 1208.99 68.0520   1
   7  -2  -5 1627.72 42.9644  -3
  -5   0   9 1627.72 42.9644  -2
  -5   0   9 1627.72 42.9644   1
  -5   0   8 20.4007 17.1079   1
   6  -1  -5 171.473 48.0292  -3
  -5   0   7 171.473 48.0292   1
  -6   1   5 130.911 28.1403  -3
   5   0  -7 130.911 28.1403  -2
   5   0  -7 130.911 28.1403   1
  -5   0   6 629.955 14.2351   1
   5   0  -5 1795.25 36.5752  -3
  -5   0   5 1795.25 36.5752   1
   5   0  -5 2535.23 22.5317  -3
  -5   0   5 2535.23 22.5317  -2
  -5   0   5 2535.23 22.5317   1
   5   0  -4 1512.56 11.3399   1
   4   1  -5 9283.32 24.2332  -3
  -5   0   3 9283.32 24.2332   1
  -4  -1   5 13799.7 24.4615  -3
   5   0  -3 13799.7 24.4615  -2
   5   0  -3 13799.7 24.4615   1
   5   0  -2 17.7143 3.98259   1
   5   0  -1 16.9810 4.92386   1
   3   2  -5 393.212 20.0560  -3
  -5   0   1 393.212 20.0560  -2
  -5   0   1 393.212 20.0560   1
   5   0   0 1468.87 6.61527   1
  -5   0   0 2181.92 14.9373  -2
  -5   0   0 2181.92 14.9373   1
   5   0   1 289.262 12.8362   1
  -5   0  -1 1479.80 18.7107  -2
  -5   0  -1 1479.80 18.7107   1
   5   0   2 1180.90 12.7641   1
   1   3  -5 1976.50 12.8504  -3
  -5   0  -2 1976.50 12.8504  -2
  -5   0  -2 1976.50 12.8504   1
   5   0   3 8770.29 12.5397   1
   5   0   4 471.818 12.5371   1
   0  -4   5 1747.16 13.9210  -3
   5   0   4 1747.16 13.9210  -2
   5   0   4 1747.16 13.9210   1
   5   0   5 432.256 8.54471   1
   5   0   6 698.027 21.4072   1
   1  -5   5 676.481 18.6656  -3
   5   0   6 676.481 18.6656   1
  -1   5  -5 1183.46 33.0065  -3
  -5   0  -6 1183.46 33.0065  -2
  -5   0  -6 1183.46 33.0065   1
   5   0   7 349.283 14.0772   1
  -5   0  -8 252.870 37.8656   1
   2  -6   5 544.819 52.3889  -3
   5   0   8 544.819 52.3889  -2
   5   0   8 544.819 52.3889   1
   5   0   9 4363.30 36.7138   1
   5   0  10 650.592 66.5238   1
  -3   7  -5 859.138 90.3213  -3
  -5   0 -10 859.138 90.3213  -2
  -5   0 -10 859.138 90.3213   1
  -5   0 -11 634.821 40.1561   1
   5   1 -11 132.025 78.4421   1
  -5  -1  10 1711.75 49.3170   1
  -8   2   4 2201.65 52.2708  -3
   5   1 -10 2201.65 52.2708   1
   5   1  -9 604.597 57.2002   1
   8  -1  -4 1145.49 48.1058  -3
  -5  -1   9 1145.49 48.1058  -2
  -5  -1   9 1145.49 48.1058   1
  -7   1   4 1179.51 32.2913  -3
   5   1  -8 1179.51 32.2913  -2
   5   1  -8 1179.51 32.2913   1
  -5  -1   7 559.599 17.0272   1
   6   0  -4 447.167 41.3040  -3
  -5  -1   6 447.167 41.3040   1
   6   0  -4 521.374 27.0914  -3
  -5  -1   6 521.374 27.0914  -2
  -5  -1   6 521.374 27.0914   1
  -5  -1   5 34.0018 4.46572   1
  -5  -1   4 90.6341 5.62733   1
   5   1  -4 11361.4 50.4878  -3
  -5  -1   4 11361.4 50.4878   1
  -5  -1   4 16305.0 33.6612  -3
   5   1  -4 16305.0 33.6612  -2
   5   1  -4 16305.0 33.6612   1
  -5  -1   3 1991.34 8.13916   1
   5   1  -2 2289.19 16.2218   1
   4   2  -4 4301.73 29.3876  -3
  -5  -1   2 4301.73 29.3876   1
  -4  -2   4 5763.10 15.7320  -3
   5   1  -2 5763.10 15.7320  -2
   5   1  -2 5763.10 15.7320   1
   5   1  -1 331.824 5.46399   1
   5   1   0 8.76924 4.49161   1
   5   1   1 794.318 4.92018   1
   5   1   2 5376.63 11.4205   1
   5   1   3 2336.59 9.07779   1
  -1  -4   4 6200.73 16.4587  -3
   5   1   3 6200.73 16.4587  -2
   5   1   3 6200.73 16.4587   1
   5   1   4 4469.47 14.1736   1
   5   1   5 73.6473 10.0414   1
   0  -5   4 233.122 13.8591  -3
   5   1   5 233.122 13.8591  -2
   5   1   5 233.122 13.8591   1
   5   1   6 1.74579 7.63910   1
   5   1   7 91.5742 27.9045   1
   1  -6   4 254.312 19.7264  -3
   5   1   7 254.312 19.7264   1
  -1   6  -4 405.582 38.5234  -3
  -5  -1  -7 405.582 38.5234  -2
  -5  -1  -7 405.582 38.5234   1
   5   1   8 1178.58 21.8990   1
  -2   7  -4 1296.64 74.6104  -3
  -5  -1  -9 1296.64 74.6104  -2
  -5  -1  -9 1296.64 74.6104   1
  -5  -1 -10 1425.35 38.6611   1
  -3   8  -4 290.496 56.0148  -3
  -5  -1 -11 290.496 56.0148   1
  -5  -2  11 515.229 58.6894   1
   5   2 -10 807.840 30.6197   1
  -5  -2   9 2692.83 29.5658   1
   5   2  -8 241.805 27.5058   1
   8   0  -3 494.316 59.0544  -3
  -5  -2   8 494.316 59.0544  -2
  -5  -2   8 494.316 59.0544   1
   7   0  -3 275.593 27.1912  -3
  -5  -2   7 275.593 27.1912  -2
  -5  -2   7 275.593 27.1912   1
   5   2  -6 857.102 12.9831   1
   6   1  -3 929.056 20.2675  -3
  -5  -2   5 929.056 20.2675  -2
  -5  -2   5 929.056 20.2675   1
   5   2  -4 1178.38 9.96352   1
  -5  -2   3 11458.3 44.0885  -3
   5   2  -3 11458.3 44.0885   1
   5   2  -3 15577.8 22.0987  -3
  -5  -2   3 15577.8 22.0987  -2
  -5  -2   3 15577.8 22.0987   1
   5   2  -2 1176.04 7.28773   1
  -4  -3   3 2487.74 22.1126  -3
   5   2  -1 2487.74 22.1126   1
   4   3  -3 3032.21 10.5897  -3
  -5  -2   1 3032.21 10.5897  -2
  -5  -2   1 3032.21 10.5897   1
  -5  -2   0 1785.83 6.11394   1
  -5  -2  -1 55.0305 4.04147   1
   5   2   2 1199.49 5.83571   1
   5   2   3 8732.80 12.3256   1
  -5  -2  -4 1429.61 7.22957   1
   1   5  -3 6544.42 19.4954  -3
  -5  -2  -4 6544.42 19.4954  -2
  -5  -2  -4 6544.42 19.4954   1
   5   2   5 312.294 7.10036   1
   5   2   6 955.018 12.2048   1
   0   6  -3 2716.11 24.9099  -3
  -5  -2  -6 2716.11 24.9099  -2
  -5  -2  -6 2716.11 24.9099   1
  -5  -2  -7 35.1057 8.43001   1
   5   2   8 72.5712 30.6121   1
   1  -7   3 582.632 38.1315  -3
   5   2   8 582.632 38.1315   1
  -1   7  -3 724.528 47.5062  -3
  -5  -2  -8 724.528 47.5062  -2
  -5  -2  -8 724.528 47.5062   1
  -5  -2  -9 2340.22 27.6828   1
  -2   8  -3 1191.31 51.0494  -3
  -5  -2 -10 1191.31 51.0494  -2
  -5  -2 -10 1191.31 51.0494   1
   5   2  11 1533.00 37.7068   1
  -5  -3  10 849.504 30.7077   1
  -5  -3   9 221.040 23.4107   1
  -5  -3   8 770.598 20.8393   1
   5   3  -7 144.468 15.5107   1
   7   1  -2 81.8965 35.8010  -3
  -5  -3   6 81.8965 35.8010   1
  -7  -1   2 99.9851 24.6965  -3
   5   3  -6 99.9851 24.6965  -2
   5   3  -6 99.9851 24.6965   1
   5   3  -5 49.4750 11.4733   1
  -6  -2   2 5002.54 34.2757  -3
   5   3  -4 5002.54 34.2757   1
  -6  -2   2 6862.97 24.7818  -3
   5   3  -4 6862.97 24.7818  -2
   5   3  -4 6862.97 24.7818   1
  -5  -3   3 3490.66 11.3709   1
  -5  -3   2 8650.70 47.2440  -3
   5   3  -2 8650.70 47.2440   1
  -5  -3   2 11362.5 18.8437  -3
   5   3  -2 11362.5 18.8437  -2
   5   3  -2 11362.5 18.8437   1
  -5  -3   1 6.98040 5.77367   1
   5   3   0 99.0860 9.27534   1
  -4  -4   2 181.249 10.0364  -3
   5   3   0 181.249 10.0364  -2
   5   3   0 181.249 10.0364   1
   5   3   1 339.462 4.87950   1
  -5  -3  -2 3078.48 9.03272   1
   3   5  -2 3250.73 27.8939  -3
  -5  -3  -2 3250.73 27.8939   1
  -5  -3  -3 1961.79 7.49103   1
   5   3   4 7102.46 12.9631   1
  -5  -3  -5 14.0150 16.7035   1
  -1  -6   2 164.604 17.6541  -3
   5   3   5 164.604 17.6541  -2
   5   3   5 164.604 17.6541   1
  -5  -3  -6 1216.20 11.8341   1
   5   3   7 16.3894 19.6403   1
   0   7  -2 49.2374 26.0973  -3
  -5  -3  -7 49.2374 26.0973  -2
  -5  -3  -7 49.2374 26.0973   1
   5   3   8 987.459 15.9000   1
   5   3   9 703.380 28.7364   1
   1  -8   2 716.558 48.2038  -3
   5   3   9 716.558 48.2038   1
  -1   8  -2 1034.96 52.1119  -3
  -5  -3  -9 1034.96 52.1119  -2
  -5  -3  -9 1034.96 52.1119   1
  -5  -3 -10 1895.60 33.1119   1
  -5  -3 -11 395.831 52.8323   1
   2  -9   2 836.461 57.5896  -3
   5   3  11 836.461 57.5896   1
   5   3  12 266.131 39.8107   1
  -5  -4  10 301.871 75.5824   1
  -5  -4   9 1999.15 30.0382   1
   5   4  -8 787.202 22.4779   1
   5   4  -7 207.582 16.4656   1
   5   4  -6 743.881 14.0084   1
   5   4  -5 37.9277 22.1667   1
   7   2  -1 537.855 18.3269  -3
  -5  -4   5 537.855 18.3269   1
  -5  -4   4 278.319 11.2560   1
  -6  -3   1 13135.0 47.3366  -3
   5   4  -3 13135.0 47.3366   1
   6   3  -1 17874.4 28.3202  -3
  -5  -4   3 17874.4 28.3202  -2
  -5  -4   3 17874.4 28.3202   1
   5   4  -2 546.181 8.59728   1
   5   4  -1 1433.05 11.3664  -3
  -5  -4   1 1433.05 11.3664  -2
  -5  -4   1 1433.05 11.3664   1
   5   4   0 1083.63 6.87715   1
   5   4   1 7.27924 8.00362   1
   4   5  -1 7.45484 10.7477  -3
  -5  -4  -1 7.45484 10.7477  -2
  -5  -4  -1 7.45484 10.7477   1
  -5  -4  -2 90.8336 3.71873   1
   5   4   3 6095.41 12.3716   1
  -5  -4  -4 3048.36 14.8308   1
  -2  -6   1 6594.45 39.8946  -3
   5   4   4 6594.45 39.8946  -2
   5   4   4 6594.45 39.8946   1
   5   4   5 2312.36 12.8166   1
  -5  -4  -6 58.4750 28.2749   1
  -1  -7   1 164.896 24.1976  -3
   5   4   6 164.896 24.1976  -2
   5   4   6 164.896 24.1976   1
   5   4   7 78.3862 13.2020   1
   5   4   8 241.156 20.0239   1
   0  -8   1 848.540 32.8962  -3
   5   4   8 848.540 32.8962  -2
   5   4   8 848.540 32.8962   1
   5   4   9 1087.63 17.1825   1
   5   4  10 1025.51 34.1071   1
   1  -9   1 1193.85 61.4858  -3
   5   4  10 1193.85 61.4858   1
  -1   9  -1 1878.89 64.1422  -3
  -5  -4 -10 1878.89 64.1422  -2
  -5  -4 -10 1878.89 64.1422   1
  -5  -4 -11 2570.77 38.8329   1
  -5  -4 -12 9.78665 61.1495   1
   2 -10   1 592.727 109.881  -3
   5   4  12 592.727 109.881   1
   5   5  -9 784.443 48.3741   1
  10   1   0 1297.77 62.4386  -3
  -5  -5   9 1297.77 62.4386   1
  -5  -5   8 1473.57 26.6001   1
   5   5  -7 13.2617 17.4121   1
  -5  -5   6 7.19155 15.1880   1
   5   5  -5 386.769 12.8445   1
   5   5  -4 995.247 13.8476   1
   7   3   0 2307.96 58.6119  -3
  -5  -5   5 2307.96 58.6119  -2
  -5  -5   4 2307.96 58.6119   1
   5   5  -3 1924.00 13.0557   1
  -6  -4   0 3763.17 15.4088  -3
   5   5  -2 3763.17 15.4088   1
   5   5  -1 531.285 8.02750   1
   5   5   0 272.116 17.1368  -3
  -5  -5   0 272.116 17.1368   1
   5   5   0 369.698 13.3516  -3
  -5  -5   0 369.698 13.3516  -2
  -5  -5   0 369.698 13.3516   1
  -5  -5  -1 613.455 7.25836   1
   5   5   2 205.852 13.0253   1
  -4  -6   0 178.095 29.3872  -3
   5   5   2 178.095 29.3872   1
   4   6   0 341.011 14.9810  -3
  -5  -5  -2 341.011 14.9810  -2
  -5  -5  -2 341.011 14.9810   1
  -5  -5  -3 97.4449 5.29235   1
   5   5   4 4714.25 15.5457   1
   3   7   0 9162.82 64.0943  -3
  -5  -5  -4 9162.82 64.0943  -2
  -5  -5  -4 9162.82 64.0943   1
  -5  -5  -5 548.551 21.2422   1
  -2  -7   0 1170.06 24.6156  -3
   5   5   5 1170.06 24.6156  -2
   5   5   5 1170.06 24.6156   1
   5   5   6 364.525 13.1880   1
  -1  -8   0 806.762 24.5352  -3
   5   5   7 806.762 24.5352  -2
   5   5   7 806.762 24.5352   1
   5   5   8 111.756 14.7954   1
   5   5   9-10.0152 22.7641   1
   0   9   0 80.3553 40.0479  -3
  -5  -5  -9 80.3553 40.0479  -2
  -5  -5  -9 80.3553 40.0479   1
   5   5  10 1821.45 24.1965   1
  -5  -5 -11 574.998 58.0517   1
   1 -10   0 724.583 75.2516  -3
   5   5  11 724.583 75.2516   1
  -1  10   0 1007.61 74.0020  -3
  -5  -5 -11 1007.61 74.0020  -2
  -5  -5 -11 1007.61 74.0020   1
   5   5  12 530.748 51.9513   1
  -5  -6   9 1020.08 69.4712   1
  -5  -6   8 596.736 45.5879   1
  10   2   1 743.621 56.8111  -3
  -5  -6   8 743.621 56.8111   1
   5   6  -7 433.760 21.6128   1
   5   6  -6 44.9524 17.2274   1
  -5  -6   5 24.6208 13.6015   1
  -5  -6   4 102.630 12.5769   1
   5   6  -3 3029.62 16.5829   1
   7   4   1 6049.04 70.8442  -3
  -5  -6   4 6049.04 70.8442  -2
  -5  -6   3 6049.04 70.8442   1
   5   6  -2 1716.48 12.9448   1
   6   5   1 4753.91 48.5911  -3
  -5  -6   1 4753.91 48.5911   1
   6   5   1 5713.41 19.6392  -3
  -5  -6   2 5713.41 19.6392  -2
  -5  -6   1 5713.41 19.6392   1
   5   6   0 6.55500 7.74571   1
  -5  -6  -1 359.243 15.3763  -3
   5   6   1 359.243 15.3763   1
  -5  -6  -1 380.976 16.9457  -3
   5   6   0 380.976 16.9457  -2
   5   6   1 380.976 16.9457   1
  -5  -6  -2 136.348 7.58213   1
  -4  -7  -1 2730.54 15.8201  -3
   5   6   3 2730.54 15.8201   1
   4   7   1 4352.35 39.3922  -3
  -5  -6  -3 4352.35 39.3922  -2
  -5  -6  -3 4352.35 39.3922   1
   5   6   4 3043.24 12.8093   1
  -5  -6  -5 3102.44 15.3256   1
   3   8   1 8179.39 70.0465  -3
  -5  -6  -5 8179.39 70.0465  -2
  -5  -6  -5 8179.39 70.0465   1
  -5  -6  -6 45.3784 27.4505   1
  -2  -8  -1 80.9422 18.4945  -3
   5   6   6 80.9422 18.4945  -2
   5   6   6 80.9422 18.4945   1
  -5  -6  -7 208.262 14.6112   1
   5   6   8 209.927 41.2300   1
  -1  -9  -1 422.346 28.6109  -3
   5   6   8 422.346 28.6109  -2
   5   6   8 422.346 28.6109   1
  -5  -6  -9 556.859 18.5284   1
   5   6  10 485.773 24.9190   1
   0  10   1 808.726 58.5326  -3
  -5  -6 -10 808.726 58.5326  -2
  -5  -6 -10 808.726 58.5326   1
   5   6  11 1591.66 33.0279   1
   1 -11  -1 941.698 106.643  -3
   5   6  12 941.698 106.643   1
  -5  -7   8 1133.52 46.1821   1
  -5  -7   7 24.6227 42.1491   1
  10   3   2 78.0395 53.7404  -3
  -5  -7   7 78.0395 53.7404   1
  10   3   2 468.978 107.599  -3
  -5  -7   8 468.978 107.599  -2
  -5  -7   7 468.978 107.599   1
  -5  -7   6 101.743 20.5740   1
  -5  -7   5 214.800 17.2695   1
  -5  -7   4 209.601 14.0655   1
   5   7  -3 782.109 13.5230   1
   5   7  -2 3240.94 15.8209   1
  -5  -7   1 435.689 11.3337   1
  -6  -6  -2 400.951 17.0283  -3
   5   7  -1 400.951 17.0283  -2
   5   7   0 400.951 17.0283   1
   5   7   1 457.472 8.89223   1
  -5  -7  -2 20.9415 21.4040  -3
   5   7   2 20.9415 21.4040   1
  -5  -7  -2 255.476 19.0436  -3
   5   7   1 255.476 19.0436  -2
   5   7   2 255.476 19.0436   1
   5   7   3 311.272 12.0599   1
   4   8   2 5183.82 37.2581  -3
  -5  -7  -4 5183.82 37.2581   1
   4   8   2 5712.62 44.2674  -3
  -5  -7  -3 5712.62 44.2674  -2
  -5  -7  -4 5712.62 44.2674   1
   5   7   5 1505.55 14.4363   1
   5   7   6 1211.54 25.2403   1
   3   9   2 3119.51 44.0496  -3
  -5  -7  -6 3119.51 44.0496  -2
  -5  -7  -6 3119.51 44.0496   1
  -2  -9  -2 60.4929 28.5767  -3
   5   7   7 60.4929 28.5767  -2
   5   7   7 60.4929 28.5767   1
   5   7   8-2.72009 18.4343   1
   5   7   9-27.4831 44.9382   1
  -1 -10  -2 53.6867 38.1071  -3
   5   7   9 53.6867 38.1071  -2
   5   7   9 53.6867 38.1071   1
  -5  -7 -10 666.014 24.6604   1
  -5  -7 -11 1057.34 43.4664   1
   0 -11  -2 2328.73 81.8783  -3
   5   7  11 2328.73 81.8783  -2
   5   7  11 2328.73 81.8783   1
   5   7  12 1092.34 79.6421   1
  -5  -8   7 818.695 49.2807   1
   5   8  -6 60.3522 54.1101   1
  10   4   3 65.4914 83.7817  -3
  -5  -8   6 65.4914 83.7817   1
  10   4   3 281.968 77.6017  -3
  -5  -8   7 281.968 77.6017  -2
  -5  -8   6 281.968 77.6017   1
  -5  -8   5 131.291 22.7637   1
   5   8  -4 345.403 17.4764   1
  -5  -8   3 506.299 14.9028   1
  -5  -8   2 703.282 13.8474   1
   5   8  -1 1977.21 14.5962   1
   5   8   0 383.644 12.1315   1
  -6  -7  -3 199.813 18.8329  -3
   5   8   0 199.813 18.8329  -2
   5   8   1 199.813 18.8329   1
   5   8   2 251.436 12.2959   1
   5   8   3 82.3374 34.6844  -3
  -5  -8  -3 82.3374 34.6844   1
   5   8   3 248.982 27.3312  -3
  -5  -8  -2 248.982 27.3312  -2
  -5  -8  -3 248.982 27.3312   1
   5   8   4 454.870 15.1356   1
   4   9   3 4354.28 71.9594  -3
  -5  -8  -4 4354.28 71.9594  -2
  -5  -8  -5 4354.28 71.9594   1
   5   8   6 456.640 21.6505   1
  -3 -10  -3 926.635 36.9757  -3
   5   8   6 926.635 36.9757  -2
   5   8   7 926.635 36.9757   1
   5   8   8 327.794 21.4681   1
   5   8   9 101.885 23.0645   1
   5   8  10 173.996 33.1738   1
   1  11   3 279.424 66.4529  -3
  -5  -8 -10 279.424 66.4529  -2
  -5  -8 -10 279.424 66.4529   1
   5   8  11 2456.58 43.9338   1
  -5  -9   6 238.037 74.6814   1
   5   9  -5 41.0787 60.2539   1
  10   5   4 95.9885 116.235  -3
  -5  -9   6 95.9885 116.235  -2
  -5  -9   5 95.9885 116.235   1
   5   9  -4 219.077 26.1702   1
  -5  -9   3 443.657 29.4367   1
   9   6   4 919.107 79.5056  -3
  -5  -9   4 919.107 79.5056  -2
  -5  -9   3 919.107 79.5056   1
   5   9  -2 1605.59 20.6957   1
   5   9  -1 878.616 18.6839   1
   5   9   0 798.348 17.5706   1
   5   9   1 66.3420 16.4620   1
  -6  -8  -4 66.5207 31.1494  -3
   5   9   1 66.5207 31.1494  -2
   5   9   2 66.5207 31.1494   1
   5   9   3 101.861 17.7039   1
  -5  -9  -4 3054.13 32.6155  -3
   5   9   3 3054.13 32.6155  -2
   5   9   4 3054.13 32.6155   1
  -5  -9  -5 1638.09 25.4208   1
   4  10   4 3140.68 47.3737  -3
  -5  -9  -5 3140.68 47.3737  -2
  -5  -9  -6 3140.68 47.3737   1
   5   9   7 6.36455 21.5978   1
   5   9   8 35.9209 53.8045   1
  -3 -11  -4-15.6526 43.2626  -3
   5   9   7-15.6526 43.2626  -2
   5   9   8-15.6526 43.2626   1
  -5  -9  -9 26.9046 25.5874   1
   5   9  10 322.750 28.8416   1
  -5  -9 -11 364.740 71.3093   1
   5  10  -4 217.121 61.8887   1
  10   6   5 238.214 95.8230  -3
  -5 -10   4 238.214 95.8230   1
  -5 -10   3 45.3599 33.5313   1
   5  10  -2 308.059 25.9780   1
   9   7   5 505.084 104.633  -3
  -5 -10   3 505.084 104.633  -2
  -5 -10   2 505.084 104.633   1
   5  10  -1 1771.84 23.6333   1
   5  10   0 572.552 18.9703   1
  -5 -10  -1 189.417 22.2679   1
   7   8   5 459.181 75.2456  -3
  -5 -10   0 459.181 75.2456  -2
  -5 -10  -1 459.181 75.2456   1
   5  10   2 183.849 24.2760   1
   7   9   5 298.418 78.6708  -3
  -5 -10  -1 298.418 78.6708  -2
  -5 -10  -2 298.418 78.6708   1
  -6  -9  -5 120.430 34.1468  -3
   5  10   2 120.430 34.1468  -2
   5  10   3 120.430 34.1468   1
   5  10   4 805.483 26.4247   1
  -5 -10  -3 837.032 61.7047  -2
  -5 -10  -4 837.032 61.7047   1
  -5 -10  -5 3729.58 41.5005  -3
   5  10   4 3729.58 41.5005  -2
   5  10   5 3729.58 41.5005   1
   5  10   6 688.826 27.4890   1
   4  11   5 706.576 45.5872  -3
  -5 -10  -6 706.576 45.5872  -2
  -5 -10  -7 706.576 45.5872   1
  -5 -10  -8 174.125 27.2474   1
  -5 -10  -9 22.1959 45.7578   1
   3  12   5 17.0808 105.809  -3
  -5 -10  -8 17.0808 105.809  -2
  -5 -10  -9 17.0808 105.809   1
   5  11  -2 429.080 61.4809   1
   5  11  -1 728.589 30.6658   1
   5  11   0 876.926 28.4291   1
   8   8   6 1181.56 94.8931  -3
  -5 -11   1 1181.56 94.8931  -2
  -5 -11   0 1181.56 94.8931   1
   5  11   1-1.14264 40.6799   1
  -8  -9  -6 369.958 59.2146  -3
   5  11   0 369.958 59.2146  -2
   5  11   1 369.958 59.2146   1
   5  11   2 17.2301 32.3536   1
   7   9   6 35.9821 87.8594  -3
  -5 -11  -1 35.9821 87.8594  -2
  -5 -11  -2 35.9821 87.8594   1
   5  11   3 11.2465 40.6237   1
   7  10   6 99.6931 66.5407  -3
  -5 -11  -2 99.6931 66.5407  -2
  -5 -11  -3 99.6931 66.5407   1
   5  11   4 668.946 61.7541   1
   6  10   6 1107.42 47.6429  -3
  -5 -11  -3 1107.42 47.6429  -2
  -5 -11  -4 1107.42 47.6429   1
  -5 -11  -5 692.177 31.7090   1
  -5 -11  -4 1006.41 74.3435  -2
  -5 -11  -5 1006.41 74.3435   1
   5  11   6 1264.74 66.9222   1
  -5 -11  -6 2434.08 53.6627  -3
   5  11   5 2434.08 53.6627  -2
   5  11   6 2434.08 53.6627   1
  -5 -11  -7 120.739 35.9005   1
   5  12   1 122.850 49.4938   1
   5  12   2 13.9834 48.8116   1
   5  12   3-17.9924 70.2639   1
   0   2  13 101.780 114.725  -3
   6  -7  -2 101.780 114.725  -2
   6  -7  -2 101.780 114.725   1
   1   2  13 158.112 85.1602  -3
   6  -7  -1 158.112 85.1602  -2
   6  -7  -1 158.112 85.1602   1
   1   1  13 148.436 82.9394  -3
   6  -7   0 148.436 82.9394  -2
   6  -7   0 148.436 82.9394   1
   2   1  13 691.996 88.4746  -3
   6  -7   1 691.996 88.4746  -2
   6  -7   1 691.996 88.4746   1
   2   0  13 396.855 122.188  -3
   6  -7   2 396.855 122.188  -2
   6  -7   2 396.855 122.188   1
  -3   3  12 39.0541 127.856  -3
   6  -6  -6 39.0541 127.856  -2
   6  -6  -6 39.0541 127.856   1
  -2   3  12 141.282 76.8102  -3
   6  -6  -5 141.282 76.8102  -2
   6  -6  -5 141.282 76.8102   1
   6  -6  -4 1530.96 68.6757   1
   6  -6  -4 2244.10 68.7252  -2
   6  -6  -4 2244.10 68.7252   1
  -1   2  12 1357.11 61.0646  -3
   6  -6  -3 1357.11 61.0646  -2
   6  -6  -3 1357.11 61.0646   1
   6  -6  -2 2940.02 65.7151  -2
   6  -6  -2 2940.02 65.7151   1
   0   1  12 170.614 69.7979  -3
   6  -6  -1 170.614 69.7979  -2
   6  -6  -1 170.614 69.7979   1
   1   1  12 67.5717 70.5645  -3
   6  -6   0 67.5717 70.5645  -2
   6  -6   0 67.5717 70.5645   1
   1   0  12 349.745 71.8018  -3
   6  -6   1 349.745 71.8018  -2
   6  -6   1 349.745 71.8018   1
   2   0  12 1374.95 76.1020  -3
   6  -6   2 1374.95 76.1020  -2
   6  -6   2 1374.95 76.1020   1
   2  -1  12 518.288 107.011  -3
   6  -6   3 518.288 107.011  -2
   6  -6   3 518.288 107.011   1
   3  -1  12 3215.09 127.106  -3
   6  -6   4 3215.09 127.106  -2
   6  -6   4 3215.09 127.106   1
   6  -5  -8 114.977 70.5446   1
  -4   3  11 880.898 67.4255  -3
   6  -5  -7 880.898 67.4255  -2
   6  -5  -7 880.898 67.4255   1
  -6   5   6 84.7419 49.5316   1
  -3   3  11 282.279 53.0759  -3
   6  -5  -6 282.279 53.0759  -2
   6  -5  -6 282.279 53.0759   1
   6  -5  -5 201.802 50.5827   1
  -3   2  11 558.858 47.3537  -3
   6  -5  -5 558.858 47.3537  -2
   6  -5  -5 558.858 47.3537   1
   2  -2 -11 561.753 48.2623  -3
  -6   5   4 561.753 48.2623  -2
  -6   5   4 561.753 48.2623   1
   6  -5  -3 3187.11 61.8942   1
  -6   5   3 4323.50 43.7008  -2
  -6   5   3 4323.50 43.7008   1
  -1   1  11 1989.26 41.4477  -3
   6  -5  -2 1989.26 41.4477  -2
   6  -5  -2 1989.26 41.4477   1
  -6   5   1 741.748 31.5434  -2
  -6   5   1 741.748 31.5434   1
   0   0  11 481.429 58.3804  -3
   6  -5   0 481.429 58.3804  -2
   6  -5   0 481.429 58.3804   1
   6  -5   1 483.910 40.2560  -2
   6  -5   1 483.910 40.2560   1
   1  -1  11 217.136 44.0341  -3
   6  -5   2 217.136 44.0341  -2
   6  -5   2 217.136 44.0341   1
   2  -1  11 3837.55 50.3851  -3
   6  -5   3 3837.55 50.3851  -2
   6  -5   3 3837.55 50.3851   1
   6  -5   4 740.244 42.7823   1
   2  -2  11 1593.47 113.473  -3
   6  -5   4 1593.47 113.473  -2
   6  -5   4 1593.47 113.473   1
   3  -2  11 2073.10 84.5884  -3
   6  -5   5 2073.10 84.5884  -2
   6  -5   5 2073.10 84.5884   1
   6  -5   6 81.9580 54.8098   1
   5  -3 -10 1779.23 56.2593  -3
  -6   4   8 1779.23 56.2593  -2
  -6   4   8 1779.23 56.2593   1
   6  -4  -7 36.4883 27.1288   1
  -4   2  10 194.771 41.0682  -3
   6  -4  -6 194.771 41.0682  -2
   6  -4  -6 194.771 41.0682   1
   6  -4  -5 18.1188 28.0068   1
  -3   2  10 119.033 59.0428  -3
   6  -4  -5 119.033 59.0428  -2
   6  -4  -5 119.033 59.0428   1
  -6   4   4 709.483 40.7190   1
  -3   1  10 1451.04 40.4512  -3
   6  -4  -4 1451.04 40.4512  -2
   6  -4  -4 1451.04 40.4512   1
   2  -1 -10 1117.45 33.8233  -3
  -6   4   3 1117.45 33.8233  -2
  -6   4   3 1117.45 33.8233   1
   6  -4  -2 2345.29 39.5204   1
  -6   4   2 3848.20 32.6145  -2
  -6   4   2 3848.20 32.6145   1
   1   0 -10 155.446 32.4991  -3
  -6   4   1 155.446 32.4991  -2
  -6   4   1 155.446 32.4991   1
  -6   4   0 94.4721 25.7737  -2
  -6   4   0 94.4721 25.7737   1
   0  -1  10 609.405 41.1024  -3
   6  -4   1 609.405 41.1024  -2
   6  -4   1 609.405 41.1024   1
   6  -4   2 985.688 31.2549  -2
   6  -4   2 985.688 31.2549   1
   1  -2  10 1202.99 41.0121  -3
   6  -4   3 1202.99 41.0121  -2
   6  -4   3 1202.99 41.0121   1
   6  -4   4 3066.73 40.7565   1
   2  -2  10 6719.52 73.9424  -3
   6  -4   4 6719.52 73.9424  -2
   6  -4   4 6719.52 73.9424   1
   6  -4   5 166.849 32.0117   1
   3  -3  10 889.798 80.9623  -3
   6  -4   6 889.798 80.9623  -2
   6  -4   6 889.798 80.9623   1
   6  -4   7 611.833 55.5610   1
   6  -3  -9 4267.57 63.1822  -3
  -6   3   9 4267.57 63.1822  -2
  -6   3   9 4267.57 63.1822   1
  -6   3   8 185.218 25.1512   1
   5  -2  -9 432.438 36.9365  -3
  -6   3   7 432.438 36.9365  -2
  -6   3   7 432.438 36.9365   1
  -6   3   6 481.225 20.3590   1
   4  -1  -9 71.5294 29.8250  -3
  -6   3   5 71.5294 29.8250  -2
  -6   3   5 71.5294 29.8250   1
   6  -3  -4-6.82238 18.2600   1
   3  -1  -9 10.1448 58.8431  -3
  -6   3   4 10.1448 58.8431  -2
  -6   3   4 10.1448 58.8431   1
   6  -3  -3 3857.97 33.0807   1
   3   0  -9 5328.59 40.3410  -3
  -6   3   3 5328.59 40.3410  -2
  -6   3   3 5328.59 40.3410   1
   2   0  -9 2749.05 24.8087  -3
  -6   3   2 2749.05 24.8087  -2
  -6   3   2 2749.05 24.8087   1
   6  -3  -1 2161.05 25.5540   1
   6  -3  -1 3146.13 25.5337  -2
   6  -3  -1 3146.13 25.5337   1
  -1  -1   9 1135.96 22.8995  -3
   6  -3   0 1135.96 22.8995  -2
   6  -3   0 1135.96 22.8995   1
   6  -3   1-2.18565 22.9518   1
  -6   3  -1 37.8191 26.7428  -2
  -6   3  -1 37.8191 26.7428   1
   0  -2   9 625.772 32.8929  -3
   6  -3   2 625.772 32.8929  -2
   6  -3   2 625.772 32.8929   1
   6  -3   3 3205.86 40.6829   1
   6  -3   3 5132.72 46.8774  -2
   6  -3   3 5132.72 46.8774   1
   6  -3   4 1059.62 38.4476   1
   1  -3   9 1673.42 47.9711  -3
   6  -3   4 1673.42 47.9711  -2
   6  -3   4 1673.42 47.9711   1
   6  -3   5 1460.69 32.5062   1
   2  -3   9 4287.45 70.7907  -3
   6  -3   5 4287.45 70.7907  -2
   6  -3   5 4287.45 70.7907   1
   6  -3   6 61.4116 59.5911   1
   3  -4   9 96.2672 79.0135  -3
   6  -3   7 96.2672 79.0135  -2
   6  -3   7 96.2672 79.0135   1
   6  -3   8 12.7081 72.0806   1
   3  -5   9 0.88472 139.686  -3
   6  -3   8 0.88472 139.686  -2
   6  -3   8 0.88472 139.686   1
  -6   2   9 430.152 28.0035   1
  -6   2   8 3746.84 47.1667  -3
   6  -2  -8 3746.84 47.1667  -2
   6  -2  -8 3746.84 47.1667   1
  -6   2   7 166.964 21.3086   1
   5  -1  -8 1002.45 31.4518  -3
  -6   2   6 1002.45 31.4518  -2
  -6   2   6 1002.45 31.4518   1
   6  -2  -5 350.971 16.9042   1
  -4   0   8 1387.53 26.8417  -3
   6  -2  -4 1387.53 26.8417  -2
   6  -2  -4 1387.53 26.8417   1
  -6   2   3 632.925 14.6857   1
   6  -2  -2 5260.94 22.4771   1
   3   1  -8 9472.99 70.0720  -3
  -6   2   2 9472.99 70.0720  -2
  -6   2   2 9472.99 70.0720   1
   2   1  -8 1148.00 17.6898  -3
  -6   2   1 1148.00 17.6898  -2
  -6   2   1 1148.00 17.6898   1
   6  -2   0 4.18278 12.4243   1
  -6   2   0 3.41878 20.6183  -2
  -6   2   0 3.41878 20.6183   1
   1   2  -8 1400.62 23.4118  -3
  -6   2  -1 1400.62 23.4118  -2
  -6   2  -1 1400.62 23.4118   1
   6  -2   2 173.122 17.6914   1
   6  -2   2 375.095 38.1434  -2
   6  -2   2 375.095 38.1434   1
   0  -3   8 482.030 23.0581  -3
   6  -2   3 482.030 23.0581  -2
   6  -2   3 482.030 23.0581   1
   6  -2   4 3042.80 23.7596   1
   1  -4   8 1116.34 33.3485  -3
   6  -2   5 1116.34 33.3485  -2
   6  -2   5 1116.34 33.3485   1
   2  -4   8 2372.12 61.1869  -3
   6  -2   6 2372.12 61.1869  -2
   6  -2   6 2372.12 61.1869   1
   6  -2   7 230.062 58.7688   1
  -2   5  -8 483.937 85.4280  -3
  -6   2  -7 483.937 85.4280  -2
  -6   2  -7 483.937 85.4280   1
   3  -5   8 61.8348 70.5709  -3
   6  -2   8 61.8348 70.5709  -2
   6  -2   8 61.8348 70.5709   1
   6  -2   9 62.4513 70.6161   1
   7  -2  -7 3644.31 51.6620  -3
  -6   1   9 3644.31 51.6620  -2
  -6   1   9 3644.31 51.6620   1
  -6   1   8 1153.30 24.6427   1
   6  -1  -7 1883.73 37.9974  -3
  -6   1   7 1883.73 37.9974  -2
  -6   1   7 1883.73 37.9974   1
  -6   1   6 345.809 19.5597   1
   5   0  -7 116.551 26.0029  -3
  -6   1   5 116.551 26.0029  -2
  -6   1   5 116.551 26.0029   1
   6  -1  -4 44.1197 14.5395   1
  -4  -1   7 5009.46 27.1625  -3
   6  -1  -3 5009.46 27.1625  -2
   6  -1  -3 5009.46 27.1625   1
   6  -1  -2 2644.51 15.8803   1
  -6   1   1 2778.69 13.0014   1
   6  -1   0 288.977 16.1480   1
  -2  -2   7 530.451 16.2691  -3
   6  -1   0 530.451 16.2691  -2
   6  -1   0 530.451 16.2691   1
  -6   1  -1 275.461 8.80722   1
   6  -1   2 133.819 30.0806   1
  -1  -3   7 459.146 13.6561  -3
   6  -1   2 459.146 13.6561  -2
   6  -1   2 459.146 13.6561   1
   6  -1   3 2633.83 14.1972   1
   6  -1   4 843.499 24.1019   1
   0   4  -7 1379.62 23.0825  -3
  -6   1  -4 1379.62 23.0825  -2
  -6   1  -4 1379.62 23.0825   1
   6  -1   5 2519.55 18.5369   1
  -6   1  -6 32.4605 34.2472   1
   1  -5   7 615.994 39.2149  -3
   6  -1   6 615.994 39.2149  -2
   6  -1   6 615.994 39.2149   1
   2  -5   7 79.9344 42.5247  -3
   6  -1   7 79.9344 42.5247  -2
   6  -1   7 79.9344 42.5247   1
  -6   1  -8 325.842 37.7231   1
  -2   6  -7 517.161 85.5153  -3
  -6   1  -8 517.161 85.5153  -2
  -6   1  -8 517.161 85.5153   1
  -3   6  -7 1319.85 57.8338  -3
  -6   1  -9 1319.85 57.8338  -2
  -6   1  -9 1319.85 57.8338   1
   6   0  -9 487.806 28.4910   1
   7  -1  -6 5378.96 42.7392  -3
  -6   0   8 5378.96 42.7392  -2
  -6   0   8 5378.96 42.7392   1
   6   0  -7 58.2024 19.3318   1
   6   0  -6 361.031 31.1348  -3
  -6   0   6 361.031 31.1348  -2
  -6   0   6 361.031 31.1348   1
  -6   0   5 815.402 15.0570   1
   5   1  -6 490.836 27.6696  -3
  -6   0   4 490.836 27.6696   1
  -5  -1   6 848.309 23.6060  -3
   6   0  -4 848.309 23.6060  -2
   6   0  -4 848.309 23.6060   1
  -6   0   3 405.622 9.75498   1
  -6   0   2 5229.31 20.2078   1
   4   2  -6 11713.5 27.3690  -3
  -6   0   2 11713.5 27.3690  -2
  -6   0   2 11713.5 27.3690   1
  -6   0   1 1048.92 7.25294   1
   6   0   0 1325.54 6.28257   1
   6   0   1 235.972 7.37288   1
   2   3  -6 852.266 13.5517  -3
  -6   0  -1 852.266 13.5517  -2
  -6   0  -1 852.266 13.5517   1
   6   0   2 105.717 7.30924   1
   6   0   3 97.4004 16.8238   1
  -1  -4   6 115.045 25.3690  -3
   6   0   3 115.045 25.3690   1
  -1  -4   6 251.971 16.3696  -3
   6   0   3 251.971 16.3696  -2
   6   0   3 251.971 16.3696   1
   6   0   4 3585.15 14.0672   1
   6   0   5 1789.72 41.9649   1
   0  -5   6 2263.98 23.1623  -3
   6   0   5 2263.98 23.1623   1
   0   5  -6 4027.72 36.6491  -3
  -6   0  -5 4027.72 36.6491  -2
  -6   0  -5 4027.72 36.6491   1
   6   0   6 2801.07 23.4086   1
  -6   0  -7 116.968 35.2620   1
  -1   6  -6 443.822 39.9126  -3
  -6   0  -7 443.822 39.9126  -2
  -6   0  -7 443.822 39.9126   1
  -6   0  -8 82.5245 27.2339   1
  -6   0  -9 14.7989 38.8971   1
  -2   7  -6 28.7729 86.9082  -3
  -6   0  -9 28.7729 86.9082  -2
  -6   0  -9 28.7729 86.9082   1
  -3   7  -6 1422.16 62.2262  -3
  -6   0 -10 1422.16 62.2262  -2
  -6   0 -10 1422.16 62.2262   1
  -6   0 -11 506.349 74.5957   1
  -8   1   5 2544.82 45.2976  -3
   6   1  -9 2544.82 45.2976   1
  -6  -1   8 734.003 25.0571   1
   7   0  -5 1896.24 54.9507  -3
  -6  -1   7 1896.24 54.9507   1
  -7   0   5 2444.42 37.7536  -3
   6   1  -7 2444.42 37.7536  -2
   6   1  -7 2444.42 37.7536   1
   6   1  -6 20.2240 15.6623   1
   6   1  -5-21.8749 37.6981  -3
  -6  -1   5-21.8749 37.6981   1
  -6  -1   5 19.0834 29.6475  -3
   6   1  -5 19.0834 29.6475  -2
   6   1  -5 19.0834 29.6475   1
  -6  -1   4 233.662 13.5018   1
   6   1  -3 470.667 10.3143   1
   5   2  -5 975.655 28.4949  -3
  -6  -1   3 975.655 28.4949   1
  -5  -2   5 1528.12 23.7729  -3
   6   1  -3 1528.12 23.7729  -2
   6   1  -3 1528.12 23.7729   1
   6   1  -2 1107.23 7.42244   1
   6   1  -1 4657.06 11.3127   1
   4   3  -5 8430.23 34.7832  -3
  -6  -1   1 8430.23 34.7832  -2
  -6  -1   1 8430.23 34.7832   1
  -6  -1   0 11.5994 6.10825   1
  -6  -1  -1-1.31560 5.04574   1
   2   4  -5 2037.38 16.9891  -3
  -6  -1  -2 2037.38 16.9891  -2
  -6  -1  -2 2037.38 16.9891   1
   6   1   3 263.433 6.34447   1
   6   1   4 227.785 7.77245   1
  -1  -5   5 480.199 11.6249  -3
   6   1   4 480.199 11.6249  -2
   6   1   4 480.199 11.6249   1
   6   1   5 2586.76 24.5549   1
   6   1   6 449.657 19.3275   1
   0  -6   5 1070.29 36.4676  -3
   6   1   6 1070.29 36.4676   1
   6   1   7 240.136 21.7943   1
  -6  -1  -8 267.292 39.3743   1
   1  -7   5 228.487 49.5277  -3
   6   1   8 228.487 49.5277   1
  -1   7  -5 550.219 74.5123  -3
  -6  -1  -8 550.219 74.5123  -2
  -6  -1  -8 550.219 74.5123   1
  -6  -1  -9 115.529 34.1253   1
  -6  -1 -10 19.9079 53.3571   1
  -6  -1 -11 1320.99 68.8436   1
  -6  -2   9 328.405 25.6787   1
   8   0  -4 2866.39 46.6793  -3
  -6  -2   9 2866.39 46.6793  -2
  -6  -2   8 2866.39 46.6793   1
  -6  -2   7 722.966 18.5646   1
  -7  -1   4 827.679 21.1509  -3
   6   2  -6 827.679 21.1509   1
  -6  -2   5 160.769 13.5260   1
   6   2  -4 337.520 36.2603  -3
  -6  -2   4 337.520 36.2603   1
   6   2  -4 289.926 17.6039  -3
  -6  -2   4 289.926 17.6039  -2
  -6  -2   4 289.926 17.6039   1
   6   2  -3 21.4993 8.18493   1
   6   2  -2 3849.01 19.7739   1
  -5  -3   4 5330.70 30.1622  -3
   6   2  -2 5330.70 30.1622   1
   5   3  -4 7543.16 21.4153  -3
  -6  -2   2 7543.16 21.4153  -2
  -6  -2   2 7543.16 21.4153   1
  -6  -2   1 1659.87 8.20362   1
  -6  -2   0 1357.35 7.77752   1
   4   4  -4 3049.57 37.2821  -3
  -6  -2   0 3049.57 37.2821  -2
  -6  -2   0 3049.57 37.2821   1
   6   2   1 158.343 5.57444   1
   6   2   2 240.603 4.55427   1
   2   5  -4 51.2177 14.8865  -3
  -6  -2  -3 51.2177 14.8865  -2
  -6  -2  -3 51.2177 14.8865   1
   6   2   4 3163.26 14.7966   1
   6   2   5 691.408 26.9321   1
  -1  -6   4 1336.54 24.4395  -3
   6   2   5 1336.54 24.4395  -2
   6   2   5 1336.54 24.4395   1
   6   2   6 3174.16 19.5790   1
   6   2   7 4.12762 25.6416   1
   0  -7   4 269.264 39.8622  -3
   6   2   7 269.264 39.8622   1
   0   7  -4 281.040 46.4223  -3
  -6  -2  -7 281.040 46.4223  -2
  -6  -2  -7 281.040 46.4223   1
   6   2   8 20.7057 20.2524   1
  -6  -2  -9 241.829 32.6413   1
   1  -8   4 387.404 94.0494  -3
   6   2   9 387.404 94.0494  -2
   6   2   9 387.404 94.0494   1
   6   2  10 538.018 41.2792   1
  -6  -2 -11 448.644 49.2535   1
  -6  -3  10 21.7411 72.1106   1
  -6  -3   9 603.184 27.0148   1
  -6  -3   8 1033.70 26.5058   1
   6   3  -7 1967.72 52.9010   1
   8   1  -3 3607.63 41.3972  -3
  -6  -3   8 3607.63 41.3972  -2
  -6  -3   7 3607.63 41.3972   1
  -6  -3   6 30.0169 17.1294   1
  -7  -2   3 95.1554 26.6547  -3
   6   3  -6 95.1554 26.6547  -2
   6   3  -5 95.1554 26.6547   1
   6   3  -4 629.248 12.4577   1
   6   3  -3 1111.46 13.6052  -3
  -6  -3   3 1111.46 13.6052   1
   6   3  -2 2239.61 10.2481   1
   6   3  -1 8939.81 22.2072   1
  -5  -4   3 13148.3 62.2633  -3
   6   3  -1 13148.3 62.2633   1
  -5  -4   3 18967.5 27.8159  -3
   6   3  -1 18967.5 27.8159  -2
   6   3  -1 18967.5 27.8159   1
  -6  -3   0 1375.21 7.78410   1
   6   3   1 1185.52 6.83325   1
   6   3   2 777.582 7.89733   1
   6   3   3 95.7680 7.19998   1
  -6  -3  -4 58.2774 9.57477   1
  -2  -6   3 105.104 20.5237  -3
   6   3   4 105.104 20.5237  -2
   6   3   4 105.104 20.5237   1
   6   3   5 2899.44 14.1295   1
   6   3   6 3262.42 30.2535   1
   1   7  -3 9095.62 44.1291  -3
  -6  -3  -6 9095.62 44.1291  -2
  -6  -3  -6 9095.62 44.1291   1
   6   3   7 1365.36 18.5471   1
   6   3   8 163.207 24.3876   1
   0  -8   3 430.348 46.4276  -3
   6   3   8 430.348 46.4276   1
   0   8  -3 428.089 68.7294  -3
  -6  -3  -8 428.089 68.7294  -2
  -6  -3  -8 428.089 68.7294   1
   6   3   9 5.44368 26.0088   1
  -6  -3 -10 14.9063 52.5968   1
   1  -9   3 72.2380 102.140  -3
   6   3  10 72.2380 102.140  -2
   6   3  10 72.2380 102.140   1
  -6  -3 -11 1352.15 38.9771   1
   6   4  -9 4.04350 33.1293   1
  -6  -4   8 969.102 24.9089   1
  -6  -4   7 412.867 21.0550   1
  -6  -4   6 984.799 32.1258   1
  -8  -2   2 1176.24 35.8183  -3
   6   4  -7 1176.24 35.8183  -2
   6   4  -6 1176.24 35.8183   1
   6   4  -5 15.8245 12.8489   1
  -7  -3   2 90.9676 20.4302  -3
   6   4  -5 90.9676 20.4302  -2
   6   4  -4 90.9676 20.4302   1
  -6  -4   3 77.4565 10.7616   1
   6   4  -2 937.607 29.6710  -3
  -6  -4   2 937.607 29.6710   1
  -6  -4   2 1074.10 18.7227  -3
   6   4  -3 1074.10 18.7227  -2
   6   4  -2 1074.10 18.7227   1
   6   4  -1 685.909 9.40529   1
   6   4   0 2047.64 12.5557   1
  -5  -5   2 4476.73 23.9390  -3
   6   4   0 4476.73 23.9390  -2
   6   4   0 4476.73 23.9390   1
   6   4   1 64.8716 6.27276   1
  -6  -4  -2 30.1886 9.01946   1
   6   4   3 204.979 9.00953   1
   6   4   4 550.047 11.8282   1
  -6  -4  -5 1045.55 23.4316   1
  -2  -7   2 2014.61 25.1865  -3
   6   4   5 2014.61 25.1865  -2
   6   4   5 2014.61 25.1865   1
   6   4   6 5710.49 19.5466   1
   6   4   7 215.521 24.9619   1
   1   8  -2 754.040 37.9315  -3
  -6  -4  -7 754.040 37.9315  -2
  -6  -4  -7 754.040 37.9315   1
   6   4   8 196.973 18.1976   1
   6   4   9 390.271 43.4815   1
   0  -9   2 452.651 55.4412  -3
   6   4   9 452.651 55.4412   1
   0  -9   2 837.152 58.9285  -3
   6   4   9 837.152 58.9285  -2
   6   4   9 837.152 58.9285   1
  -6  -4 -10 245.242 32.3381   1
  -6  -4 -11 296.087 43.8477   1
   1 -10   2 504.122 122.671  -3
   6   4  11 504.122 122.671  -2
   6   4  11 504.122 122.671   1
   6   5  -9 175.163 77.4470   1
   6   5  -8 540.499 25.8719   1
  -6  -5   7 1506.65 24.0852   1
  -6  -5   6 403.543 19.7896   1
   6   5  -5 48.6596 18.7295   1
   8   3  -1 312.340 51.4578  -3
  -6  -5   6 312.340 51.4578  -2
  -6  -5   5 312.340 51.4578   1
  -6  -5   4 250.055 13.0294   1
  -7  -4   1 205.916 20.3788  -3
   6   5  -4 205.916 20.3788  -2
   6   5  -3 205.916 20.3788   1
   6   5  -2 21.9995 10.4770   1
   6   5  -1 9868.70 22.3113  -3
  -6  -5   2 9868.70 22.3113  -2
  -6  -5   1 9868.70 22.3113   1
   6   5   0 2124.93 11.6510   1
  -6  -5  -1 1686.38 11.7963   1
  -5  -6   1 4770.08 29.0435  -3
   6   5   0 4770.08 29.0435  -2
   6   5   1 4770.08 29.0435   1
  -6  -5  -2 497.190 6.22757   1
   6   5   3 18.6988 11.6570   1
   6   5   4 38.6482 10.9697   1
   6   5   5 3223.78 17.4315   1
  -6  -5  -6 1767.80 32.0605   1
  -2  -8   1 3759.47 29.9237  -3
   6   5   6 3759.47 29.9237  -2
   6   5   6 3759.47 29.9237   1
   6   5   7 1570.95 17.0468   1
   6   5   8 33.3870 24.3409   1
   1   9  -1 169.345 70.6477  -3
  -6  -5  -8 169.345 70.6477  -2
  -6  -5  -8 169.345 70.6477   1
   6   5   9 19.9901 23.3818   1
   6   5  10 16.3028 35.5219   1
   0 -10   1 21.7618 64.6375  -3
   6   5  10 21.7618 64.6375   1
   0  10  -1 109.394 67.6326  -3
  -6  -5 -10 109.394 67.6326  -2
  -6  -5 -10 109.394 67.6326   1
  -6  -5 -11 1019.73 40.5192   1
  -6  -6   8 489.886 30.8213   1
  -6  -6   7 617.285 24.9595   1
  -6  -6   6 1809.92 24.1339   1
  -6  -6   5 173.179 15.6818   1
   6   6  -4 264.286 14.2706   1
   6   6  -3 513.607 13.3846   1
  -7  -5   0 1332.61 21.1062  -3
   6   6  -3 1332.61 21.1062  -2
   6   6  -2 1332.61 21.1062   1
  -6  -6   1 1814.13 13.5680   1
  -6  -6   0 7779.90 23.0617  -3
   6   6  -1 7779.90 23.0617  -2
   6   6   0 7779.90 23.0617   1
   6   6   1 682.032 10.9449   1
   6   6   2 12.3862 16.1838   1
   5   7   0 411.241 19.8957  -3
  -6  -6  -1 411.241 19.8957  -2
  -6  -6  -2 411.241 19.8957   1
  -6  -6  -3 372.217 8.39061   1
   6   6   4 145.393 12.8338   1
   6   6   5 300.758 14.2140   1
   6   6   6 3032.41 19.0785   1
   6   6   7 910.718 18.8771   1
   6   6   8 169.888 18.9276   1
   6   6   9 302.166 24.6322   1
  -1 -10   0 533.557 87.0317  -3
   6   6   9 533.557 87.0317  -2
   6   6   9 533.557 87.0317   1
   6   6  10 4.63552 24.2962   1
  -6  -6 -11-24.0642 60.6563   1
   0 -11   0-6.39279 123.726  -3
   6   6  11-6.39279 123.726  -2
   6   6  11-6.39279 123.726   1
  11   3   1 1.59774 95.1189  -3
  -6  -7   8 1.59774 95.1189   1
  -6  -7   7 846.275 27.5469   1
  -6  -7   6 728.708 22.1146   1
  -6  -7   5 596.899 19.4382   1
   6   7  -4 40.0349 15.3772   1
   6   7  -3 85.9637 14.0597   1
   6   7  -2-1.43925 12.4902   1
  -7  -6  -1 3098.23 22.6962  -3
   6   7  -2 3098.23 22.6962  -2
   6   7  -1 3098.23 22.6962   1
   6   7   0 2080.29 14.0779   1
  -6  -7  -1 4334.99 21.5080  -3
   6   7   0 4334.99 21.5080  -2
   6   7   1 4334.99 21.5080   1
   6   7   2 47.7559 10.5859   1
  -6  -7  -3 44.4213 19.3174   1
  -5  -8  -1 143.582 29.2137  -3
   6   7   2 143.582 29.2137  -2
   6   7   3 143.582 29.2137   1
  -6  -7  -4 99.2498 15.1906   1
   6   7   5 927.903 16.3713   1
   6   7   6 1965.61 20.7283   1
   6   7   7 3095.53 23.9592   1
   6   7   8 120.906 18.8208   1
   6   7   9 33.9612 22.8850   1
   6   7  10 174.357 28.6941   1
  -1 -11  -1 326.604 86.7527  -3
   6   7  10 326.604 86.7527   1
   6   7  11 436.404 51.6615   1
  -6  -8   6 1283.03 31.1502   1
  -6  -8   5 101.812 23.3522   1
   6   8  -4 33.4945 18.5954   1
   6   8  -3 209.272 15.7159   1
   6   8  -2 36.6374 14.4993   1
   6   8  -1 342.999 13.6117   1
   7   7   2 4549.71 24.7358  -3
  -6  -8   1 4549.71 24.7358  -2
  -6  -8   0 4549.71 24.7358   1
   6   8   1 714.519 14.7261   1
  -6  -8   0 2279.52 39.3224  -2
  -6  -8  -1 2279.52 39.3224   1
   6   8   2 423.667 28.4779   1
  -6  -8  -2 1082.45 27.8304  -3
   6   8   1 1082.45 27.8304  -2
   6   8   2 1082.45 27.8304   1
   6   8   3 73.2051 17.6652   1
   6   8   2 168.951 42.1051  -2
   6   8   3 168.951 42.1051   1
   5   9   2 110.914 30.8470  -3
  -6  -8  -3 110.914 30.8470  -2
  -6  -8  -4 110.914 30.8470   1
   6   8   5 172.653 16.5765   1
   6   8   6 2556.36 23.5888   1
   6   8   7 661.592 21.7742   1
   6   8   8 405.268 22.8801   1
   6   8   9 68.8561 24.3701   1
   6   8  10 25.0026 35.7397   1
   6   8  11 202.823 68.8750   1
  -6  -9   5 577.767 37.7173   1
  -6  -9   4 25.8832 23.4088   1
  -6  -9   3 26.8821 21.2997   1
   6   9  -2 209.718 18.6897   1
   6   9  -1 660.322 18.2076   1
   6   9   0 1320.77 20.0687   1
   8   8   3 1782.97 78.7957  -3
  -6  -9   1 1782.97 78.7957  -2
  -6  -9   0 1782.97 78.7957   1
  -7  -8  -3 3408.59 29.9276  -3
   6   9   0 3408.59 29.9276  -2
   6   9   1 3408.59 29.9276   1
   6   9   2 16.7722 26.2215   1
  -6  -9  -1 1075.27 35.5874  -2
  -6  -9  -2 1075.27 35.5874   1
  -6  -9  -3 376.450 44.3449  -3
   6   9   2 376.450 44.3449  -2
   6   9   3 376.450 44.3449   1
   6   9   4 438.896 23.5541   1
   5  10   3 297.291 75.0251  -3
  -6  -9  -4 297.291 75.0251  -2
  -6  -9  -5 297.291 75.0251   1
   6   9   6 544.640 30.8680   1
   6   9   7 1597.08 30.0111   1
   6   9   8 400.611 29.0226   1
   6   9   9 49.6964 30.8339   1
   6   9  10 48.5132 69.4245   1
   6  10  -4 256.550 67.1940   1
  -6 -10   3 24.4522 28.3325   1
   6  10  -2-12.5929 24.7962   1
   6  10  -1 132.426 21.5785   1
  -6 -10   0 946.008 25.1207   1
   8   8   4 1613.46 85.9083  -3
  -6 -10   1 1613.46 85.9083  -2
  -6 -10   0 1613.46 85.9083   1
   6  10   1 829.464 31.4301   1
   8   9   4 1833.59 56.2774  -3
  -6 -10   0 1833.59 56.2774  -2
  -6 -10  -1 1833.59 56.2774   1
   6  10   2 337.513 55.7969   1
  -7  -9  -4 873.279 51.9303  -3
   6  10   1 873.279 51.9303  -2
   6  10   2 873.279 51.9303   1
   6  10   3 52.9606 30.5774   1
  -6 -10  -2 179.430 67.5113  -2
  -6 -10  -3 179.430 67.5113   1
  -6 -10  -4 601.101 51.4202  -3
   6  10   3 601.101 51.4202  -2
   6  10   4 601.101 51.4202   1
   6  10   5 40.2060 27.2251   1
   5  11   4 1292.62 54.3973  -3
  -6 -10  -5 1292.62 54.3973  -2
  -6 -10  -6 1292.62 54.3973   1
   6  10   7 414.231 26.7224   1
   6  10   8 651.382 29.3077   1
  -6 -10  -9 4.00195 66.1446   1
   6  11  -2 55.1460 47.2974   1
   6  11  -1 220.075 38.3734   1
   6  11   0 619.497 31.9375   1
   6  11   1 1541.02 66.8122   1
   8   9   5 2469.87 54.9771  -3
  -6 -11   0 2469.87 54.9771  -2
  -6 -11  -1 2469.87 54.9771   1
   6  11   2 198.787 63.4700   1
  -8 -10  -5 1194.05 62.3335  -3
   6  11   1 1194.05 62.3335  -2
   6  11   2 1194.05 62.3335   1
   6  11   3 133.605 61.5663   1
   7  10   5 268.427 56.7775  -3
  -6 -11  -2 268.427 56.7775  -2
  -6 -11  -3 268.427 56.7775   1
   6  11   4 14.8355 43.5089   1
  -6 -11  -3 141.430 53.2729  -2
  -6 -11  -4 141.430 53.2729   1
   6  11   5 15.1891 64.1637   1
   6  11   5 78.2576 51.1866  -3
  -6 -11  -4 78.2576 51.1866  -2
  -6 -11  -5 78.2576 51.1866   1
   6  11   6 221.711 33.0090   1
   5  12   5 1220.21 114.195  -3
  -6 -11  -6 1220.21 114.195  -2
  -6 -11  -7 1220.21 114.195   1
  -1   1  13 818.825 116.216  -3
   7  -6  -2 818.825 116.216  -2
   7  -6  -2 818.825 116.216   1
   0   1  13 2848.28 121.585  -3
   7  -6  -1 2848.28 121.585  -2
   7  -6  -1 2848.28 121.585   1
   0   0  13 306.388 113.641  -3
   7  -6   0 306.388 113.641  -2
   7  -6   0 306.388 113.641   1
   1   0  13 257.485 139.540  -3
   7  -6   1 257.485 139.540  -2
   7  -6   1 257.485 139.540   1
  -3   2  12 87.9721 84.8135  -3
   7  -5  -5 87.9721 84.8135  -2
   7  -5  -5 87.9721 84.8135   1
   7  -5  -4 0.07018 45.9498   1
  -2   1  12 20.6810 61.6248  -3
   7  -5  -3 20.6810 61.6248  -2
   7  -5  -3 20.6810 61.6248   1
   7  -5  -2 2316.06 64.5147  -2
   7  -5  -2 2316.06 64.5147   1
  -1   0  12 716.131 73.1371  -3
   7  -5  -1 716.131 73.1371  -2
   7  -5  -1 716.131 73.1371   1
   7  -5   0 1451.21 51.6135  -2
   7  -5   0 1451.21 51.6135   1
   0  -1  12 310.228 61.1484  -3
   7  -5   1 310.228 61.1484  -2
   7  -5   1 310.228 61.1484   1
   1  -1  12 11.8733 120.690  -3
   7  -5   2 11.8733 120.690  -2
   7  -5   2 11.8733 120.690   1
   7  -4  -6 58.4992 36.8612   1
  -4   1  11 519.071 52.3341  -3
   7  -4  -5 519.071 52.3341  -2
   7  -4  -5 519.071 52.3341   1
  -3   1  11 604.230 52.8993  -3
   7  -4  -4 604.230 52.8993  -2
   7  -4  -4 604.230 52.8993   1
   7  -4  -3 428.006 38.0725   1
  -7   4   3 616.225 61.9048  -2
  -7   4   3 616.225 61.9048   1
   2   0 -11 494.320 41.6735  -3
  -7   4   2 494.320 41.6735  -2
  -7   4   2 494.320 41.6735   1
   7  -4  -1 2096.96 55.6064   1
   7  -4  -1 3597.78 43.6360  -2
   7  -4  -1 3597.78 43.6360   1
   1   1 -11 1532.45 49.7406  -3
  -7   4   0 1532.45 49.7406  -2
  -7   4   0 1532.45 49.7406   1
   7  -4   1 571.567 63.9807   1
   7  -4   1 733.494 50.3509  -2
   7  -4   1 733.494 50.3509   1
   0  -2  11 474.724 72.0672  -3
   7  -4   2 474.724 72.0672  -2
   7  -4   2 474.724 72.0672   1
   7  -4   3 205.244 61.8102   1
   1  -2  11 427.126 106.684  -3
   7  -4   3 427.126 106.684  -2
   7  -4   3 427.126 106.684   1
   7  -4   4 121.753 48.2211   1
   2  -3  11 3526.19 93.8133  -3
   7  -4   5 3526.19 93.8133  -2
   7  -4   5 3526.19 93.8133   1
   7  -4   6 490.153 59.0347   1
   7  -3  -8 741.376 76.6105   1
   7  -3  -7 583.193 31.1830   1
   7  -3  -6 1294.76 59.2813   1
  -5   1  10 2690.02 56.7557  -3
   7  -3  -6 2690.02 56.7557  -2
   7  -3  -6 2690.02 56.7557   1
   7  -3  -5 40.9588 28.1823   1
  -4   1  10 52.5154 60.9166  -3
   7  -3  -5 52.5154 60.9166   1
  -4   0  10 156.255 43.4082  -3
   7  -3  -4 156.255 43.4082  -2
   7  -3  -4 156.255 43.4082   1
   7  -3  -3 154.524 50.0061   1
   3   0 -10 285.246 50.6665  -3
  -7   3   3 285.246 50.6665  -2
  -7   3   3 285.246 50.6665   1
   7  -3  -2 890.222 29.3596   1
  -7   3   2 1152.40 56.4853  -2
  -7   3   2 1152.40 56.4853   1
   2   1 -10 1194.54 36.8190  -3
  -7   3   1 1194.54 36.8190  -2
  -7   3   1 1194.54 36.8190   1
   7  -3   0 2571.97 39.5264   1
  -7   3   0 3907.78 44.6042  -2
  -7   3   0 3907.78 44.6042   1
   1   2 -10 585.063 41.4571  -3
  -7   3  -1 585.063 41.4571  -2
  -7   3  -1 585.063 41.4571   1
   7  -3   2 174.184 36.7517   1
   7  -3   2 220.683 41.7009  -2
   7  -3   2 220.683 41.7009   1
   0  -3  10 101.500 52.1914  -3
   7  -3   3 101.500 52.1914  -2
   7  -3   3 101.500 52.1914   1
   1  -3  10 597.325 55.0134  -3
   7  -3   4 597.325 55.0134  -2
   7  -3   4 597.325 55.0134   1
   7  -3   5 266.243 46.3681   1
   2  -4  10 1546.41 89.5633  -3
   7  -3   6 1546.41 89.5633  -2
   7  -3   6 1546.41 89.5633   1
   7  -3   7 133.069 58.3486   1
  -7   2   8 79.0709 34.3107   1
   7  -2  -7 1831.54 47.0279   1
   6  -1  -9 3284.07 55.6432  -3
  -7   2   7 3284.07 55.6432  -2
  -7   2   7 3284.07 55.6432   1
  -7   2   6 228.636 22.6331   1
  -5   0   9 556.187 35.0017  -3
   7  -2  -5 556.187 35.0017  -2
   7  -2  -5 556.187 35.0017   1
  -7   2   4 439.372 19.2255   1
   7  -2  -3 95.6672 16.7697   1
   3   1  -9 408.543 31.0011  -3
  -7   2   2 408.543 31.0011  -2
  -7   2   2 408.543 31.0011   1
  -7   2   1 2389.76 20.5976   1
   2   2  -9 721.011 27.8635  -3
  -7   2   0 721.011 27.8635  -2
  -7   2   0 721.011 27.8635   1
   7  -2   1 623.670 24.6675   1
  -7   2  -1 1012.87 34.4307  -2
  -7   2  -1 1012.87 34.4307   1
  -1  -3   9 1077.24 45.3253  -3
   7  -2   2 1077.24 45.3253  -2
   7  -2   2 1077.24 45.3253   1
   7  -2   3-6.83713 24.8390   1
  -7   2  -4 103.492 42.9172   1
   0  -4   9 441.059 61.1309  -3
   7  -2   4 441.059 61.1309  -2
   7  -2   4 441.059 61.1309   1
   1  -4   9 2941.59 52.4513  -3
   7  -2   5 2941.59 52.4513  -2
   7  -2   5 2941.59 52.4513   1
   7  -2   6 454.621 40.8131   1
   2  -5   9 4204.57 82.7164  -3
   7  -2   7 4204.57 82.7164  -2
   7  -2   7 4204.57 82.7164   1
   7  -2   8 17.3237 51.1884   1
   7  -1  -8 743.345 66.8056   1
   7  -1  -8 1531.24 56.5176  -3
  -7   1   8 1531.24 56.5176  -2
  -7   1   8 1531.24 56.5176   1
  -7   1   7 1177.99 25.6988   1
   7  -1  -6 2765.48 42.7550   1
   6   0  -8 5209.83 50.6566  -3
  -7   1   6 5209.83 50.6566  -2
  -7   1   6 5209.83 50.6566   1
  -7   1   5 155.453 19.1486   1
  -5  -1   8 531.389 29.7442  -3
   7  -1  -4 531.389 29.7442  -2
   7  -1  -4 531.389 29.7442   1
   7  -1  -3 414.260 16.6612   1
   7  -1  -2 748.984 15.4368   1
   7  -1  -1 84.4635 24.5773   1
   3   2  -8 84.8222 38.8080  -3
  -7   1   1 84.8222 38.8080  -2
  -7   1   1 84.8222 38.8080   1
  -7   1   0 3832.05 17.6764   1
   2   3  -8 3150.90 25.1017  -3
  -7   1  -1 3150.90 25.1017  -2
  -7   1  -1 3150.90 25.1017   1
   7  -1   2 886.744 18.8848   1
   7  -1   2 1585.04 40.0330  -2
   7  -1   2 1585.04 40.0330   1
   7  -1   3 180.017 30.6717   1
  -1  -4   8 300.221 37.5515  -3
   7  -1   3 300.221 37.5515  -2
   7  -1   3 300.221 37.5515   1
   7  -1   4 77.9335 24.6544   1
  -7   1  -5 122.963 41.2010   1
   0  -5   8 345.248 59.4666  -3
   7  -1   5 345.248 59.4666  -2
   7  -1   5 345.248 59.4666   1
   1  -5   8 3392.76 51.2999  -3
   7  -1   6 3392.76 51.2999  -2
   7  -1   6 3392.76 51.2999   1
   7  -1   7 639.317 42.3709   1
   2  -6   8 1680.53 79.7888  -3
   7  -1   8 1680.53 79.7888  -2
   7  -1   8 1680.53 79.7888   1
  -7   0   8 19.0481 25.9005   1
   7   0  -7 1227.21 57.9371   1
   7   0  -7 2214.15 40.1700  -3
  -7   0   7 2214.15 40.1700   1
  -7   0   6 425.749 22.7391   1
   7   0  -5 931.688 32.5293   1
   6   1  -7 1963.33 40.8955  -3
  -7   0   5 1963.33 40.8955  -2
  -7   0   5 1963.33 40.8955   1
   7   0  -4 120.660 16.7495   1
   7   0  -3 81.8515 46.1726   1
  -5  -2   7 230.331 26.9648  -3
   7   0  -3 230.331 26.9648  -2
   7   0  -3 230.331 26.9648   1
   7   0  -2 28.2392 13.4820   1
   7   0  -1 1538.91 15.4634   1
   7   0   0 1808.98 14.8416   1
   3   3  -7 3689.48 32.5627  -3
  -7   0   0 3689.48 32.5627  -2
  -7   0   0 3689.48 32.5627   1
  -7   0  -1 2844.77 15.9837   1
  -2  -4   7 215.537 19.9136  -3
   7   0   2 215.537 19.9136  -2
   7   0   2 215.537 19.9136   1
   7   0   3-1.87494 18.9997   1
   7   0   4 373.120 24.8576   1
   1   5  -7 902.299 32.8716  -3
  -7   0  -4 902.299 32.8716  -2
  -7   0  -4 902.299 32.8716   1
   7   0   5 1385.17 22.2821   1
   7   0   6 755.153 24.5672   1
   0  -6   7 1119.09 91.2873  -3
   7   0   6 1119.09 91.2873  -2
   7   0   6 1119.09 91.2873   1
   7   0   7 1858.62 33.0466   1
   7   0   8 130.064 41.8590   1
   2  -7   7 614.307 78.0596  -3
   7   0   9 614.307 78.0596  -2
   7   0   9 614.307 78.0596   1
   8   0  -6 78.9586 48.1594  -3
  -7  -1   8 78.9586 48.1594   1
   7   1  -7 212.567 22.6712   1
  -7  -1   6 3215.72 46.0657  -3
   7   1  -7 3215.72 46.0657  -2
   7   1  -6 3215.72 46.0657   1
   7   1  -5 401.205 19.7488   1
   7   1  -4 226.049 26.7178   1
   6   2  -6 646.307 41.2996  -3
  -7  -1   4 646.307 41.2996  -2
  -7  -1   4 646.307 41.2996   1
  -7  -1   3 741.364 15.8884   1
   7   1  -2 3.74527 13.2833   1
   5   3  -6 56.4055 36.7734  -3
  -7  -1   2 56.4055 36.7734  -2
  -7  -1   2 56.4055 36.7734   1
  -7  -1   1 24.8744 8.84811   1
   7   1   0 3969.91 13.2211   1
   7   1   1 716.145 11.7322   1
  -3  -4   6 2056.21 20.2884  -3
   7   1   1 2056.21 20.2884  -2
   7   1   1 2056.21 20.2884   1
  -7  -1  -2 1209.63 11.2617   1
  -2  -5   6 882.917 25.1386  -3
   7   1   3 882.917 25.1386  -2
   7   1   3 882.917 25.1386   1
   7   1   4-8.26101 15.2912   1
   7   1   5 62.6935 23.3568   1
   1   6  -6 312.412 39.2629  -3
  -7  -1  -5 312.412 39.2629  -2
  -7  -1  -5 312.412 39.2629   1
  -7  -1  -6 2164.85 26.6019   1
   7   1   7 1006.67 26.7776   1
  -7  -1  -8 2141.77 39.3293   1
  -7  -1  -9 14.7364 38.9742   1
  -2   8  -6 132.501 107.236  -3
  -7  -1 -10 132.501 107.236  -2
  -7  -1 -10 132.501 107.236   1
  -7  -2   8 105.933 28.1147   1
  -8  -1   5 2166.26 81.1266  -3
   7   2  -7 2166.26 81.1266   1
  -8  -1   5 2087.70 51.8785  -3
   7   2  -8 2087.70 51.8785  -2
   7   2  -7 2087.70 51.8785   1
   7   2  -6 1085.03 21.7800   1
   7   2  -5 4977.87 56.8054  -3
  -7  -2   5 4977.87 56.8054   1
   7   2  -5 5579.13 39.6274  -3
  -7  -2   6 5579.13 39.6274  -2
  -7  -2   5 5579.13 39.6274   1
   7   2  -4 12.8195 15.7338   1
   7   2  -3 8.07384 16.9551   1
   6   3  -5 22.2015 38.3026  -3
  -7  -2   4 22.2015 38.3026  -2
  -7  -2   3 22.2015 38.3026   1
  -7  -2   2 301.248 10.7645   1
   7   2  -1 872.646 11.0257   1
  -7  -2   0 838.294 10.2287   1
   7   2   1 4281.72 11.8448   1
   7   2   2 211.819 8.86293   1
  -3  -5   5 939.189 21.8655  -3
   7   2   2 939.189 21.8655  -2
   7   2   2 939.189 21.8655   1
   7   2   3 32.0180 12.5508   1
  -2  -6   5 1461.22 25.5625  -3
   7   2   4 1461.22 25.5625  -2
   7   2   4 1461.22 25.5625   1
   7   2   5 270.977 16.4429   1
   7   2   6 501.194 30.2784   1
  -1  -7   5 412.899 45.2184  -3
   7   2   6 412.899 45.2184   1
  -1  -7   5 725.829 48.9740  -3
   7   2   6 725.829 48.9740  -2
   7   2   6 725.829 48.9740   1
   7   2   7 2863.37 27.5387   1
   7   2   8 516.611 24.8984   1
   7   2   9 69.4441 31.8489   1
  -7  -2 -10 277.384 38.5645   1
   9   1  -4 320.817 42.6871  -3
  -7  -3   8 320.817 42.6871   1
  -7  -3   7 131.545 22.4921   1
  -8  -2   4 2683.40 34.8214  -3
   7   3  -7 2683.40 34.8214  -2
   7   3  -6 2683.40 34.8214   1
   7   3  -5 989.657 17.8358   1
   7   3  -4 478.209 28.3868   1
   7   3  -4 1217.62 32.3418  -3
  -7  -3   5 1217.62 32.3418  -2
  -7  -3   4 1217.62 32.3418   1
   7   3  -3 242.693 14.2628   1
   7   3  -2 58.8372 14.7299   1
   6   4  -4 174.933 26.5172  -3
  -7  -3   3 174.933 26.5172  -2
  -7  -3   2 174.933 26.5172   1
   7   3  -1 9.09436 9.45552   1
   7   3   0 2306.24 11.1743   1
   7   3   1 2328.40 10.8183   1
   7   3   2 2442.74 14.7894   1
  -3  -6   4 66.0821 20.8104  -3
   7   3   3 66.0821 20.8104  -2
   7   3   3 66.0821 20.8104   1
   7   3   4 89.6470 14.8041   1
   7   3   5 213.713 24.9710   1
   2   7  -4 658.414 35.4635  -3
  -7  -3  -5 658.414 35.4635  -2
  -7  -3  -5 658.414 35.4635   1
   7   3   6 1278.17 19.3214   1
   7   3   7 543.528 24.8556   1
  -1  -8   4 504.637 50.3188  -3
   7   3   7 504.637 50.3188   1
  -1  -8   4 819.926 82.4844  -3
   7   3   7 819.926 82.4844  -2
   7   3   7 819.926 82.4844   1
   7   3   8 1521.29 26.9853   1
   7   3   9-13.3262 31.1557   1
   7   3  10 110.625 35.8461   1
  -7  -3 -11 95.0041 68.2915   1
   7   4  -8 198.256 30.4360   1
   7   4  -7 2.31763 63.6326   1
   9   2  -3 580.978 50.4167  -3
  -7  -4   8 580.978 50.4167  -2
  -7  -4   7 580.978 50.4167   1
   7   4  -6 694.265 21.5210   1
  -8  -3   3 4068.75 35.8271  -3
   7   4  -6 4068.75 35.8271  -2
   7   4  -5 4068.75 35.8271   1
  -7  -4   4 258.506 16.6172   1
   7   4  -3 236.378 25.6782  -3
  -7  -4   4 236.378 25.6782  -2
  -7  -4   3 236.378 25.6782   1
   7   4  -2 370.643 12.9085   1
   7   4  -1 213.031 15.2064   1
   6   5  -3 373.795 27.5037  -3
  -7  -4   2 373.795 27.5037  -2
  -7  -4   1 373.795 27.5037   1
   7   4   0 982.570 11.0293   1
   7   4   1 5112.00 13.9165   1
  -7  -4  -2 817.850 12.6239   1
  -7  -4  -3 350.936 11.2565   1
   7   4   4 1162.60 13.6441   1
   7   4   5 551.589 17.1995   1
   7   4   6 952.265 29.7293   1
   2   8  -3 1693.18 40.1629  -3
  -7  -4  -6 1693.18 40.1629  -2
  -7  -4  -6 1693.18 40.1629   1
   7   4   7 3608.75 24.7342   1
   7   4   8 1278.54 28.7163   1
  -1  -9   3 1882.92 61.3258  -3
   7   4   8 1882.92 61.3258   1
  -1  -9   3 2599.87 98.3824  -3
   7   4   8 2599.87 98.3824  -2
   7   4   8 2599.87 98.3824   1
   7   4   9 574.200 28.3752   1
  -7  -4 -10 14.7804 42.0806   1
   0 -10   3 250.867 113.976  -3
   7   4  10 250.867 113.976  -2
   7   4  10 250.867 113.976   1
  -7  -5   8-0.93787 52.7475   1
  -7  -5   7-8.57115 24.7815   1
  -7  -5   6 1106.21 26.2245   1
   9   3  -2 2117.89 91.6525  -3
  -7  -5   7 2117.89 91.6525  -2
  -7  -5   6 2117.89 91.6525   1
   7   5  -5 1031.09 19.5586   1
  -8  -4   2 2839.37 31.0937  -3
   7   5  -5 2839.37 31.0937  -2
   7   5  -4 2839.37 31.0937   1
   7   5  -3 121.945 13.1855   1
   7   5  -2 82.0887 29.7574   1
   7   5  -2 205.794 23.1769  -3
  -7  -5   3 205.794 23.1769  -2
  -7  -5   2 205.794 23.1769   1
   7   5  -1 319.714 12.0748   1
   7   5   0 923.038 17.8496   1
   6   6  -2 1538.77 30.4610  -3
  -7  -5   1 1538.77 30.4610  -2
  -7  -5   0 1538.77 30.4610   1
   7   5   1 1415.85 11.9014   1
  -7  -5  -2 3219.07 18.4829   1
  -7  -5  -3 124.248 14.8050   1
   7   5   4 3.43214 13.2284   1
   7   5   5 44.9446 13.5867   1
   7   5   6 170.636 18.3340   1
   7   5   7 257.942 21.8691   1
  -2  -9   2 337.625 78.8159  -3
   7   5   6 337.625 78.8159  -2
   7   5   7 337.625 78.8159   1
   7   5   8 1403.85 23.9316   1
   7   5   9 229.482 37.1952   1
  -1 -10   2 660.238 42.5370  -3
   7   5   9 660.238 42.5370   1
  -7  -5 -10 325.958 47.1154   1
   7   6  -7 44.2246 27.0449   1
  -7  -6   6 258.080 24.0309   1
  -7  -6   5 1931.56 22.1979   1
  -7  -6   4 640.115 16.8578   1
   7   6  -3-12.8434 32.0108   1
   8   5  -1 280.784 28.3611  -3
  -7  -6   4 280.784 28.3611  -2
  -7  -6   3 280.784 28.3611   1
   7   6  -2 164.364 13.4411   1
   7   6  -1 38.4831 19.7168   1
   7   6  -1 125.504 27.0225  -3
  -7  -6   2 125.504 27.0225  -2
  -7  -6   1 125.504 27.0225   1
   7   6   0 242.276 12.1079   1
   7   6   1 2109.75 18.0861   1
   6   7  -1 3384.81 34.3510  -3
  -7  -6   0 3384.81 34.3510  -2
  -7  -6  -1 3384.81 34.3510   1
  -7  -6  -2 801.374 14.0801   1
  -7  -6  -3 492.177 16.1160   1
   7   6   4 343.614 14.8250   1
   7   6   5 7.07310 15.2896   1
   7   6   6 43.1452 19.0379   1
   7   6   7 1510.42 23.2799   1
   7   6   8 667.924 25.8885   1
  -2 -10   1 1509.64 89.3793  -3
   7   6   7 1509.64 89.3793  -2
   7   6   8 1509.64 89.3793   1
   7   6   9 1019.07 29.4187   1
   7   6  10 25.5590 43.0936   1
  -1 -11   1 560.160 70.8675  -3
   7   6   9 560.160 70.8675  -2
   7   6  10 560.160 70.8675   1
   7   6  11 53.0621 83.8045   1
   7   7  -7-21.2696 49.6882   1
  -7  -7   6 521.587 26.5507   1
   7   7  -5 1297.33 24.8123   1
   7   7  -4 1462.98 19.4614   1
   7   7  -3 22.9610 15.8747   1
   7   7  -2 179.004 46.8028   1
   8   6   0 189.557 26.6162  -3
  -7  -7   3 189.557 26.6162  -2
  -7  -7   2 189.557 26.6162   1
   7   7  -1 78.8421 13.3456   1
   7   7   0 710.838 24.8954   1
   7   7   0 1241.50 27.0277  -3
  -7  -7   1 1241.50 27.0277  -2
  -7  -7   0 1241.50 27.0277   1
   7   7   1 836.490 21.9640   1
  -7  -7   0 1262.74 27.5640  -2
  -7  -7  -1 1262.74 27.5640   1
   7   7   2 2717.97 34.8085   1
   6   8   0 4913.99 34.7713  -3
  -7  -7  -1 4913.99 34.7713  -2
  -7  -7  -2 4913.99 34.7713   1
   7   7   3 854.609 15.4562   1
  -7  -7  -4 149.731 16.8021   1
   7   7   5 188.152 17.1162   1
   7   7   6 228.993 17.6495   1
   7   7   7 331.774 22.1328   1
   7   7   8 1537.59 29.5593   1
   7   7   9 644.931 34.7263   1
  -2 -11   0 1780.19 101.236  -3
   7   7   8 1780.19 101.236  -2
   7   7   9 1780.19 101.236   1
   7   7  10 285.726 32.9081   1
   7   8  -6 47.3470 51.0939   1
  -7  -8   5 1015.63 29.7117   1
  -7  -8   4 654.890 23.5299   1
  -7  -8   3 507.917 18.2920   1
   7   8  -2 38.8520 15.9359   1
   7   8  -1 61.1126 34.0270   1
   8   7   1 66.3103 28.4388  -3
  -7  -8   2 66.3103 28.4388  -2
  -7  -8   1 66.3103 28.4388   1
   7   8   0 1.32871 18.3762   1
  -7  -8   1 41.8147 29.7141  -2
  -7  -8   0 41.8147 29.7141   1
   7   8   1 668.532 50.5228   1
   7   8   1 1054.17 27.7948  -3
  -7  -8   0 1054.17 27.7948  -2
  -7  -8  -1 1054.17 27.7948   1
   7   8   2 1295.00 29.0515   1
  -7  -8  -1 1950.00 28.1570  -2
  -7  -8  -2 1950.00 28.1570   1
  -6  -9  -1 3687.74 41.1311  -3
   7   8   2 3687.74 41.1311  -2
   7   8   3 3687.74 41.1311   1
   7   8   4-12.7791 24.1560   1
   7   8   3 678.438 40.7599  -2
   7   8   4 678.438 40.7599   1
   7   8   5 1.85756 18.1897   1
   7   8   6 8.54451 19.2995   1
   7   8   7 304.071 26.5991   1
   7   8   8 612.381 34.9903   1
   7   8   9 880.941 32.2110   1
   7   8  10 220.296 49.7333   1
   7   9  -5 135.208 41.3365   1
  -7  -9   4 611.013 32.3886   1
   7   9  -3 80.3014 25.6862   1
  10   7   2 409.427 110.352  -3
  -7  -9   4 409.427 110.352  -2
  -7  -9   3 409.427 110.352   1
   7   9  -2 7.98971 20.2110   1
   7   9  -1 32.1471 21.2692   1
   7   9   0 69.2062 51.3566   1
   8   8   2 275.909 36.9137  -3
  -7  -9   1 275.909 36.9137  -2
  -7  -9   0 275.909 36.9137   1
   7   9   1 239.449 37.3575   1
  -7  -9   0 331.232 32.7007  -2
  -7  -9  -1 331.232 32.7007   1
   7   9   2 1362.84 58.3941   1
  -7  -9  -2 2545.89 39.1856  -3
   7   9   1 2545.89 39.1856  -2
   7   9   2 2545.89 39.1856   1
   7   9   3 422.452 38.1147   1
  -7  -9  -2 1290.95 46.0370  -2
  -7  -9  -3 1290.95 46.0370   1
  -6 -10  -2 561.279 40.1044  -3
   7   9   3 561.279 40.1044  -2
   7   9   4 561.279 40.1044   1
   7   9   5 47.8844 24.7104   1
   7   9   6 1.21050 23.5628   1
   7   9   7 10.1547 27.9951   1
   7   9   8 844.955 33.0434   1
   7   9   9 430.871 71.9776   1
  -7 -10   3 748.153 40.6418   1
   7  10  -2 38.5940 36.6293   1
  10   8   3 389.437 116.480  -3
  -7 -10   3 389.437 116.480  -2
  -7 -10   2 389.437 116.480   1
   7  10  -1 16.1371 24.4982   1
   7  10   0 31.2503 33.9214   1
   9   9   3 78.8631 58.4513  -3
  -7 -10   1 78.8631 58.4513  -2
  -7 -10   0 78.8631 58.4513   1
   7  10   1 273.709 58.9656   1
  -8  -9  -3 583.974 42.3618  -3
   7  10   0 583.974 42.3618  -2
   7  10   1 583.974 42.3618   1
   7  10   2 478.280 58.8466   1
   7  10   1 615.565 34.6543  -2
   7  10   2 615.565 34.6543   1
   7  10   3 1583.85 65.9354   1
   7  10   3 2908.12 49.2835  -3
  -7 -10  -2 2908.12 49.2835  -2
  -7 -10  -3 2908.12 49.2835   1
   7  10   4 183.132 43.7951   1
  -7 -10  -3 1111.57 42.9167  -2
  -7 -10  -4 1111.57 42.9167   1
   7  10   5-4.56245 61.9356   1
   6  11   3 176.996 52.8974  -3
  -7 -10  -4 176.996 52.8974  -2
  -7 -10  -5 176.996 52.8974   1
   7  10   6 106.722 35.1984   1
   7  10   7 46.5321 31.5826   1
   7  11   0 13.8533 49.1996   1
   7  11   1 47.0053 46.4225   1
   7  11   0 87.2418 96.9413  -2
   7  11   1 87.2418 96.9413   1
  -8 -10  -4 756.224 79.8079  -3
   7  11   1 756.224 79.8079  -2
   7  11   2 756.224 79.8079   1
   7  11   2 1579.46 46.1286  -2
   7  11   3 1579.46 46.1286   1
   7  11   4 619.005 71.5562   1
   7  11   4 1724.82 108.562  -3
  -7 -11  -3 1724.82 108.562  -2
  -7 -11  -4 1724.82 108.562   1
  -7 -11  -4 266.846 90.5877  -2
  -7 -11  -5 266.846 90.5877   1
   6  12   4-3.13662 117.505  -3
  -7 -11  -5-3.13662 117.505  -2
  -7 -11  -6-3.13662 117.505   1
  -7 -11  -7-0.41023 72.6424   1
   8  -4  -4 661.109 41.0499   1
  -3   0  12 23.6717 68.3393  -3
   8  -4  -3 23.6717 68.3393  -2
   8  -4  -3 23.6717 68.3393   1
   8  -4  -2-10.8575 59.7489   1
  -8   4   2-6.04248 75.7337  -2
  -8   4   2-6.04248 75.7337   1
   2   1 -12 110.541 75.2502  -3
  -8   4   1 110.541 75.2502  -2
  -8   4   1 110.541 75.2502   1
   8  -4   0 1328.05 85.0867   1
  -1  -2  12 789.404 88.6992  -3
   8  -4   1 789.404 88.6992  -2
   8  -4   1 789.404 88.6992   1
   8  -4   2 905.274 78.7934   1
   0  -2  12 2111.51 137.041  -3
   8  -4   2 2111.51 137.041  -2
   8  -4   2 2111.51 137.041   1
   0  -3  12 390.861 92.5069  -3
   8  -4   3 390.861 92.5069  -2
   8  -4   3 390.861 92.5069   1
  -5   0  11 2235.49 115.663  -3
   8  -3  -5 2235.49 115.663  -2
   8  -3  -5 2235.49 115.663   1
   8  -3  -4 137.954 51.3343   1
   4   0 -11 185.725 67.9583  -3
  -8   3   4 185.725 67.9583  -2
  -8   3   4 185.725 67.9583   1
   8  -3  -3 90.5921 33.2638   1
  -3  -1  11 839.696 46.7310  -3
   8  -3  -2 839.696 46.7310  -2
   8  -3  -2 839.696 46.7310   1
   8  -3  -1 117.995 33.0419   1
  -8   3   1 171.556 66.1322  -2
  -8   3   1 171.556 66.1322   1
   2   2 -11 409.585 66.9212  -3
  -8   3   0 409.585 66.9212  -2
  -8   3   0 409.585 66.9212   1
   8  -3   1 1515.96 71.8311   1
  -1  -3  11 1100.28 79.0279  -3
   8  -3   2 1100.28 79.0279  -2
   8  -3   2 1100.28 79.0279   1
   0  -3  11 1315.29 82.5105  -3
   8  -3   3 1315.29 82.5105  -2
   8  -3   3 1315.29 82.5105   1
   8  -3   4 83.4487 51.5712   1
   1  -4  11 144.505 127.260  -3
   8  -3   5 144.505 127.260  -2
   8  -3   5 144.505 127.260   1
  -8   2   6 501.258 71.6166   1
  -6   0  10 811.481 114.636  -3
   8  -2  -6 811.481 114.636  -2
   8  -2  -6 811.481 114.636   1
  -8   2   5 250.214 32.0038   1
   8  -2  -4 1344.48 50.3426   1
  -5  -1  10 2457.82 66.6638  -3
   8  -2  -4 2457.82 66.6638  -2
   8  -2  -4 2457.82 66.6638   1
   8  -2  -3 9.03076 44.5166   1
  -4  -1  10 29.0325 58.4154  -3
   8  -2  -3 29.0325 58.4154  -2
   8  -2  -3 29.0325 58.4154   1
   8  -2  -2 22.7048 28.6513   1
   3   2 -10 345.019 48.2866  -3
  -8   2   1 345.019 48.2866  -2
  -8   2   1 345.019 48.2866   1
  -8   2   0 585.001 30.5901   1
  -2  -3  10 724.776 59.3513  -3
   8  -2   1 724.776 59.3513  -2
   8  -2   1 724.776 59.3513   1
   8  -2   2 2143.63 65.9287   1
   8  -2   3 110.501 63.1022   1
  -1  -4  10 344.441 97.4534  -3
   8  -2   3 344.441 97.4534  -2
   8  -2   3 344.441 97.4534   1
   0  -4  10 288.527 76.3425  -3
   8  -2   4 288.527 76.3425  -2
   8  -2   4 288.527 76.3425   1
   8  -2   5 314.860 49.3047   1
   1  -5  10 170.787 125.761  -3
   8  -2   6 170.787 125.761  -2
   8  -2   6 170.787 125.761   1
   8  -1  -7 303.734 73.3887   1
   7   0  -9 267.325 96.2982  -3
  -8   1   7 267.325 96.2982   1
   8  -1  -6 175.899 29.6149   1
   6   1  -9 3463.60 48.7103  -3
  -8   1   5 3463.60 48.7103  -2
  -8   1   5 3463.60 48.7103   1
   8  -1  -4 628.972 24.6628   1
  -8   1   3 659.248 22.9911   1
  -8   1   2 217.108 32.0565   1
  -4  -2   9 449.329 50.6127  -3
   8  -1  -2 449.329 50.6127  -2
   8  -1  -2 449.329 50.6127   1
   8  -1  -1 47.8138 19.5055   1
   3   3  -9 91.1368 36.2378  -3
  -8   1   0 91.1368 36.2378  -2
  -8   1   0 91.1368 36.2378   1
  -8   1  -1 1515.11 25.2227   1
   8  -1   2 488.714 41.9457   1
   2   4  -9 1571.10 56.3261  -3
  -8   1  -2 1571.10 56.3261  -2
  -8   1  -2 1571.10 56.3261   1
   8  -1   3 616.368 30.2294   1
   8  -1   4 90.4818 41.9251   1
   1   5  -9 256.414 78.3293  -3
  -8   1  -4 256.414 78.3293  -2
  -8   1  -4 256.414 78.3293   1
   0  -5   9-26.9379 55.4210  -3
   8  -1   5-26.9379 55.4210  -2
   8  -1   5-26.9379 55.4210   1
   8  -1   6 11.6762 44.4377   1
   1  -6   9 1886.49 85.4587  -3
   8  -1   7 1886.49 85.4587  -2
   8  -1   7 1886.49 85.4587   1
   8   0  -7 136.325 33.8029   1
   8   0  -6 214.260 40.1025   1
  -7  -1   8 218.542 90.8752  -3
   8   0  -6 218.542 90.8752   1
   7   1  -8 320.665 80.9067  -3
  -8   0   7 320.665 80.9067  -2
  -8   0   6 320.665 80.9067   1
   8   0  -5 635.539 23.2908   1
  -8   0   4 2147.19 26.8601   1
   8   0  -3 314.969 21.3771   1
  -8   0   2-6.30129 18.9270   1
   8   0  -1 672.504 47.6911   1
  -4  -3   8 1404.93 37.5461  -3
   8   0  -1 1404.93 37.5461  -2
   8   0  -1 1404.93 37.5461   1
  -8   0   0 714.552 21.6282   1
   3   4  -8 1149.59 35.7436  -3
  -8   0  -1 1149.59 35.7436  -2
  -8   0  -1 1149.59 35.7436   1
  -8   0  -2 3673.56 24.0547   1
   8   0   3 367.344 30.5128   1
   2   5  -8 981.837 64.4101  -3
  -8   0  -3 981.837 64.4101  -2
  -8   0  -3 981.837 64.4101   1
   8   0   4 270.480 28.8829   1
   8   0   5 419.475 31.6512   1
   8   0   6 43.6172 32.4848   1
   8   0   7 85.7646 43.7894   1
  -1   7  -8 2607.31 111.849  -3
  -8   0  -8 2607.31 111.849  -2
  -8   0  -8 2607.31 111.849   1
   8   1  -7 29.8356 45.3590   1
   8   1  -7 29.3635 64.8080  -3
  -8  -1   7 29.3635 64.8080   1
  -8  -1   6 3.42021 25.9279   1
   8   1  -5 1600.62 39.0392   1
   7   2  -7 2298.65 51.4138  -3
  -8  -1   6 2298.65 51.4138  -2
  -8  -1   5 2298.65 51.4138   1
  -8  -1   4 983.220 21.1937   1
   8   1  -3 1643.00 20.5751   1
   8   1  -2 168.495 18.4919   1
   8   1  -1 15.4295 17.3549   1
  -8  -1   0 10.5356 21.8685   1
  -8  -1  -1 1420.43 19.3681   1
  -3  -5   7 2208.76 31.0380  -3
   8   1   2 2208.76 31.0380  -2
   8   1   2 2208.76 31.0380   1
  -8  -1  -3 1526.18 22.4381   1
   8   1   4 74.8916 29.1352   1
   2   6  -7 651.610 64.7781  -3
  -8  -1  -4 651.610 64.7781  -2
  -8  -1  -4 651.610 64.7781   1
   8   1   5 137.509 33.5192   1
   8   1   6 59.0317 35.1093   1
   8   1   7 700.001 40.3173   1
  -8  -1  -8 745.242 62.7746   1
   8   2  -7 164.225 30.5682   1
   8   2  -6 87.9721 39.9718   1
   8   2  -6 228.055 78.9685  -3
  -8  -2   7 228.055 78.9685  -2
  -8  -2   6 228.055 78.9685   1
  -8  -2   5 366.443 26.9006   1
   8   2  -4 1655.19 30.5319   1
   7   3  -6 2907.17 92.8206  -3
  -8  -2   5 2907.17 92.8206  -2
  -8  -2   4 2907.17 92.8206   1
   8   2  -3 341.292 19.8012   1
  -8  -2   2 60.6448 17.1317   1
   8   2  -1 425.565 16.6877   1
  -8  -2   0-4.15143 18.9095   1
   8   2   1 82.4195 18.4893   1
  -8  -2  -2 1983.10 23.3677   1
   8   2   3 424.093 24.0584   1
   3   6  -6 1797.43 42.9702  -3
  -8  -2  -2 1797.43 42.9702  -2
  -8  -2  -3 1797.43 42.9702   1
   8   2   4 761.132 19.1625   1
   8   2   5 223.603 30.0781   1
   2   7  -6 335.493 42.0363  -3
  -8  -2  -5 335.493 42.0363  -2
  -8  -2  -5 335.493 42.0363   1
   8   2   6 19.6824 23.7105   1
   8   2   7 16.2567 25.7368   1
  -8  -2  -8 1202.51 47.0407   1
  -8  -2  -9 361.416 65.6863   1
   8   3  -7 7.50327 66.7063   1
  -9  -2   5 55.4284 97.3185  -3
   8   3  -7 55.4284 97.3185   1
   8   3  -6 1.39692 24.5011   1
   8   3  -5 1080.19 33.4981   1
   8   3  -5 1998.39 57.7566  -3
  -8  -3   6 1998.39 57.7566  -2
  -8  -3   5 1998.39 57.7566   1
   8   3  -4 817.760 22.5134   1
   8   3  -3 1722.72 25.3940   1
   7   4  -5 3793.99 61.8906  -3
  -8  -3   4 3793.99 61.8906  -2
  -8  -3   3 3793.99 61.8906   1
  -8  -3   2 8.67449 13.8351   1
   8   3  -1 29.2370 12.9150   1
   8   3   0 267.714 12.7652   1
  -8  -3  -1 1090.76 16.3678   1
  -8  -3  -2 1213.18 18.8915   1
   4   6  -5 2073.00 51.4040  -3
  -8  -3  -1 2073.00 51.4040  -2
  -8  -3  -2 2073.00 51.4040   1
   8   3   3 3144.44 19.7513   1
   8   3   4 258.989 21.5623   1
   3   7  -5 2086.59 59.3357  -3
  -8  -3  -3 2086.59 59.3357  -2
  -8  -3  -4 2086.59 59.3357   1
   8   3   5 54.7218 18.9525   1
   8   3   6 368.647 21.9079   1
  -2  -8   5 611.313 97.4061  -3
   8   3   5 611.313 97.4061  -2
   8   3   6 611.313 97.4061   1
   8   3   7 160.183 26.0390   1
   8   3   8 145.027 28.7126   1
   8   3   9 1378.77 39.3641   1
  -8  -3 -10 350.778 65.0543   1
   8   4  -7 137.764 47.9037   1
   8   4  -6 17.7098 36.6709   1
  -9  -3   4 121.818 99.6413  -3
   8   4  -7 121.818 99.6413  -2
   8   4  -6 121.818 99.6413   1
   8   4  -5 18.0761 22.1376   1
   8   4  -4 1264.03 30.3247   1
   8   4  -4 2349.66 54.0200  -3
  -8  -4   5 2349.66 54.0200  -2
  -8  -4   4 2349.66 54.0200   1
  -8  -4   3 1524.38 19.5288   1
   8   4  -2 1268.34 18.4152   1
   7   5  -4 2477.76 63.1934  -3
  -8  -4   3 2477.76 63.1934  -2
  -8  -4   2 2477.76 63.1934   1
   8   4  -1 24.4694 12.1740   1
   8   4   0 145.035 13.2409   1
   8   4   1 35.2796 12.7278   1
  -8  -4  -2 1533.47 18.1803   1
   8   4   3 756.922 16.7220   1
   8   4   4 1137.57 21.8823   1
   8   4   5 137.976 22.2685   1
   3   8  -4 1147.50 64.3041  -3
  -8  -4  -4 1147.50 64.3041  -2
  -8  -4  -5 1147.50 64.3041   1
   8   4   6 20.7793 20.0354   1
   8   4   7 15.5747 25.2294   1
  -2  -9   4-51.4603 74.3892  -3
   8   4   6-51.4603 74.3892  -2
   8   4   7-51.4603 74.3892   1
   8   4   8 474.116 29.1047   1
  -8  -4  -9 689.288 38.7355   1
  -8  -4 -10 1046.80 69.7063   1
 -10  -3   3 25.3902 90.4288  -3
   8   5  -7 25.3902 90.4288   1
   8   5  -6 40.9540 25.4971   1
   8   5  -5 296.330 33.0575   1
   9   4  -3 746.434 56.1497  -3
  -8  -5   6 746.434 56.1497  -2
  -8  -5   5 746.434 56.1497   1
   8   5  -4 689.898 21.4737   1
   8   5  -3 1354.48 29.0391   1
   8   5  -3 2832.24 49.3369  -3
  -8  -5   4 2832.24 49.3369  -2
  -8  -5   3 2832.24 49.3369   1
   8   5  -2 5.54707 15.6241   1
   8   5  -1 40.1939 22.6824   1
   7   6  -3 88.1336 41.3821  -3
  -8  -5   2 88.1336 41.3821  -2
  -8  -5   1 88.1336 41.3821   1
   8   5   0 323.862 16.9918   1
   6   6  -3 549.347 58.9049  -3
  -8  -5   1 549.347 58.9049  -2
  -8  -5   0 549.347 58.9049   1
   8   5   1 72.8790 16.7382   1
   6   7  -3 260.976 41.2871  -3
  -8  -5   0 260.976 41.2871  -2
  -8  -5  -1 260.976 41.2871   1
  -8  -5  -2 602.766 15.3906   1
   8   5   3 1988.25 19.3238   1
   8   5   4 800.515 19.9626   1
   8   5   5 934.216 21.0540   1
   8   5   6 307.280 23.1109   1
  -3  -9   3 716.596 92.2726  -3
   8   5   5 716.596 92.2726  -2
   8   5   6 716.596 92.2726   1
   8   5   7 13.4634 22.3737   1
   8   5   8 35.6505 24.9953   1
   8   5   9 1435.88 33.2123   1
  -8  -5 -10 574.386 69.9098   1
  -8  -6   6 14.4096 33.7524   1
  10   4  -2-36.7142 84.7274  -3
  -8  -6   6-36.7142 84.7274   1
   8   6  -5 0.94437 24.1248   1
   8   6  -4 440.567 28.2888   1
   9   5  -2 1055.05 53.3750  -3
  -8  -6   5 1055.05 53.3750  -2
  -8  -6   4 1055.05 53.3750   1
  -8  -6   3 617.692 19.3205   1
   8   6  -2 1359.08 37.7286   1
   8   6  -2 2713.07 41.4451  -3
  -8  -6   3 2713.07 41.4451  -2
  -8  -6   2 2713.07 41.4451   1
  -8  -6   1 31.2667 16.7003   1
   8   6   0 25.1442 29.9968   1
   7   7  -2 86.7447 32.5043  -3
  -8  -6   1 86.7447 32.5043  -2
  -8  -6   0 86.7447 32.5043   1
   8   6   1 128.372 24.2598   1
   6   7  -2 138.226 34.1236  -3
  -8  -6   0 138.226 34.1236  -2
  -8  -6  -1 138.226 34.1236   1
   8   6   2 583.857 25.0694   1
   6   8  -2 766.643 36.9134  -3
  -8  -6  -1 766.643 36.9134  -2
  -8  -6  -2 766.643 36.9134   1
  -8  -6  -3 551.423 24.6742   1
   5   8  -2 1156.04 61.2322  -3
  -8  -6  -2 1156.04 61.2322  -2
  -8  -6  -3 1156.04 61.2322   1
   8   6   4 2512.01 23.9918   1
   8   6   5 232.240 20.6287   1
   8   6   6-2.05382 21.6906   1
   8   6   7 224.963 26.2240   1
  -3 -10   2 334.765 92.4875  -3
   8   6   6 334.765 92.4875  -2
   8   6   7 334.765 92.4875   1
   8   6   8 84.4174 25.7926   1
   8   6   9 653.053 36.6448   1
  -2 -11   2 649.897 75.8374  -3
   8   6   8 649.897 75.8374  -2
   8   6   9 649.897 75.8374   1
  -8  -7   6-15.4303 48.3540   1
  -8  -7   5 177.518 29.3297   1
  10   5  -1 438.017 102.768  -3
  -8  -7   6 438.017 102.768  -2
  -8  -7   5 438.017 102.768   1
  -8  -7   4 123.303 23.7398   1
   8   7  -3 1184.42 35.0270   1
   9   6  -1 2268.21 54.2750  -3
  -8  -7   4 2268.21 54.2750  -2
  -8  -7   3 2268.21 54.2750   1
   8   7  -2 958.012 19.6066   1
   8   7  -1 263.430 34.7832   1
   8   7  -1 882.139 35.0315  -3
  -8  -7   2 882.139 35.0315  -2
  -8  -7   1 882.139 35.0315   1
   8   7   0 81.3931 27.8073   1
  -8  -7   1 227.721 28.0032  -2
  -8  -7   0 227.721 28.0032   1
   8   7   1-15.1746 31.1661   1
   7   8  -1 103.583 33.3945  -3
  -8  -7   0 103.583 33.3945  -2
  -8  -7  -1 103.583 33.3945   1
   8   7   2 57.4564 26.2702   1
   6   8  -1 228.502 33.6409  -3
  -8  -7  -1 228.502 33.6409  -2
  -8  -7  -2 228.502 33.6409   1
   8   7   3 1236.99 50.9533   1
   6   9  -1 1736.78 46.5397  -3
  -8  -7  -2 1736.78 46.5397  -2
  -8  -7  -3 1736.78 46.5397   1
  -8  -7  -4 1041.04 34.1946   1
  -5  -9   1 2055.35 57.2925  -3
   8   7   3 2055.35 57.2925  -2
   8   7   4 2055.35 57.2925   1
   8   7   5 582.319 22.8880   1
   8   7   6 46.4537 23.3750   1
   8   7   7 13.7356 24.3181   1
   8   7   8 10.8416 29.8734   1
  -3 -11   1 72.6216 104.874  -3
   8   7   7 72.6216 104.874  -2
   8   7   8 72.6216 104.874   1
   8   7   9 648.979 35.0033   1
   8   7  10 270.181 76.8004   1
  -8  -8   4 68.3508 33.1871   1
   8   8  -3 766.080 24.9558   1
   8   8  -2 1111.52 35.9449   1
   9   7   0 1684.86 62.0474  -3
  -8  -8   2 1684.86 62.0474   1
   9   7   0 2231.05 56.5505  -3
  -8  -8   3 2231.05 56.5505  -2
  -8  -8   2 2231.05 56.5505   1
   8   8  -1 148.890 19.1739   1
   8   8   0-11.0702 31.1648   1
   8   8   0 35.5735 38.2567  -3
  -8  -8   1 35.5735 38.2567  -2
  -8  -8   0 35.5735 38.2567   1
   8   8   1 164.998 29.4531   1
  -8  -8   0 219.079 29.6386  -2
  -8  -8  -1 219.079 29.6386   1
   8   8   2 312.689 35.9598   1
   7   9   0 534.497 37.1798  -3
  -8  -8  -1 534.497 37.1798  -2
  -8  -8  -2 534.497 37.1798   1
   8   8   3 526.574 38.9874   1
  -8  -8  -2 851.929 38.3609  -2
  -8  -8  -3 851.929 38.3609   1
   8   8   4 1545.19 36.2107   1
   6  10   0 2616.09 62.2346  -3
  -8  -8  -3 2616.09 62.2346  -2
  -8  -8  -4 2616.09 62.2346   1
   8   8   5 639.332 33.2449   1
   5  10   0 1645.28 63.0169  -3
  -8  -8  -4 1645.28 63.0169  -2
  -8  -8  -5 1645.28 63.0169   1
   8   8   6 238.295 27.5282   1
   8   8   7 95.0826 29.2726   1
   8   8   8 97.3117 31.8812   1
   8   8   9 231.174 72.7882   1
  -8  -9   3 755.138 50.0648   1
   8   9  -2 607.155 26.4726   1
   8   9  -1 480.231 36.6117   1
   9   8   1 960.411 58.2384  -3
  -8  -9   2 960.411 58.2384  -2
  -8  -9   1 960.411 58.2384   1
   8   9   0 35.2261 42.6690   1
  -8  -9   1 273.982 37.8794  -2
  -8  -9   0 273.982 37.8794   1
   8   9   1 44.0837 58.3066   1
  -8  -9  -1 40.9278 40.9654  -3
   8   9   0 40.9278 40.9654  -2
   8   9   1 40.9278 40.9654   1
   8   9   2 29.8640 59.6590   1
   8   9   1 14.6421 32.1214  -2
   8   9   2 14.6421 32.1214   1
   8   9   3 676.037 63.1721   1
   7  10   1 1133.32 63.3153  -3
  -8  -9  -2 1133.32 63.3153  -2
  -8  -9  -3 1133.32 63.3153   1
   8   9   4 1008.35 64.4918   1
  -8  -9  -3 1574.43 41.9432  -2
  -8  -9  -4 1574.43 41.9432   1
   8   9   5 1342.95 66.9332   1
   6  11   1 2760.36 71.7930  -3
  -8  -9  -4 2760.36 71.7930  -2
  -8  -9  -5 2760.36 71.7930   1
   8   9   6 6.71459 30.4013   1
   8   9   7 64.4581 32.2323   1
  -8 -10   1 401.235 34.7246   1
   8  10   0 34.1963 47.8057   1
   9   9   2 135.855 83.0409  -3
  -8 -10   0 135.855 83.0409   1
   9   9   2 243.179 62.9595  -3
  -8 -10   1 243.179 62.9595  -2
  -8 -10   0 243.179 62.9595   1
   8  10   1 64.2844 66.6333   1
   8  10   0 96.5205 38.5890  -2
   8  10   1 96.5205 38.5890   1
  -8 -10  -2 40.9743 45.8761  -3
   8  10   1 40.9743 45.8761  -2
   8  10   2 40.9743 45.8761   1
   8  10   2 19.9469 37.0216  -2
   8  10   3 19.9469 37.0216   1
   7  11   2 841.055 51.5670  -3
  -8 -10  -3 841.055 51.5670  -2
  -8 -10  -4 841.055 51.5670   1
  -8 -10  -4 722.985 58.0263  -2
  -8 -10  -5 722.985 58.0263   1
   8  11   3 929.879 118.380  -3
  -8 -11  -2 929.879 118.380  -2
  -8 -11  -3 929.879 118.380   1
  -8 -11  -3 1265.53 94.8764  -2
  -8 -11  -4 1265.53 94.8764   1
   9  -2  -3 835.373 75.8109   1
   4   2 -11 181.962 71.9059  -3
  -9   2   2 181.962 71.9059  -2
  -9   2   2 181.962 71.9059   1
   9  -2  -1 171.132 76.6601   1
  -9   2   1 46.7239 76.0079  -2
  -9   2   1 46.7239 76.0079   1
   3   3 -11 249.020 74.6722  -3
  -9   2   0 249.020 74.6722  -2
  -9   2   0 249.020 74.6722   1
  -9   2  -1 71.5985 45.4585   1
   9  -2   2 402.194 81.9023   1
  -2  -4  11 482.055 122.199  -3
   9  -2   2 482.055 122.199  -2
   9  -2   2 482.055 122.199   1
   9  -2   3 1328.15 84.0655   1
  -1  -4  11 2337.43 129.910  -3
   9  -2   3 2337.43 129.910  -2
   9  -2   3 2337.43 129.910   1
   9  -2   4 196.646 81.1821   1
   9  -1  -4 759.192 77.3457   1
   9  -1  -3 602.864 51.8187   1
  -9   1   2 1162.62 45.1980   1
   4   3 -10 147.367 55.4294  -3
  -9   1   1 147.367 55.4294  -2
  -9   1   1 147.367 55.4294   1
   9  -1   0 1.68308 33.4827   1
   3   4 -10 654.028 69.0851  -3
  -9   1  -1 654.028 69.0851  -2
  -9   1  -1 654.028 69.0851   1
  -9   1  -2 217.094 42.3516   1
   9  -1   3 220.610 51.5483   1
   9  -1   4 1500.90 86.4720   1
  -1  -5  10 2493.06 124.926  -3
   9  -1   4 2493.06 124.926  -2
   9  -1   4 2493.06 124.926   1
   9  -1   5-17.5252 77.9836   1
  -9   0   5 189.887 64.9353   1
  -9   0   4 183.886 31.4331   1
   9   0  -3 1512.21 32.4294   1
   9   0  -2 151.882 44.4564   1
   5   3  -9 796.818 63.2071  -3
  -9   0   3 796.818 63.2071  -2
  -9   0   2 796.818 63.2071   1
  -9   0   1 378.306 30.5677   1
   9   0   0 0.34089 40.8005   1
   4   4  -9 207.525 57.4893  -3
  -9   0   1 207.525 57.4893  -2
  -9   0   0 207.525 57.4893   1
  -9   0  -1 158.090 26.7314   1
   9   0   2 125.684 63.5023   1
   3   5  -9 228.365 83.0784  -3
  -9   0  -1 228.365 83.0784  -2
  -9   0  -2 228.365 83.0784   1
   9   0   3 1303.14 51.1398   1
   9   0   4 501.066 50.0188   1
   9   0   5 510.850 38.9638   1
  -9   0  -6 16.7930 62.3579   1
  -9  -1   5 155.060 47.9914   1
  -9  -1   4 497.788 31.0037   1
  -9  -1   3 770.762 30.2007   1
  -9  -1   2 1293.71 29.8973   1
   9   1  -1 360.813 41.7451   1
   5   4  -8 1185.25 59.1123  -3
  -9  -1   2 1185.25 59.1123  -2
  -9  -1   1 1185.25 59.1123   1
  -9  -1   0 101.202 27.4854   1
   9   1   1 227.123 38.4046   1
   4   5  -8 481.113 56.8498  -3
  -9  -1   0 481.113 56.8498  -2
  -9  -1  -1 481.113 56.8498   1
   9   1   2 52.7150 25.8231   1
   9   1   3 199.478 37.2735   1
   9   1   4 2063.33 37.9044   1
   9   1   5 366.372 36.1825   1
  -9  -1  -6 284.982 38.2101   1
  -9  -1  -7 163.378 61.7368   1
   9   2  -6 32.0481 84.9362   1
   9   2  -5 6.71655 53.2710   1
   8   3  -7-16.6555 88.7046  -3
  -9  -2   5-16.6555 88.7046   1
   9   2  -4 1.83944 36.8856   1
  -9  -2   3 687.540 35.6549   1
   9   2  -2 353.303 32.5788   1
   9   2  -1 1226.16 33.6859   1
   9   2   0-43.8952 50.2141   1
   5   5  -7 620.454 81.7795  -3
  -9  -2   1 620.454 81.7795  -2
  -9  -2   0 620.454 81.7795   1
   9   2   1-4.26199 29.0058   1
   9   2   2 125.625 36.3154   1
   4   6  -7 289.677 86.0397  -3
  -9  -2  -1 289.677 86.0397  -2
  -9  -2  -2 289.677 86.0397   1
   9   2   3 749.873 25.8266   1
   9   2   4 991.684 30.3106   1
   9   2   5 1307.93 36.0036   1
   9   2   6 93.0913 35.8639   1
   9   2   7 124.867 39.5467   1
   9   3  -6 97.4061 83.1491   1
  -9  -3   5 87.6911 37.8511   1
   9   3  -4 83.5741 48.7815   1
   8   4  -6 155.772 72.7068  -3
  -9  -3   5 155.772 72.7068  -2
  -9  -3   4 155.772 72.7068   1
   9   3  -3 225.136 28.0093   1
   9   3  -2 1677.77 30.0447   1
   9   3  -1 501.074 26.2871   1
   9   3   0 245.443 24.8667   1
  -9  -3  -1 130.152 32.7527   1
   5   6  -6 329.918 69.6688  -3
  -9  -3   0 329.918 69.6688  -2
  -9  -3  -1 329.918 69.6688   1
   9   3   2 8.87813 20.4218   1
  -9  -3  -3 67.9313 26.9976   1
   4   7  -6 156.732 56.8218  -3
  -9  -3  -2 156.732 56.8218  -2
  -9  -3  -3 156.732 56.8218   1
   9   3   4 1616.29 29.0758   1
   9   3   5 496.964 31.1476   1
  -3  -8   6 1334.84 110.178  -3
   9   3   4 1334.84 110.178  -2
   9   3   5 1334.84 110.178   1
   9   3   6 630.988 37.4089   1
   9   3   7 8.79441 37.0032   1
  -9  -3  -8 38.2063 65.8727   1
   9   4  -6-16.8667 71.7449   1
   9   4  -5 15.9425 48.1294   1
   9   4  -5 14.2356 83.3507  -3
  -9  -4   5 14.2356 83.3507   1
   9   4  -4 35.1460 30.1650   1
   9   4  -3 662.358 47.4244   1
   8   5  -5 928.399 64.5667  -3
  -9  -4   4 928.399 64.5667  -2
  -9  -4   3 928.399 64.5667   1
   9   4  -2 730.654 28.1712   1
   9   4  -1 1364.07 28.1109   1
   9   4   0 118.756 30.0219   1
   6   6  -5 727.529 72.8069  -3
  -9  -4   1 727.529 72.8069  -2
  -9  -4   0 727.529 72.8069   1
  -9  -4  -1 11.9703 25.0206   1
   6   7  -5 285.442 71.9685  -3
  -9  -4   0 285.442 71.9685  -2
  -9  -4  -1 285.442 71.9685   1
   9   4   2 144.752 23.9230   1
   5   7  -5 222.139 69.2354  -3
  -9  -4  -1 222.139 69.2354  -2
  -9  -4  -2 222.139 69.2354   1
   9   4   3 286.622 21.5380   1
  -9  -4  -2 309.750 50.0231  -2
  -9  -4  -3 309.750 50.0231   1
   9   4   4 530.819 28.6598   1
   4   8  -5 818.336 69.8208  -3
  -9  -4  -3 818.336 69.8208  -2
  -9  -4  -4 818.336 69.8208   1
   9   4   5 1474.65 25.2428   1
   9   4   6 160.905 24.5534   1
   9   4   7-5.59105 37.5068   1
   9   4   8 254.286 41.1503   1
   9   5  -5 97.9341 50.5233   1
   9   5  -4 31.2271 38.0658   1
   9   5  -4 174.794 104.465  -3
  -9  -5   5 174.794 104.465  -2
  -9  -5   4 174.794 104.465   1
   9   5  -3 92.7864 27.5849   1
  -9  -5   2 1087.69 27.8200   1
   9   5  -1 1186.77 24.0366   1
   9   5   0 1041.79 32.8675   1
   7   7  -4 2127.78 53.3058  -3
  -9  -5   1 2127.78 53.3058  -2
  -9  -5   0 2127.78 53.3058   1
   9   5   1 4.34545 38.1062   1
   6   7  -4 572.433 34.9949  -3
  -9  -5   0 572.433 34.9949  -2
  -9  -5  -1 572.433 34.9949   1
   9   5   2 19.6137 48.6202   1
   6   8  -4 67.9955 36.7179  -3
  -9  -5  -1 67.9955 36.7179  -2
  -9  -5  -2 67.9955 36.7179   1
   9   5   3 102.132 36.7260   1
   5   8  -4 238.679 36.6084  -3
  -9  -5  -2 238.679 36.6084  -2
  -9  -5  -3 238.679 36.6084   1
   9   5   4 1607.45 29.6386   1
  -9  -5  -3 1638.39 59.3697  -2
  -9  -5  -4 1638.39 59.3697   1
   9   5   5 1549.11 33.5314   1
   4   9  -4 3123.81 67.1889  -3
  -9  -5  -4 3123.81 67.1889  -2
  -9  -5  -5 3123.81 67.1889   1
   9   5   6 1648.56 27.9518   1
   9   5   7 91.4855 27.0309   1
  -9  -5  -8 8.65886 32.6788   1
  -9  -5  -9 20.9409 72.0413   1
   9   6  -5 48.0292 73.0910   1
   9   6  -4 130.749 38.5221   1
   9   6  -3 54.1059 36.4007   1
   9   6  -3 128.965 72.0128  -3
  -9  -6   3 128.965 72.0128   1
   9   6  -3 138.483 88.9597  -3
  -9  -6   4 138.483 88.9597  -2
  -9  -6   3 138.483 88.9597   1
   9   6  -2 217.472 24.1589   1
   9   6  -1 1296.27 31.8665   1
   8   7  -3 1987.14 83.7874  -3
  -9  -6   2 1987.14 83.7874  -2
  -9  -6   1 1987.14 83.7874   1
   9   6   0 188.399 30.5769   1
   7   7  -3 751.373 52.7259  -3
  -9  -6   1 751.373 52.7259  -2
  -9  -6   0 751.373 52.7259   1
   9   6   1 6.86723 39.5852   1
   7   8  -3 321.943 42.8915  -3
  -9  -6   0 321.943 42.8915  -2
  -9  -6  -1 321.943 42.8915   1
   9   6   2 184.715 39.0215   1
   6   8  -3 342.063 41.0900  -3
  -9  -6  -1 342.063 41.0900  -2
  -9  -6  -2 342.063 41.0900   1
   9   6   3 18.4292 51.1513   1
   6   9  -3 140.693 55.8644  -3
  -9  -6  -2 140.693 55.8644  -2
  -9  -6  -3 140.693 55.8644   1
   9   6   4 719.668 40.9541   1
   5   9  -3 1067.33 55.5387  -3
  -9  -6  -3 1067.33 55.5387  -2
  -9  -6  -4 1067.33 55.5387   1
   9   6   5 1011.51 26.2519   1
   9   6   6 175.630 33.7617   1
   4  10  -3 821.831 70.7331  -3
  -9  -6  -5 821.831 70.7331  -2
  -9  -6  -6 821.831 70.7331   1
   9   6   7 28.7576 27.4675   1
   9   6   8 81.2435 34.5180   1
   9   7  -4 170.888 71.6396   1
  10   6  -2 179.398 60.1292  -3
  -9  -7   4 179.398 60.1292   1
   9   7  -3 5.23167 25.0618   1
   9   7  -2 644.963 36.9409   1
   9   7  -2 1196.93 56.0116  -3
  -9  -7   3 1196.93 56.0116  -2
  -9  -7   2 1196.93 56.0116   1
   9   7  -1 1103.19 23.8194   1
   9   7   0 812.056 41.1372   1
   8   8  -2 1864.65 43.2639  -3
  -9  -7   1 1864.65 43.2639  -2
  -9  -7   0 1864.65 43.2639   1
   9   7   1 22.3723 41.3615   1
   7   8  -2 357.123 39.7463  -3
  -9  -7   0 357.123 39.7463  -2
  -9  -7  -1 357.123 39.7463   1
   9   7   2 158.984 40.1991   1
   7   9  -2 162.898 41.6130  -3
  -9  -7  -1 162.898 41.6130  -2
  -9  -7  -2 162.898 41.6130   1
   6   9  -2 299.410 47.9713  -3
  -9  -7  -2 299.410 47.9713  -2
  -9  -7  -3 299.410 47.9713   1
   9   7   4 490.815 62.9746   1
  -6 -10   2 621.179 46.9769  -3
   9   7   3 621.179 46.9769  -2
   9   7   4 621.179 46.9769   1
   9   7   5 353.255 41.7692   1
  -5 -10   2 874.553 54.6677  -3
   9   7   4 874.553 54.6677  -2
   9   7   5 874.553 54.6677   1
   9   7   6 1215.65 29.4288   1
   9   7   7 98.7431 37.4849   1
   4  11  -2 706.173 75.7385  -3
  -9  -7  -6 706.173 75.7385  -2
  -9  -7  -7 706.173 75.7385   1
   9   7   8 63.1127 41.8716   1
   9   8  -3 138.334 51.1162   1
  10   7  -1 174.255 89.6544  -3
  -9  -8   3 174.255 89.6544   1
   9   8  -2 256.121 32.8643   1
   9   8  -1 1197.47 40.5112   1
   9   8  -1 2132.83 72.7982  -3
  -9  -8   1 2132.83 72.7982   1
   9   8  -1 2350.77 76.5095  -3
  -9  -8   2 2350.77 76.5095  -2
  -9  -8   1 2350.77 76.5095   1
   9   8   0 445.299 46.8714   1
  -9  -8   1 1080.80 39.9351  -2
  -9  -8   0 1080.80 39.9351   1
   9   8   1 333.560 66.3774   1
   8   9  -1 774.175 44.9212  -3
  -9  -8   0 774.175 44.9212  -2
  -9  -8  -1 774.175 44.9212   1
   9   8   1 186.854 29.8292  -2
   9   8   2 186.854 29.8292   1
  -7 -10   1 68.8184 48.1088  -3
   9   8   2 68.8184 48.1088  -2
   9   8   3 68.8184 48.1088   1
  -6 -10   1 187.259 53.6638  -3
   9   8   3 187.259 53.6638  -2
   9   8   4 187.259 53.6638   1
   9   8   5 755.479 70.7386   1
  -6 -11   1 1073.72 60.3803  -3
   9   8   4 1073.72 60.3803  -2
   9   8   5 1073.72 60.3803   1
   9   8   6 716.627 33.2389   1
   9   8   7 395.655 49.0379   1
   9   9  -2 77.5150 79.5612   1
   9   9  -1 337.098 51.4315   1
   9   9   0 402.937 75.6645   1
   9   9   0 895.091 76.7674  -3
  -9  -9   1 895.091 76.7674  -2
  -9  -9   0 895.091 76.7674   1
   9   9   1 91.1293 67.4937   1
  -9  -9   0 331.562 38.7008  -2
  -9  -9  -1 331.562 38.7008   1
   8  10   0 158.833 52.9646  -3
  -9  -9  -1 158.833 52.9646  -2
  -9  -9  -2 158.833 52.9646   1
   9   9   2 119.949 42.2153  -2
   9   9   3 119.949 42.2153   1
   9   9   3 134.395 62.0639  -2
   9   9   4 134.395 62.0639   1
   6  11   0 789.654 75.6021  -3
  -9  -9  -4 789.654 75.6021  -2
  -9  -9  -5 789.654 75.6021   1
  10   0  -1 367.579 73.4435   1
 -10  -1   3-27.6579 68.5355   1
  10   1  -2-33.0054 72.8686   1
   6   4  -9-61.6672 110.932  -3
 -10  -1   3-61.6672 110.932  -2
 -10  -1   2-61.6672 110.932   1
 -10  -1   1 1367.13 49.7977   1
  10   1   0 532.765 52.7669   1
   5   5  -9 1429.35 109.535  -3
 -10  -1   1 1429.35 109.535  -2
 -10  -1   0 1429.35 109.535   1
  10   1   1 638.587 39.7265   1
 -10  -1   0 1001.67 79.7757  -2
 -10  -1  -1 1001.67 79.7757   1
  10   1   2 65.4208 76.8311   1
  10   1   3 1.57349 78.4242   1
  10   1   4 20.9466 78.0616   1
 -10  -2   3 257.349 67.1036   1
 -10  -2   2 295.693 46.2165   1
  10   2  -1 797.754 40.6556   1
  10   2   0 1243.28 46.8852   1
  10   2   1 89.0255 46.7938   1
   5   6  -8 849.894 105.839  -3
 -10  -2   0 849.894 105.839  -2
 -10  -2  -1 849.894 105.839   1
  10   2   2-8.26642 44.7939   1
 -10  -2  -1 145.612 84.9679  -2
 -10  -2  -2 145.612 84.9679   1
  10   2   3 135.040 73.4415   1
  10   2   4 114.932 75.5725   1
  10   2   5 355.727 78.3610   1
 -10  -3   2 4.02709 32.5818   1
  10   3  -1 639.405 32.7637   1
  10   3   0 456.257 37.7907   1
   6   6  -7 1085.75 86.3946  -3
 -10  -3   1 1085.75 86.3946  -2
 -10  -3   0 1085.75 86.3946   1
  10   3   1 459.394 62.8768   1
 -10  -3   0 919.514 54.8758  -2
 -10  -3  -1 919.514 54.8758   1
  10   3   2 32.7037 44.5427   1
   5   7  -7 288.238 67.0287  -3
 -10  -3  -1 288.238 67.0287  -2
 -10  -3  -2 288.238 67.0287   1
  10   3   3 32.4976 44.6905   1
 -10  -3  -2-2.93319 71.7783  -2
 -10  -3  -3-2.93319 71.7783   1
  10   3   4 61.4893 69.9032   1
  -4  -8   7 220.077 125.349  -3
  10   3   3 220.077 125.349  -2
  10   3   4 220.077 125.349   1
  10   3   5 239.763 75.9125   1
  10   3   6 531.038 50.4241   1
  10   4  -2 55.7352 32.6802   1
  10   4  -1 174.124 31.0466   1
  10   4   0 1500.69 40.0136   1
   7   7  -6 1699.98 91.0343  -3
 -10  -4   1 1699.98 91.0343  -2
 -10  -4   0 1699.98 91.0343   1
  10   4   1 430.917 62.8642   1
   6   7  -6 1561.30 68.1339  -3
 -10  -4   0 1561.30 68.1339  -2
 -10  -4  -1 1561.30 68.1339   1
  10   4   2 321.266 45.2163   1
 -10  -4  -1 601.252 53.9294  -2
 -10  -4  -2 601.252 53.9294   1
  10   4   3 33.4538 44.8734   1
   5   8  -6 112.853 85.4405  -3
 -10  -4  -2 112.853 85.4405  -2
 -10  -4  -3 112.853 85.4405   1
  10   4   4 7.47361 43.5607   1
 -10  -4  -3 30.5559 68.3155  -2
 -10  -4  -4 30.5559 68.3155   1
  10   4   5-30.0734 47.5928   1
  -4  -9   6 102.316 130.216  -3
  10   4   4 102.316 130.216  -2
  10   4   5 102.316 130.216   1
  10   4   6 1109.43 53.1303   1
  10   5  -2 3.50022 46.1648   1
  10   5  -1 812.293 33.1845   1
  10   5   0 805.024 49.1833   1
   7   7  -5 1606.07 67.3998  -3
 -10  -5   1 1606.07 67.3998  -2
 -10  -5   0 1606.07 67.3998   1
  10   5   1 841.944 48.9561   1
   7   8  -5 1809.89 72.8699  -3
 -10  -5   0 1809.89 72.8699  -2
 -10  -5  -1 1809.89 72.8699   1
  10   5   2 61.9195 61.5369   1
   6   8  -5 546.924 67.4090  -3
 -10  -5  -1 546.924 67.4090  -2
 -10  -5  -2 546.924 67.4090   1
  10   5   3-1.42372 44.7594   1
 -10  -5  -2 6.37216 54.5079  -2
 -10  -5  -3 6.37216 54.5079   1
  10   5   4 45.2155 45.2230   1
   5   9  -5 111.083 89.8844  -3
 -10  -5  -3 111.083 89.8844  -2
 -10  -5  -4 111.083 89.8844   1
  10   5   5 239.058 32.9896   1
  10   5   6 510.991 49.8224   1
  10   6  -2 68.2018 78.2623   1
  10   6  -1 14.1087 45.5293   1
  10   6   0 587.399 50.9831   1
   8   8  -4 656.903 91.6939  -3
 -10  -6   1 656.903 91.6939  -2
 -10  -6   0 656.903 91.6939   1
  10   6   1 647.654 73.7898   1
   7   8  -4 1238.82 59.4665  -3
 -10  -6   0 1238.82 59.4665  -2
 -10  -6  -1 1238.82 59.4665   1
  10   6   2 388.630 72.9173   1
   7   9  -4 892.250 71.5381  -3
 -10  -6  -1 892.250 71.5381  -2
 -10  -6  -2 892.250 71.5381   1
   6   9  -4 227.377 58.5273  -3
 -10  -6  -2 227.377 58.5273  -2
 -10  -6  -3 227.377 58.5273   1
  10   6   4 29.9545 69.1088   1
  10   6   3 56.3119 49.0618  -2
  10   6   4 56.3119 49.0618   1
  10   6   5 8.04666 46.9238   1
  -5 -10   4 97.2819 79.0848  -3
  10   6   4 97.2819 79.0848  -2
  10   6   5 97.2819 79.0848   1
  10   6   6 505.035 41.5626   1
   9   8  -3 271.642 101.388  -3
 -10  -7   2 271.642 101.388  -2
 -10  -7   1 271.642 101.388   1
   8   8  -3 615.014 90.7046  -3
 -10  -7   1 615.014 90.7046  -2
 -10  -7   0 615.014 90.7046   1
  10   7   1 662.961 70.9466   1
   8   9  -3 1538.74 97.9735  -3
 -10  -7   0 1538.74 97.9735  -2
 -10  -7  -1 1538.74 97.9735   1
  -7  -9   3 652.601 50.9335  -3
  10   7   1 652.601 50.9335  -2
  10   7   2 652.601 50.9335   1
  10   7   2 225.981 86.4528  -2
  10   7   3 225.981 86.4528   1
   7  10  -3 562.291 104.624  -3
 -10  -7  -2 562.291 104.624  -2
 -10  -7  -3 562.291 104.624   1
  -6 -10   3 128.539 52.2366  -3
  10   7   3 128.539 52.2366  -2
  10   7   4 128.539 52.2366   1
  10   7   4 24.2426 43.4735  -2
  10   7   5 24.2426 43.4735   1
   5  11  -3 94.0354 86.7764  -3
 -10  -7  -5 94.0354 86.7764  -2
 -10  -7  -6 94.0354 86.7764   1
   9   9  -2 386.258 109.436  -3
 -10  -8   1 386.258 109.436  -2
 -10  -8   0 386.258 109.436   1
 -10  -8   0 647.323 85.7873  -2
 -10  -8  -1 647.323 85.7873   1
   8  10  -2 1143.77 79.5357  -3
 -10  -8  -1 1143.77 79.5357  -2
 -10  -8  -2 1143.77 79.5357   1
   7  10  -2 482.141 74.1918  -3
 -10  -8  -2 482.141 74.1918  -2
 -10  -8  -3 482.141 74.1918   1
 -10  -8  -3 91.6470 61.0731  -2
 -10  -8  -4 91.6470 61.0731   1
   0   0  -1 2767.87 53.5382   2
   0   0  -2 2871.09 10.7872   2
   0   0   3 4079.74 10.5563   2
   0   0  -4 327.096 3.33519   2
   0   0  -5 576.594 15.7570   2
  -3   2   0 1208.22 7.52517  -3
   0   0  -5 1208.22 7.52517   2
   0   0   6 5980.77 15.5727   2
   0   0   7 1289.75 10.8897   2
  -4   3   0 3077.40 16.5052  -3
   0   0  -7 3077.40 16.5052   2
   0   0  -8 819.815 13.2060   2
   0   0  -9 181.566 19.4529   2
   0   0 -10 29.1194 18.3720   2
   0   0  11-75.3517 56.3597   2
   0   0  12 606.132 33.7763   2
   0   0 -13 200.445 74.2724   2
   0  -1  12 150.118 72.2927   2
   0  -1  11 428.652 25.9075   2
   0  -1  10 121.258 50.3934   2
   0  -1   9 0.24689 15.9944   2
   0   1  -8 331.433 14.0400   2
   0   1  -7 2643.21 15.4933   2
   0   1  -6 1137.48 15.5731   2
   0  -1   5 4528.86 13.7862   2
   0   1  -4 118.421 5.66816   2
   0   1  -3 208.012 3.70503   2
   0   1  -2 1838.19 8.14752   2
   0   1  -1 5801.32 14.9581   2
   0  -1  -2 133.691 2.08761   2
   0   1   3 116.524 7.75643   2
   0  -1  -4 227.072 3.32091   2
   0  -1  -5 3342.32 9.98222   2
   0  -1  -6 721.280 11.9930   2
  -3   3   1 1326.04 14.6594  -3
   0  -1  -6 1326.04 14.6594   2
   0  -1  -7 4816.43 14.7247   2
   0  -1  -8 234.733 13.6217   2
   4  -4  -1 696.345 22.3590  -3
   0   1   8 696.345 22.3590   2
   0   1   9 98.9525 13.2970   2
   0  -1 -10 197.149 22.5353   2
   0  -1 -11 184.680 29.2000   2
   0  -1 -13 567.763 75.2150   2
   0   2 -12 641.226 43.7574   2
  -8   4  -2 1041.18 94.0754  -3
   0   2 -12 1041.18 94.0754   2
   0   2 -10 107.143 24.7210   2
   0   2  -8 135.578 17.5094   2
   0   2  -7 943.577 16.0162   2
   0   2  -6 4092.02 12.1308   2
  -4   1  -2 619.861 19.3851  -3
   0   2  -5 619.861 19.3851   2
   0   2  -4 48.0958 4.80409   2
   0  -2   3 3550.37 10.9941   2
   0  -2   2 109.763 3.51525   2
   0   2  -1 233.251 4.34771   2
   0  -2  -1 3218.93 8.46732   2
   0  -2  -3 2808.12 10.6297   2
   0  -2  -5 127.450 4.22002   2
   0   2   6 4123.15 21.6411   2
   3  -4  -2 3028.02 24.4719  -3
   0   2   7 3028.02 24.4719   2
   0   2   8 1943.27 15.3656   2
   0  -2  -9 182.158 27.2055   2
   4  -5  -2 251.159 29.4007  -3
   0   2   9 251.159 29.4007   2
   0   2  10 59.6032 15.5295   2
   0   2  11 57.9679 19.2499   2
   0  -2 -13 245.082 40.5751   2
   0  -3  12 341.706 57.2313   2
   0   3 -11 605.313 32.7398   2
   0  -3   9 19.1004 20.5509   2
   0  -3   7 2155.63 15.4580   2
   0   3  -6 1022.58 19.1284   2
   0  -3   5 4565.99 13.0239   2
   0  -3   4 7.88123 4.78571   2
  -4   0  -3 142.000 16.0116  -3
   0   3  -4 142.000 16.0116   2
   0  -3   3 757.067 5.38724   2
   0   3  -2 491.911 5.62769   2
   0   3  -1 2565.81 9.87126   2
   0   3   0 3216.45 17.6189   2
   0  -3  -1 20415.6 21.3192   2
  -1  -2  -3 31388.1 45.6043  -3
   0   3   1 31388.1 45.6043   2
   0  -3  -2 102.422 4.27769   2
   0  -3  -4 1379.76 8.10408   2
   0  -3  -6 317.747 7.43954   2
   0   3   7 3834.90 22.3105   2
   3  -5  -3 595.315 22.6511  -3
   0   3   8 595.315 22.6511   2
   0   3   9 300.769 18.6844   2
   0   3  10 200.929 19.2647   2
   0   3  11 24.7391 18.5271   2
   0  -3 -12-13.0546 33.7211   2
   0  -4  11 138.410 35.6332   2
   0  -4  10 162.366 35.9383   2
  -8   2  -4 234.909 54.0222  -3
   0   4 -10 234.909 54.0222   2
   0  -4   8 47.2907 19.1304   2
   0  -4   6 2005.93 13.5241   2
   0   4  -5 546.659 5.78914   2
   0  -4   4 1398.69 7.81859   2
   0   4  -3 98.7041 6.19140   2
  -4  -1  -4 409.070 18.0255  -3
   0   4  -3 409.070 18.0255   2
   0  -4   2 42.8758 5.23896   2
   0   4  -1 132.472 5.54696   2
   0  -4   0 6330.21 29.2735   2
   0   4   1 3066.35 9.43638   2
   0   4   2 3547.55 14.2022   2
   0  -4  -3 48.4217 4.73961   2
   0   4   5 66.6154 5.76387   2
   0   4   7 988.366 15.0383   2
   0  -4  -8 3139.60 31.4737   2
   0   4   9 163.766 19.9398   2
   0   4  10 139.252 22.6631   2
   0   4  11 280.672 53.7356   2
   0  -4 -13 19.9768 51.0573   2
   0  -5  10 16.7671 29.6822   2
   0  -5   9 7.61497 22.5758   2
   0  -5   8 147.810 43.9172   2
   0  -5   7 490.033 16.9575   2
   0  -5   6 678.341 32.8683   2
   0  -5   5 1920.72 8.76762   2
   0   5  -4 92.1379 10.5737   2
   0   5  -3 74.3306 6.29996   2
   0   5  -2 751.893 7.15891   2
   0   5  -1 298.687 4.42740   2
   0  -5   0 670.685 14.6373   2
   0  -5  -1 4928.45 16.1293   2
   0  -5  -2 383.067 9.32733   2
   1   4   5 2117.57 20.8290  -3
   0  -5  -3 2117.57 20.8290   2
   0  -5  -4 136.942 5.89702   2
   0   5   6-9.30042 8.29576   2
   0  -5  -8 734.665 26.9876   2
   0  -5  -9 694.351 31.6712   2
   0   5  11 23.2617 20.5124   2
   0   5  12 51.7652 28.3096   2
  -9   1  -6 436.461 103.087  -3
   0   6 -10 436.461 103.087   2
   0  -6   9 18.3508 61.3857   2
   0  -6   8-11.7346 24.5044   2
   0  -6   6 963.753 17.3510   2
   0  -6   5 632.057 27.3001   2
   0   6  -4 1147.87 10.6119   2
   0  -6   3 97.4300 15.5895   2
   0   6  -2 90.8716 5.38861   2
   0   6  -1 342.117 8.03169   2
   0  -6   0 1504.67 26.1782   2
   0   6   1-47.1053 22.1493   2
   0  -6  -2 4282.69 14.9083   2
   0   6   3 23.6548 4.52959   2
   1   5   6 23.3181 22.5007  -3
   0  -6  -4 23.3181 22.5007   2
   0   6   5 1235.06 10.1535   2
   0   6   7 444.120 13.3603   2
  -2   7   6 497.524 40.0830  -3
   0  -6  -9 497.524 40.0830   2
   0   6  11 346.884 55.4151   2
  -9   0  -7 59.9734 99.9842  -3
   0   7  -9 59.9734 99.9842   2
   0  -7   7 102.425 32.9482   2
   0  -7   5 1132.62 22.1911   2
   0  -7   3 594.362 12.4666   2
   0  -7   2 14.2426 14.4898   2
   0   7  -1-5.21435 11.1920   2
   0  -7   0-1.12811 23.7344   2
   0  -7  -1 2085.52 21.4162   2
   0  -7  -2 949.886 9.32999   2
  -2  -5  -7 1986.27 26.0737  -3
   0   7   3 1986.27 26.0737   2
   0  -7  -4 25.1385 6.36053   2
   0   7   6 2.71741 11.3152   2
   0   7   8 404.079 16.6838   2
   0   7   9 591.804 42.1457   2
   0   7  11-12.1913 27.1358   2
   0  -8   6 196.844 33.4627   2
   0  -8   4 759.370 29.5771   2
   0   8  -2 71.7925 15.7761   2
   0   8   0 429.086 20.6743   2
   0  -8  -1 546.940 28.1021   2
   0  -8  -2 3870.65 21.0463   2
   0  -8  -3 487.931 17.1545   2
   0   8   5 129.616 15.9594   2
   0  -8  -6 104.700 31.2992   2
   0  -8  -7 66.6177 16.8188   2
   0   8   9 479.651 31.1294   2
  -2   9   8 106.113 62.4494  -3
   0  -8 -11 106.113 62.4494   2
   0  -9   6 0.42954 69.2178   2
   0   9  -5 392.120 32.4733   2
   0  -9   3 308.948 31.1603   2
   0   9  -1 29.7193 25.6179   2
   0  -9  -1 661.419 21.0048   2
   0   9   3 816.082 19.2729   2
   0  -9  -4 3.13172 21.8297   2
   0  -9  -6 244.575 22.0663   2
   0   9   8 420.759 29.5280   2
   0 -10   4 412.359 49.6754   2
   0 -10   2 223.538 33.3804   2
   0 -10   0-19.7295 24.9633   2
   0  10   2 658.494 24.7790   2
   0  10   4 248.457 26.6355   2
   0 -10  -5 38.8994 46.2709   2
   0 -10  -7-27.1017 45.0792   2
   0 -11   1-12.1779 50.7178   2
   0  11   1 385.705 39.6037   2
   0  11   3 1156.41 34.4871   2
   0  11   5 36.5005 39.8659   2
  -1  11   2 659.138 70.7074   2
   1 -11   0 312.768 76.8893   2
   1 -10  -5 126.153 63.8792   2
  -1  10   3 29.7847 30.5660   2
  -1  10   1 633.893 41.4460   2
  -1  10  -1 345.223 57.2302   2
   1 -10   3 19.3114 67.5416   2
   1  -9  -7 193.987 41.7247   2
   1  -9  -4-0.44046 31.1060   2
  -1   9   2 468.456 33.2187   2
  -1   9   0 1270.03 50.5784   2
  -1   9  -2 70.5483 33.3951   2
  -1   9  -4 89.4220 45.4637   2
   1  -8 -10-0.45280 46.9086   2
  -1   8   8 79.3186 26.8870   2
   1  -8  -6 778.062 22.4098   2
   1  -8  -4 160.661 21.7418   2
   1  -8  -3 31.4480 21.3116   2
   1  -8  -1 1140.80 42.5509   2
  -1   8  -1 937.758 40.7279   2
  -1   8  -3 1.74681 24.6557   2
  -1   8  -5 143.598 28.1075   2
  -1   8  -6 128.336 61.1307   2
   1  -8   7 322.832 70.5089   2
  -3   8   8 32.9483 44.3713  -3
   1  -7 -11 32.9483 44.3713   2
   1  -7  -9 136.843 30.0209   2
  -1   7   7 287.069 15.7485   2
  -1   7   5 143.754 11.8430   2
  -1  -5  -8 739.209 21.9706  -3
  -1   7   4 739.209 21.9706   2
   1  -7  -3 136.748 8.85134   2
   1  -7  -2 318.704 31.7506   2
  -1   7  -2 693.515 15.4181   2
  -1   7  -4 18.3671 20.2420   2
   1  -7   6 1088.23 37.8847   2
   1  -7   8 281.905 66.5073   2
  -1   6  11 205.759 30.4830   2
   3  -7  -7 47.8139 22.4044  -3
  -1   6  10 47.8139 22.4044   2
   1  -6  -8 2.86263 16.4093   2
  -1   6   6 638.044 11.4198   2
   1  -6  -4 7.99373 8.63934   2
   1  -6  -3 24.8943 18.3234   2
  -1   6   2 240.160 6.55885   2
   1  -6   0 422.603 12.1442   2
   1  -6   1 4037.88 16.6793   2
  -1   6  -3 58.3809 8.86096   2
   1  -6   5 234.711 18.7456   2
   1  -6   7 881.157 26.7429   2
   1  -6   8 27.0160 50.6844   2
   1  -6   9 103.327 51.8568   2
  -1   5  11 85.2158 31.4727   2
   1  -5  -9 438.445 37.1957   2
   1  -5  -8 276.438 23.1561   2
  -1   5   7 34.7045 11.1359   2
  -1   5   5 740.183 7.95849   2
  -1   5   3 810.170 9.63043   2
  -1   5  -2 672.557 9.66368   2
  -1   5  -3 1183.38 9.56667   2
   1  -5   4 36.0630 8.40297   2
  -1   5  -5 80.3608 16.9460   2
  -1   5  -6 1709.16 20.2066   2
   1  -5   8 610.299 31.8908   2
   1  -5   9 40.5097 52.3429   2
  -1   5 -10 6.63571 35.2667   2
   1  -4 -13 391.638 75.0662   2
  -1   4  12 205.357 28.6931   2
  -1   4  11 732.786 25.6208   2
  -1   4  10 50.6546 35.9462   2
   1  -4  -9 40.9564 25.4290   2
  -1   4   8 285.219 21.0102   2
  -3   5   5 480.716 28.7988  -3
   1  -4  -8 480.716 28.7988   2
  -1   4   7 559.870 16.0912   2
   1  -4  -6 1729.37 10.0915   2
   1  -4  -4 278.235 5.44960   2
  -1   4   1-57.0674 1.91032   2
   1  -4   2 909.011 12.8981   2
  -1   4  -3 878.697 8.35564   2
  -1   4  -4 706.437 16.4973   2
   1  -4   5 183.287 8.54784   2
   1  -4   7 1642.48 20.4182   2
   1  -4   9 367.219 24.0256   2
   1  -4  10 122.084 56.9529   2
   1  -4  11 2.54872 41.4409   2
   1  -3 -12 795.173 47.6547   2
  -1   3  11 315.593 23.8010   2
  -1   3  10 627.785 34.2681   2
   4  -5  -4 417.350 25.5410  -3
  -1   3   9 417.350 25.5410   2
   1  -3  -8 277.151 21.4554   2
  -1   3   7 74.4615 12.5827   2
  -3   4   4 346.065 22.4997  -3
   1  -3  -7 346.065 22.4997   2
   1  -3  -6 5394.21 26.5077   2
   1  -3  -5 1789.67 8.88363   2
   1  -3  -3 650.527 7.17581   2
  -1   3  -2 6896.14 37.2786   2
  -1   3  -3 22.5846 10.8516   2
   1  -3   4-0.26230 5.89123   2
   1  -3   5 196.944 27.0731   2
   1  -3   6 1240.08 14.2484   2
   1  -3   8 1512.26 21.0315   2
   1  -3  10 40.8913 24.6997   2
  -1   2  13 193.536 86.9364   2
   1  -2 -12 249.422 43.8691   2
  -1   2  11 1160.11 25.3346   2
  -1   2  10 12.7627 25.5286   2
  -1   2   9 0.04866 18.2006   2
   4  -4  -3 1334.37 22.9909  -3
  -1   2   8 1334.37 22.9909   2
  -1   2   7 398.331 13.5872   2
   1  -2  -6 402.110 7.51583   2
   1  -2  -5 4993.66 23.5293   2
   1  -2  -4 309.698 4.15244   2
   1  -2  -2 4018.95 14.4983   2
   1  -2   2 4045.25 13.8614   2
   1  -2   3 1073.84 5.78140   2
   1  -2   4 784.525 4.94616   2
  -1   2  -5 147.430 5.09893   2
  -1   2  -6 7.22035 10.0428   2
  -4   2  -3 161.748 15.0993  -3
  -1   2  -6 161.748 15.0993   2
  -1   2  -7 3156.58 14.5662   2
   1  -2   8 297.864 17.3270   2
  -1   2  -9 1255.36 22.1947   2
   1  -2  11 47.9863 26.8833   2
  -1   2 -12 31.5815 48.8309   2
  -1   1  12 867.237 40.6066   2
   1  -1 -11 797.559 31.6676   2
   1  -1 -10 835.318 21.1297   2
  -5   4   2 661.390 35.3422  -3
   1  -1  -9 661.390 35.3422   2
  -1   1   8 25.7755 10.9799   2
  -4   3   2 589.124 14.9868  -3
   1  -1  -7 589.124 14.9868   2
   1  -1  -6 3120.58 13.8086   2
   1  -1  -5 4372.92 13.2844   2
   1  -1  -4 9902.08 25.5407   2
   1  -1  -3 68.6460 3.18430   2
   1  -1  -1 2825.49 15.1983   2
   1  -1   2 16751.9 29.4388   2
  -1   1  -3-58.3204 4.58677   2
  -1   1  -4 428.863 4.87102   2
  -3   2  -2 2655.01 20.7147  -3
  -1   1  -5 2655.01 20.7147   2
  -1   1  -6 1213.21 7.46186   2
  -1   1  -7 450.241 10.9682   2
   1  -1   8 2288.98 15.5548   2
  -1   1  -9 632.125 28.6010   2
  -1   1 -10 188.498 23.8663   2
  -1   1 -12-3.10372 33.1209   2
   1  -1  13 14.4971 58.6539   2
  -1   0  11 1418.96 29.3724   2
  -1   0  10 139.639 23.1324   2
  -1   0   9 746.785 20.1043   2
  -1   0   8 45.9462 25.0900   2
  -5   3   1 134.568 24.5726  -3
   1   0  -8 134.568 24.5726   2
   1   0  -7 312.440 7.83446   2
  -1   0   6 183.862 20.2269   2
  -4   2   1 358.583 13.6254  -3
   1   0  -6 358.583 13.6254   2
  -1   0   5 9509.02 21.0434   2
   1   0  -4 788.970 5.61356   2
   1   0  -3 2962.68 11.1946   2
   1   0  -2 2934.11 11.7543   2
  -1   0   1 2133.81 5.66442   2
  -1   0   0 1895.15 16.7616   2
   1   0   1 8788.75 23.2837   2
  -1   0  -2 4513.97 16.0511   2
  -1   0  -3 7026.32 17.6856   2
  -1   0  -4 51.1724 3.60300   2
  -1   0  -5 59.0732 3.02276   2
  -1   0  -6-115.258 3.66425   2
  -3   3  -1 833.029 12.2347  -3
  -1   0  -6 833.029 12.2347   2
   1   0   7 721.820 9.08341   2
  -1   0  -8 206.868 11.9028   2
   1   0   9 2031.63 20.0365   2
  -1   0 -10 18.1756 34.3974   2
  -1   0 -11 105.555 34.5543   2
  -1   0 -13 121.717 75.6091   2
  -7   6  -1 126.936 95.3790  -3
  -1   0 -13 126.936 95.3790   2
  -1  -1  12 586.953 42.2909   2
  -8   4   0 1107.46 91.5445  -3
   1   1 -12 1107.46 91.5445   2
  -1  -1  11 415.723 58.0323   2
  -1  -1  10 1070.06 20.6380   2
  -1  -1   9 81.2654 20.2238   2
   1   1  -8 59.7838 13.7777   2
   1   1  -7 302.484 14.3518   2
  -5   2   0 579.000 11.0156  -3
   1   1  -7 579.000 11.0156   2
  -1  -1   6 1058.17 5.90887   2
  -1  -1   5 1718.86 26.8961   2
  -4   1   0 3192.66 10.6424  -3
   1   1  -5 3192.66 10.6424   2
   1   1  -4 7417.57 16.2764   2
   1   1  -3 362.072 3.37548   2
   1   1  -2 12.3864 4.56200   2
  -1  -1   1 38.2483 2.15672   2
  -1  -1  -1 261.581 3.60374   2
   1   1   2 24395.9 22.7212   2
   1   1   3 972.205 6.48218   2
   1   1   4 3269.67 11.1606   2
  -1  -1  -5 1937.94 11.2044   2
  -2   3   0 3283.69 13.5304  -3
  -1  -1  -5 3283.69 13.5304   2
  -1  -1  -6 395.677 5.25330   2
  -1  -1  -7 360.914 15.6067   2
   3  -4   0 502.432 17.8895  -3
   1   1   7 502.432 17.8895   2
  -1  -1  -8 5194.14 14.1105   2
   1   1   9 951.800 11.0256   2
  -1  -1 -10 1030.88 17.4079   2
   1   1  11 172.232 18.7536   2
  -1  -1 -12 20.8061 28.4627   2
   1   2 -12 23.4133 40.7498   2
  -1  -2  11 736.739 28.6389   2
  -1  -2   9 322.094 17.3731   2
   1   2  -8 139.074 18.1048   2
   1   2  -7 141.557 12.2020   2
   1   2  -6 20.2516 16.4474   2
   1   2  -5 537.031 28.5543   2
   1   2  -4 1173.16 7.81708   2
  -1  -2   3 4885.79 11.3077   2
   1   2  -2 624.208 4.22867   2
   1   2  -1 1400.14 12.6416   2
   1   2   0 4238.68 8.62734   2
   1   2   1 3771.48 7.65043   2
  -1  -2  -2 3419.16 10.2144   2
  -1  -2  -4 1569.33 7.26497   2
   1   2   5 118.658 6.48016   2
  -1  -2  -6 1395.90 17.4825   2
   2  -4  -1 1940.44 24.8057  -3
   1   2   6 1940.44 24.8057   2
   1   2   7 989.849 7.57910   2
   3  -5  -1 381.374 24.9283  -3
   1   2   8 381.374 24.9283   2
   1   2   9 2571.46 14.2341   2
   1   2  10 376.907 17.2301   2
  -1  -2 -11 212.985 22.7775   2
  -1  -2 -12 40.6940 48.7128   2
  -1  -2 -13-14.3593 48.0410   2
  -1  -3  11 279.831 38.8825   2
   1   3 -10 1227.71 26.7214   2
  -1  -3   8 368.254 16.6119   2
   1   3  -7 287.530 17.4036   2
   1   3  -6 234.308 12.2778   2
   1   3  -5-93.7611 10.7215   2
   1   3  -4 4058.38 10.7173   2
   1   3  -3 1262.20 6.28708   2
  -1  -3   2 1213.61 6.28300   2
  -1  -3   1 1431.66 4.95558   2
  -1  -3   0 19.6443 3.53543   2
   1   3   1 10.3883 3.26093   2
  -1  -3  -2 6097.42 20.7528   2
  -1  -3  -3 2345.29 9.66204   2
  -1  -3  -5 2004.24 8.18442   2
   2  -5  -2 179.991 25.7786  -3
   1   3   7 179.991 25.7786   2
   1   3   8 1388.84 14.1820   2
   1   3   9 734.417 27.0938   2
   1   3  10 1236.22 16.2597   2
   1   3  11 39.4901 22.2457   2
  -1  -3 -13 166.619 50.5686   2
   1   4 -11 475.609 36.7688   2
  -9   2  -3 949.390 95.4889  -3
   1   4 -11 949.390 95.4889   2
   1   4 -10 226.340 26.3081   2
   1   4  -9 488.496 25.6805   2
  -1  -4   7 14.1453 17.9115   2
   1   4  -6 76.5662 24.9503   2
  -1  -4   5 992.229 7.13688   2
  -1  -4   4 1531.64 9.05380   2
  -5  -1  -3 3197.07 21.9660  -3
   1   4  -4 3197.07 21.9660   2
   1   4  -3 6348.82 15.0070   2
  -1  -4   2 21.7530 4.01217   2
   1   4  -1 400.700 4.93807   2
   1   4   0 69.5031 4.27059   2
   1   4   1 2598.36 17.3294   2
  -1  -4  -2 2036.04 7.21857   2
  -1  -4  -3 8454.96 28.1908   2
  -1  -4  -4 856.166 6.09261   2
  -1  -4  -6 1016.73 12.2525   2
  -2   6   3 451.961 44.2072  -3
  -1  -4  -8 451.961 44.2072   2
   1   4   9 3621.26 39.0419   2
   1   4  10 492.295 32.5754   2
   1   4  11 392.594 19.4547   2
  -1  -4 -12 267.008 33.5364   2
  -1  -5  10 639.997 28.6441   2
  -1  -5   8 256.718 20.0673   2
  -1  -5   6 14.3852 12.8713   2
   1   5  -5 6.11582 10.3843   2
  -1  -5   4 3872.95 13.4282   2
  -1  -5   3 2017.82 8.62691   2
   1   5  -2 2233.55 9.40065   2
   1   5  -1 227.116 4.20196   2
   1   5   0 39.1951 4.80319   2
   1   5   1 1286.50 6.61185   2
   1   5   2 4439.63 24.5700   2
   1   5   3 2432.68 9.56117   2
  -1  -5  -4 5297.91 28.5366   2
   1   5   5 38.3751 6.69755   2
  -1  -5  -7 82.4818 34.3305   2
   1   5  10 1474.31 40.3080   2
   1   5  11 1.94204 31.8508   2
  -1  -5 -12-34.8747 58.4967   2
  -1  -5 -13 56.3056 53.0680   2
   1   6 -10 182.184 75.1568   2
  -1  -6   9 441.821 29.3386   2
  -1  -6   7 115.492 18.4970   2
   1   6  -5 130.060 10.7209   2
   1   6  -4 122.208 13.7656   2
   1   6  -3 1568.62 9.23103   2
  -1  -6   2 101.573 7.47811   2
   1   6  -1 136.153 4.09628   2
   1   6   0 521.412 6.90882   2
   1   6   1 92.8942 6.31227   2
   1   6   2 457.703 7.06777   2
   1   6   4 1009.74 7.73234   2
  -1  -6  -5 129.532 21.7375   2
   1   6   6 852.001 10.5591   2
   1   6  11 660.317 22.3237   2
   1   6  12 6.57015 28.8167   2
  -1  -7   8 346.757 32.5992   2
  -1  -7   6 32.0166 22.8348   2
  -1  -7   5-27.7748 31.1669   2
   1   7  -4 1079.79 12.8019   2
  -1  -7   3 2151.51 18.6666   2
   1   7  -2 2674.69 10.2526   2
  -1  -7   1 10.1686 11.1631   2
   1   7   0 9.04032 10.2781   2
   1   7   1 493.457 10.1990   2
  -1  -7  -2 1206.56 12.0084   2
   1   7   3 1293.16 12.3115   2
   1   7   4 832.712 5.09522   2
   1   7   5-3.06952 9.19212   2
   1   7   7 193.591 13.3323   2
   1   7  10 655.444 47.2994   2
   1   7  11 197.430 26.1149   2
  -1  -8   7 149.626 38.4769   2
  -1  -8   5 28.2885 30.6600   2
   1   8  -4 14.1880 43.4784   2
   1   8  -3 1868.79 19.4015   2
   1   8  -1 327.086 14.2470   2
  -1  -8   0 134.436 29.2928   2
   1   8   1 36.8517 12.8491   2
   1   8   2 71.3673 14.1464   2
  -1  -8  -3 1978.59 20.0927   2
   1   8   4 935.812 15.1850   2
   1   8   6 23.8684 16.1020   2
  -1  -8  -8 14.1520 18.7096   2
  -1  -8 -10 266.478 25.8293   2
  -1  -8 -11 663.581 37.8448   2
  -1  -9   6-13.2633 49.8153   2
  -1  -9   4 162.636 30.7708   2
  -1  -9   2 647.730 21.0099   2
   1   9   0 25.5038 17.4730   2
  -1  -9  -1 92.2014 31.8300   2
   1   9   2 228.522 15.9121   2
   1   9   3 229.194 17.6728   2
  -1  -9  -4 2078.21 23.5746   2
   1   9   5 441.780 18.7391   2
  -1  -9  -6 135.025 37.7913   2
   1   9   7 62.4608 20.2164   2
  -1  -9  -9 79.5703 28.2126   2
  -1 -10   5-32.4496 70.6483   2
  -1 -10   3 479.804 31.7351   2
  -1 -10   1 444.607 29.6003   2
   1  10   0-1.94694 44.1939   2
   1  10   1 18.9876 19.0870   2
   1  10   3 451.824 20.2444   2
  -1 -10  -4 498.133 24.0652   2
   1  10   5 631.967 30.1148   2
   1  10   6 7.58143 23.2352   2
  -1 -10  -7 22.6905 46.9846   2
   1  10   8 36.6271 37.6955   2
  -1 -11   3 112.203 69.0794   2
  -1 -11   2 521.682 48.3240   2
  -1 -11   0 74.9278 26.7643   2
   1  11   2-5.79384 23.3772   2
   1  11   4 622.454 28.5728   2
  -1 -11  -5 389.090 36.0652   2
   1  11   6 332.708 49.2471   2
  -1 -11  -7 13.9198 69.9907   2
  -1 -12  -3 167.919 71.7770   2
   1  12   4 112.924 80.5440   2
  -2  10   4 987.674 69.8573   2
  -2  10   2 72.7751 60.7438   2
  -2  10   0 342.768 62.9468   2
   2  -9   3 436.784 68.5793   2
   2  -8  -9 42.0929 38.4386   2
   2  -8  -7 122.484 39.3972   2
  -2   8  -4 57.5783 58.4682   2
   2  -7 -10 353.172 38.7435   2
  -2   7   8 187.152 26.8131   2
  -2   7   6 143.755 25.1886   2
   2  -7  -4 703.717 19.6715   2
   2  -7  -3 1463.53 21.5470   2
  -2   7  -3 727.493 44.3133   2
  -2   7  -5-4.89440 28.9503   2
   2  -7   7 287.105 47.6479   2
   2  -7   8 287.472 71.2179   2
   4  -7  -8 246.466 64.5585  -3
  -2   6  11 246.466 64.5585   2
  -2   6  10 563.288 52.6723   2
  -2   6   9 61.6230 24.1778   2
  -2   6   7 170.108 14.9245   2
  -2   6   5 511.610 12.0306   2
  -2   6   3 225.739 11.4028   2
  -2   6  -2 2844.44 26.4275   2
   2  -6   4 334.072 20.6464   2
   2  -6   6 89.9672 23.3789   2
   2  -6   7 40.5926 54.3407   2
   2  -6   8 509.199 65.2197   2
  -2   5  12-69.9530 70.5334   2
  -2   5  11 573.101 31.8611   2
   4  -6  -7 1016.50 24.3459  -3
  -2   5  10 1016.50 24.3459   2
  -2   5   8 83.1851 16.6708   2
  -2   5   6 280.991 9.79544   2
  -2   5   4 739.005 9.42560   2
   2  -5  -3 3075.55 23.0618   2
   2  -5   3 2603.05 19.0168   2
   2  -5   4 77.6054 14.7232   2
  -2   5  -5 101.752 15.8684   2
   2  -5   7 85.1812 30.2348   2
   2  -5   8 166.026 36.4975   2
   2  -5   9 1143.32 41.8559   2
  -2   5 -10 231.087 49.8629   2
  -2   4  12 150.565 68.9220   2
  -2   4  11 375.916 29.8196   2
   2  -4  -9 324.184 26.9294   2
   2  -4  -7 615.603 9.70459   2
  -2   4   6 765.298 10.9094   2
  -2   4   5 602.665 6.85143   2
   2  -4  -3 795.385 14.1154   2
   2  -4   4 1347.92 10.8658   2
   2  -4   5 61.9945 19.1964   2
   2  -4   6 68.9752 16.5606   2
   2  -4   8 847.407 40.5079   2
   2  -4   9 236.136 37.5489   2
   2  -4  10 227.035 48.5977   2
  -2   3  12 45.8735 35.4347   2
   2  -3 -11 766.238 40.5010   2
  -2   3  10 710.578 41.0632   2
   2  -3  -8 33.3514 21.0563   2
   2  -3  -7 12.8624 11.9274   2
  -2   3   6 37.0127 5.93815   2
  -2   3   5 808.358 7.89958   2
   2  -3  -4 996.619 8.80645   2
  -1   2   5 9387.60 34.3173  -3
   2  -3  -3 9387.60 34.3173   2
   2  -3   3 7059.28 19.3231   2
   2  -3   4 835.961 18.1173   2
   2  -3   5 624.405 9.44373   2
   2  -3   7 13.7901 15.7741   2
   2  -3   9 1265.59 43.3015   2
   2  -3  10 275.240 39.9592   2
   2  -3  11 399.452 35.5117   2
  -2   2  12 41.5543 33.5756   2
  -2   2  11 67.8318 29.2034   2
  -2   2  10 1028.66 52.0348   2
  -2   2   8 263.206 18.7897   2
   2  -2  -7 437.362 16.0989   2
   2  -2  -6 134.047 10.3461   2
  -2   2   5 78.5261 3.92031   2
   2  -2  -4 7117.35 29.2408   2
   2  -2  -3 1300.11 7.48457   2
  -1   1   4 17399.1 20.3677  -3
   2  -2  -2 17399.1 20.3677   2
   2  -2   2 4296.60 11.8223   2
   2  -2   3 1687.77 17.5521   2
   2  -2   4 7305.68 14.5512   2
   3  -2   4 648.718 13.1473  -3
   2  -2   5 648.718 13.1473   2
  -2   2  -6 281.763 11.5726   2
   2  -2   8 632.760 21.9750   2
   2  -2   9 494.014 37.9897   2
   2  -2  10 1428.77 26.4581   2
   2  -2  11 189.831 66.4561   2
   2  -2  12 21.5789 53.0374   2
  -2   1  12 55.4874 34.1973   2
   2  -1 -11 534.043 29.3039   2
  -2   1  10 207.552 47.8174   2
   2  -1  -9 1921.09 21.3468   2
   5  -3  -3 111.875 25.4920  -3
  -2   1   8 111.875 25.4920   2
   2  -1  -7 167.893 14.4962   2
  -2   1   6 666.726 8.21911   2
  -4   2   3 1351.84 30.4872  -3
   2  -1  -6 1351.84 30.4872   2
  -2   1   5 454.600 10.8055   2
   2  -1  -4 32.5838 7.28617   2
   2  -1  -3 7395.10 25.7131   2
  -2   1   2 1498.55 6.86420   2
   2  -1   1 684.624 7.10511   2
   2  -1   2 91.1194 3.34782   2
   2  -1   3 3981.73 8.24622   2
   2  -2   3 2677.86 18.2433  -3
   2  -1   4 2677.86 18.2433   2
  -2   1  -5 297.721 20.6770   2
   2  -1   6 122.648 7.58762   2
  -3   3  -3 171.222 12.6848  -3
  -2   1  -6 171.222 12.6848   2
  -2   1  -7 3.22136 6.75283   2
  -2   1  -8 79.7513 16.2857   2
  -2   1  -9 2059.09 21.2003   2
  -2   1 -11 665.059 29.8291   2
   2  -1  12 46.6061 76.8565   2
  -2   0  12 34.2732 40.2339   2
  -2   0  11-13.4858 34.0417   2
  -2   0  10 1019.29 26.4366   2
  -2   0   9 742.641 37.3913   2
  -2   0   8 1643.65 15.6491   2
  -5   2   2 379.154 16.5716  -3
   2   0  -7 379.154 16.5716   2
  -2   0   6 71.8542 7.81332   2
   2   0  -5 45.5343 5.49856   2
  -2   0   4 3128.92 11.7306   2
   2   0  -3 2409.93 13.0473   2
  -2   0   2 5661.82 28.8447   2
  -2   0   1 155.460 2.45630   2
   2   0   0 304.435 5.37373   2
   2   0   1 3494.27 7.12821   2
   2   0   2 2639.29 10.0783   2
   2   0   3 3734.92 12.9896   2
   2   0   4 12541.0 21.9333   2
  -2   3  -2 1681.56 11.2224  -3
  -2   0  -5 1681.56 11.2224   2
  -2   0  -6 372.219 4.71241   2
  -2   0  -7 1794.62 19.7053   2
   2   0   8 230.129 12.1638   2
   2   0   9 280.763 26.2912   2
  -2   0 -10 2353.25 23.4816   2
  -2   0 -11 235.334 23.4608   2
  -2   0 -12 103.291 30.7037   2
  -2  -1  12 53.0779 35.8704   2
  -2  -1  11 87.7870 25.9523   2
   2   1 -10 109.773 19.6038   2
  -2  -1   9 2478.99 20.9951   2
  -2  -1   8 440.772 16.4849   2
  -2  -1   7 536.100 9.06720   2
  -2  -1   6 132.059 12.2299   2
  -5   1   1 289.843 15.8200  -3
   2   1  -6 289.843 15.8200   2
   2   1  -5 82.2219 7.59019   2
  -2  -1   4 15.8986 4.24061   2
  -2  -1   3 5811.81 17.0045   2
  -2  -1   2 4010.99 11.7578   2
   2   1  -1 28937.8 40.3877   2
   2   1   0 26.0153 2.44077   2
  -2  -1  -1 1098.23 11.5249   2
   2   1   2 200.679 2.62498   2
   2   1   3 8223.52 19.9261   2
   2   1   4 3285.07 12.6729   2
  -2  -1  -5 5898.51 13.3637   2
  -2   4  -1 91.3491 12.0288  -3
  -2  -1  -6 91.3491 12.0288   2
  -2  -1  -7 7.29110 6.10524   2
  -2  -1  -8 34.6023 9.04300   2
  -2  -1  -9 1386.80 17.9483   2
   4  -5   1 2619.46 42.4659  -3
   2   1   9 2619.46 42.4659   2
   2   1  10 600.200 34.6887   2
  -5   6  -1 2307.82 48.6477  -3
  -2  -1 -11 2307.82 48.6477   2
   2   1  12-13.2923 63.7326   2
  -2  -1 -13 54.2282 68.4615   2
   2   2 -10 460.474 21.6304   2
  -2  -2   9 212.390 20.0609   2
  -2  -2   8 1286.93 17.1310   2
   2   2  -7 6.80771 10.7387   2
   2   2  -6 81.4523 8.00953   2
  -2  -2   5 630.680 9.04499   2
  -5   0   0 1355.24 19.7101  -3
   2   2  -5 1355.24 19.7101   2
  -2  -2   4 1520.70 9.65494   2
   2   2  -3 1033.75 7.07600   2
  -2  -2   1 798.707 3.97583   2
  -2  -2  -1 4675.98 9.14554   2
  -2  -2  -2 583.905 8.58376   2
   2   2   3 2755.28 10.3858   2
   2   2   4 12069.8 24.2523   2
  -2  -2  -5 973.988 8.82640   2
   2   2   6 1131.79 6.73784   2
   2   2   7 792.732 24.8002   2
   2  -5   0 1326.97 26.2000  -3
   2   2   7 1326.97 26.2000   2
  -2  -2  -8 92.7798 8.92312   2
   2   2   9 54.8633 12.4913   2
   2   2  10 2240.10 20.7354   2
  -2  -2 -11 246.208 18.9524   2
  -2  -2 -12 569.986 25.2914   2
  -2  -3  11 12.5978 30.0711   2
   2   3 -10 1.14027 22.8123   2
  -2  -3   9 1060.90 20.4172   2
  -2  -3   8 1121.78 21.3930   2
   2   3  -7 991.499 17.0953   2
   2   3  -6 175.642 9.35651   2
   2   3  -5 81.4860 7.63866   2
   2   3  -4 380.581 6.09740   2
  -2  -3   3 2220.42 11.3174   2
   2   3  -2 3417.41 9.53013   2
  -2  -3   1 6962.96 25.5165   2
   2   3   0 692.494 3.91096   2
   2   3   1 61.9412 3.99763   2
  -2  -3  -2 1494.83 5.33211   2
   2   3   3 6092.45 16.5543   2
   2   3   4 1389.89 7.40193   2
   2   3   5 5949.14 22.7215   2
   2   3   6 219.385 18.3556   2
  -2  -3  -7 49.4941 7.68288   2
   2   3   8 816.789 24.7399   2
   2   3   9 678.122 12.6182   2
   2   3  10 385.695 18.8601   2
  -2  -3 -11 2239.63 26.5680   2
  -2  -3 -12 161.016 49.4391   2
  -2  -3 -13 171.507 37.8140   2
  -2  -4  11-6.58226 41.3481   2
  -2  -4  10 93.4273 25.2244   2
  -2  -4   8 2359.81 21.3241   2
  -2  -4   7 205.179 20.9153   2
   2   4  -6 249.744 9.43457   2
   2   4  -5 482.572 9.61708   2
   2   4  -4 678.125 8.48081   2
   2   4  -3 695.709 6.31384   2
   2   4  -2 7856.48 16.7703   2
  -2  -4   1 1918.31 7.47256   2
  -2  -4   0 1829.84 13.1113   2
   2   4   1 1302.03 5.22923   2
   2   4   2 174.179 5.83030   2
  -2  -4  -3 220.259 4.55289   2
  -2  -4  -4 4864.77 29.5717   2
  -2  -4  -5 1565.45 7.30703   2
  -2  -4  -8-7.04989 14.4792   2
   2   4   9 5.96189 27.0923   2
   2   4  10 791.685 15.4194   2
   2   4  11 380.446 23.4904   2
  -2  -5  11-46.7536 77.9750   2
  -2  -5  10 26.4769 29.6873   2
  -2  -5   9 667.241 29.5525   2
  -2  -5   7 633.118 18.4163   2
   2   5  -6 38.7553 38.0071   2
  -2  -5   5 4.01603 9.16361   2
   2   5  -4 47.9624 8.32678   2
  -2  -5   3 1255.13 7.97061   2
  -2  -5   2 1190.55 6.64737   2
  -2  -5   1 5696.83 12.4745   2
  -2  -5   0 61.5824 3.67252   2
   2   5   1-95.9380 2.69714   2
   2   5   2 437.121 3.95329   2
   2   5   3 973.193 12.4048   2
  -2  -5  -4 1224.62 7.67011   2
   2   5   5 4580.65 30.6385   2
  -2  -5  -6 474.245 12.8455   2
   2   5  10 87.6443 35.3599   2
   2   5  11 1095.80 21.2565   2
  -2  -5 -12 56.6787 28.0945   2
  -2  -6  10-42.9734 52.4459   2
  -2  -6   8 1017.22 26.0091   2
   2   6  -6 213.281 14.4135   2
   2   6  -5 241.403 17.6877   2
  -2  -6   4 17.2370 8.99668   2
  -2  -6   3 10.0020 7.75672   2
   2   6  -2 2468.63 10.6205   2
   2   6  -1 1593.10 10.8790   2
  -2  -6   0 1210.46 8.50020   2
   2   6   1 394.766 7.13981   2
  -2  -6  -2 37.1929 24.9946   2
   2   6   3 36.3409 4.95140   2
   2   6   4 4312.80 22.1866   2
  -2  -6  -5 1142.12 10.4285   2
  -2  -6  -6 2714.01 36.7512   2
   0   7   4 36.8925 49.3014  -3
  -2  -6  -7 36.8925 49.3014   2
   2   6  10 259.710 45.5341   2
   2   6  11 473.137 19.9475   2
   2   6  12 1226.46 29.8726   2
  -2  -7   9 130.154 81.5680   2
  -2  -7   7 712.843 35.0291   2
  -2  -7   5 18.3234 13.9083   2
  -2  -7   4 202.026 16.4363   2
   2   7  -3 279.496 9.60152   2
   2   7  -2 311.449 9.06737   2
   2   7  -1 1528.52 20.7884   2
   2   7   0 253.737 9.24967   2
  -2  -7  -1 412.732 13.0230   2
   2   7   2 418.829 10.8994   2
  -2  -7  -4 124.294 5.99630   2
   2   7   6 680.679 12.7496   2
   2   7  11 577.006 23.6511   2
   2   7  12 189.336 50.3215   2
  -2  -8   7 245.749 33.3009   2
  -2  -8   6 317.765 29.4318   2
  -2  -8   4 11.6765 22.5149   2
  -2  -8   3 41.8987 27.6089   2
   2   8  -2 666.459 14.1936   2
   2   8  -1 791.862 16.4801   2
   2   8   0 1116.48 15.2706   2
   2   8   1 11.8301 14.2972   2
   2   8   2 10.6792 15.2531   2
   2   8   3 72.9353 14.1276   2
   2   8   5 920.990 16.7252   2
   2   8   7 108.118 17.1963   2
   2   8   9 384.436 19.9688   2
  -1  10   6 420.694 80.6504  -3
  -2  -8 -11 420.694 80.6504   2
  -2  -9   6 124.160 34.7188   2
  -2  -9   5 38.0174 29.8729   2
  -2  -9   4-1.63491 26.3526   2
  -2  -9   3 39.4745 22.3259   2
   2   9  -1 1360.00 19.1074   2
   2   9   0 590.545 24.0640   2
   2   9   1 1033.72 17.6528   2
   2   9   2 29.7039 16.7278   2
  -2  -9  -3 19.7878 18.7958   2
   2   9   4 14.2097 16.9483   2
   2   9   6 725.373 18.6357   2
   2   9   8 10.5723 21.5991   2
   2   9  10-3.42547 27.8425   2
  -2  -9 -11 300.549 49.2209   2
  -2 -10   5-68.5678 68.6901   2
  -2 -10   3 94.9676 33.8463   2
   2  10  -1 196.968 20.5891   2
  -2 -10   0 858.633 22.3524   2
  -2 -10  -1 147.427 40.0953   2
   2  10   2 2.09606 18.1569   2
   2  10   3 193.475 20.5391   2
  -2 -10  -4 45.6620 25.5043   2
   2  10   5 53.0034 21.3143   2
  -2 -10  -6 695.886 48.2736   2
  -2 -10  -7 357.355 22.6714   2
  -2 -10  -9 39.8245 36.0242   2
  -2 -11   2 13.2873 34.3098   2
  -2 -11   0 410.451 26.9657   2
   2  11   2 38.6829 22.3625   2
   2  11   3-8.56344 22.8546   2
  -2 -11  -4 9.28534 27.6029   2
  -2 -11  -5 238.296 32.7123   2
   2  11   6 453.638 30.3516   2
  -2 -11  -7 541.148 58.5448   2
  -2 -11  -8 16.0576 70.4271   2
   2  12   1 379.193 70.9597   2
   2  12   2 297.607 72.2025   2
   2  12   3-5.37193 40.9245   2
   2  12   4 11.3422 41.8553   2
  -2 -12  -5 27.7956 49.1470   2
   3  -8  -8 80.3988 68.8074   2
   3  -8   4 248.059 63.7291   2
   3  -7  -9 337.974 35.0761   2
  -3   7   7-5.94527 36.5872   2
  -3   7  -4 718.276 59.2765   2
  -3   7  -5 52.8139 60.1588   2
  -3   7  -7 65.5712 68.3563   2
  -3   6  11 29.6741 74.1579   2
  -3   6  10 28.9978 46.1283   2
  -3   6   9 368.459 50.3442   2
  -3   6   8 135.420 20.5746   2
  -3   6   6 212.328 22.8542   2
  -3   6   4 24.9329 16.8705   2
   3  -6   3 1057.10 26.3257   2
  -3   6  -5 1316.06 35.2251   2
   3  -6   6 17.0770 50.9593   2
   3  -6   7 81.3082 43.8005   2
  -3   6  -8 37.7882 63.0718   2
  -3   5  11 58.3814 67.3062   2
   3  -5  -9 250.851 26.3181   2
  -3   5   7 48.0089 19.8180   2
   3  -5  -6 65.4722 23.1189   2
  -3   5   5 285.331 11.6182   2
  -1   3   8 950.744 16.4327  -3
   3  -5  -4 950.744 16.4327   2
   3  -5  -3 151.278 7.20510   2
   3  -5  -2 2159.23 7.37659   2
   3  -5   3 227.574 30.2102   2
   3  -5   4 2277.64 23.6143   2
   3  -5   6 222.933 35.6927   2
   3  -5   7 89.9727 51.3758   2
   3  -5   8 18.9851 43.1261   2
   3  -5   9-5.16752 38.9237   2
   3  -4 -11 70.8977 46.7247   2
  -3   4  10 28.1498 25.0095   2
  -3   4   8 352.289 24.5799   2
   3  -4  -7 808.267 29.8459   2
   3  -4  -6 155.458 13.2540   2
   3  -4  -5 22.6370 17.4951   2
  -3   4   4 227.653 5.79341   2
  -3   4   3 505.280 21.7277   2
  -3   4  -3 399.830 23.1853   2
   3  -4   5 2998.78 19.6521   2
   3  -4   7 112.536 34.8103   2
   3  -4   8 106.837 55.9188   2
   3  -4   9 65.2894 65.1518   2
  -3   4 -10 42.7738 48.5113   2
  -3   3  11 48.4543 36.0484   2
  -3   3  10 158.973 37.2793   2
  -3   3   9 187.269 27.1096   2
  -3   3   7 522.382 16.6203   2
   3  -3  -6 1272.03 25.8252   2
  -3   3   5 285.181 8.59559   2
  -2   2   6 615.670 18.2363  -3
   3  -3  -4 615.670 18.2363   2
  -3   3   3-103.305 8.99943   2
   3  -3   4 4130.53 11.9026   2
   3  -3   5 1131.97 24.5112   2
   3  -3   6 778.405 12.2396   2
  -5   3  -6 188.522 49.4015  -3
  -3   3  -8 188.522 49.4015   2
   3  -3   9 39.3269 58.3556   2
   3  -3  10 495.225 68.7614   2
   3  -3  11 241.015 43.2616   2
   3  -2 -12 39.4424 79.7836   2
  -3   2   9 778.990 47.8385   2
  -3   2   8 376.045 27.6666   2
  -3   2   6 5.06714 11.5992   2
  -3   2   4 937.674 6.69276   2
   2  -1  -5 1749.88 16.0561  -3
  -3   2   3 1749.88 16.0561   2
   3  -2  -2 2757.35 10.9268   2
   3  -2   2 1757.86 15.4514   2
   3  -2   3 521.177 7.72096   2
  -3   2  -5 5103.24 14.7873   2
   3  -2   6 398.476 15.3202   2
  -3   2  -7 466.456 16.3761   2
  -3   2  -8 282.311 41.5356   2
  -5   4  -5 26.8551 49.6250  -3
  -3   2  -9 26.8551 49.6250   2
   3  -2  10 79.7541 46.1029   2
   3  -2  11 886.391 35.6984   2
   3  -1 -12 165.286 76.0904   2
  -3   1  11 182.024 31.6831   2
  -3   1  10 3.69761 50.6101   2
   3  -1  -8 2222.72 49.7179   2
  -3   1   7 613.503 10.5676   2
   3  -1  -6 568.873 27.4361   2
  -3   1   5 799.611 9.15814   2
  -3   1   4 65.4678 13.7008   2
  -3   1   3 104.293 4.84546   2
   2   0  -4 8812.20 15.0406  -3
  -3   1   2 8812.20 15.0406   2
  -3   1   1 897.009 6.92936   2
   3  -1   0 5272.95 18.6140   2
   3  -1   1 97.1554 3.99691   2
  -3   1  -2 70.8800 2.81633   2
   3  -1   3 1202.31 7.29187   2
   1  -2   4 2100.83 9.98506  -3
   3  -1   3 2100.83 9.98506   2
  -3   1  -4 3772.07 9.84597   2
   3  -1   5 1663.15 20.3416   2
   3  -1   6 3851.08 13.7182   2
   3  -1   7 10.2939 5.67971   2
  -3   1  -8 166.549 15.2995   2
  -3   1 -10 669.903 25.7873   2
  -3   1 -11 226.111 42.0438   2
   3  -1  12 683.986 93.5272   2
  -3   0  12 39.8957 53.7779   2
  -3   0  11 14.0964 31.3675   2
  -3   0  10 129.253 31.1864   2
  -3   0   9 350.623 45.7334   2
   3   0  -7 3036.47 19.6492   2
  -3   0   6 260.513 6.91940   2
  -3   0   5 386.820 6.84138   2
  -3   0   4 448.320 12.2477   2
  -3   0   3 1015.09 14.9295   2
  -3   0   2 444.455 6.70542   2
  -3   0   1 9094.94 21.9930   2
  -2  -1   3 13141.7 30.9626  -3
   3   0  -1 13141.7 30.9626   2
   3   0   0 1616.56 8.81068   2
  -3   0  -1 1864.87 9.37973   2
   3   0   2 3719.83 8.72886   2
   3   0   3 272.383 4.26251   2
   1  -3   3 88.9420 9.66944  -3
   3   0   4 88.9420 9.66944   2
   3   0   5 6419.29 16.2800   2
   3   0   6 1028.70 13.1099   2
   3   0   7 648.025 6.43391   2
   3   0   8 37.5510 14.6669   2
  -3   0  -9 32.0578 16.4642   2
   3   0  10-5.23153 57.5031   2
   3   0  11 419.066 64.7422   2
  -5   6  -3 492.189 64.9334  -3
  -3   0 -11 492.189 64.9334   2
  -3   0 -12 124.861 61.7173   2
  -3  -1  12 169.177 78.7454   2
  -3  -1  11 113.469 26.0123   2
  -3  -1  10 38.2338 24.4133   2
  -3  -1   9 11.4844 43.2211   2
  -3  -1   8 1800.23 18.2136   2
   3   1  -7 902.221 18.4472   2
   3   1  -6 2208.74 14.4906   2
  -3  -1   5 262.813 6.27729   2
  -3  -1   4 0.93987 7.52046   2
  -3  -1   3 450.594 4.60761   2
  -3  -1   2 4735.18 15.9835   2
   3   1  -1 4212.63 10.2571   2
   3   1   0 7189.45 25.2089   2
   3   1   1 3.36980 2.34152   2
   3   1   2 11.2843 1.75556   2
   3   1   3 535.958 4.17094   2
   3   1   4 1858.93 6.53590   2
   1  -4   2 2616.10 19.8713  -3
   3   1   5 2616.10 19.8713   2
   3   1   6 2570.98 8.86467   2
   3   1   7 20.0781 8.90711   2
   3   1   8 257.430 9.30315   2
   3   1   9 458.439 27.1115   2
  -3  -1 -10 278.751 20.1854   2
  -3  -1 -11 66.7141 23.8364   2
  -3  -1 -12 1341.46 47.3389   2
  -3  -2  11 12.1127 33.5695   2
  -3  -2  10 181.349 24.8649   2
  -3  -2   9-3.08730 18.3799   2
  -3  -2   8-12.8935 21.4452   2
  -3  -2   7 2075.55 13.5023   2
  -3  -2   6 581.751 10.7662   2
   3   2  -5 359.518 9.81790   2
  -3  -2   4 556.765 6.59210   2
   3   2  -3 3.50951 8.11564   2
  -3  -2   2 983.042 4.87680   2
   3   2   0 1807.95 6.05911   2
   3   2   1 4086.73 28.6839   2
   3   2   2 513.364 3.80957   2
   3   2   3 88.4479 2.50243   2
   3   2   4 214.149 5.43925   2
   0   4  -1 367.318 15.5271  -3
  -3  -2  -4 367.318 15.5271   2
  -3  -2  -5 4836.02 12.0489   2
   3   2   6 2642.93 19.6350   2
   3   2   7 5231.72 11.5887   2
   3   2   8 192.693 9.98036   2
   3   2   9 133.036 12.5993   2
   3  -6   1 241.971 38.1142  -3
   3   2   9 241.971 38.1142   2
   3   2  10 153.441 32.9432   2
  -3  -2 -11 245.058 49.9989   2
  -4   7  -1 324.937 42.0208  -3
  -3  -2 -11 324.937 42.0208   2
  -3  -2 -12 391.992 59.9132   2
  -3  -2 -13 1001.75 69.8647   2
  -3  -3  11 24.7489 35.8391   2
  -3  -3  10-4.93530 29.7695   2
  -3  -3   9 30.6345 24.3223   2
  -3  -3   8 833.151 17.1692   2
  -3  -3   7 915.805 22.6781   2
  -3  -3   6 2206.35 12.4534   2
  -3  -3   5 4.50343 9.06091   2
  -3  -3   4 29.1159 9.63647   2
   3   3  -3 893.014 6.10887   2
   3   3  -2 3028.38 29.3548   2
   3   3  -1 77.2252 3.71432   2
  -3  -3  -1 499.050 3.69897   2
  -3  -3  -2 1051.77 5.68199   2
   3   3   3 182.451 3.87071   2
   3   3   4 373.924 6.46680   2
  -3  -3  -5 421.853 25.9048   2
   0  -5   0 1117.13 16.0284  -3
   3   3   5 1117.13 16.0284   2
  -3  -3  -6 4548.91 12.2881   2
   3   3   7 726.870 30.3471   2
  -3  -3  -8 391.718 11.0242   2
  -3  -3  -9 179.952 15.4385   2
  -3  -3 -10 3.99132 17.0171   2
   3   3  11 47.1316 20.0541   2
  -3  -3 -12 1504.63 36.6520   2
  -3  -4  10 180.627 32.3539   2
  -3  -4   9 83.9495 21.4760   2
   3   4  -8 19.5451 20.2250   2
  -3  -4   7 1412.17 16.8158   2
   3   4  -6 571.126 13.8499   2
   3   4  -5 809.684 10.0825   2
   3   4  -4 255.721 7.64651   2
  -3  -4   3 19.4210 12.1823   2
  -3  -4   2 7.22739 4.87766   2
  -3  -4   1 1663.62 19.2810   2
   3   4   0 2136.75 7.27129   2
   3   4   1 3824.96 11.9977   2
   3   4   2 11.6495 4.72434   2
   3   4   3 32.6121 6.44434   2
   3   4   4 2119.02 7.18771   2
   3   4   5 1398.32 19.7582   2
  -3  -4  -6 1050.54 21.8143   2
   0  -6  -1 2028.47 31.3582  -3
   3   4   6 2028.47 31.3582   2
   3   4   7 2659.39 12.3485   2
   3   4   8 158.346 31.9591   2
   3   4   9 65.6025 13.9237   2
   3   4  10 428.298 17.3402   2
   3   4  11 151.391 19.4492   2
  -3  -4 -12 97.8491 53.5069   2
  -3  -4 -13 1593.11 50.0150   2
  -3  -5  10-0.44515 34.5313   2
   3   5  -9-20.6296 56.1147   2
  -3  -5   8 94.5222 18.5282   2
  -3  -5   7 368.200 22.1292   2
   3   5  -6 1631.45 13.9370   2
   3   5  -5 414.762 10.3146   2
   3   5  -4 429.578 8.96944   2
  -3  -5   3 392.079 7.88484   2
  -3  -5   2 277.511 7.59194   2
  -3  -5   1 556.634 5.87273   2
  -3  -5   0 5688.40 21.3005   2
   3   5   1 2133.59 7.83525   2
   3   5   2 2789.91 11.6909   2
  -3  -5  -3 415.745 5.88571   2
  -3  -5  -4 36.8824 8.94143   2
   3   5   5 33.5435 7.64462   2
   3   5   6 3214.29 31.3360   2
   0  -7  -2 2071.12 41.2701  -3
   3   5   7 2071.12 41.2701   2
   3   5   8 1921.20 16.0240   2
   3   5  10 11.1923 15.3315   2
   3   5  11 108.726 20.3146   2
  -3  -5 -12 414.903 33.3352   2
  -3  -5 -13 358.145 66.9987   2
  -3  -6  10-13.0880 52.3245   2
  -3  -6   9 9.88231 26.7246   2
  -3  -6   8 43.3685 22.6308   2
   3   6  -7 424.064 19.1998   2
   3   6  -6 261.551 27.8461   2
   3   6  -5 1530.17 14.6074   2
  -3  -6   4 42.7608 10.2602   2
  -3  -6   3 12.3973 9.17496   2
  -3  -6   2 73.6678 7.96633   2
  -3  -6   1 778.414 7.43306   2
  -3  -6   0 222.221 5.55885   2
   3   6   1 2293.19 16.2220   2
   3   6   2 252.495 6.02201   2
   3   6   3 386.045 10.2827   2
   3   6   4 274.447 8.47856   2
  -3  -6  -5 334.686 14.8401   2
  -3  -6  -6 670.408 13.1671   2
   3   6   7 2810.53 40.2054   2
   3   6   9 138.523 16.1013   2
   3   6  10 143.625 28.9657   2
   3   6  11-4.11080 23.2169   2
  -3  -6 -12 57.2369 41.6101   2
  -3  -7   9-6.66474 81.6686   2
  -3  -7   7 67.4195 23.4972   2
  -3  -7   6 842.430 21.8242   2
  -3  -7   5 346.424 15.2947   2
   3   7  -4 75.9099 11.9699   2
  -3  -7   3 530.348 12.2250   2
  -3  -7   2 12.1345 9.80278   2
   3   7  -1 3.12767 6.98816   2
  -3  -7   0 1056.96 15.3654   2
   3   7   1 1911.57 11.9624   2
   3   7   3 41.0841 6.59186   2
   3   7   4 238.290 15.5213   2
   3   7   5 338.145 9.40711   2
   3   7   7 881.047 18.6231   2
  -3  -7 -10 4.32262 31.2407   2
   3   7  11 31.1548 29.9969   2
   3   7  12 531.466 39.4551   2
  -3  -8   6 214.972 29.7939   2
   3   8  -4 392.014 17.4065   2
  -3  -8   3 249.009 14.1740   2
   3   8  -2 55.0533 12.9503   2
   3   8  -1 98.3574 12.9601   2
   3   8   0 194.752 13.8836   2
   3   8   1 2293.32 20.8253   2
   3   8   2 662.875 13.0328   2
   3   8   4 752.709 15.8014   2
   3   8   5 116.253 35.4644   2
   3   8   6 213.281 16.1456   2
   3   8   8 615.670 18.5201   2
  -3  -8 -11 13.2621 53.7373   2
  -3  -9   5 298.988 30.6970   2
   3   9  -3 77.5007 18.6528   2
   3   9  -2 8.12773 21.0328   2
   3   9  -1 30.7324 17.9668   2
   3   9   0 699.461 20.8268   2
   3   9   1 927.031 20.9651   2
  -3  -9  -2 1605.07 19.8334   2
   3   9   3 53.3824 15.4764   2
   3   9   5 30.0416 17.6657   2
   3   9   7 480.604 20.7696   2
   3   9   9 2.76652 24.4164   2
   1  10   6 82.2733 65.6039  -3
  -3  -9  -9 82.2733 65.6039   2
  -3 -10   4 244.770 32.3089   2
   3  10  -2 63.7613 23.2480   2
   3  10  -1 11.4357 29.3544   2
   3  10   0 72.7411 19.6498   2
   3  10   1 1047.99 25.0453   2
  -3 -10  -2 498.626 23.4004   2
   3  10   3 460.908 19.1617   2
   3  10   4 28.2248 18.6137   2
   3  10   5 0.43879 19.5048   2
   3  10   6 15.7029 21.8024   2
   3  10   8 444.700 24.0167   2
  -3 -11   1 57.1239 27.6613   2
   3  11   0 115.470 56.6367   2
   3  11   1 234.819 25.7081   2
   3  11   2 604.448 27.8462   2
  -3 -11  -3 146.713 31.0156   2
   3  11   4-4.82544 22.5602   2
  -3 -11  -5 106.726 56.0646   2
   3  11   6 28.6874 26.3511   2
   3  11   7 105.825 25.9059   2
  -3 -11  -8 452.868 45.8673   2
   3  12   0 8.71453 68.9492   2
  -3 -12  -2 211.284 34.4584   2
   3  12   3 311.554 34.8216   2
  -3 -12  -4-22.8666 43.9835   2
  -3 -12  -5 27.8440 38.0789   2
  -3 -12  -6-14.8395 46.9490   2
   4  -7   4 19.6433 59.3999   2
  -4   7  -6 149.106 74.3720   2
  -4   6   9 33.8002 47.9227   2
  -4   6   7 443.926 24.2241   2
  -4   6   5-0.83492 33.1846   2
  -4   6   4 132.972 31.5753   2
   4  -6   4 183.221 47.9822   2
  -4   6  -5 183.899 54.3775   2
   4  -6   6 937.391 74.1469   2
   4  -6   7 170.134 50.6617   2
  -4   5  10 111.787 40.2874   2
   4  -5  -8 60.0538 21.5049   2
  -4   5   6 307.366 19.3817   2
  -4   5   4 166.990 22.2802   2
   4  -5   3 13.1461 27.5988   2
  -4   5  -6 330.275 35.4167   2
   4  -5   7 759.458 61.0867   2
  -4   5  -8-9.08942 39.0762   2
  -4   4  11 1.42062 79.0792   2
  -4   4   9 42.0367 27.5664   2
   4  -4  -7 156.012 17.6391   2
  -4   4   5 7.52914 15.0470   2
  -4   4  -4 202.552 17.1991   2
   4  -4   6 1233.10 44.9664   2
   4  -4   7 223.153 51.1874   2
   4  -4   8 354.373 61.6363   2
  -4   4  -9-8.30263 44.5028   2
   4  -4  10 54.5249 78.9644   2
  -4   3  11 296.347 50.7762   2
  -4   3  10 120.329 28.0870   2
   4  -3  -9-26.6105 40.5374   2
  -4   3   8-6.51378 20.3915   2
   4  -3  -6 1128.43 14.2389   2
   3  -2  -7 5497.83 32.0565  -3
  -4   3   5 5497.83 32.0565   2
  -4   3   4 114.074 12.2439   2
   4  -3   1 1441.98 11.1323   2
   4  -3   3 8.04253 4.52130   2
  -4   3  -5 577.189 12.9682   2
   4  -3   6 335.254 49.8911   2
   4  -3   8 13.8945 53.3448   2
   4  -3   9 56.1865 61.5780   2
   4  -3  10 211.073 53.4664   2
  -4   2  11 50.7980 35.2241   2
  -4   2   9 226.757 19.5165   2
  -4   2   8 149.341 38.6582   2
  -4   2   7 538.428 14.9549   2
  -4   2   6 1926.88 31.6928   2
   4  -2  -5 236.606 9.68786   2
   3  -1  -6 626.749 16.9313  -3
  -4   2   4 626.749 16.9313   2
  -4   2   3 465.312 11.2345   2
   4  -2   1 752.023 9.11536   2
   4  -2   2 2653.42 9.64316   2
   4  -2   3 132.928 11.4093   2
   1  -2   6 231.751 10.3558  -3
   4  -2   3 231.751 10.3558   2
  -4   2  -4 175.833 7.26522   2
   4  -2   5 69.6429 10.8976   2
   4  -2   6 1188.49 12.1895   2
   4  -2   9 28.5943 40.0747   2
   4  -2  10 174.228 69.3532   2
   4  -2  11 49.8185 79.4367   2
  -4   1  11 341.682 40.1425   2
  -4   1  10 53.8410 23.7177   2
   4  -1  -9 81.2729 50.2628   2
  -4   1   8 57.8778 17.5879   2
   6  -2  -5 185.966 52.8585  -3
  -4   1   8 185.966 52.8585   2
  -4   1   7 1051.70 36.6926   2
  -4   1   6 430.722 12.4113   2
  -4   1   5 2344.47 23.8033   2
   4  -1  -4 12.5809 6.83079   2
   3   0  -5 670.498 15.7312  -3
  -4   1   3 670.498 15.7312   2
   4  -1  -2 13.2494 10.2810   2
   4  -1  -1 1414.55 12.4243   2
   4  -1   0 1529.96 8.22796   2
   4  -1   1 5463.26 28.6007   2
   4  -1   2 297.132 13.1308   2
   4  -1   3 639.905 6.92521   2
   4  -1   4 219.481 3.59055   2
   4  -1   5 425.052 6.14957   2
   4  -1   6 343.847 11.3338   2
   4  -1   7 3327.47 15.4721   2
  -4   1 -10-6.97977 36.3081   2
   4  -1  11 44.2010 76.8693   2
  -4   0  11 103.997 30.6176   2
  -4   0  10 146.160 23.6153   2
  -4   0   7 24.6749 13.4399   2
  -4   0   6 1425.58 32.0746   2
  -4   0   5 612.008 9.34394   2
  -4   0   4 712.893 18.8515   2
   4   0  -3 204.700 5.69521   2
  -4   0   2 16.6108 5.32080   2
   3   1  -4 43.6690 8.39630  -3
  -4   0   2 43.6690 8.39630   2
   4   0  -1 184.295 3.74163   2
   4   0   0 4704.94 13.7130   2
   4   0   1 1020.08 5.67356   2
   4   0   2 1787.07 7.28726   2
   0   3  -4 300.910 17.1137  -3
  -4   0  -3 300.910 17.1137   2
   4   0   4 4.22242 5.00686   2
   4   0   5 380.061 11.9393   2
   1  -4   4 954.015 14.2792  -3
   4   0   5 954.015 14.2792   2
   4   0   6 799.084 6.63308   2
   4   0   7 475.656 10.6193   2
  -4   0  -8 2680.36 20.1655   2
  -4   0 -10 90.0869 29.7158   2
  -4   6  -4 178.985 55.1836  -3
  -4   0 -10 178.985 55.1836   2
  -4   0 -11 229.867 36.0942   2
  -4  -1  11 458.204 34.9223   2
  -4  -1  10 29.3180 29.8502   2
   4   1  -9 13.6951 35.9044   2
  -4  -1   7 343.888 22.2845   2
  -4  -1   6 593.584 11.2627   2
  -4  -1   5 2073.48 12.4655   2
  -4  -1   4 396.154 5.59114   2
  -4  -1   3 451.643 10.9411   2
   4   1  -2 1420.70 6.86898   2
   4   1  -1 64.8705 8.97448   2
   4   1   0 228.228 3.95959   2
   4   1   1 4377.09 11.9772   2
   4   1   2 1532.28 10.1772   2
   4   1   3 2756.38 8.77024   2
   4   1   4 280.548 15.4586   2
   0   4  -3 464.709 9.03546  -3
  -4  -1  -4 464.709 9.03546   2
   4   1   5 133.938 4.99635   2
   4   1   6 610.836 10.6328   2
   4   1   7 2604.05 10.2305   2
   4   1   8 711.571 14.6564   2
  -4  -1  -9 1119.71 19.4063   2
  -4  -1 -10 38.7234 37.3236   2
  -4  -2  11 156.728 42.8044   2
  -4  -2  10 465.921 27.8168   2
  -4  -2   9 46.0306 29.3943   2
  -4  -2   8 20.4223 19.5220   2
   4   2  -7 25.8352 15.9267   2
   4   2  -6 1028.32 14.7211   2
  -4  -2   5 519.271 8.19883   2
   4   2  -4 1774.60 17.2623   2
  -4  -2   3 8.90800 5.61521   2
   4   2  -2 664.517 17.1563   2
   4   2  -1 5.03240 4.22283   2
   4   2   0 4866.78 26.1050   2
   4   2   1 1998.05 9.53059   2
   4   2   2 7004.96 12.0392   2
   4   2   3 42.9944 5.46008   2
   1   4  -2 57.5336 13.0065  -3
  -4  -2  -3 57.5336 13.0065   2
   4   2   4 169.621 2.99463   2
   0  -5   2 1372.75 11.3150  -3
   4   2   5 1372.75 11.3150   2
   4   2   6 286.879 6.52820   2
   4   2   7 1524.21 13.4903   2
  -4  -2  -8 3163.04 14.5009   2
   4   2   9 223.926 19.3096   2
  -4  -2 -10 163.337 22.0251   2
  -3   7  -2 258.062 45.9670  -3
  -4  -2 -10 258.062 45.9670   2
  -4  -2 -11 183.145 32.3144   2
  -4  -2 -12 131.551 37.3512   2
   4   3 -10 94.7048 28.0998   2
  -4  -3   9 0.23898 23.8108   2
  -4  -3   8 366.542 20.3826   2
   4   3  -7 59.4723 12.8961   2
  -4  -3   6 38.8124 11.1985   2
   4   3  -5 2203.07 17.6125   2
   4   3  -4 870.458 9.08004   2
   4   3  -3 1274.76 26.0465   2
   4   3  -2 432.831 5.41425   2
   4   3   0 200.939 4.31178   2
   4   3   1 2936.09 11.4402   2
   4   3   2 3099.95 10.0146   2
   4   3   3 3219.57 9.05419   2
   1   5  -1 350.447 14.7955  -3
  -4  -3  -4 350.447 14.7955   2
   4   3   5 11.5928 4.87073   2
   0  -6   1 636.226 21.7594  -3
   4   3   6 636.226 21.7594   2
   4   3   7 2322.03 9.93089   2
   4   3   8 983.907 13.4034   2
  -4  -3  -9 1737.70 15.3549   2
   4   3  10 19.9622 26.8901   2
  -3   8  -1 34.8398 41.2197  -3
  -4  -3 -11 34.8398 41.2197   2
  -4  -4  10 369.626 30.9479   2
  -4  -4   9 32.0476 25.2933   2
  -4  -4   8 26.9681 19.4224   2
  -4  -4   7 41.9891 18.3876   2
   4   4  -6 310.760 12.4389   2
  -4  -4   5 422.662 12.6445   2
   4   4  -4 1582.32 15.2012   2
  -4  -4   3 310.065 7.54561   2
   4   4  -2 17.6235 26.0611   2
   4   4  -1 1403.14 6.35873   2
  -4  -4   0 1208.66 13.1129   2
   4   4   1 865.963 5.32571   2
  -4  -4  -2 6956.51 19.6993   2
  -4  -4  -3 253.458 5.94261   2
   4   4   4 208.382 4.62598   2
   4   4   5 476.260 16.0748   2
   1   6   0 991.595 30.9815  -3
  -4  -4  -5 991.595 30.9815   2
  -4  -4  -6 92.3055 7.62533   2
   4   4   7 81.7618 30.2557   2
   0  -7   0 64.2230 29.5947  -3
   4   4   7 64.2230 29.5947   2
   4   4   8 2487.40 14.8115   2
   4   4   9 481.595 17.2468   2
   4   4  10 414.238 17.7906   2
   4   4  11 17.3770 24.4314   2
  -4  -4 -12 90.4817 57.2165   2
  -4  -5  10 247.426 50.8265   2
   4   5  -9 408.348 45.9009   2
  -4  -5   8 76.1709 21.0751   2
  -4  -5   7 13.2373 17.8695   2
  -4  -5   6-1.90700 13.5639   2
  -4  -5   5 1935.34 14.3654   2
  -4  -5   4 1219.16 11.7163   2
  -4  -5   3 2195.15 11.7470   2
  -4  -5   2 131.441 6.98678   2
  -4  -5   1-16.3791 16.9591   2
   4   5   0 36.2348 5.21242   2
   4   5   1 2417.89 12.6647   2
  -4  -5  -2 2637.97 10.3787   2
  -4  -5  -3 2467.44 11.4284   2
   4   5   4-1.05301 6.90268   2
   4   5   5 6.71706 10.0189   2
   4   5   6 604.117 27.9026   2
   1   7   1 987.280 22.9814  -3
  -4  -5  -6 987.280 22.9814   2
   4   5   7 509.940 10.8436   2
   4   5   9 1278.58 16.9186   2
   4   5  10 38.8404 24.1514   2
   4   5  11 6.48842 26.0212   2
  -4  -5 -12 108.985 36.4676   2
  -4  -6   9 30.1205 33.3829   2
   4   6  -8 23.1485 42.7793   2
  -4  -6   7 193.745 18.7911   2
  -4  -6   6 40.6192 17.0705   2
  -4  -6   5 416.561 14.1366   2
  -4  -6   4 1767.93 14.2200   2
  -4  -6   3 422.931 10.4854   2
  -4  -6   2 202.324 8.95913   2
  -4  -6   1 428.322 7.90976   2
  -4  -6   0 15.0418 15.0947   2
   4   6   1 388.789 7.02654   2
   4   6   2 3488.59 18.5822   2
   4   6   3 1059.65 9.37831   2
   4   6   4 1033.16 11.8219   2
   4   6   5 222.263 9.31270   2
  -4  -6  -6 1.94994 17.0204   2
   4   6   8 1939.48 15.9686   2
   4   6   9 486.696 40.3667   2
   4   6  10 639.499 20.1842   2
  -4  -6 -11 91.8679 36.4605   2
  -4  -6 -12 93.3359 44.4005   2
  -4  -7   8-11.2394 30.1594   2
   4   7  -7-2.79062 42.4680   2
  -4  -7   6 13.3743 18.1661   2
  -4  -7   5 530.806 17.9349   2
  -4  -7   4 325.037 14.9277   2
  -4  -7   3 1096.51 14.8562   2
   4   7  -2 37.4851 10.9806   2
   4   7  -1 9.33071 9.74483   2
   4   7   0 262.898 8.23562   2
   4   7   1 435.322 19.0495   2
   4   7   2 898.828 9.94178   2
   4   7   3 3574.89 18.8812   2
  -4  -7  -4 284.931 9.53381   2
  -4  -7  -5 348.643 24.9384   2
   4   7   6 164.052 12.0482   2
   4   7   9 1088.49 19.9090   2
   4   7  10 204.861 35.6662   2
   4   7  11 204.281 23.8381   2
   4   7  12 57.4281 39.6726   2
  -4  -8   7 127.907 38.8610   2
   4   8  -6 52.1004 41.0612   2
  -4  -8   5 58.3647 21.9124   2
   4   8  -4 762.562 22.9969   2
  -4  -8   3 479.983 17.9498   2
   4   8  -2 339.632 15.3850   2
   4   8  -1 212.053 10.4209   2
   4   8   0-2.48161 8.64851   2
   4   8   2 1589.11 19.4892   2
   4   8   3 495.571 14.1209   2
  -4  -8  -4 177.763 28.6158   2
   4   8   5 44.6977 14.9166   2
   4   8   7 31.4347 15.8794   2
   4   8  10 625.712 26.0977   2
   4   8  11 17.5441 36.0462   2
  -4  -8 -12-30.3543 67.8087   2
   4   9  -6 41.7547 48.5768   2
   4   9  -5 141.582 42.0186   2
   4   9  -4 439.691 24.7237   2
   4   9  -3 922.580 20.0119   2
   4   9  -2 174.246 17.3046   2
   4   9  -1 23.2328 16.2437   2
   4   9   0 120.272 15.0562   2
   4   9   1 18.6421 17.2442   2
   4   9   3 1376.71 18.2341   2
   4   9   4 599.904 44.7387   2
   4   9   5 993.232 19.7211   2
   4   9   6 76.4309 18.5195   2
   4   9   7 21.0492 19.6764   2
   4   9   8 26.4643 22.6086   2
   4   9  10 329.856 63.1705   2
   4   9  11 220.734 47.9216   2
   4  10  -4 267.065 71.1992   2
  -4 -10   3 166.866 29.8545   2
   4  10  -2 403.282 26.1915   2
   4  10  -1-9.91404 22.0389   2
   4  10   0 47.1185 23.3228   2
   4  10   1-28.5052 26.9585   2
   4  10   2 574.129 19.8690   2
   4  10   4 1038.08 20.6299   2
   4  10   6 0.38984 20.0698   2
   4  10   7 57.2690 56.7557   2
   4  10   8 99.1480 29.0308   2
   4  10   9 379.469 29.3801   2
  -4 -10 -10 345.801 66.7189   2
  -4 -11   2 142.295 34.1103   2
   4  11  -1 18.3229 30.7808   2
   4  11   0 63.8041 41.1162   2
   4  11   1-9.52418 25.5525   2
   4  11   2 22.9140 22.4175   2
   4  11   3 485.348 26.0832   2
   4  11   5 189.110 26.6574   2
   4  11   7 4.78698 28.7247   2
  -4 -11  -8-18.2966 46.5206   2
   4  12   1 66.0113 49.6350   2
   4  12   2 59.3793 40.0382   2
   4  12   3 231.683 50.0772   2
   4  12   4 342.978 49.3089   2
  -4 -12  -5 232.037 65.5538   2
   5  -6   4 151.795 58.3481   2
   5  -6   6-17.6350 51.6471   2
  -5   5   9 0.26156 40.5183   2
   5  -5  -7 35.3045 30.5633   2
  -5   5   5 408.185 31.6692   2
  -5   5   4 1252.85 39.1312   2
   5  -5   4 304.499 47.6277   2
   5  -5   5 23.4688 36.5415   2
   5  -5   7 106.675 51.8320   2
  -5   4  10 60.2950 55.3670   2
   5  -4  -8 87.7157 23.4183   2
   5  -4  -6 36.7732 18.2752   2
  -5   4   4 316.653 20.8608   2
   5  -4  -3 619.003 33.2570   2
   5  -4   5-7.42178 55.5784   2
   5  -4   6 54.3486 34.3895   2
   5  -4   8 248.467 53.2768   2
  -5   3  10 398.213 40.5809   2
  -5   3   9 7.81576 25.0305   2
   5  -3  -7 253.102 19.3176   2
  -5   3   5 196.253 15.3915   2
  -5   3   3 105.477 16.0671   2
   5  -3  -2 166.893 13.6866   2
   5  -3   2 1570.29 17.9919   2
   5  -3   4 454.495 17.5475   2
   5  -3   5 179.905 36.3249   2
   5  -3   7 42.7849 27.1257   2
   5  -3   9 152.772 50.3111   2
   7  -3  -7 459.010 52.3336  -3
  -5   2  10 459.010 52.3336   2
  -5   2   8 52.0454 20.8147   2
   5  -2  -6 29.5663 15.9729   2
  -5   2   4 902.668 14.4735   2
   5  -2  -2 103.138 6.54732   2
   5  -2  -1 62.7242 8.45627   2
   5  -2   1 1346.10 11.9294   2
   0  -2   7 2920.06 25.2090  -3
   5  -2   2 2920.06 25.2090   2
   5  -2   3 3574.94 17.9934   2
   5  -2   4 33.3821 7.70498   2
  -5   2  -5-25.0662 15.8665   2
   5  -2   8 213.262 38.2899   2
   5  -2  10 77.3408 52.8490   2
  -5   1  10 796.681 31.0352   2
  -5   1   9 51.7428 23.4107   2
  -5   1   7 261.095 15.8517   2
  -5   1   6 24.8504 26.3007   2
   5  -1  -5 53.1688 11.8222   2
  -5   1   4 1982.62 20.1117   2
  -5   1   3 579.320 11.9914   2
   5  -1  -2 784.584 11.2386   2
   5  -1  -1 131.030 6.22965   2
   5  -1   0 20.9411 5.49981   2
  -1  -2   6 51.3807 11.6180  -3
   5  -1   1 51.3807 11.6180   2
   5  -1   2 3431.88 9.54372   2
   5  -1   4 1304.69 8.73838   2
   5  -1   5 111.988 9.46742   2
  -5   1  -6 65.5124 13.6886   2
  -5   1  -7 41.6587 36.4895   2
  -3   5  -6 1065.77 47.3769  -3
  -5   1  -8 1065.77 47.3769   2
  -5   1  -9 567.407 38.7173   2
   5  -1  10 863.089 72.9427   2
  -5   0  10 96.7860 29.4658   2
  -5   0   9 330.737 52.6744   2
  -5   0   8-3.99434 17.6190   2
  -5   0   7 71.7259 34.8374   2
  -5   0   6 286.926 13.7462   2
  -5   0   5 342.908 24.3243   2
   5   0  -4 711.751 9.68325   2
  -5   0   3 3097.16 15.8044   2
   5   0  -2 4.79631 4.48994   2
   5   0  -1-5.54098 4.66196   2
   5   0   0 715.213 5.49602   2
   5   0   1 445.703 5.99677   2
   5   0   2 593.980 16.1451   2
  -1  -3   5 862.679 22.0804  -3
   5   0   2 862.679 22.0804   2
   5   0   3 4992.32 10.1635   2
   5   0   4 512.240 13.1081   2
   5   0   5 228.352 7.58758   2
   5   0   6 327.071 10.8837   2
   5   0   7 188.972 13.9787   2
  -5   0  -8 157.167 23.8737   2
  -5   0  -9 3126.69 43.5664   2
   5   0  10 258.926 42.0913   2
   5   0  11 321.454 79.3945   2
  -5  -1  10 665.216 30.9751   2
   5   1  -9 288.293 57.3852   2
  -5  -1   7 241.777 16.8378   2
  -5  -1   6 50.1874 29.7850   2
  -5  -1   5 9.20999 6.41057   2
  -5  -1   4 1861.63 17.2090   2
  -5  -1   3 912.443 9.14126   2
   5   1  -2 1065.09 11.7824   2
   5   1  -1 161.851 5.36614   2
   5   1   0 6.95761 4.42803   2
   5   1   1 365.720 4.15412   2
  -5  -1  -2 2931.64 10.2262   2
   5   1   3 1270.94 8.31835   2
   5   1   4 2725.18 10.6016   2
  -5  -1  -5 58.9693 11.1501   2
   5   1   6 2.85932 6.31198   2
   5   1   7 62.6068 13.2022   2
   5   1   8 656.717 18.0094   2
  -5  -1 -10 1285.12 40.5509   2
  -5  -1 -11 33.3772 40.9526   2
  -5  -2  11 141.609 57.2462   2
  -5  -2  10 323.708 30.2747   2
  -5  -2   9 1132.67 27.5162   2
  -5  -2   8 132.877 27.8331   2
  -5  -2   6 352.729 12.3905   2
  -5  -2   4 535.080 9.87294   2
   5   2  -3 2860.15 21.5283   2
  -5  -2   2 556.460 6.57681   2
   5   2  -1 494.642 15.1945   2
   5   2   0 948.934 5.52015   2
   5   2   1 24.4645 3.69967   2
   5   2   2 609.618 5.12642   2
   5   2   3 3666.58 19.3429   2
   1   5  -3 3008.47 10.9234  -3
  -5  -2  -4 3008.47 10.9234   2
   5   2   5 111.563 4.76167   2
   5   2   6 740.656 9.20450   2
   0   6  -3 843.272 24.2574  -3
  -5  -2  -6 843.272 24.2574   2
  -5  -2  -7 18.7092 9.95264   2
   5   2   8 36.0588 15.5107   2
  -5  -2  -9 1609.92 28.5148   2
  -3   8  -3 2038.70 49.9443  -3
  -5  -2 -11 2038.70 49.9443   2
  -5  -3  10 334.271 29.0727   2
  -5  -3   9 89.9883 24.3016   2
  -5  -3   8 300.251 20.8469   2
   5   3  -7 81.6106 16.0523   2
  -5  -3   6 15.0917 27.6807   2
   5   3  -5 30.8628 11.6860   2
   5   3  -4 1061.88 32.0340   2
   5   3  -3 1727.30 10.0768   2
   5   3  -2 2456.12 29.6605   2
   5   3  -1 10.9812 5.62731   2
   5   3   0 53.9516 8.94076   2
   5   3   1 173.826 3.98389   2
   5   3   2 1650.94 7.09388   2
   5   3   3 1067.33 7.03899   2
   5   3   4 4050.91 12.9560   2
  -5  -3  -5 3.44811 16.9286   2
   1   6  -2 83.8339 23.5840  -3
  -5  -3  -5 83.8339 23.5840   2
   5   3   6 486.697 6.03008   2
   5   3   7 15.9789 11.8695   2
   5   3   8 500.913 14.1884   2
   5   3   9 321.824 21.5121   2
  -5  -3 -10 1317.97 31.9996   2
  -5  -3 -11 211.860 33.9402   2
  -5  -4  10 47.9293 74.1736   2
  -5  -4   9 809.660 26.8386   2
  -5  -4   8 320.473 22.0356   2
  -5  -4   7 89.0769 16.9558   2
   5   4  -6 344.355 13.9533   2
   5   4  -5 25.2549 11.9354   2
   5   4  -4 132.372 11.3018   2
  -5  -4   3 3579.23 28.4823   2
   5   4  -2 240.589 7.78905   2
   5   4   0 539.979 6.26403   2
   5   4   1-7.68840 8.02371   2
   5   4   2 60.6832 6.74046   2
   5   4   3 3514.64 11.9382   2
   5   4   4 1664.85 11.9576   2
   2   6  -1 3728.04 33.6141  -3
  -5  -4  -4 3728.04 33.6141   2
   5   4   5 1185.99 11.3995   2
  -5  -4  -6 72.7571 3.74720   2
   5   4   7 46.1544 9.59449   2
   5   4   8 148.715 19.9670   2
   5   4   9 559.498 16.7115   2
   5   4  10 541.278 34.0993   2
  -5  -4 -11 1913.64 37.9999   2
  -5  -4 -12 9.79203 39.3581   2
   5   5  -9 279.639 29.8478   2
  -5  -5   8 584.434 24.2729   2
  -5  -5   7-1.47213 18.3758   2
   5   5  -6-7.09836 14.5678   2
   5   5  -5 184.618 14.3118   2
   5   5  -4 507.707 12.3539   2
   5   5  -3 936.715 12.0174   2
   5   5  -2 1127.61 10.1467   2
   5   5  -1 255.211 8.01851   2
   5   5   0 88.8965 12.7488   2
   5   5   1 313.185 6.69854   2
  -5  -5  -2 98.2374 11.0814   2
   5   5   3-51.6912 5.50796   2
   5   5   4 2527.11 12.7626   2
  -5  -5  -5 186.483 5.01745   2
   2   7   0 566.665 37.0087  -3
  -5  -5  -5 566.665 37.0087   2
   5   5   6 147.048 8.47127   2
   5   5   8 78.7713 14.7737   2
   5   5   9 2.25458 22.4700   2
   5   5  10 912.608 20.5241   2
   5   5  11 237.521 40.1972   2
  -5  -5 -12 446.415 63.9176   2
  -5  -6   9 353.984 51.5057   2
  -5  -6   8 232.201 28.0725   2
  -5  -6   7 162.293 20.5781   2
  -5  -6   6 15.2300 17.8117   2
  -5  -6   5 8.83878 14.1409   2
   5   6  -4 47.5000 13.5657   2
   5   6  -3 1433.38 13.8217   2
   5   6  -1 1811.51 11.0022   2
   5   6   0 4.38305 12.0552   2
   5   6   1 117.348 7.44996   2
   5   6   2 67.8781 7.58574   2
   5   6   3 1329.41 10.2013   2
   5   6   4 1751.22 10.4366   2
   5   6   5 1992.19 13.5704   2
  -5  -6  -6 44.3214 29.6665   2
   5   6   7 107.460 14.4813   2
   5   6   8 92.9617 38.4026   2
   5   6   9 269.246 19.3095   2
   5   6  10 201.744 28.1775   2
   5   6  11 685.632 37.4371   2
   5   6  12 165.517 51.0521   2
  -5  -7   7 13.8088 24.7457   2
  -5  -7   6 40.8284 20.0835   2
  -5  -7   5 82.1770 17.4004   2
  -5  -7   4 93.1273 14.4112   2
   5   7  -3 342.695 13.2595   2
   5   7  -2 1469.58 13.9657   2
   5   7   0 92.6804 9.57740   2
   5   7   1 208.438 12.9888   2
   5   7   2 18.9266 10.2137   2
   5   7   3 201.174 16.8587   2
   5   7   4 2161.75 19.1204   2
   5   7   5 793.906 14.1506   2
   5   7   6 574.791 23.2509   2
   5   7   8 6.22914 18.5275   2
   5   7   9 31.1964 46.5540   2
   5   7  10 304.754 24.4200   2
  -5  -7 -11 608.586 45.3871   2
   5   8  -7 258.591 67.2148   2
  -5  -8   6 26.2776 30.1999   2
   5   8  -5 48.3308 21.8040   2
   5   8  -4 120.120 17.7399   2
   5   8  -3 205.290 16.4218   2
   5   8  -2 310.804 13.3320   2
   5   8  -1 835.164 13.8402   2
   5   8   1 17.0390 14.0095   2
  -5  -8  -2 111.220 22.1403   2
   5   8   3 40.4383 13.5028   2
  -5  -8  -4 353.296 27.6359   2
   5   8   5 1457.86 17.2264   2
   5   8   6 149.904 33.9908   2
   5   8   7 87.2764 17.2330   2
   5   8   8 163.871 21.1465   2
   5   8   9 68.2508 22.6301   2
   5   8  10 94.9999 34.2954   2
   5   8  11 1166.96 34.8957   2
   5   9  -6 81.9855 68.5127   2
   5   9  -5 15.8208 44.6682   2
   5   9  -4 65.5089 28.2334   2
   5   9  -3 207.479 20.5058   2
   5   9  -2 683.494 19.6992   2
   5   9  -1 383.846 18.0723   2
   5   9   0 359.613 17.7234   2
   5   9   1 20.9322 35.9770   2
   5   9   2-7.33202 19.3499   2
   5   9   4 1151.94 18.6115   2
   5   9   6 695.636 24.2310   2
   5   9   7-17.6943 49.8328   2
   5   9   8 30.5170 23.5843   2
   5   9   9 13.1822 25.6977   2
   5   9  10 173.068 29.2662   2
   5   9  11 222.872 51.4756   2
   5  10  -4 97.8537 47.2449   2
   5  10  -3 26.8534 33.3068   2
   5  10  -2 130.547 22.9274   2
   5  10  -1 747.561 22.7863   2
   5  10   0 249.362 23.4167   2
   5  10   1 55.3044 24.1161   2
   5  10   3-11.4878 21.1138   2
   5  10   5 1155.37 27.7689   2
   5  10   6 290.975 56.9394   2
   5  10   7 80.8857 27.6622   2
   5  10   8 100.778 29.8575   2
   5  10   9-27.4860 38.0054   2
   5  11  -3-62.4980 68.3383   2
   5  11  -2 218.181 62.9237   2
   5  11  -1 300.789 29.6736   2
   5  11   0 335.694 43.9800   2
   5  11   1 11.9570 33.5942   2
   5  11   2-16.7013 42.1658   2
   5  11   3-45.0965 57.8330   2
   5  11   4 338.696 30.6925   2
   5  11   5 315.358 60.3516   2
   5  11   6 702.379 31.9054   2
  -5 -11  -7 87.8863 37.1147   2
   5  12   0 131.609 53.0623   2
   5  12   1 35.1214 50.2069   2
   5  12   2-9.80976 50.4437   2
   5  12   3-33.0368 72.4945   2
   6  -6  -4 848.615 66.8828   2
   6  -5  -8 98.2476 71.0125   2
   4  -3 -11 331.000 83.8598  -3
  -6   5   7 331.000 83.8598   2
  -6   5   6 18.0172 47.9410   2
   6  -5  -3 1998.22 58.4638   2
   6  -5   4 431.132 42.0829   2
   6  -5   6-44.7088 84.9271   2
   6  -4  -7 23.8089 27.2584   2
   6  -4  -5 29.2767 27.7490   2
  -6   4   4 255.622 38.8967   2
   6  -4   4 2026.02 38.7660   2
   6  -4   5 136.019 32.8420   2
   6  -4   7 206.012 54.2957   2
  -6   3   8 86.1421 25.9258   2
   6  -3  -6 197.413 20.3257   2
   6  -3  -4 2.70675 18.1827   2
   6  -3  -3 2068.66 29.7401   2
   6  -3  -1 1048.81 18.6341   2
   6  -3   1-0.09852 24.1880   2
   6  -3   3 1619.44 37.0114   2
   6  -3   4 420.560 36.9602   2
   6  -3   5 886.075 31.5042   2
   6  -3   6 29.5156 56.5917   2
   6  -3   8-3.60390 68.0219   2
  -6   2   9 177.606 28.2432   2
  -6   2   7 57.9484 21.6186   2
   6  -2  -5 165.223 17.0704   2
  -6   2   3 292.836 13.8450   2
   6  -2  -2 2941.15 19.6289   2
   6  -2   0-15.4271 12.0550   2
  -6   2  -2 79.5056 17.3655   2
   0  -3   8 162.176 32.5808  -3
   6  -2   3 162.176 32.5808   2
   6  -2   4 1547.32 18.2586   2
   6  -2   5 204.575 38.3207   2
   6  -2   7 46.3878 37.8136   2
   6  -2   9 2.93454 71.6113   2
  -6   1   8 470.538 24.3464   2
   6  -1  -6 144.395 19.7326   2
   6  -1  -4 28.8600 14.5260   2
  -6   1   2 969.769 12.3133   2
  -6   1   1 1286.12 9.61689   2
   6  -1   0 101.543 10.8119   2
   6  -1   1 88.1685 5.67244   2
  -6   1  -3 1385.95 12.7664   2
   6  -1   4 361.124 21.6462   2
  -6   1  -5 1386.83 17.2431   2
  -6   1  -6 17.3300 34.0067   2
  -6   1  -8 175.826 36.9702   2
  -6   0   9 173.070 28.8951   2
  -6   0   7 31.2519 19.6336   2
  -6   0   5 340.391 14.5017   2
  -6   0   4 172.604 20.1690   2
   6   0  -3 171.410 9.50218   2
  -6   0   2 2089.19 23.7716   2
   4   2  -6 2902.59 19.6748  -3
  -6   0   2 2902.59 19.6748   2
   6   0  -1 559.667 8.66092   2
   6   0   0 563.949 6.23434   2
  -2  -3   6 409.934 22.4971  -3
   6   0   1 409.934 22.4971   2
   6   0   2 50.6604 7.42199   2
   6   0   3 80.6388 14.3585   2
   6   0   4 2009.04 13.7081   2
   6   0   5 955.955 16.1416   2
   6   0   6 1436.56 20.6035   2
  -6   0  -7 36.0022 36.7227   2
  -6   0  -8 65.6311 27.0105   2
  -6   0  -9 5.94247 39.0029   2
  -6   0 -11 318.295 70.7151   2
   6   1  -9 732.957 33.7135   2
   6   1  -8 336.630 25.3174   2
  -6  -1   7 469.482 39.6557   2
  -6  -1   6 18.1470 16.2514   2
  -6  -1   5 0.38123 28.5726   2
   6   1  -4 96.9850 13.5084   2
  -6  -1   3 209.561 7.87455   2
   6   1  -2 507.578 7.26046   2
  -6  -1   1 2372.34 10.5605   2
   6   1   0 4.55297 6.16715   2
   6   1   1-75.4595 4.71379   2
   6   1   2 458.388 11.3667   2
  -6  -1  -3 126.337 6.17687   2
   6   1   4 152.652 9.72651   2
   6   1   5 1907.56 12.3843   2
   6   1   6 230.605 15.7925   2
   6   1   7 147.252 20.6993   2
  -6  -1  -8 173.256 42.0014   2
  -6  -1  -9 53.3840 34.3127   2
  -6  -1 -10-12.4627 56.4126   2
  -6  -1 -11 763.060 71.0215   2
   6   2  -8 731.200 23.8182   2
  -6  -2   7 308.401 18.5423   2
  -6  -2   6 295.517 15.9759   2
  -6  -2   5 86.3208 13.9693   2
  -6  -2   4 86.1905 26.9296   2
  -6  -2   3 3.46956 8.43991   2
   6   2  -2 1833.67 13.5768   2
   6   2  -1 816.975 7.38184   2
   6   2   0 665.343 7.23629   2
   6   2   1 68.2200 4.92300   2
   6   2   2-124.124 8.93067   2
   6   2   4 1508.59 12.8417   2
   6   2   5 344.840 25.7542   2
   6   2   6 1480.97 17.2951   2
   6   2   7-13.2683 18.6872   2
   6   2   8 7.98396 20.0601   2
  -6  -2  -9 205.441 46.8885   2
  -6  -2 -10 281.476 41.9316   2
  -6  -2 -11 200.725 38.6916   2
  -6  -3   9 223.129 27.2429   2
   6   3  -7 1069.63 21.5885   2
   6   3  -5 25.4268 12.8143   2
   6   3  -4 285.120 12.1270   2
   6   3  -3 324.015 10.9682   2
   6   3  -2 1007.83 9.12867   2
   6   3  -1 4808.49 16.2070   2
   6   3   0 684.331 6.94776   2
   6   3   1 515.758 5.53868   2
   6   3   2 381.649 7.57339   2
   6   3   3 41.9532 6.92094   2
   2   6  -3 34.3420 11.7449  -3
  -6  -3  -4 34.3420 11.7449   2
   6   3   5 1581.46 11.6542   2
   6   3   6 1816.79 26.9233   2
   6   3   7 653.607 16.9820   2
   6   3   8 57.7582 21.8525   2
  -6  -3  -9 24.5315 34.3858   2
  -6  -3 -10-7.36097 37.4658   2
  -6  -3 -11 857.589 39.6874   2
   6   4  -9-15.7875 34.2094   2
  -6  -4   8 395.908 25.2253   2
  -6  -4   7 156.217 53.7313   2
   6   4  -6 443.062 17.8171   2
   6   4  -4 33.4758 12.0236   2
   6   4  -3 33.1970 34.4397   2
   6   4  -2 302.344 9.78671   2
   6   4  -1 322.972 8.72877   2
   6   4   0 991.501 10.5581   2
   6   4   1 28.9495 5.38564   2
  -6  -4  -2 23.2293 9.29550   2
   6   4   3 110.048 8.98596   2
   6   4   4 292.160 10.2347   2
  -6  -4  -5 586.363 21.7803   2
   6   4   6 3052.04 16.7934   2
   6   4   7 114.813 17.2944   2
   6   4   8 97.0217 19.8723   2
   6   4   9 222.309 25.4624   2
  -6  -4 -10 118.721 32.2087   2
  -6  -4 -11 145.185 42.3779   2
   6   5  -9 111.250 76.8265   2
  -6  -5   8 216.274 26.6254   2
  -6  -5   7 639.939 23.9037   2
   6   5  -6 169.191 21.6988   2
   6   5  -5 38.5627 14.4468   2
   6   5  -3-4.44582 11.8092   2
   6   5  -1 2830.92 12.6482   2
  -6  -5   0 920.016 11.6550   2
  -6  -5  -1 813.298 7.92799   2
  -6  -5  -2 323.046 11.1223   2
   6   5   3 12.9253 11.3139   2
   6   5   4 21.3621 11.1290   2
   6   5   5 1637.56 15.5896   2
  -6  -5  -6 1054.20 29.6990   2
   6   5   7 775.582 17.0318   2
   6   5   8 10.3322 23.8101   2
   6   5   9 8.18492 20.6170   2
   6   5  10 39.4274 37.4298   2
  -6  -5 -11 539.720 38.9843   2
  -6  -6   8 189.487 31.0158   2
  -6  -6   7 259.784 25.2613   2
  -6  -6   6 786.844 20.9042   2
   6   6  -5 65.2661 15.9007   2
   6   6  -4 101.347 14.2845   2
   6   6  -2 223.289 12.0641   2
   6   6   0 1959.42 12.9157   2
   6   6   1 309.417 18.3519   2
  -6  -6  -2-3.67165 8.57937   2
   6   6   3 245.656 12.9647   2
   6   6   4 95.0735 12.9397   2
   6   6   5 173.786 14.0379   2
   6   6   6 1551.91 19.0687   2
   6   6   7 477.488 18.1131   2
   6   6   8 83.7253 17.3106   2
   6   6   9 140.312 23.7580   2
   6   6  10-9.87307 24.2636   2
  -6  -6 -11 15.7020 65.1603   2
  -6  -7   7 338.491 27.6416   2
  -6  -7   6 309.452 22.1763   2
  -6  -7   5 250.536 19.4963   2
   6   7  -4 4.63722 15.6033   2
   6   7  -3 24.0534 14.0538   2
   6   7  -1 799.357 13.2546   2
   6   7   1 1015.30 12.2738   2
  -6  -7  -2 18.5719 15.2543   2
   6   7   3 23.7190 14.5560   2
   6   7   4 27.5067 14.1306   2
   6   7   5 461.285 15.6437   2
   6   7   6 961.060 19.3502   2
   6   7   7 1512.26 19.7040   2
   6   7   8 71.2946 18.6645   2
   6   7   9 32.8142 23.4826   2
   6   7  10 71.5192 26.2414   2
   6   7  11 171.376 40.0964   2
  -6  -8   7 186.343 77.2516   2
  -6  -8   6 453.370 27.8703   2
  -6  -8   5 55.1017 23.4202   2
   6   8  -4-6.31146 19.3291   2
   6   8  -3 104.069 17.8001   2
   6   8  -2 13.2895 14.2820   2
   6   8   0 1115.78 16.0566   2
   6   8   1 328.760 31.3304   2
   6   8   2 218.263 14.1250   2
   6   8   3 20.4998 40.4521   2
  -6  -8  -4 40.5612 17.8733   2
   6   8   5 81.1185 18.0589   2
   6   8   6 1174.93 21.0344   2
   6   8   7 319.475 20.8447   2
   6   8   8 205.130 25.2379   2
   6   8   9 44.9483 26.9006   2
   6   8  10 46.5120 44.0380   2
   6   8  11 152.460 76.9625   2
   6   9  -5 185.839 32.7217   2
  -6  -9   4 15.4301 24.3733   2
   6   9  -3 14.7093 20.3159   2
   6   9  -2 82.0460 18.9118   2
   6   9  -1 244.362 19.5665   2
   6   9   1 755.884 23.3030   2
   6   9   3 92.8461 22.7412   2
   6   9   5 39.3788 33.8882   2
   6   9   6 287.286 25.4310   2
   6   9   7 812.511 28.3525   2
   6   9   8 210.704 28.1085   2
   6   9   9 25.8679 27.0577   2
   6   9  10 15.8421 67.1754   2
   6  10  -4 76.7483 65.4981   2
   6  10  -3 49.0606 28.6117   2
   6  10  -2-5.33365 23.4547   2
   6  10  -1 40.7189 24.9368   2
   6  10   0 375.367 31.3636   2
   6  10   1 416.544 57.0937   2
   6  10   2 177.526 30.5172   2
   6  10   4 148.427 26.6310   2
   6  10   5 62.2351 54.8615   2
   6  10   6 478.130 28.3957   2
   6  10   7 223.670 27.2957   2
   6  10   8 322.258 28.9316   2
  -6 -10  -9-13.5401 67.2041   2
   6  11  -2 55.6013 76.1254   2
   6  11  -1 90.6165 46.9912   2
   6  11   0 291.991 64.0650   2
   6  11   1 673.656 63.7539   2
   6  11   2 90.8544 62.4022   2
   6  11   3 50.3677 45.3643   2
   6  11   4-14.1544 60.5179   2
   6  11   5 14.1872 28.5255   2
   6  11   6 101.276 37.8358   2
  -6 -11  -7 530.506 72.1772   2
   7  -5  -4-11.1896 46.9805   2
  -7   5   2 382.874 54.0456   2
   7  -4  -6 12.0382 37.4094   2
   7  -4  -3 246.222 38.3062   2
   7  -4  -1 1199.73 55.1072   2
   7  -4   1 260.667 62.9836   2
   7  -4   3 85.0360 61.3683   2
   7  -4   4 47.3516 47.8422   2
   7  -4   6 141.266 58.2025   2
   7  -3  -7 204.994 35.3591   2
   7  -3  -5 19.3327 28.3487   2
   7  -3  -3 68.1810 50.9530   2
   7  -3  -2 456.673 28.7246   2
   7  -3   0 1396.55 37.5196   2
   7  -3   2 71.0119 37.0390   2
   7  -3   5 117.350 46.1086   2
   7  -3   7 32.9149 58.2444   2
   7  -2  -8 37.5712 36.2514   2
   7  -2  -7 789.742 45.4790   2
   7  -2  -6 66.3088 22.9346   2
   7  -2  -4 189.146 18.5780   2
   7  -2  -3 44.3622 19.0979   2
  -7   2   1 1215.80 19.1697   2
   7  -2   1 298.960 24.1477   2
   7  -2   3 7.03474 25.0815   2
  -7   2  -4 63.9427 42.1969   2
   7  -2   6 193.716 40.5829   2
   7  -2   8-31.7562 75.4338   2
   7  -1  -8 291.271 67.2274   2
  -7   1   7 464.998 25.2823   2
   7  -1  -6 1325.45 39.7715   2
   7  -1  -5 60.7285 19.6901   2
   7  -1  -3 193.946 16.0173   2
   7  -1  -2 342.914 15.4361   2
   7  -1  -1 44.7954 24.2971   2
  -7   1   0 1779.90 15.7784   2
  -7   1  -2 424.066 17.6727   2
   7  -1   3 81.3427 28.8988   2
   7  -1   4 55.1427 24.7387   2
  -7   1  -5 79.8211 42.1847   2
   7  -1   7 317.628 42.2568   2
   7   0  -9 59.1010 73.7914   2
  -7   0   8 5.21447 26.5132   2
  -7   0   7 549.400 26.2949   2
  -7   0   6 146.664 22.6796   2
   7   0  -5 420.313 31.3482   2
  -7   0   4 51.1913 16.8747   2
   7   0  -3 70.3114 45.8772   2
   7   0  -2 5.00218 13.3473   2
   7   0  -1 671.840 11.8210   2
   7   0   0 777.037 19.1610   2
  -7   0  -1 1460.53 14.5077   2
   7   0   3 0.60489 13.7673   2
   7   0   4 153.435 23.2272   2
   7   0   5 645.927 20.8702   2
   7   0   6 351.825 23.9457   2
  -7   0  -7 1143.97 31.4302   2
  -7   0  -8 86.5217 31.5969   2
   7   1  -8 24.3439 29.4875   2
   7   1  -6 868.702 26.6654   2
   7   1  -5 207.798 20.5497   2
   7   1  -4 118.303 25.9823   2
   7   1  -3 357.225 16.9353   2
  -7  -1   2 6.50372 13.4677   2
   7   1  -1 8.54632 9.85198   2
   7   1   0 1833.03 11.1619   2
   7   1   1 530.062 17.7933   2
   7   1   2 596.894 10.3237   2
   7   1   4 16.7008 15.4641   2
   7   1   5 27.1414 22.7757   2
   7   1   6 1022.21 24.3153   2
   7   1   7 550.678 25.7405   2
  -7  -1  -8 1590.10 38.6628   2
  -7  -1  -9 1.89088 39.3161   2
  -7  -2   7 517.139 24.3931   2
  -7  -2   5 1309.18 19.7295   2
   7   2  -4 28.8163 22.2504   2
  -7  -2   3-11.6686 12.7271   2
   7   2  -2 113.634 10.0562   2
  -7  -2   1 401.500 9.98824   2
   7   2   0 406.012 9.31772   2
   7   2   1 1855.43 9.90601   2
   7   2   2 129.656 30.6103   2
   7   2   3-1.05522 12.1723   2
   7   2   5 136.025 15.9872   2
   7   2   6 184.136 21.3468   2
   7   2   7 1308.53 24.2180   2
   7   2   8 237.816 24.0934   2
  -7  -2  -9 114.757 33.3476   2
  -7  -2 -10 132.443 37.7306   2
  -7  -3   8 0.92076 32.3774   2
   7   3  -6 666.797 20.1416   2
   7   3  -5 468.715 31.4947   2
   7   3  -4 215.203 16.0056   2
   7   3  -3 120.622 18.1465   2
   7   3  -2 33.0139 10.6189   2
   7   3  -1-0.74148 9.04377   2
   7   3   0 1032.82 10.2197   2
   7   3   1 823.061 11.2182   2
   7   3   2 1212.24 11.1726   2
   7   3   4 30.8791 14.7403   2
   7   3   5 122.110 24.5536   2
   7   3   6 590.801 17.8880   2
   7   3   7 257.357 20.9147   2
   7   3   8 655.244 25.2007   2
  -7  -3  -9 16.8260 31.5608   2
  -7  -3 -10 104.057 44.9512   2
   7   4  -8 164.259 73.5146   2
  -7  -4   7 65.1554 24.0423   2
   7   4  -5 1139.92 20.6710   2
   7   4  -3 47.2368 13.2034   2
   7   4  -2 152.062 18.8849   2
   7   4  -1 91.0488 10.5322   2
   7   4   0 464.701 10.2905   2
   7   4   1 1422.50 20.2364   2
   7   4   2 388.662 11.6067   2
   7   4   3 187.691 11.0634   2
   7   4   4 543.855 16.1911   2
   7   4   5 258.329 16.7100   2
   7   4   6 384.394 26.9217   2
   7   4   7 1587.54 22.0455   2
   7   4   8 592.756 23.9804   2
   7   4   9 240.395 27.2756   2
  -7  -4 -10 124.592 59.9523   2
   7   5  -8 1.77549 41.7689   2
  -7  -5   7-16.5934 28.7080   2
   7   5  -6 482.442 21.6558   2
   7   5  -4 700.059 15.8027   2
   7   5  -3 114.864 33.9211   2
   7   5  -2 41.3649 12.3485   2
   7   5  -1 106.376 17.3820   2
   7   5   0 468.538 11.4816   2
   7   5   1 650.246 13.7057   2
  -7  -5  -2 1492.67 16.2077   2
   7   5   3 62.2281 12.2851   2
   7   5   4 4.13648 13.2167   2
   7   5   5 36.3666 16.8514   2
   7   5   6 81.9270 19.6486   2
   7   5   7 117.487 20.2095   2
   7   5   8 594.662 22.1631   2
   7   5   9 119.738 26.5934   2
  -7  -5 -10 211.037 38.1371   2
  -7  -6   7 7.22415 28.2371   2
   7   6  -6 98.6384 24.4638   2
   7   6  -5 819.897 20.9561   2
   7   6  -4 264.416 36.0293   2
   7   6  -3 1.66297 14.4809   2
   7   6  -2 46.0398 21.4573   2
   7   6  -1 10.3430 12.1731   2
   7   6   0 84.4757 15.4812   2
   7   6   1 1048.44 14.6441   2
  -7  -6  -2 369.070 14.3752   2
   7   6   3 220.902 14.7597   2
   7   6   4 160.836 14.9685   2
   7   6   5-14.0321 17.3571   2
   7   6   6 11.8844 18.8506   2
   7   6   7 656.639 24.1307   2
   7   6   8 259.517 25.7160   2
   7   6   9 547.525 39.5336   2
  -7  -6 -10-7.82708 36.8908   2
   7   7  -7-2.47725 71.7993   2
  -7  -7   6 231.739 26.7950   2
  -7  -7   5 503.574 24.0157   2
   7   7  -4 592.617 18.5971   2
   7   7  -3-9.25592 47.7266   2
   7   7  -2 58.5336 14.5698   2
   7   7  -1 16.0736 24.8074   2
   7   7   0 276.664 16.5665   2
   7   7   1 340.176 28.1788   2
   7   7   2 1383.17 16.3497   2
   7   7   3 414.433 17.7593   2
   7   7   4 71.1129 16.2188   2
   7   7   5 79.6485 16.9051   2
   7   7   6 119.990 18.0734   2
   7   7   7 141.717 24.6318   2
   7   7   8 733.763 32.3741   2
   7   7   9 280.854 26.5339   2
   7   7  10 123.538 29.2043   2
   7   7  11 52.7441 86.6059   2
   7   8  -6-5.86915 49.3252   2
  -7  -8   5 443.144 29.6181   2
   7   8  -4 250.092 21.7991   2
   7   8  -3 219.588 20.0568   2
   7   8  -2 16.4482 36.0419   2
   7   8  -1 1.49763 23.6089   2
   7   8   0-18.8696 46.7521   2
   7   8   1 304.702 26.8807   2
   7   8   2 489.345 46.0812   2
   7   8   3 939.614 26.9106   2
   7   8   4 3.81640 19.1660   2
   7   8   5-9.50680 18.2140   2
   7   8   6 16.4413 19.1927   2
   7   8   7 139.120 26.5315   2
   7   8   8 265.532 29.1750   2
   7   8   9 420.663 32.1028   2
   7   8  10 94.7203 48.6960   2
  -7  -9   5 67.9906 51.8298   2
  -7  -9   4 204.872 39.6843   2
   7   9  -3 22.2918 24.9590   2
   7   9  -2 5.46650 23.4776   2
   7   9  -1 1.15134 54.3117   2
   7   9   0 35.3471 36.8264   2
   7   9   1 131.998 54.0323   2
   7   9   2 607.583 38.4822   2
  -7  -9  -4 103.843 27.7569   2
   7   9   5 26.5384 23.3646   2
   7   9   6-13.2774 26.3227   2
   7   9   7-3.29490 25.7775   2
   7   9   8 401.365 32.1213   2
   7   9   9 183.814 48.7344   2
   7  10  -3 255.589 50.2470   2
   7  10  -2-4.04657 26.7107   2
   7  10  -1 8.15947 35.8406   2
   7  10   0 45.6839 60.3929   2
   7  10   1 176.624 60.7605   2
   7  10   2 278.747 62.1550   2
   7  10   3 582.011 43.5145   2
   7  10   4 90.4353 59.4440   2
  -7 -10  -5 10.1218 41.1401   2
   7  10   6 73.8546 35.6187   2
   7  10   7 3.79076 33.0321   2
   7  11  -1-14.2967 73.3810   2
   7  11   0 19.6567 70.3451   2
   7  11   3 581.771 69.9353   2
  -7 -11  -6-8.39941 69.2019   2
  -7 -11  -7-2.15406 74.9156   2
   8  -4  -4 243.068 40.7898   2
   8  -4   0 718.362 82.1962   2
   8  -4   2 408.453 77.4808   2
   8  -3  -4 53.7064 53.0800   2
   8  -3  -3 27.3741 33.4025   2
   8  -3  -1 90.4714 70.2595   2
   8  -3   1 685.032 69.4401   2
   8  -3   4-2.64755 50.2122   2
   1  -4  11-14.7327 111.587  -3
   8  -3   5-14.7327 111.587   2
  -8   2   6 177.350 63.8449   2
   8  -2  -5 111.247 32.0137   2
   8  -2  -4 572.451 50.1836   2
   8  -2  -3 12.8550 59.7333   2
   8  -2  -2 13.8070 25.7231   2
  -8   2   0 273.838 29.3472   2
   8  -2   2 1037.24 45.5562   2
   8  -2   3 31.8414 44.1766   2
   8  -2   5 65.2153 71.6481   2
   8  -1  -7 127.830 51.3601   2
  -8   1   6 59.9117 29.3055   2
   8  -1  -4 239.457 24.2540   2
   8  -1  -3 256.815 22.7076   2
  -8   1   2 91.1226 33.7318   2
   8  -1  -1 7.10734 19.6735   2
  -8   1  -1 754.754 24.1768   2
  -8   1  -2 283.723 40.7713   2
   8  -1   3 268.056 29.6551   2
   8  -1   4 63.0500 42.7506   2
   8  -1   6-27.9053 44.8010   2
   8   0  -7 142.730 68.8403   2
  -8   0   6 101.534 28.2694   2
  -8   0   5 240.785 26.5954   2
   8   0  -4 805.479 24.2915   2
   8   0  -3 146.444 21.1125   2
   8   0  -2-23.3082 19.1565   2
   8   0  -1 351.553 47.2072   2
  -8   0   0 354.721 21.8317   2
  -8   0  -2 1635.74 23.5689   2
   8   0   3 167.763 30.1707   2
   8   0   4 93.3841 28.2093   2
   8   0   5 151.793 30.3632   2
   8   0   6-18.7048 31.6701   2
   8   0   7 37.4384 44.3268   2
   8   1  -8 102.511 76.4752   2
   8   1  -7-15.8441 34.2316   2
   8   1  -6-0.61062 40.2463   2
  -8  -1   5 733.000 23.5542   2
  -8  -1   4 396.081 20.4567   2
   8   1  -3 676.768 21.4543   2
   8   1  -2 74.3728 18.9519   2
   8   1  -1 8.70010 18.8960   2
   8   1   0 21.5851 20.0638   2
  -8  -1  -1 625.186 18.1620   2
   8   1   3 607.587 23.9426   2
   8   1   4 76.2620 28.4989   2
   8   1   5 64.3933 33.0234   2
   8   1   6 42.1875 30.2458   2
   8   1   7 256.530 41.3768   2
   8   1   8 270.855 47.7345   2
   8   2  -8-39.2402 76.4162   2
   8   2  -7 94.7569 46.4568   2
  -8  -2   6 60.4917 26.5536   2
   8   2  -5 149.709 30.6210   2
  -8  -2   4 790.152 21.2123   2
  -8  -2   3 156.553 17.6820   2
   8   2  -2 8.65456 16.0717   2
   8   2  -1 243.466 25.6890   2
  -8  -2   0-20.6571 19.7460   2
   8   2   1 37.6869 18.6476   2
   8   2   2 832.915 24.1437   2
   8   2   3 218.207 18.7532   2
   8   2   4 322.814 18.1495   2
   8   2   5 112.147 28.1555   2
   8   2   6-25.0667 23.1370   2
   8   2   7 23.6079 25.1117   2
  -8  -2  -8 575.146 35.7839   2
  -8  -2  -9 148.864 65.8916   2
  -8  -3   7-10.5063 36.9033   2
   8   3  -6-2.55974 34.2898   2
   8   3  -5 506.940 24.4515   2
   8   3  -4 349.523 27.4892   2
   8   3  -3 883.742 19.3381   2
   8   3  -2 5.07717 14.2513   2
   8   3  -1 16.1859 12.9497   2
  -8  -3   0 118.591 15.1505   2
   8   3   1 491.468 17.6584   2
   8   3   2 560.434 15.5650   2
   8   3   3 1238.84 21.6697   2
   8   3   4 136.852 18.0091   2
   8   3   5 33.9302 19.8097   2
   8   3   6 174.899 21.2811   2
   8   3   7 55.9973 25.3004   2
   8   3   8 56.6150 27.9272   2
  -8  -3  -9 692.875 38.3146   2
  -8  -3 -10 132.928 68.3539   2
   8   4  -7 69.7344 69.9951   2
   8   4  -6-2.75275 27.2028   2
   8   4  -5 18.5534 30.9601   2
   8   4  -4 632.093 19.4423   2
   8   4  -3 652.990 20.7796   2
   8   4  -2 550.999 17.5754   2
   8   4  -1 11.4182 13.6903   2
   8   4   0 79.0463 13.3530   2
  -8  -4  -1 9.38365 15.6797   2
   8   4   2 710.196 16.4420   2
   8   4   3 348.054 16.2723   2
   8   4   4 448.915 22.3554   2
   8   4   5 96.3358 19.1707   2
   8   4   6 11.3626 23.1496   2
   8   4   7 14.3210 21.8463   2
   8   4   8 207.815 28.8691   2
  -8  -4  -9 293.373 37.3919   2
   0  10  -4 1021.59 90.5443  -3
  -8  -4 -10 1021.59 90.5443   2
   8   5  -7 43.4433 70.3912   2
   8   5  -6 56.4217 44.7682   2
   8   5  -5 125.740 21.4907   2
   8   5  -4 306.647 29.5457   2
   8   5  -3 667.182 22.1015   2
   8   5  -2 24.8231 23.8403   2
   8   5  -1 4.72247 17.3795   2
   8   5   0 146.078 19.2665   2
   8   5   1 47.5980 13.8542   2
  -8  -5  -2 295.428 17.3450   2
   8   5   3 880.411 20.1202   2
   8   5   4 355.809 19.2719   2
   8   5   5 388.813 22.1384   2
   8   5   6 137.190 21.1430   2
   8   5   7 22.0008 22.1999   2
   8   5   8 6.03191 24.8085   2
  -8  -5  -9 663.379 49.1323   2
   1  10  -3 1268.18 88.4184  -3
  -8  -5  -9 1268.18 88.4184   2
  -8  -6   6 4.35158 38.2765   2
   8   6  -5-4.98954 36.5471   2
   8   6  -4 219.121 22.9443   2
   8   6  -3 271.229 37.3652   2
   8   6  -2 638.635 18.0291   2
   8   6  -1 7.14770 30.4201   2
   8   6   0 20.7421 24.9524   2
   8   6   1 61.1386 24.0117   2
  -8  -6  -2 252.594 19.7345   2
   8   6   3 218.104 21.1873   2
   8   6   4 1062.75 21.8244   2
   8   6   5 90.2661 20.8104   2
   8   6   6 0.87775 23.6932   2
   8   6   7 103.661 23.9883   2
   8   6   8 95.8284 32.6305   2
   8   6   9 266.917 32.2901   2
  -8  -7   5 97.4817 29.5886   2
   8   7  -4 61.8470 35.6259   2
   8   7  -3 569.259 20.9892   2
   8   7  -2 377.410 36.8303   2
   8   7  -1 89.4858 28.8219   2
   8   7   0 38.7920 32.7093   2
   8   7   1-3.64215 25.9885   2
   8   7   2 69.4752 25.9712   2
  -8  -7  -3 643.842 25.2553   2
   8   7   4 473.723 22.2074   2
   8   7   5 242.077 22.7750   2
   8   7   6-3.67453 23.0826   2
   8   7   7 16.9230 27.7669   2
   8   7   8 16.5416 27.1813   2
   8   7   9 270.875 38.3930   2
   8   7  10 111.964 80.1111   2
  -8  -8   4 25.8575 33.9904   2
   8   8  -3 284.802 36.7441   2
   8   8  -2 506.392 24.1093   2
   8   8  -1 47.4503 31.7898   2
   8   8   0-1.88429 29.8538   2
   8   8   1 65.5485 35.9940   2
   8   8   2 160.256 29.2420   2
   8   8   3 280.436 33.4592   2
   8   8   4 730.890 32.8048   2
   8   8   5 276.702 24.2534   2
   8   8   6 92.8043 25.1774   2
   8   8   7 62.7641 29.7100   2
   8   8   8 82.3299 37.7898   2
   8   8   9 67.1605 50.3359   2
   8   9  -3 333.887 35.5869   2
   8   9  -2 212.554 39.0138   2
   8   9  -1 246.834 44.0661   2
   8   9   0 9.40810 59.2339   2
   8   9   1 27.3233 61.2655   2
   8   9   2 100.001 58.9170   2
   8   9   3 388.188 61.4948   2
   8   9   4 478.629 40.7338   2
   8   9   5 605.411 30.6821   2
   8   9   6 16.2605 30.8786   2
   8   9   7 16.7873 32.2861   2
   8  10  -2 346.397 53.6988   2
   8  10  -1 166.432 71.1185   2
   8  10   0 63.7451 68.2917   2
  -8 -10  -4 278.191 61.3796   2
   8  10   5 169.963 38.7371   2
   9  -2  -3 450.112 78.6554   2
   9  -2  -1 28.5168 75.0378   2
   9  -2   1 38.2783 72.8221   2
   9  -2   2 214.416 79.6287   2
   9  -2   3 470.878 88.4570   2
   9  -2   4 19.3290 81.9304   2
   9  -1  -4 353.878 78.6839   2
  -9   1   3 277.642 38.3464   2
  -9   1   2 438.802 42.3549   2
  -9   1   0-18.1602 33.6433   2
   9  -1   2 86.2674 49.5510   2
   9  -1   3 108.428 50.2736   2
   9  -1   4 499.265 84.0181   2
   0   6 -10 610.756 97.6436  -3
  -9   1  -6 610.756 97.6436   2
  -9   0   5 43.5411 66.2969   2
  -9   0   4 58.4539 32.0389   2
   9   0  -3 639.972 49.6271   2
  -9   0   2 64.6052 31.4328   2
   9   0  -1 166.781 43.1999   2
  -9   0   0 10.4007 26.8315   2
   9   0   1 31.8900 39.9211   2
   9   0   2 27.1646 38.9520   2
   9   0   3 543.252 48.8415   2
   9   0   4 164.311 35.5088   2
   9   0   5 145.882 37.6249   2
  -9   0  -6-3.88382 62.0537   2
  -9  -1   5 45.0176 41.5309   2
  -9  -1   4 143.337 31.2165   2
  -9  -1   3 306.010 29.7511   2
   9   1  -2 548.300 45.2319   2
  -9  -1   1 164.983 29.2652   2
   9   1   0 20.1170 39.0374   2
   9   1   1 126.831 25.8091   2
   9   1   2-5.64821 30.2584   2
   9   1   3 84.8450 31.5290   2
   9   1   4 768.479 34.7231   2
   9   1   5 140.751 35.1752   2
   9   1   6 101.833 37.1737   2
  -9  -1  -7 69.6346 66.5729   2
   9   2  -6 7.15372 82.4772   2
   9   2  -5-16.3477 41.6330   2
  -9  -2   4 0.64114 37.5692   2
   9   2  -3 306.121 36.2554   2
  -9  -2   2 159.259 33.5890   2
   9   2  -1 551.290 41.5374   2
  -9  -2   0 55.5843 34.6875   2
   9   2   1 1.11405 36.2155   2
   9   2   2 69.4454 24.4933   2
   9   2   3 269.065 27.7656   2
   9   2   4 347.081 31.4029   2
   9   2   5 467.389 39.2206   2
   9   2   6-18.3772 41.6706   2
   1   8  -7 361.642 82.0202  -3
  -9  -2  -7 361.642 82.0202   2
   9   3  -6 16.5120 80.9421   2
   9   3  -5 70.9567 77.6931   2
   9   3  -4 47.7072 30.3941   2
   9   3  -3 107.422 28.5279   2
   9   3  -2 711.096 28.7660   2
   9   3  -1 223.338 26.1820   2
  -9  -3   0 146.852 35.5810   2
   9   3   1 66.8462 20.4148   2
   9   3   2-1.49109 26.0894   2
   9   3   3 42.1862 27.5602   2
   9   3   4 627.780 30.5240   2
   9   3   5 186.448 27.2671   2
   9   3   6 272.934 35.3660   2
   9   3   7 20.8117 36.0472   2
   9   4  -6-13.8765 80.3685   2
   9   4  -5-15.9365 49.8854   2
   9   4  -4-14.3903 69.3821   2
   9   4  -3 320.542 29.2089   2
   9   4  -2 291.674 27.2958   2
   9   4  -1 616.986 32.7462   2
   9   4   0 70.2636 30.3504   2
  -9  -4  -1 9.51055 26.3143   2
   9   4   2 60.6543 20.9140   2
   9   4   3 102.175 27.1300   2
   9   4   4 219.106 22.2246   2
   9   4   5 623.911 24.3559   2
   9   4   6 60.5504 28.1186   2
   9   4   7-5.06211 31.0530   2
  -9  -4  -8 129.555 45.3487   2
   9   5  -5 5.08652 50.9046   2
   9   5  -4-8.97910 30.8179   2
  -9  -5   3 56.4193 33.0744   2
   9   5  -2 465.883 28.3637   2
   9   5  -1 478.715 33.9996   2
   9   5   0 419.212 39.8864   2
   9   5   1 39.2911 50.2309   2
   9   5   2 4.08485 36.8337   2
   9   5   3 9.51720 27.8641   2
   9   5   4 628.742 30.8835   2
   9   5   5 683.692 24.5654   2
   9   5   6 701.737 26.5985   2
   9   5   7 50.3131 30.3183   2
   9   5   8 24.2257 34.0906   2
   9   6  -5-53.3630 72.7734   2
   9   6  -4 74.2553 47.6845   2
   9   6  -3 35.9976 23.7901   2
   9   6  -2 56.8091 30.8525   2
   9   6  -1 525.627 42.9123   2
   9   6   0 76.3976 40.6676   2
   9   6   1 33.0892 38.7981   2
   9   6   2 31.9747 51.2120   2
   9   6   3 23.7572 37.5727   2
   9   6   4 338.135 23.8282   2
   9   6   5 440.065 32.2915   2
   9   6   6 71.5557 26.2606   2
   9   6   7 25.2504 27.8915   2
   9   6   8 29.4765 39.6309   2
   9   7  -4-3.66373 33.6817   2
   9   7  -3-5.39938 38.9533   2
   9   7  -2 275.557 24.4919   2
   9   7  -1 351.898 41.7887   2
   9   7   0 354.424 43.2367   2
   9   7   1-0.11297 40.6758   2
   9   7   2 48.6018 58.6061   2
   9   7   4 156.526 40.5981   2
   9   7   5 174.374 26.0888   2
   9   7   6 413.072 35.6722   2
   9   7   7 29.9446 29.6824   2
   9   7   8 0.95230 41.5571   2
   9   8  -3 31.6250 41.5583   2
   9   8  -2 36.7053 48.5515   2
   9   8  -1 556.534 49.8991   2
   9   8   0 191.612 66.3489   2
   9   8   4-6.80273 46.6407   2
   9   8   5 396.724 31.6615   2
   9   8   6 283.540 33.0127   2
   9   8   7 178.154 74.9244   2
   9   9  -2 51.3248 77.6679   2
   9   9   4 21.1740 71.5909   2
  -9  -9  -5 241.084 65.5458   2
  10   0  -2 109.429 77.4262   2
  10   0  -1 142.233 73.1542   2
 -10  -1   2-50.0215 49.7485   2
  10   1  -1 497.937 72.2665   2
  10   1   0 327.415 40.7830   2
  10   1   1 354.867 77.5983   2
  10   1   2 29.8724 75.1208   2
  10   1   3 45.4443 76.8170   2
  10   1   4-10.0559 75.5625   2
  -2  -7   9 467.410 102.887  -3
  10   1   5 467.410 102.887   2
 -10  -2   3 43.0049 69.1994   2
 -10  -2   2 143.851 49.4754   2
 -10  -2   1 310.889 47.1961   2
  10   2   0 541.015 49.5552   2
  10   2   1 61.5511 46.2490   2
  10   2   2-19.5534 45.4478   2
  10   2   3 41.6355 70.8011   2
  10   2   4 45.7152 73.8492   2
  10   2   5 138.478 73.6582   2
  -2  -8   8 1042.07 68.4862  -3
  10   2   6 1042.07 68.4862   2
  10   3  -2-25.2680 33.6001   2
  10   3  -1 264.610 39.2867   2
  10   3   0 217.982 63.5441   2
  10   3   1 226.107 45.5611   2
  10   3   2 44.3714 44.5190   2
  10   3   3-8.05413 43.7687   2
  10   3   4 37.0725 37.6256   2
  10   3   5 86.3306 46.4741   2
  10   3   6 148.039 49.8076   2
  10   4  -2-23.8214 32.7698   2
  10   4  -1 36.0624 39.0398   2
  10   4   0 581.044 48.5558   2
  10   4   1 192.253 62.2174   2
  10   4   2 115.535 44.8720   2
  10   4   3 42.7537 44.1035   2
  10   4   4 0.96967 35.1769   2
  10   4   5-6.22625 41.5303   2
  10   4   6 386.476 49.8375   2
  10   4   7 112.431 76.1177   2
  10   5  -2-9.64497 45.4145   2
  10   5  -1 324.026 50.2993   2
  10   5   0 345.060 47.9362   2
  10   5   1 291.527 63.0289   2
  10   5   2 24.3855 45.1622   2
  10   5   3-16.7140 44.2845   2
  10   5   4 7.14369 31.7084   2
  10   5   5 54.2967 33.0570   2
  10   5   6 178.494 47.9643   2
 -10  -6   2 33.2180 59.9828   2
  10   6  -1-26.9119 51.0646   2
  10   6   0 249.480 72.2767   2
  10   6   1 312.575 71.0950   2
  10   6   3 30.4760 65.8854   2
  10   6   4 5.16257 45.5309   2
  10   6   5-6.00771 33.9658   2
  10   6   6 176.237 52.3070   2
  10   7   3 43.4447 71.1766   2
  10   7   5-42.8499 48.2585   2
  10   7   6 8.05498 42.4489   2
   0   0  -1 6199.06 12.6528   3
   0   0   2 2769.38 9.13992   3
   0   0   3 3990.15 8.94136   3
   0   0   4 205.879 5.81863   3
   0   0   5 576.947 6.88023   3
   0   0   6 6079.11 16.2653   3
   0   0   8 1159.49 12.5157   3
   0   0 -10 11.9708 16.9395   3
   0   0  12 563.573 36.6323   3
   0  -1  11 428.032 31.6604   3
   0  -1   9-4.67786 14.8326   3
   0  -1   7 1495.87 17.8294   3
   0  -1   6 946.427 13.9998   3
   0  -1   5 4165.37 11.6496   3
   0  -1   4 134.974 3.07601   3
   0  -1   3 195.572 2.82469   3
   0  -1   2 1871.22 4.85436   3
   0  -1   1 5294.98 10.6793   3
   0   1   0 5153.16 22.0560   3
   0   1   2 120.131 2.15919   3
   0   1   4 181.303 3.07639   3
   0  -1  -5 1115.79 26.0070   3
   0   1   6 561.907 13.1130   3
   0   1   7 5001.55 23.3932   3
   0   1   9 74.3102 26.3606   3
   0  -1 -11 166.349 22.2870   3
   0   1  13 767.399 83.8690   3
   0  -2  12 620.058 76.2091   3
   0  -2  10 91.6807 24.0152   3
   0  -2   8 125.955 10.3007   3
   0  -2   6 3976.49 14.5370   3
   0  -2   5 469.546 14.3688   3
   0  -2   4 55.1168 6.43958   3
   0  -2   3 3800.50 8.79463   3
   0  -2   2 105.319 3.50588   3
   0  -2   1 215.476 2.74759   3
   0  -2   0 17061.4 23.0388   3
   0   2   1 3390.94 10.4517   3
   0   2   3 2621.95 8.28332   3
   0   2   5 115.854 6.17032   3
   0   2   6 2793.65 15.2298   3
   0  -2  -7 781.318 7.85454   3
   0   2   8 1422.61 27.1005   3
   0   2  12 641.877 58.9111   3
   0   2  13 232.918 81.0306   3
   0  -3   9-5.74269 24.2674   3
   0  -3   7 2160.64 10.1315   3
   0  -3   5 4793.91 11.1739   3
   0  -3   3 736.028 5.48780   3
   0  -3   2 433.151 4.00279   3
   0  -3   1 2526.18 13.2324   3
   0   3   0 4175.51 13.6662   3
   0   3   2 97.8015 3.32013   3
   0   3   4 1323.37 8.22992   3
   0   3   6 247.176 14.6456   3
   0   3   7 3547.97 33.0189   3
   0   3   8 209.395 12.6333   3
   0   3  13 283.228 73.3467   3
   0  -4  11 76.2123 52.0470   3
   0   4  -9 265.955 47.1122   3
   0  -4   8 19.6793 18.6720   3
   0  -4   7-7.91404 22.6045   3
   0  -4   6 2210.62 10.6934   3
   0  -4   5 828.017 13.6336   3
   0  -4   4 1342.17 7.07828   3
   0  -4   3 237.608 15.7003   3
   0  -4   2 39.3122 3.65927   3
   0  -4   1 141.785 5.28115   3
   0  -4   0 7360.49 22.4397   3
   0   4   1 3080.16 9.37292   3
   0   4   3 41.5627 4.59908   3
   0   4   5 68.4173 5.51211   3
   0  -4  -7 737.371 9.53978   3
   0  -4  -9 60.9221 17.5706   3
   0  -4 -12 102.068 30.1152   3
   0  -5  10 16.8178 46.8513   3
   0   5  -8 154.774 44.0857   3
   0  -5   7 558.670 19.9699   3
   0  -5   6 825.943 37.6751   3
   0  -5   5 1893.59 13.0295   3
   0   5  -4 83.1023 11.0005   3
   0  -5   3 77.1006 4.69521   3
   0  -5   2 1344.07 23.8445   3
   0   5  -1 369.433 5.16974   3
   0   5   0 893.132 28.2254   3
   0  -5  -1 4445.55 20.6438   3
   0   5   2 694.168 6.01182   3
   0  -5  -4 147.262 6.31330   3
   0  -5  -6 2.53780 7.46842   3
   0  -5  -8 712.467 12.7051   3
   0  -6   9 27.2800 46.2135   3
   0  -6   8-29.5712 31.7025   3
   0  -6   7-27.4293 24.0027   3
   0  -6   6 1041.02 24.0457   3
   0  -6   5 740.822 21.4437   3
   0  -6   4 1632.85 16.7164   3
   0  -6   3 121.117 7.00129   3
   0  -6   2 103.510 6.12188   3
   0   6   0 1449.25 8.12034   3
   0  -6  -1 1391.62 22.3466   3
   0   6   3 26.9716 10.4942   3
   0  -6  -5 1194.31 10.8779   3
   0  -6  -7 455.620 11.8934   3
   0  -6  -9 420.168 26.5228   3
   0  -7   8 70.3993 46.4102   3
   0  -7   7 171.637 32.6783   3
   0  -7   6 72.2870 26.2357   3
   0  -7   5 1464.61 23.9166   3
   0  -7   4 265.296 26.5952   3
   0  -7   3 756.239 17.0247   3
   0  -7   2 11.0343 10.4040   3
   0  -7   1-0.92915 8.19083   3
   0  -7  -1 1893.72 12.3187   3
   0  -7  -6 24.4140 12.7079   3
   0  -7  -8 425.477 16.6660   3
   0   7  10-23.5176 39.5485   3
   0   8  -7-8.86115 63.2313   3
   0   8  -6 396.140 34.8036   3
   0  -8   5 387.819 25.9472   3
   0  -8   4 1034.57 25.4746   3
   0  -8   3 244.299 25.7920   3
   0  -8   2 108.142 19.1611   3
   0  -8   1 389.838 20.8787   3
   0  -8   0 431.849 12.6445   3
   0  -8  -2 4042.06 20.6585   3
   0  -8  -7 78.3141 18.2505   3
   0  -8  -9 423.803 29.0423   3
   0   9  -5 692.898 37.6418   3
   0   9  -4 353.240 34.7630   3
   0  -9   3 433.600 30.5234   3
   0  -9   2 80.3273 42.1234   3
   0  -9   1 0.47868 19.6528   3
   0  -9   0 96.3188 23.6423   3
   0  -9  -1 782.491 19.3942   3
   0  -9  -2 898.224 42.5581   3
   0  -9  -3 1013.09 18.1216   3
   0  -9  -6 248.827 19.6082   3
   0  -9  -8 364.394 25.3446   3
   0  10  -3 152.291 61.8709   3
   0  10  -2 309.713 37.5066   3
   0 -10   1 34.1217 36.5211   3
   0 -10   0-3.39182 23.6115   3
   0 -10  -1 56.0288 28.5883   3
   0 -10  -2 845.519 22.3290   3
   0 -10  -3 422.120 36.6726   3
   0 -10  -7 15.5978 27.1689   3
   0  11   0 30.2189 64.6429   3
   0 -11  -1 397.661 34.2193   3
   0 -11  -2 605.501 36.6277   3
   0 -11  -3 1327.73 30.3115   3
   0 -11  -4 25.5956 36.8840   3
   0  11   5 11.9540 61.9937   3
   0  11   6 66.1723 69.2753   3
  -1  11   4 17.4055 47.9633   3
  -1  11   3 141.211 63.2170   3
   1 -11  -2 817.628 45.1791   3
  -1  10   8 134.071 75.0141   3
   1 -10  -4 66.6579 36.9894   3
   1 -10  -3 21.4108 22.4997   3
  -1  10   2 10.4514 39.3020   3
   1 -10  -1 714.815 30.2670   3
  -1  10   0 177.112 63.4916   3
  -1  10  -1 546.767 38.5112   3
  -1  10  -2 18.0648 45.4136   3
  -1  10  -3-6.81100 68.5135   3
  -1   9   9 14.9496 48.8122   3
   1  -9  -7 238.834 25.6569   3
   1  -9  -4 21.9260 43.6185   3
   1  -9  -3 141.183 29.7978   3
   1  -9  -2 519.463 19.4640   3
   1  -9  -1 364.928 25.6555   3
   1  -9   0 1204.09 20.4139   3
  -1   9  -1 213.222 55.4474   3
  -1   9  -2 80.1827 31.8601   3
  -1   9  -3 89.9759 55.0368   3
  -1   9  -4 206.377 45.1651   3
  -1   9  -5 105.388 64.0568   3
  -1   8  10-1.11050 46.7241   3
  -1   8   8 138.451 29.7840   3
   1  -8  -1 1186.85 16.0261   3
   1  -8   0 630.162 19.8472   3
   1  -8   1 862.030 17.0261   3
   1  -8   2-10.1402 27.8189   3
   1  -8   3-18.4748 25.0979   3
  -1   8  -4 81.5189 34.1139   3
  -1   8  -5 244.113 33.0791   3
  -1   8  -6 189.754 42.1805   3
  -1   7  11-2.22277 67.9798   3
   1  -7  -9 110.359 26.4304   3
  -1   7   7 290.802 16.1120   3
  -1   7   2 380.506 17.7194   3
   1  -7  -1 291.247 31.3724   3
  -1   7   0 2810.86 14.0589   3
   1  -7   1 491.408 12.7136   3
   1  -7   2 866.641 12.5097   3
   1  -7   3 402.584 31.9171   3
   1  -7   4 7.64932 19.8255   3
  -1   7  -5 32.6032 43.1301   3
  -1   7  -6 2022.65 39.4157   3
   1  -7   7 568.164 45.4242   3
   1  -6 -10 77.1460 30.7770   3
   1  -6  -8 28.3051 15.1216   3
   1  -6  -6 657.761 12.9187   3
  -1   6   4 19.5765 33.4651   3
  -1   6   1 1372.84 10.0570   3
   1  -6   0 773.328 30.3642   3
   1  -6   1 4455.43 13.1937   3
   1  -6   2 870.462 12.9898   3
   1  -6   3 67.0206 9.45406   3
   1  -6   4 108.642 28.0010   3
   1  -6   5 282.514 20.6959   3
  -1   6  -6 348.428 39.8516   3
  -1   6  -7 1487.49 32.0409   3
   1  -6   8 42.9699 43.0201   3
   1  -5  -9 242.543 21.5839   3
   1  -5  -7 39.7792 10.0952   3
   1  -5  -5 713.665 9.24367   3
  -1   5   3 989.627 11.3575   3
   1  -5  -1 215.050 18.2623   3
  -1   5   0 4634.61 11.1377   3
   1  -5   1 2471.50 19.2249   3
   1  -5   2 737.194 6.96455   3
   1  -5   3 1398.93 11.8149   3
   1  -5   4 33.9971 6.01974   3
   1  -5   5 77.0510 20.8852   3
   1  -5   6 1822.86 17.3677   3
  -1   5  -7 575.819 36.7068   3
   1  -5   9 29.2500 41.2245   3
   1  -4  -8 103.885 10.4652   3
   1  -4  -6 1855.07 9.45212   3
  -1   4   4 266.707 5.87386   3
  -1   4   2 3111.44 9.08165   3
  -1   4   1 959.936 9.03986   3
  -1   4   0 957.021 9.03720   3
  -1   4  -1 8710.16 15.7033   3
   1  -4   3 981.340 6.01964   3
   1  -4   4 419.856 11.2537   3
   1  -4   5 181.609 6.73497   3
   1  -4   6 116.512 12.5225   3
  -1   4  -7 1661.56 17.3489   3
   1  -4  10 107.357 48.4492   3
   1  -3 -12 973.154 38.6532   3
   1  -3 -10 441.258 33.0992   3
   1  -3  -9 124.844 21.0192   3
   1  -3  -7 32.8666 7.56353   3
  -1   3   5 1761.84 7.67486   3
  -1   3   3 681.285 4.88282   3
  -1   3   1 565.079 3.94612   3
   1  -3   0 9566.50 16.0316   3
  -1   3  -1 3465.23 9.74665   3
   1  -3   2 7871.24 15.5957   3
   1  -3   4-8.11484 3.57569   3
   1  -3   5 212.645 7.97598   3
   1  -3   6 1090.20 7.53615   3
   1  -3   7 596.070 12.0073   3
   1  -3   8 1570.26 17.9528   3
   1  -3   9 23.3806 36.7812   3
   1  -3  11 59.0275 49.6444   3
  -1   2  13 188.135 71.6898   3
   1  -2 -11 1028.85 23.4947   3
  -1   2   8 505.778 16.3004   3
  -1   2   7 696.427 16.2940   3
   1  -2  -6 298.059 5.46906   3
  -1   2   4 293.475 3.99628   3
  -1   2   2 3777.13 10.1130   3
  -1   2   0 13.5126 2.73178   3
  -1   2  -1 12406.3 17.1449   3
   1  -2   2 3650.94 8.92004   3
   1  -2   3 926.139 4.80167   3
   1  -2   4 1351.10 7.36795   3
   1  -2   5 80.4339 4.49378   3
   1  -2   6 77.8538 8.58850   3
   1  -2   7 2209.89 18.0693   3
   1  -2   9 1204.58 23.5419   3
   1  -2  11 76.0129 38.8187   3
   1  -2  12 3.52761 74.1533   3
  -1   1  12 841.681 46.7783   3
   1  -1 -10 739.901 18.2461   3
  -1   1   8 8.79669 17.8498   3
  -1   1   7 216.474 16.0423   3
  -1   1   6 3140.39 19.3185   3
   1  -1  -5 3994.01 15.6857   3
   1  -1  -3 66.2174 2.12107   3
  -1   1   1 3509.33 7.79958   3
  -1   1   0 6851.41 7.67700   3
  -1   1  -1 2791.64 5.85059   3
   1  -1   2 15108.8 18.3841   3
   1  -1   3 4.01860 3.29203   3
   1  -1   4 409.868 4.05161   3
   1  -1   5 1455.81 10.4393   3
   1  -1   6 1229.49 6.78903   3
   1  -1   8 1622.22 10.6076   3
   1  -1  10 186.076 23.7216   3
   1  -1  12-6.72928 59.7158   3
   1   0 -11 1135.38 26.6229   3
   1   0  -9 523.398 11.8446   3
  -1   0   7 321.191 11.3015   3
   1   0  -6 154.775 9.25490   3
  -1   0   5 8191.25 15.5478   3
  -1   0   4 710.593 4.75134   3
  -1   0   3 2891.55 10.2966   3
  -1   0   2 2811.46 7.68839   3
  -1   0   0 1487.98 4.38875   3
   1   0   1 7306.37 17.9634   3
  -1   0  -2 4256.99 9.47638   3
   1   0   3 6735.99 9.89131   3
   1   0   4 49.2790 3.14306   3
   1   0   5 37.5066 4.00478   3
   1   0   6 347.084 10.2677   3
   1   0   7 633.694 7.96195   3
   1   0   8 105.043 8.29612   3
   1   0   9 1722.94 14.9075   3
   1   0  11 107.951 25.7638   3
   1   0  13 82.9689 68.3895   3
  -1  -1  12 585.762 78.5033   3
   1   1 -10 923.207 23.0329   3
  -1  -1   8 26.2083 11.1604   3
  -1  -1   6 1082.98 10.2962   3
  -1  -1   5 1715.61 6.75634   3
  -1  -1   4 5117.05 25.8588   3
  -1  -1   3 326.909 3.79812   3
   1   1  -2 18.6672 3.88124   3
  -1  -1   1 36.9803 1.64613   3
   1   1   1 297.273 3.15254   3
   1   1   2 20011.6 13.0527   3
   1   1   3 908.873 5.37791   3
   1   1   4 3447.66 13.9733   3
   1   1   5 1630.40 8.93255   3
   1   1   6 348.830 8.76782   3
   1   1   7 209.480 8.60684   3
   1   1   8 3798.66 24.8110   3
  -1  -1 -10 876.296 16.2496   3
  -1  -2  11 744.481 68.3658   3
  -1  -2   9 290.702 16.8906   3
  -1  -2   7 76.8494 5.46966   3
  -1  -2   6 9.01883 5.27291   3
  -1  -2   5 2779.54 16.1741   3
  -1  -2   4 1222.18 5.70421   3
   1   2  -3 4813.37 10.7385   3
  -1  -2   2 557.529 4.39293   3
   1   2   0 4183.53 11.3840   3
   1   2   2 3086.30 10.3693   3
   1   2   3 12405.7 17.0247   3
   1   2   4 1513.13 6.80962   3
   1   2   6 728.527 13.1152   3
   1   2   7 910.974 15.3665   3
   1   2   8 141.985 9.53473   3
   1   2   9 2168.88 28.3349   3
  -1  -2 -11 162.632 26.0160   3
  -1  -3  12 273.869 58.2973   3
  -1  -3  10 1310.63 44.8923   3
   1   3  -8 341.680 14.6166   3
  -1  -3   6 226.431 6.90250   3
  -1  -3   5 237.062 10.1995   3
  -1  -3   4 4233.11 9.75724   3
  -1  -3   3 1183.74 6.61542   3
  -1  -3   2 1148.60 4.48058   3
  -1  -3   1 1481.47 5.75719   3
   1   3   1 12.1113 3.14809   3
   1   3   3 2201.02 7.71890   3
   1   3   4 3205.42 14.9410   3
   1   3   5 1773.19 10.1992   3
   1   3   6-5.99580 13.1454   3
   1   3   7-167.567 12.2864   3
   1   3   8 1166.19 14.0338   3
   1   3   9 457.023 15.0473   3
  -1  -3 -12-9.67724 40.5033   3
  -1  -4  11 563.745 82.1140   3
  -1  -4  10 218.954 66.1711   3
  -1  -4   9 520.602 29.0310   3
  -1  -4   8 14.5226 29.9776   3
   1   4  -7 5.05340 11.1199   3
  -1  -4   6 91.8782 23.0224   3
  -1  -4   5 1030.01 7.69850   3
  -1  -4   4 1239.46 8.36218   3
  -1  -4   3 6490.70 12.9235   3
  -1  -4   2 25.1618 5.16368   3
  -1  -4   1 422.425 5.08147   3
  -1  -4   0 70.8826 3.65993   3
   1   4   2 2131.16 7.35493   3
   1   4   4 792.365 6.43196   3
  -1  -4  -6 969.910 8.82434   3
   1   4   7 294.389 19.2897   3
  -1  -4  -8 163.430 10.9131   3
   1   4   9 2601.76 16.9338   3
  -1  -5  11 31.7884 83.2279   3
  -1  -5  10 817.053 84.0566   3
  -1  -5   9 259.783 45.3442   3
  -1  -5   8 280.802 28.1156   3
  -1  -5   7 274.034 24.7387   3
  -1  -5   6 4.20677 10.0171   3
  -1  -5   5 6.42093 8.30944   3
  -1  -5   4 4037.58 14.5996   3
  -1  -5   2 2377.33 7.50092   3
  -1  -5   0-13.9017 11.3979   3
  -1  -5  -1 1405.42 6.97506   3
   1   5   3 2834.28 9.42595   3
  -1  -5  -5 35.0702 6.65728   3
  -1  -5  -7 118.012 8.32855   3
   1   5   9 590.581 21.2539   3
  -1  -6  10 135.092 78.3678   3
  -1  -6   9 483.486 37.4334   3
  -1  -6   8 22.4080 31.6122   3
  -1  -6   7 71.2587 27.8322   3
  -1  -6   6 190.424 24.3479   3
  -1  -6   5 154.757 15.0624   3
  -1  -6   4 192.439 25.7287   3
  -1  -6   3 1597.64 8.85655   3
  -1  -6   1 126.485 4.73226   3
  -1  -6   0 516.640 23.0752   3
  -1  -6  -2 449.739 7.52309   3
  -1  -6  -4 1126.68 8.74035   3
  -1  -6  -6 861.502 9.28122   3
  -1  -6  -8 6.37845 14.8362   3
   1   6  13 67.5447 72.8833   3
   1   7  -9 259.388 66.1746   3
  -1  -7   8 378.547 37.0777   3
  -1  -7   7 36.3851 36.3663   3
  -1  -7   6 22.3835 22.6741   3
  -1  -7   5 16.2306 29.6681   3
  -1  -7   4 1335.66 18.4368   3
  -1  -7   3 2979.23 29.3203   3
  -1  -7   2 3345.16 19.8112   3
  -1  -7   0-0.66938 7.63050   3
  -1  -7  -1 570.986 27.7608   3
   1   7   3 1133.96 15.7300   3
  -1  -7  -5-7.73936 10.3535   3
  -1  -7  -7 158.883 15.8812   3
   1   7   8 266.475 32.8944   3
   1   7   9 214.928 20.9309   3
   1   7  12-3.00171 69.8303   3
   1   8  -8 243.295 69.6060   3
  -1  -8   7 137.501 62.7753   3
  -1  -8   6 54.1065 26.9304   3
  -1  -8   5 5.51045 24.5353   3
  -1  -8   4 54.2045 25.0218   3
  -1  -8   3 2342.42 22.5541   3
  -1  -8   2 370.946 26.1852   3
  -1  -8   1 349.495 15.2268   3
  -1  -8  -1 22.1449 11.1881   3
  -1  -8  -4 775.169 17.9039   3
  -1  -8  -6 21.1015 16.3596   3
  -1  -8  -8 15.5584 19.1372   3
   1   8  10 199.756 42.8692   3
   1   8  11 524.908 50.8694   3
  -1  -9   5 102.799 29.8724   3
  -1  -9   4 217.531 28.1548   3
  -1  -9   3 526.473 28.7748   3
  -1  -9   2 789.855 21.8074   3
  -1  -9   1 75.9155 24.5874   3
  -1  -9   0 29.4880 16.2550   3
  -1  -9  -1 120.322 38.7527   3
  -1  -9  -2 235.765 17.5733   3
  -1  -9  -5 416.900 18.0463   3
  -1  -9  -7 34.7331 19.6489   3
  -1  -9  -9 89.3967 35.6142   3
   1  10  -5 26.2127 69.4029   3
   1  10  -4-10.3590 40.0260   3
  -1 -10   3 714.331 36.8910   3
  -1 -10   2 425.491 53.1236   3
  -1 -10   1 482.364 27.1826   3
  -1 -10   0 26.9996 24.7617   3
  -1 -10  -1 17.6671 19.3185   3
  -1 -10  -2 0.65736 45.3198   3
  -1 -10  -3 473.230 19.8938   3
  -1 -10  -6-1.76587 23.7763   3
   1  10   8 24.5903 27.8641   3
   1  11  -2 711.388 73.2760   3
  -1 -11   1 118.253 37.1317   3
  -1 -11   0 67.6599 27.5469   3
  -1 -11  -1 101.071 29.5011   3
  -1 -11  -2 15.3641 28.7720   3
  -1 -11  -3 48.7934 33.9688   3
  -1 -11  -4 654.152 27.9112   3
  -1 -11  -5 456.674 63.7196   3
  -1 -11  -7-38.8522 48.1171   3
  -1 -12  -1 86.0706 79.2816   3
  -1 -12  -3 206.995 72.1572   3
  -1 -12  -4 183.782 52.5626   3
   2 -10  -5 199.724 40.3376   3
   2 -10  -4 803.675 70.5913   3
  -2  10   3 61.3077 44.8195   3
   2 -10  -2 79.6725 28.2498   3
  -2  10   1-22.3209 60.7902   3
  -2  10   0 529.044 39.8422   3
   2  -9  -6 185.740 26.1030   3
   2  -9  -4 434.524 19.8594   3
   2  -9  -3 32.3948 21.2727   3
   2  -9  -2 304.015 29.8429   3
   2  -9  -1 14.7192 25.8794   3
  -2   9   0 29.3435 51.4983   3
  -2   9  -1 2218.89 38.0961   3
  -2   9  -2 395.578 58.1141   3
  -2   9  -3 681.544 39.3682   3
  -2   9  -4 14.8599 66.2072   3
  -2   8   9 0.94572 46.4630   3
   2  -8  -3 43.4882 36.1008   3
   2  -8  -2 10.3762 15.1835   3
   2  -8  -1 358.390 18.1213   3
   2  -8   0 356.973 16.6429   3
  -2   8  -1 226.897 44.7121   3
  -2   8  -2 1403.12 32.4522   3
  -2   8  -4 229.718 41.9438   3
  -2   8  -5 227.749 57.9631   3
  -2   7  10 214.718 34.4735   3
  -2   7   8 216.913 30.5710   3
   2  -7  -3 1801.84 37.8376   3
   2  -7  -2 90.5931 28.2236   3
   2  -7  -1 35.0713 12.6529   3
   2  -7   0 33.2198 15.4078   3
   2  -7   1 1946.52 15.2478   3
  -2   7  -3 1574.54 28.9956   3
  -2   7  -5 14.1298 34.6094   3
  -2   7  -6-9.97717 41.3798   3
   2  -6  -9 28.3270 26.6445   3
   2  -6  -7 167.031 16.9341   3
  -2   6   5 656.879 26.9286   3
   2  -6  -2 64.9209 13.8741   3
   2  -6  -1 963.696 27.3801   3
  -2   6   0 59.4574 9.32362   3
   2  -6   1 809.303 11.0128   3
   2  -6   2 3132.47 13.8642   3
   2  -6   3 294.372 18.5528   3
   2  -6   4 458.248 17.5918   3
  -2   6  -5 128.388 38.9871   3
  -2   6  -6 96.3247 27.8677   3
  -2   6  -7-21.0657 38.2369   3
   2  -5 -10 655.386 33.0550   3
  -2   5   8 71.8535 15.2828   3
  -2   5   6 291.772 10.7044   3
   2  -5  -4 943.750 15.2360   3
  -2   5   1 28.4937 6.78558   3
   2  -5   0 772.711 25.8341   3
  -2   5  -1 2847.44 9.67709   3
   2  -5   2 373.858 10.1334   3
   2  -5   3 2479.93 11.0335   3
   2  -5   4 76.8397 15.4449   3
   2  -5   5 124.308 13.8288   3
  -2   5  -6 187.031 36.9714   3
   2  -5   8 243.932 60.1771   3
   2  -5  10 265.623 92.4696   3
   2  -4  -9 107.010 18.4385   3
  -2   4   8 134.231 23.8732   3
   2  -4  -7 599.732 9.56950   3
   2  -4  -5 736.251 8.22529   3
  -2   4   3 787.519 8.18055   3
   2  -4  -2 1310.24 29.5893   3
  -2   4   1 1454.58 17.9831   3
  -2   4   0 177.395 5.52814   3
   2  -4   2 2522.49 8.38544   3
   2  -4   3 908.821 11.6853   3
   2  -4   4 1114.23 6.47055   3
   2  -4   5 61.2016 10.5137   3
   2  -4   6 54.1365 13.4752   3
  -2   4  -7 81.1006 33.3955   3
   2  -4   9 257.719 60.9278   3
   2  -4  11-8.39252 61.4745   3
   2  -3 -10 507.133 30.9009   3
   2  -3  -8 35.4197 15.1256   3
  -2   3   7 3.56003 17.8182   3
   2  -3  -6-13.2449 4.89252   3
  -2   3   4 1157.98 6.14624   3
  -2   3   2 255.571 4.42563   3
  -2   3   1 803.353 5.79431   3
  -2   3   0 1949.93 11.4194   3
  -2   3  -1 1208.27 5.30473   3
   2  -3   3 6397.48 13.3849   3
   2  -3   4 788.494 18.4188   3
  -2   3  -5 639.149 7.11902   3
   2  -3   6 665.754 32.8892   3
  -2   3  -7 8.41932 15.7778   3
   2  -3   8-1.89172 35.9285   3
   2  -3   9 1175.87 31.3653   3
   2  -3  10 159.971 44.7765   3
  -2   2  12 42.4883 40.3376   3
   2  -2 -10 1150.03 40.7103   3
   2  -2  -9 297.341 18.7681   3
   2  -2  -7 241.910 7.04821   3
   2  -2  -5 54.5810 5.57240   3
  -2   2   3 1260.24 5.18413   3
  -2   2   1 114.523 3.29278   3
  -2   2   0 128.206 3.76771   3
  -2   2  -1 75.6671 3.42241   3
  -2   2  -2 6194.64 12.2502   3
   2  -2   4 6536.29 12.7518   3
  -2   2  -6 245.518 6.98646   3
   2  -2   8 605.664 18.7802   3
   2  -2  10 1361.69 36.6919   3
   2  -2  11 119.589 41.3443   3
   2  -1 -11 454.249 26.9475   3
  -2   1   9 1820.00 37.9995   3
  -2   1   8 42.5705 17.5488   3
  -2   1   6 732.808 9.36415   3
   2  -1  -4 240.324 4.38109   3
  -2   1   2 1553.90 5.53637   3
  -2   1   0 2969.82 6.59453   3
  -2   1  -1 644.203 4.11989   3
  -2   1  -2 144.497 3.74377   3
   2  -1   3 3395.65 9.29515   3
   2  -1   4 1519.89 16.3370   3
   2  -1   5 1497.01 9.78879   3
   2  -1   7 7.78221 7.43626   3
   2  -1   9 1580.31 22.9297   3
   2   0 -12-0.25009 36.0541   3
   2   0 -10 819.375 23.4518   3
  -2   0   8 1047.53 15.0556   3
  -2   0   7 159.939 8.54580   3
  -2   0   6 42.3931 7.60531   3
  -2   0   5 26.8154 2.82094   3
   2   0  -3 2629.25 8.78972   3
  -2   0   1 154.191 2.64789   3
  -2   0  -1 3011.27 9.97847   3
   2   0   2 2404.16 7.62854   3
   2   0   3 3357.66 10.0366   3
  -2   0  -4 9075.86 31.2756   3
  -2   0  -5 479.919 4.84521   3
   2   0   6 305.011 4.86634   3
   2   0   8 164.187 7.35138   3
   2   0  10 1622.84 24.9322   3
   2   0  11 132.646 48.8485   3
   2   1 -11 76.6588 26.6723   3
   2   1  -9 2042.83 19.6021   3
  -2  -1   7 489.338 9.31362   3
  -2  -1   6 135.437 6.94230   3
  -2  -1   5 87.2748 6.65699   3
  -2  -1   4 9.39771 3.19978   3
  -2  -1   2 3657.83 8.11311   3
  -2  -1   0 25.4650 2.45075   3
  -2  -1  -2 177.612 2.77428   3
  -2  -1  -3 6872.13 12.3791   3
  -2  -1  -4 2854.54 9.20902   3
   2   1   5 5378.81 11.9518   3
   2   1   6 25.7330 11.3292   3
   2   1   7-1.77114 8.54314   3
   2   1   9 851.012 12.7979   3
   2   2 -12 33.5799 60.6043   3
   2   2 -10 426.204 23.7514   3
   2   2  -8 1093.05 16.1602   3
  -2  -2   7 15.6204 10.7993   3
  -2  -2   6 67.5233 5.94248   3
  -2  -2   5 573.413 5.11005   3
  -2  -2   4 1367.76 8.30324   3
  -2  -2   3 986.110 4.72565   3
  -2  -2   1 791.750 5.00076   3
   2   2   1 4633.91 10.0627   3
  -2  -2  -3 2598.82 9.88140   3
   2   2   4 11109.8 23.1660   3
   2   2   5 851.159 8.53054   3
   2   2   6 1066.77 10.8672   3
   2   2   8 86.9492 10.5694   3
  -2  -2 -10 1811.38 17.4033   3
  -2  -3  11-7.11033 69.2925   3
   2   3  -9 939.317 19.8936   3
  -2  -3   7 697.351 9.61416   3
  -2  -3   5 2.68608 4.82169   3
  -2  -3   4 351.990 3.76011   3
  -2  -3   3 2019.28 7.83662   3
  -2  -3   2 3070.51 11.3888   3
  -2  -3   1 5847.85 13.7005   3
  -2  -3   0 664.354 4.32257   3
  -2  -3  -2 1492.30 6.28922   3
   2   3   4 1258.26 6.51932   3
   2   3   5 2559.01 34.5001   3
   2   3   6 112.691 5.85787   3
   2   3   7 34.3642 8.86778   3
   2   3   9 674.917 27.9526   3
  -2  -3 -11 1463.29 26.2326   3
  -2  -4  11 13.1557 82.6990   3
  -2  -4  10 13.7424 61.5350   3
   2   4  -8 2320.94 22.8944   3
  -2  -4   6 259.000 7.85322   3
  -2  -4   5 483.765 14.0565   3
  -2  -4   4 565.359 5.52635   3
  -2  -4   3 638.783 6.23561   3
  -2  -4   2 7362.09 12.9501   3
  -2  -4   1 1968.09 7.19737   3
  -2  -4  -1 1199.00 8.36235   3
  -2  -4  -3 252.484 3.44649   3
   2   4   5 1364.85 8.83350   3
   2   4   6 1779.73 9.54984   3
   2   4   7 233.903 5.01832   3
   2   4   8-10.7831 8.09704   3
   2   4  10 587.530 48.5832   3
  -2  -4 -12 278.002 33.2519   3
  -2  -5  10 10.4418 51.3195   3
  -2  -5   9 775.790 46.5135   3
  -2  -5   8 375.420 31.2573   3
   2   5  -7 764.580 22.4459   3
   2   5  -5 5.90556 12.4064   3
  -2  -5   3 952.833 8.77847   3
  -2  -5   2 1222.24 6.62949   3
  -2  -5   1 5917.33 15.4565   3
   2   5   0 81.0885 5.72105   3
   2   5   2 447.872 5.26120   3
  -2  -5  -4 1071.40 4.96603   3
  -2  -5  -6 393.221 9.00388   3
   2   5   8 117.551 18.6091   3
   2   5   9 177.409 21.2899   3
   2   5  11 670.636 47.3890   3
  -2  -6  10 5.39787 82.7505   3
  -2  -6   9 93.1430 51.1101   3
  -2  -6   8 1003.40 34.5250   3
  -2  -6   7 477.289 30.7491   3
  -2  -6   6 265.658 18.3562   3
  -2  -6   4 9.31333 13.3414   3
  -2  -6   2 2739.76 11.4604   3
  -2  -6   1 1799.19 12.0270   3
  -2  -6   0 1181.38 10.9569   3
  -2  -6  -1 350.652 6.94309   3
  -2  -6  -3 10.3673 5.69490   3
  -2  -6  -5 856.939 6.22443   3
  -2  -6  -7 1.75681 12.4258   3
   2   6   9 164.671 22.6716   3
   2   6  10 276.436 32.1392   3
  -2  -6 -12 1288.08 66.0096   3
  -2  -7   8 273.681 43.4477   3
  -2  -7   7 807.734 38.6074   3
  -2  -7   6 40.2035 30.1090   3
  -2  -7   5 36.4170 17.8384   3
  -2  -7   4 242.936 24.7532   3
  -2  -7   3 254.544 10.7688   3
   2   7  -2 282.018 20.3280   3
  -2  -7   1 3107.58 14.6096   3
   2   7   0-58.2229 8.36853   3
  -2  -7  -1 535.812 30.8213   3
  -2  -7  -2 362.897 10.1686   3
  -2  -7  -4-1.94548 8.05866   3
  -2  -7  -6 607.766 13.8409   3
  -2  -7  -8 19.8692 16.7922   3
   2   7  10 11.2229 43.0685   3
   2   7  11 417.159 61.4054   3
  -2  -8   7 355.234 38.3555   3
  -2  -8   6 449.589 35.0542   3
  -2  -8   5 34.3845 22.8610   3
  -2  -8   4 36.8505 19.4690   3
  -2  -8   3 92.5368 27.4949   3
  -2  -8   2 730.970 14.6243   3
   2   8  -1 763.133 28.8263   3
  -2  -8   0 1324.13 15.6894   3
   2   8   1 5.63727 28.7775   3
  -2  -8  -3 43.7196 11.4004   3
  -2  -8  -5 739.136 13.5846   3
  -2  -8  -7 98.3480 16.6824   3
   2   8   8 81.5044 39.3046   3
   2   8   9 269.398 23.9384   3
  -2  -9   7 384.169 75.4306   3
  -2  -9   6 151.314 39.0154   3
  -2  -9   5 63.9729 29.4672   3
  -2  -9   4 8.81706 26.0037   3
  -2  -9   3 38.7621 21.3945   3
  -2  -9   2 27.8599 22.1605   3
  -2  -9   1 1725.77 22.5161   3
  -2  -9   0 850.711 18.9101   3
  -2  -9  -1 996.873 17.5188   3
  -2  -9  -4-1.20557 13.8201   3
  -2  -9  -6 624.863 18.7531   3
  -2  -9  -8 8.11243 20.6760   3
   2   9   9-6.49073 48.4494   3
   2   9  10-24.4568 46.8489   3
  -2 -10   5 26.7342 69.7664   3
  -2 -10   4 27.6800 32.5181   3
  -2 -10   3 146.842 26.2602   3
  -2 -10   2 74.1252 23.9995   3
  -2 -10   1 325.843 29.9734   3
  -2 -10   0 972.111 26.9814   3
  -2 -10  -1 167.069 18.9411   3
  -2 -10  -2-13.0546 20.2353   3
  -2 -10  -3 165.533 20.8969   3
  -2 -10  -5 64.8673 21.9192   3
  -2 -10  -7 279.365 22.6319   3
  -2 -10  -9 27.2701 38.0486   3
  -2 -11   3 1.59617 49.6166   3
  -2 -11   2-4.74248 45.7644   3
  -2 -11   1 482.272 32.6563   3
  -2 -11   0 446.460 30.9390   3
  -2 -11  -1 375.105 26.7600   3
  -2 -11  -2 44.3321 27.1715   3
  -2 -11  -3-0.76985 24.8539   3
  -2 -11  -4 20.3312 25.2963   3
  -2 -11  -6 416.205 28.9201   3
   2  11   8 38.4269 68.2083   3
  -2 -12   0 736.865 52.8237   3
  -2 -12  -1 388.049 50.4562   3
  -2 -12  -2 308.157 49.9325   3
  -2 -12  -3 22.0516 67.1036   3
  -2 -12  -4 22.6611 48.9363   3
   2  12   5 4.51893 69.0072   3
  -3  10   2 179.408 67.6044   3
  -3  10   1 74.8102 69.7656   3
   3  -9  -5 31.1868 29.2097   3
  -3   9   4 859.823 45.8394   3
  -3   9   3 96.9608 28.2567   3
   3  -9  -2 526.282 26.8258   3
  -3   9   1 20.2979 53.4094   3
   3  -9   0 100.781 45.3683   3
  -3   9  -2 404.000 41.5201   3
   3  -8  -6 413.792 23.3503   3
   3  -8  -4 120.573 18.3950   3
   3  -8  -3 1471.90 26.5473   3
  -3   8   2 272.754 23.8073   3
   3  -8  -1 258.044 19.6750   3
   3  -8   4 258.862 76.8179   3
  -3   8  -5 323.259 69.0844   3
  -3   7   9 488.879 39.9402   3
   3  -7  -3 681.861 33.8656   3
   3  -7  -2 1509.42 17.6662   3
   3  -7  -1 63.1002 17.4069   3
   3  -7   0 51.9207 17.5321   3
  -3   7  -2 240.121 22.4844   3
  -3   7  -4 1275.06 39.9627   3
   3  -7   5 60.9449 67.0516   3
  -3   6  10 98.2467 35.3390   3
  -3   6   8 171.021 25.0802   3
  -3   6   6 469.468 39.1496   3
   3  -6  -4 126.476 20.5565   3
   3  -6  -3 2476.56 34.3841   3
   3  -6  -2 814.368 27.4395   3
   3  -6  -1 1452.49 13.7729   3
   3  -6   0 75.4869 13.0351   3
   3  -6   1 105.614 12.3727   3
  -3   6  -3 1297.65 19.7217   3
  -3   6  -5 2823.98 42.2376   3
  -3   6  -6 31.9222 39.0370   3
   3  -6   8 56.9835 74.2379   3
   3  -5  -9 246.840 23.4688   3
   3  -5  -7 41.9703 17.2007   3
   3  -5  -5 322.288 21.9280   3
   3  -5  -2 3412.19 18.0777   3
  -3   5   0 760.749 9.83283   3
   3  -5   1 75.2898 12.5560   3
   3  -5   2 146.201 9.11166   3
   3  -5   3 221.763 14.1539   3
  -3   5  -4 2878.31 19.3900   3
  -3   5  -7 125.490 36.5575   3
   3  -5   9 45.1896 74.6280   3
  -3   4  10 4.45544 24.3500   3
   3  -4  -8 361.406 18.9398   3
   3  -4  -6 144.222 8.32107   3
   3  -4  -4 317.182 13.2973   3
  -3   4   2 2503.95 28.4366   3
  -3   4   1 3696.35 10.5668   3
  -3   4   0 126.507 15.5736   3
  -3   4  -1 27.4278 5.68738   3
  -3   4  -2 2257.19 15.5917   3
   3  -4   3 326.116 5.32499   3
   3  -4   4 271.584 12.9979   3
   3  -4   5 3170.68 17.3423   3
   3  -4   8 232.107 37.7154   3
   3  -4  10 41.0059 55.6448   3
   3  -3 -11 26.2647 47.7252   3
  -3   3   9 210.294 17.8312   3
  -3   3   7 545.459 15.0114   3
   3  -3  -5 6.47702 10.5475   3
  -3   3   3 45.5750 7.18998   3
  -3   3   1 818.450 12.6643   3
   3  -3   0 2598.81 7.78524   3
  -3   3  -1-155.257 4.76087   3
  -3   3  -2 254.406 6.19303   3
   3  -3   3 31.5414 3.32440   3
   3  -3   4 2973.07 15.2915   3
   3  -3   6 958.111 12.8573   3
   3  -3   9 115.170 35.1834   3
   3  -3  11 285.051 57.9941   3
  -3   2  10 11.2868 27.4948   3
   3  -2  -8 342.277 16.4636   3
  -3   2   6 4.24712 8.29710   3
  -3   2   4 148.221 14.4098   3
  -3   2   2 3607.78 9.54299   3
   3  -2  -1 10123.7 14.7178   3
  -3   2   0 647.227 16.6465   3
  -3   2  -1 414.144 5.99559   3
  -3   2  -3 28.0796 11.0968   3
   3  -2   5 4729.95 12.9521   3
   3  -2   7 417.225 12.7518   3
   3  -2   9 20.9600 56.4463   3
   3  -2  10 61.3501 35.5916   3
   3  -2  12 93.8112 90.6582   3
  -3   1  12 100.894 37.5552   3
   3  -1 -10 10.0903 39.2625   3
  -3   1   9 5.46265 18.1120   3
   3  -1  -7 811.642 13.8650   3
  -3   1   5 757.496 6.90651   3
  -3   1   3-71.7095 6.87765   3
  -3   1   1 982.597 5.57696   3
  -3   1   0 4326.76 9.07727   3
  -3   1  -1 121.952 6.23469   3
  -3   1  -2 88.5983 4.21607   3
  -3   1  -3-100.593 2.16285   3
   3  -1   4 3116.08 8.14576   3
   3  -1   5 1673.60 20.6965   3
   3  -1   6 3833.94 10.6193   3
   3  -1   8 104.948 15.3941   3
   3  -1  10 483.056 47.6052   3
   3  -1  11 187.615 40.5015   3
  -3   0  11 13.9820 30.3666   3
  -3   0  10 66.7717 50.8556   3
  -3   0   9 332.583 25.6359   3
   3   0  -8 345.551 14.3085   3
   3   0  -6-75.8344 11.8545   3
  -3   0   4 898.498 6.04423   3
  -3   0   2 577.478 4.03119   3
  -3   0   0 1352.82 7.15899   3
  -3   0  -1 1726.38 8.64072   3
   3   0   2 2956.96 10.4954   3
  -3   0  -3 271.975 3.73977   3
   3   0   4 49.0294 7.99747   3
   3   0   5 5847.25 12.1205   3
   3   0   7 595.979 7.14437   3
   3   0   9 18.7682 14.8543   3
   3   1 -12 139.898 62.1944   3
  -3  -1  10 43.9447 23.9673   3
   3   1  -8 1579.40 18.5814   3
   3   1  -7 758.886 9.18256   3
  -3  -1   6 1660.17 12.2489   3
  -3  -1   5 213.664 4.17838   3
   3   1  -4 35.1862 5.75614   3
  -3  -1   3 408.435 4.22369   3
   3   1  -1 3880.08 10.3592   3
  -3  -1  -1 7.40212 3.95134   3
   3   1   2 18.8499 4.22266   3
  -3  -1  -3 516.762 4.47371   3
  -3  -1  -4 1694.15 6.26415   3
  -3  -1  -5 1429.01 11.2091   3
  -3  -1  -6 2335.82 9.70581   3
  -3  -1  -8 191.114 8.54720   3
   3   1  10 191.744 26.5361   3
   3   2 -11 46.9528 43.6565   3
  -3  -2   9 0.63365 18.0545   3
  -3  -2   8-3.44032 16.3807   3
   3   2  -7 2066.88 12.9314   3
  -3  -2   6-31.6759 13.3029   3
  -3  -2   5 332.220 5.62343   3
  -3  -2   4 505.288 4.98123   3
  -3  -2   3 4.40225 9.12947   3
  -3  -2   2 908.996 5.52557   3
   3   2   0 1719.18 7.01363   3
   3   2   2 493.397 4.05656   3
  -3  -2  -3 99.1600 5.02100   3
  -3  -2  -4 197.005 4.39032   3
  -3  -2  -5 2785.24 21.6721   3
   3   2   6 926.099 16.1617   3
  -3  -2  -7 4856.86 12.4683   3
  -3  -2  -9 94.8538 11.2476   3
   3   3 -10 1.55947 31.3359   3
  -3  -3   8 717.046 17.4091   3
  -3  -3   7 673.801 12.3268   3
  -3  -3   6 1929.45 9.58948   3
  -3  -3   5 7.27958 5.63772   3
  -3  -3   4 22.1498 4.78608   3
  -3  -3   3 830.002 5.04968   3
  -3  -3   2 3951.70 24.9055   3
  -3  -3   1 79.9220 3.85722   3
   3   3   1 471.793 3.93218   3
   3   3   3 182.365 3.16073   3
  -3  -3  -4 343.935 4.89805   3
   3   3   5 448.474 12.2456   3
   3   3   6 3021.42 19.5681   3
   3   3   7 366.473 7.79906   3
   3   3   8 292.627 10.2968   3
  -3  -3 -10-7.91654 20.4658   3
   3   3  12 498.246 59.9804   3
   3   4  -9 65.6244 25.1730   3
  -3  -4   7 1327.86 15.1068   3
  -3  -4   6 567.006 17.7119   3
  -3  -4   5 684.223 6.03068   3
  -3  -4   4 229.863 5.75656   3
  -3  -4   3-0.64001 4.15684   3
  -3  -4   2 1.52879 3.86901   3
  -3  -4   1 1683.78 13.0258   3
  -3  -4   0 2045.97 7.60340   3
  -3  -4  -2 8.58661 3.83543   3
  -3  -4  -3-33.2562 3.67909   3
  -3  -4  -4 2078.16 9.62595   3
  -3  -4  -5 1131.89 7.19371   3
   3   4   6 769.344 8.81446   3
  -3  -4  -7 2310.04 20.8736   3
   3   4   9 64.8534 35.8975   3
  -3  -4 -11 52.4727 24.7706   3
   3   4  12 7.75646 58.7840   3
  -3  -5  10-28.6692 75.4416   3
  -3  -5   9-21.2868 63.8217   3
  -3  -5   8 92.5492 20.2807   3
  -3  -5   6 1742.44 17.4776   3
  -3  -5   5 236.545 9.28222   3
  -3  -5   4 374.231 7.73767   3
  -3  -5   3 364.757 6.97071   3
  -3  -5   2 263.021 6.92383   3
  -3  -5   1 571.385 6.51453   3
   3   5   1 2024.67 7.26217   3
  -3  -5  -3 381.023 4.86596   3
  -3  -5  -5 47.0760 7.53428   3
  -3  -5  -6 2594.55 13.4017   3
   3   5   7 866.558 10.1660   3
  -3  -5  -8 1633.15 17.1713   3
  -3  -5 -10 18.5268 31.2826   3
  -3  -5 -12 318.572 35.8262   3
  -3  -6   9 31.6602 53.4266   3
  -3  -6   8 111.650 63.0104   3
  -3  -6   7 490.952 26.6752   3
  -3  -6   6 425.532 24.4201   3
  -3  -6   5 1622.29 16.6812   3
  -3  -6   3 0.12963 8.54275   3
  -3  -6   2 95.5323 8.55118   3
  -3  -6   1 768.537 9.38960   3
  -3  -6   0 278.540 4.72410   3
  -3  -6  -2 248.626 7.44110   3
  -3  -6  -4 114.959 5.92925   3
  -3  -6  -6 584.399 11.8289   3
   3   6   7 1980.16 19.4546   3
   3   6   8 388.562 18.0164   3
  -3  -6  -9 117.513 17.5315   3
  -3  -6 -11 15.2055 29.6409   3
   3   6  13 665.369 79.3959   3
  -3  -7   8 8.81611 69.7388   3
  -3  -7   7 90.8318 29.5468   3
  -3  -7   6 1028.12 26.5731   3
  -3  -7   5 441.183 21.9773   3
  -3  -7   4 87.5673 16.7297   3
  -3  -7   3 617.192 16.5079   3
  -3  -7   2-4.24556 14.0667   3
  -3  -7   1 3.35359 10.7185   3
  -3  -7   0 1695.33 13.3281   3
  -3  -7  -1 1728.98 10.6672   3
  -3  -7  -3 23.1163 8.57756   3
  -3  -7  -5 292.220 12.7061   3
  -3  -7  -7 713.951 16.6306   3
   3   7   8 1259.85 21.9098   3
   3   7   9-1.06113 22.9349   3
  -3  -7 -10 18.9123 25.3241   3
   3   7  12 326.176 74.3904   3
  -3  -8   8 12.4299 78.7276   3
  -3  -8   7 46.1900 38.3732   3
  -3  -8   6 247.311 31.4052   3
  -3  -8   5 1192.57 23.4817   3
  -3  -8   4 546.033 23.2558   3
  -3  -8   3 308.134 18.7356   3
  -3  -8   2 66.9380 14.1822   3
  -3  -8   1 101.530 13.7325   3
  -3  -8   0 189.190 12.8316   3
  -3  -8  -1 1544.71 20.1497   3
  -3  -8  -2 513.463 12.0625   3
  -3  -8  -4 592.764 12.8145   3
  -3  -8  -6 153.455 16.5312   3
  -3  -8  -8 529.374 20.6217   3
  -3  -8  -9 200.961 28.6225   3
   3   8  10 24.4321 49.1872   3
  -3  -8 -11 8.51341 32.5028   3
   3   9  -7 22.7843 70.8767   3
  -3  -9   6 544.092 40.9197   3
  -3  -9   5 378.604 25.8904   3
  -3  -9   4 739.534 24.7088   3
  -3  -9   3 73.5023 23.7709   3
  -3  -9   2 24.2375 19.9310   3
  -3  -9   1 30.8893 18.7761   3
  -3  -9   0 736.996 17.1827   3
  -3  -9  -1 960.532 18.8115   3
  -3  -9  -2 1562.09 26.7003   3
  -3  -9  -3 37.9168 13.1836   3
  -3  -9  -5 22.0591 16.0640   3
  -3  -9  -7 354.100 20.7416   3
   3   9   8 614.604 49.7359   3
  -3  -9  -9 48.0317 27.1012   3
  -3  -9 -10 65.0664 35.5952   3
  -3 -10   5 570.597 53.5357   3
  -3 -10   4 309.105 28.5801   3
  -3 -10   3 4.16387 25.6595   3
  -3 -10   2 94.5910 26.9828   3
  -3 -10   1-21.1728 22.5850   3
  -3 -10   0 117.547 21.9896   3
  -3 -10  -1 1018.79 22.4578   3
  -3 -10  -2 456.229 19.3453   3
  -3 -10  -4 23.1684 21.0871   3
  -3 -10  -6 23.5950 20.1356   3
  -3 -10  -8 359.621 24.4871   3
   3  10   9 347.773 59.4176   3
   3  10  10 1.74957 75.6761   3
  -3 -11   3 12.3645 42.3834   3
  -3 -11   2 10.5416 29.3813   3
  -3 -11   1 67.6388 30.5387   3
  -3 -11   0 211.937 30.3357   3
  -3 -11  -1 240.485 33.4068   3
  -3 -11  -2 628.445 25.7878   3
  -3 -11  -3 185.185 27.6234   3
  -3 -11  -4 29.2537 55.5115   3
  -3 -11  -5 176.519 26.0512   3
  -3 -11  -7 76.3504 29.1317   3
   3  11   9 116.141 73.1691   3
  -3 -12   1-26.2462 76.2820   3
  -3 -12   0 9.42627 51.2298   3
  -3 -12  -1 162.294 49.7559   3
  -3 -12  -2 258.473 49.3455   3
  -3 -12  -3 414.024 70.8885   3
  -3 -12  -4-25.3781 47.3468   3
  -4   9   4-8.62911 73.1429   3
  -4   9   1 1544.49 50.9439   3
   4  -8  -5-18.1382 28.6393   3
  -4   8   4-26.7318 58.9675   3
  -4   8   3 109.539 34.4814   3
  -4   8   1 314.898 52.2844   3
  -4   8   0 1429.57 37.5933   3
  -4   8  -2 58.8256 38.2288   3
   4  -7  -6 95.4675 22.9098   3
   4  -7  -4 322.640 23.8388   3
   4  -7  -3 114.319 23.2938   3
  -4   7   2 52.0142 22.3999   3
   4  -7  -1 2429.29 22.4768   3
  -4   7  -1 195.096 30.2354   3
  -4   7  -3-40.4506 37.7227   3
  -4   7  -5 953.232 42.1028   3
  -4   7  -6 198.878 71.2080   3
   4  -6  -9 50.5518 48.1851   3
   4  -6  -5 16.5154 37.0762   3
   4  -6  -3 132.697 19.6005   3
   4  -6  -2 840.091 14.7871   3
  -4   6   1 867.715 20.4568   3
   4  -6   0 2607.98 20.2081   3
  -4   6  -2 220.858 20.7756   3
  -4   6  -4 211.095 30.7401   3
   4  -6   5 313.609 65.5635   3
   4  -6   6 1598.87 76.6740   3
   4  -6   7 203.704 80.7387   3
  -4   5  10 113.354 70.5308   3
   4  -5  -8 109.115 26.6358   3
  -4   5   6 446.651 28.3076   3
   4  -5  -3-5.21362 25.5090   3
  -4   5   2 54.1896 26.5263   3
   4  -5  -1 1758.14 13.4610   3
   4  -5   0 1138.42 12.8083   3
  -4   5  -1 1416.03 20.1076   3
  -4   5  -3 13.9685 16.7330   3
   4  -5   6 661.739 62.4547   3
   4  -5   8 12.1531 51.2126   3
  -4   4  11 18.2558 73.8240   3
   4  -4  -9 74.8514 24.7181   3
   4  -4  -7 176.527 24.7663   3
  -4   4   5 20.2367 21.3144   3
   4  -4  -2 428.697 11.1780   3
  -4   4   1 460.838 16.3157   3
  -4   4   0 5150.15 12.5934   3
  -4   4  -1 71.3314 13.6659   3
   4  -4   2 287.529 12.2546   3
  -4   4  -4 226.516 15.9727   3
   4  -4   7 340.127 55.9884   3
   4  -4   9 29.5008 53.3577   3
  -4   3  10 141.673 26.9631   3
  -4   3   8 13.4643 19.9102   3
   4  -3  -6 1490.99 23.7807   3
  -4   3   4 106.338 10.7494   3
  -4   3   1 2662.57 10.4610   3
  -4   3   0 1867.89 10.8386   3
  -4   3  -1 1680.49 12.8917   3
  -4   3  -2 65.0662 13.0506   3
  -4   3  -3 0.37692 7.81718   3
   4  -3   5 655.461 19.7298   3
   4  -3   8 67.6940 51.3109   3
   4  -3  10 282.046 53.0427   3
  -4   2  11 55.5992 32.5406   3
  -4   2   9 208.946 19.8592   3
  -4   2   7 526.741 17.7290   3
   4  -2  -5 244.895 12.4189   3
   4  -2  -3 493.628 8.90957   3
   4  -2  -1 151.388 21.1992   3
   4  -2   0 4194.00 10.5367   3
  -4   2  -1 1003.75 16.0218   3
  -4   2  -2 2344.64 9.48663   3
   4  -2   4 193.742 12.6587   3
   4  -2   6 1003.10 11.9778   3
   4  -2   8 849.962 45.7496   3
   4  -2   9 15.4847 33.0525   3
   4  -2  11 16.8841 86.0742   3
   4  -1 -12 171.073 65.7891   3
  -4   1  10 33.4539 27.8748   3
  -4   1   8 42.1514 16.1616   3
  -4   1   6 396.193 12.3134   3
   4  -1  -4 4.32347 7.79096   3
  -4   1   2 454.174 5.91291   3
   4  -1   0 1509.53 17.7020   3
  -4   1  -1 6687.44 12.7354   3
  -4   1  -3 596.892 7.00373   3
   4  -1   4 491.572 28.0934   3
   4  -1   5 322.702 6.46945   3
   4  -1   7 3313.57 17.0937   3
   4  -1  10-3.42912 35.8787   3
   4  -1  12 9.35067 72.9192   3
  -4   0  11 160.649 52.3203   3
  -4   0   9 248.868 18.6255   3
  -4   0   7 23.4255 13.8628   3
  -4   0   5 559.605 8.94685   3
  -4   0   3 190.634 4.73939   3
   4   0  -1 193.414 4.58481   3
   4   0   0 4293.50 20.3622   3
  -4   0  -1 938.992 6.47877   3
  -4   0  -2 1173.20 11.6002   3
  -4   0  -3 109.996 4.33051   3
  -4   0  -4 12.6149 4.14979   3
   4   0   6 801.537 9.05462   3
   4   0   8 1994.34 16.8059   3
  -4   0 -10-4.71924 49.6727   3
   4   0  11 166.478 58.1093   3
   4   1 -11 429.941 44.5773   3
  -4  -1  10 47.2948 58.0581   3
  -4  -1   9 26.8100 20.1231   3
  -4  -1   8 166.921 15.5187   3
  -4  -1   6 532.842 9.25416   3
   4   1  -4 287.972 6.53867   3
   4   1  -2 1331.02 6.61134   3
  -4  -1   0 215.069 5.29609   3
   4   1   1 4886.19 14.8430   3
  -4  -1  -2 1744.86 7.49458   3
   4   1   3 2849.31 9.07601   3
   4   1   4 276.201 6.66313   3
  -4  -1  -5 120.337 5.88498   3
  -4  -1  -6 557.741 11.5917   3
  -4  -1  -7 1345.42 13.7880   3
   4   1   9 805.312 17.7186   3
   4   2 -10 423.889 39.4886   3
   4   2  -9 41.7432 32.7242   3
  -4  -2   8-3.07625 15.9776   3
  -4  -2   7 43.1246 13.3926   3
   4   2  -6 1074.60 14.4057   3
  -4  -2   5 485.188 6.24409   3
  -4  -2   4 1927.90 20.5162   3
  -4  -2   3 9.88705 5.38055   3
  -4  -2   1 10.7635 4.63521   3
  -4  -2  -1 2198.11 8.04408   3
  -4  -2  -2 6165.68 16.8094   3
   4   2   3 51.0083 4.34364   3
  -4  -2  -4 187.815 5.14148   3
  -4  -2  -5 709.506 7.33087   3
  -4  -2  -6 222.242 5.01665   3
  -4  -2  -8 2820.82 14.0357   3
   4   3  -9 8.77175 24.8781   3
  -4  -3   8 393.447 47.0480   3
  -4  -3   7 46.6764 14.0585   3
  -4  -3   6 40.5161 8.86300   3
  -4  -3   5 2508.18 10.7586   3
  -4  -3   4 808.871 7.08946   3
  -4  -3   2 434.843 5.60509   3
  -4  -3   0 213.645 4.54280   3
   4   3   2 2913.02 8.67165   3
   4   3   3 3023.58 10.4450   3
  -4  -3  -4 122.795 4.75836   3
  -4  -3  -5 7.22078 4.31432   3
  -4  -3  -6 158.815 13.8775   3
  -4  -3  -7 1913.31 10.4028   3
  -4  -3  -9 1392.31 17.0162   3
   4   3  10 53.1955 32.3179   3
   4   4 -10 338.714 38.2610   3
  -4  -4   9 29.7652 40.4891   3
   4   4  -8 28.1551 22.9525   3
  -4  -4   7 41.8238 16.3699   3
  -4  -4   6 266.343 10.5049   3
  -4  -4   5 387.927 9.26225   3
  -4  -4   4 1517.19 8.66976   3
  -4  -4   3 296.897 6.20775   3
   4   4  -2 34.3680 9.52702   3
  -4  -4   1 1300.01 7.34343   3
   4   4   1 863.687 5.46152   3
   4   4   3 241.473 4.83083   3
   4   4   4 22.6400 6.93563   3
  -4  -4  -5 458.239 7.68359   3
  -4  -4  -6 91.1090 9.33944   3
   4   4   7 38.9680 24.0387   3
  -4  -4  -8 2308.53 23.8776   3
   4   4  10 274.806 20.3350   3
   4   4  12 0.36372 60.9765   3
   4   5  -9 324.921 31.3064   3
  -4  -5   8 111.481 38.7393   3
  -4  -5   7 20.3291 20.7566   3
  -4  -5   6 6.25018 14.8865   3
   4   5  -5 1750.44 10.7494   3
  -4  -5   4 1087.75 8.29184   3
  -4  -5   3 1934.62 10.7662   3
  -4  -5   2 123.171 5.77584   3
  -4  -5   1 3.39767 10.0288   3
   4   5   0 25.6278 5.34711   3
   4   5   2 2389.84 8.70977   3
  -4  -5  -4 3.53745 7.53089   3
   4   5   5-2.16584 10.6419   3
  -4  -5  -6 528.527 10.7432   3
  -4  -5  -7 409.103 13.2448   3
   4   5   8 546.440 30.2323   3
  -4  -5  -9 1062.87 20.4154   3
  -4  -5 -11 0.97492 30.8721   3
  -4  -6   9-25.9213 76.3349   3
  -4  -6   8 2.88052 34.8276   3
  -4  -6   7 221.756 27.5785   3
  -4  -6   6 61.3419 18.5535   3
  -4  -6   5 460.124 17.5922   3
  -4  -6   4 1875.64 16.5077   3
  -4  -6   3 474.699 11.3198   3
   4   6  -2 199.732 10.5151   3
  -4  -6   1-47.3980 12.7010   3
  -4  -6   0 11.6929 13.1452   3
  -4  -6  -1 365.739 7.19152   3
  -4  -6  -3 992.564 8.14615   3
  -4  -6  -5 169.797 11.3176   3
  -4  -6  -6 0.10632 14.6157   3
  -4  -6  -7 63.7389 14.8196   3
  -4  -6  -8 1648.92 17.8880   3
  -4  -6 -10 546.865 23.2091   3
  -4  -6 -12 31.3391 33.8507   3
  -4  -7   8-10.9263 70.5976   3
  -4  -7   7 1.46219 39.8234   3
  -4  -7   6 23.8200 27.3942   3
  -4  -7   5 532.389 17.8437   3
  -4  -7   4 367.191 16.0776   3
  -4  -7   3 1119.23 13.6628   3
  -4  -7   2 45.6540 12.0008   3
  -4  -7   1 32.6288 11.0666   3
  -4  -7   0 222.558 5.62777   3
   4   7   2 927.964 9.75733   3
  -4  -7  -4 215.340 8.11802   3
  -4  -7  -6 146.102 13.9825   3
   4   7   7 138.193 18.1316   3
  -4  -7  -8 101.458 18.0125   3
  -4  -7  -9 923.556 19.9576   3
  -4  -7 -11 217.259 30.2201   3
  -4  -8   7 90.3394 72.1169   3
  -4  -8   6 14.6218 29.3647   3
  -4  -8   5 93.3294 28.5448   3
  -4  -8   4 929.591 21.9450   3
  -4  -8   3 558.860 19.4831   3
  -4  -8   2 354.330 15.1639   3
  -4  -8   1 238.951 14.5717   3
  -4  -8   0 12.6943 13.4134   3
  -4  -8  -1 23.7210 9.92506   3
  -4  -8  -3 352.794 16.0878   3
  -4  -8  -5 30.1851 14.5777   3
  -4  -8  -7-2.63202 18.2906   3
   4   8   8 407.341 25.5688   3
   4   8   9 341.136 24.8689   3
  -4  -8 -10 476.557 23.9397   3
  -4  -9   6 34.5197 50.2544   3
  -4  -9   5 184.109 30.7171   3
  -4  -9   4 589.377 31.8048   3
  -4  -9   3 1166.33 24.3719   3
  -4  -9   2 240.892 20.9163   3
  -4  -9   1 13.4840 16.8751   3
  -4  -9   0 129.438 16.6935   3
  -4  -9  -1 19.5982 15.8395   3
  -4  -9  -2 371.392 17.8071   3
  -4  -9  -4 520.203 17.9228   3
  -4  -9  -6 56.0308 17.8528   3
  -4  -9  -8 29.3221 22.3824   3
   4   9   9 448.632 32.9714   3
   4   9  10 275.040 37.3985   3
  -4  -9 -11 309.654 81.0888   3
   4  10  -5-32.4966 69.5274   3
  -4 -10   4 357.742 29.5905   3
  -4 -10   3 271.017 35.1516   3
  -4 -10   2 495.968 25.7591   3
  -4 -10   1 6.93852 23.1889   3
  -4 -10   0 56.8068 21.9987   3
  -4 -10  -1-2.94054 18.8274   3
  -4 -10  -2 487.284 24.8639   3
  -4 -10  -3 421.714 24.9963   3
  -4 -10  -5 74.8184 22.5669   3
  -4 -10  -7 17.0943 23.6352   3
   4  10   8 61.6301 56.7891   3
  -4 -10  -9 316.983 32.0534   3
   4  10  10 417.156 50.6268   3
  -4 -11   3 268.953 42.8826   3
  -4 -11   2 204.640 38.7323   3
  -4 -11   1 72.6874 28.4246   3
  -4 -11   0 60.5362 29.8910   3
  -4 -11  -1-10.8601 29.1013   3
  -4 -11  -2 30.4938 27.9665   3
  -4 -11  -3 477.661 29.0244   3
  -4 -11  -4 268.749 25.6932   3
  -4 -11  -6-0.03710 27.0124   3
   4  11   8 11.6412 45.2761   3
  -4 -12  -2 70.7313 67.6877   3
  -4 -12  -3 245.328 67.8920   3
   4  12   4 298.981 71.7745   3
   4  12   5 137.603 73.4085   3
  -5   8   4-5.30249 74.8445   3
  -5   8   1 236.296 73.4072   3
  -5   8  -1 1169.52 73.1091   3
   5  -7  -7-44.1874 71.2886   3
   5  -7  -5 222.943 29.6710   3
  -5   7   3 52.6804 33.9670   3
  -5   7   1 41.3694 49.8116   3
  -5   7   0 650.625 26.1352   3
  -5   7  -2 1141.98 40.6154   3
   5  -6  -8 107.979 70.2283   3
   5  -6  -6 392.065 30.4544   3
   5  -6  -4 193.515 24.3468   3
   5  -6  -3 131.565 30.1908   3
  -5   6   2 173.445 23.2858   3
   5  -6  -1 143.613 19.4239   3
   5  -6   1 1588.75 40.1027   3
  -5   6  -3 223.200 33.7669   3
   5  -6   4 200.805 72.5553   3
  -5   6  -5 33.9588 38.8419   3
   5  -5  -9 39.2716 42.3607   3
   5  -5  -7 39.2212 30.1063   3
   5  -5  -5 737.424 42.0107   3
   5  -5  -4 1577.69 31.9248   3
  -5   5   3 6.97253 26.5961   3
   5  -5  -2 106.961 16.6393   3
  -5   5   1 137.584 23.1661   3
   5  -5   0 647.417 17.5514   3
  -5   5  -2 2064.71 25.3963   3
  -5   5  -4 344.582 26.1587   3
   5  -5   5 111.166 68.1707   3
   5  -5   6 437.135 72.8271   3
   5  -5   7 88.7184 55.0689   3
   5  -4 -10 6.98764 69.1568   3
   5  -4  -8 109.984 26.6053   3
   5  -4  -6 69.5922 28.2752   3
  -5   4   3 627.703 30.5864   3
  -5   4   2 385.093 29.1658   3
   5  -4  -1 56.1581 14.2888   3
  -5   4   0 18.8869 19.6164   3
  -5   4  -1 1643.18 24.1804   3
  -5   4  -3 1704.26 20.9024   3
   5  -4   6 120.091 60.2319   3
   5  -4   7 300.614 65.6706   3
   5  -4   8 360.790 75.6028   3
   5  -3  -9-5.64958 24.7336   3
   5  -3  -7 279.485 20.4271   3
   5  -3  -5 256.724 28.3488   3
   5  -3  -2 177.208 14.2876   3
  -5   3   0 95.4941 15.9260   3
  -5   3  -1 47.2007 13.1062   3
  -5   3  -2 1683.17 16.8585   3
  -5   3  -3 85.3896 19.1060   3
   5  -3   4 454.554 18.6364   3
   5  -3   7 18.1255 54.3143   3
   5  -3   8 1318.89 66.2147   3
  -5   3  -9 199.708 39.6026   3
  -5   2  10 153.104 29.5842   3
   5  -2  -8 66.2018 20.1237   3
   5  -2  -6 21.5914 14.9319   3
   5  -2  -4 544.604 15.7339   3
   5  -2  -1 63.0822 9.10176   3
  -5   2   0 563.453 16.5076   3
  -5   2  -1 1869.94 14.8195   3
  -5   2  -2 2191.45 18.4248   3
   5  -2   3 3977.80 21.8576   3
   5  -2   5-11.7793 16.6678   3
   5  -2   7 338.672 29.4814   3
   5  -2   8 291.180 55.0216   3
   5  -2   9 742.042 62.0374   3
   5  -2  10 114.544 50.7884   3
  -5   1  11 97.9555 48.4177   3
  -5   1   9 16.2844 22.2530   3
  -5   1   7 253.085 18.7745   3
   5  -1  -5 68.5982 14.3292   3
   5  -1  -3 772.922 7.81588   3
   5  -1  -1 155.619 15.1895   3
  -5   1   0 21.0233 6.21327   3
  -5   1  -1 42.7288 16.7827   3
  -5   1  -2 3291.46 16.2880   3
  -5   1  -3 1342.07 18.6346   3
  -5   1  -4 905.227 13.5758   3
   5  -1   6 51.9971 17.6393   3
   5  -1   8 581.066 37.3585   3
   5  -1   9 645.145 54.5177   3
   5  -1  10 706.676 77.2621   3
  -5   0  10 74.1437 30.8554   3
  -5   0   8 21.1565 18.5903   3
   5   0  -6 243.199 13.6694   3
   5   0  -4 730.076 10.9485   3
   5   0  -2 5.30916 6.59777   3
   5   0   0 735.099 9.91204   3
  -5   0  -1 443.706 6.59141   3
  -5   0  -2 224.549 11.7922   3
  -5   0  -3 4535.24 15.0402   3
  -5   0  -4 257.682 14.9003   3
   5   0   5 180.389 7.77197   3
   5   0   7 162.825 16.7496   3
  -5   0  -9 2135.73 38.2503   3
  -5   0 -10 260.900 58.8897   3
  -5  -1  11 48.3459 78.6887   3
  -5  -1  10 655.371 53.0547   3
  -5  -1   9 244.616 23.7134   3
   5   1  -7 233.396 16.4256   3
   5   1  -5 21.8417 10.5928   3
   5   1  -4-295.304 5.10694   3
   5   1  -3 970.675 7.30707   3
   5   1  -1 156.815 6.30613   3
   5   1   0 2.82379 11.0140   3
  -5  -1  -1 381.909 6.27755   3
  -5  -1  -2 3175.68 12.0391   3
   5   1   3 1578.96 9.67484   3
   5   1   4 2689.16 9.37554   3
  -5  -1  -6 0.18788 6.34997   3
  -5  -1  -8 598.917 15.2763   3
  -5  -1 -10 684.135 56.1097   3
  -5  -2  11 207.719 82.1491   3
  -5  -2  10 285.233 50.7060   3
  -5  -2   9 1009.95 25.4136   3
  -5  -2   8 112.076 20.2542   3
  -5  -2   7 73.8247 46.3115   3
  -5  -2   6 314.112 12.1254   3
   5   2  -5 56.3032 9.59147   3
   5   2  -4 487.340 7.63817   3
   5   2  -2 562.688 7.00495   3
   5   2   0 928.911 6.78042   3
   5   2   1 26.7438 12.3646   3
  -5  -2  -2 662.274 6.69160   3
   5   2   3 4746.89 11.3177   3
   5   2   4 1470.56 8.23593   3
  -5  -2  -5 165.220 7.24118   3
  -5  -2  -7 11.0930 7.07009   3
   5   2   9 1020.10 20.1137   3
   5   2  10 170.953 41.3590   3
   5   2  12-17.4959 70.4020   3
   5   3 -10 326.797 45.4221   3
  -5  -3   9 78.3422 44.0639   3
  -5  -3   8 286.252 21.1253   3
  -5  -3   7 81.1042 15.9588   3
  -5  -3   6 45.2401 20.3114   3
   5   3  -5 24.0708 8.87852   3
  -5  -3   4 1397.53 17.4807   3
  -5  -3   3 1582.96 9.01137   3
  -5  -3   1-1.49613 5.73321   3
   5   3   1 190.657 5.79590   3
   5   3   2 1647.60 8.67646   3
   5   3   3 1055.87 7.32214   3
  -5  -3  -4 3942.89 11.9239   3
   5   3   5 9.96541 7.89433   3
  -5  -3  -6 583.466 7.47661   3
  -5  -3  -8 478.102 14.4503   3
   5   3  10 413.974 40.6177   3
  -5  -4  10 118.149 73.0916   3
   5   4  -9 679.143 33.9048   3
  -5  -4   8 343.195 54.1320   3
   5   4  -7 90.6276 27.5521   3
  -5  -4   6 349.224 15.9737   3
   5   4  -5-1.87823 10.0584   3
  -5  -4   4 126.911 7.83990   3
  -5  -4   3 4029.25 18.7910   3
  -5  -4   2 248.900 7.81106   3
  -5  -4   0 545.200 6.54906   3
   5   4   2 49.6043 5.79726   3
  -5  -4  -3 3219.47 10.9361   3
  -5  -4  -4 1567.04 9.50236   3
  -5  -4  -5 1025.91 7.79523   3
   5   4   6 41.2390 12.0242   3
  -5  -4  -7 39.2507 11.8828   3
   5   4   9 397.095 23.5518   3
   5   4  12-54.2804 69.3455   3
  -5  -5   9 379.520 52.1564   3
   5   5  -8 563.546 29.6558   3
  -5  -5   7 68.0039 50.1269   3
   5   5  -6 19.7084 23.8299   3
  -5  -5   5 170.974 12.4053   3
  -5  -5   4 477.105 9.87894   3
  -5  -5   3 918.329 9.56116   3
  -5  -5   2 1092.02 11.5547   3
  -5  -5   1 258.941 7.44785   3
  -5  -5  -1 342.598 7.07256   3
   5   5   2 110.055 30.9895   3
  -5  -5  -3 52.0895 6.76887   3
  -5  -5  -4 1802.52 12.8713   3
  -5  -5  -5 290.211 10.2298   3
  -5  -5  -6 175.438 12.9097   3
   5   5   7 111.006 30.2683   3
  -5  -5  -8 46.7795 16.0565   3
   5   5  10 590.424 22.1534   3
  -5  -5 -12 246.450 64.0155   3
   5   6  -9 295.975 80.2278   3
  -5  -6   8 286.573 48.2028   3
  -5  -6   7 158.998 28.0076   3
  -5  -6   6 29.7173 22.5980   3
   5   6  -5 7.15451 16.5860   3
   5   6  -4 63.3533 13.0489   3
  -5  -6   3 1415.68 14.0562   3
  -5  -6   2 743.888 9.45371   3
   5   6  -1 1616.62 11.8637   3
  -5  -6   0-2.19039 7.83407   3
  -5  -6  -2 63.6252 7.46282   3
  -5  -6  -4 1021.66 15.7711   3
  -5  -6  -5 1835.12 18.8556   3
  -5  -6  -6 20.2146 13.6594   3
  -5  -6  -7 81.7961 18.1994   3
   5   6   8 47.4169 32.1774   3
  -5  -6  -9 230.893 18.1345   3
  -5  -6 -11 604.330 31.5497   3
   5   7  -8 314.736 52.1791   3
  -5  -7   7 72.5680 44.2464   3
  -5  -7   6 48.5971 27.2892   3
  -5  -7   5 82.9541 19.8790   3
  -5  -7   4 93.8311 16.7562   3
   5   7  -3 345.502 14.7348   3
   5   7  -2 1523.15 17.2124   3
  -5  -7   1 200.010 12.3762   3
  -5  -7  -1 242.737 10.0088   3
  -5  -7  -3 173.459 11.3723   3
  -5  -7  -5 702.514 15.3705   3
   5   7   6 475.098 18.7504   3
  -5  -7  -7 29.6413 19.6429   3
  -5  -7  -8 1.24164 17.2198   3
  -5  -7 -10 279.910 22.3439   3
   5   7  12 314.794 73.4571   3
  -5  -8   7 273.595 67.1078   3
  -5  -8   6 29.4575 44.5970   3
  -5  -8   5 45.0155 23.6453   3
  -5  -8   4 169.059 36.4389   3
  -5  -8   3 244.852 18.2690   3
   5   8  -2 293.958 18.7735   3
   5   8  -1 800.683 16.2022   3
   5   8   0 191.005 19.1088   3
  -5  -8  -2 121.932 14.2773   3
  -5  -8  -4 216.235 16.4506   3
  -5  -8  -6 193.166 16.9368   3
   5   8   7 61.7945 21.5515   3
  -5  -8  -8 119.246 23.3665   3
  -5  -8  -9 28.2058 21.7358   3
  -5  -8 -11 992.461 50.5991   3
  -5  -9   6 112.290 66.9812   3
  -5  -9   5-26.4585 44.9794   3
  -5  -9   4 95.2925 25.1291   3
  -5  -9   3 248.039 37.9298   3
  -5  -9   2 859.500 23.1259   3
  -5  -9   1 388.065 21.7881   3
  -5  -9   0 370.586 18.8584   3
  -5  -9  -1 29.9523 18.0206   3
  -5  -9  -3 60.4492 24.6127   3
  -5  -9  -5 708.780 18.9724   3
  -5  -9  -7 6.00778 19.9985   3
   5   9   8 9.65971 30.0958   3
   5   9   9 9.94174 29.1382   3
  -5  -9 -10 109.710 29.6290   3
  -5 -10   5 19.4186 50.2183   3
  -5 -10   4 117.686 47.9644   3
  -5 -10   3 31.7982 27.8882   3
  -5 -10   2 149.590 40.7810   3
  -5 -10   1 967.418 26.1819   3
  -5 -10   0 320.518 31.2309   3
  -5 -10  -1 77.1679 22.0137   3
  -5 -10  -2 102.879 21.9320   3
  -5 -10  -4 348.098 25.8050   3
  -5 -10  -6 303.529 24.6404   3
  -5 -10  -8 83.8585 24.8511   3
   5  10   9-10.5018 45.5828   3
  -5 -11   3-25.9196 77.0955   3
  -5 -11   2 212.685 34.9172   3
  -5 -11   1 406.274 32.6295   3
  -5 -11   0 422.902 31.5724   3
  -5 -11  -1 18.5459 30.1449   3
  -5 -11  -2 8.76218 26.1967   3
  -5 -11  -3 11.3453 34.3595   3
  -5 -11  -5 293.696 31.3012   3
  -5 -11  -7 27.8794 33.3963   3
   5  11   8 38.4527 67.9293   3
   5  12   4-9.70489 67.4386   3
  -6   7   1 16.2302 49.3765   3
  -6   7  -1 218.713 67.1501   3
   6  -6  -5 40.4004 34.8436   3
  -6   6   4 712.847 49.3162   3
  -6   6   3 295.531 37.2533   3
  -6   6   0 1.82193 29.9061   3
  -6   6  -2 317.291 35.6884   3
  -6   5   6 93.2614 37.4503   3
  -6   5   4 204.610 33.8099   3
  -6   5   3 1514.81 30.6372   3
  -6   5   2 479.006 27.8095   3
  -6   5   1 254.728 27.1017   3
  -6   5  -1 142.552 35.7628   3
  -6   5  -3 947.949 31.7501   3
   6  -5   4 592.343 72.7760   3
   6  -5   5 355.678 35.7087   3
   6  -4  -7 53.7855 32.6924   3
   6  -4  -4 519.033 52.3817   3
   6  -4  -3 366.486 50.5427   3
   6  -4  -2 1240.12 22.8864   3
   6  -4  -1 1.01364 26.3086   3
   6  -4   0 20.0776 21.9397   3
  -6   4  -2 294.816 24.7366   3
   6  -4   4 1606.23 27.6216   3
   6  -4   5 137.202 63.8266   3
   6  -4   6 162.156 69.9634   3
  -6   4  -7 253.010 47.5264   3
   6  -4   8 182.710 84.3274   3
   6  -3  -8 58.3213 26.8775   3
   6  -3  -6 251.976 22.2749   3
  -6   3   3 1852.24 31.9090   3
   6  -3  -2 790.737 30.5034   3
   6  -3  -1 1150.35 20.3971   3
   6  -3   0 360.496 21.5471   3
   6  -3   1-7.76671 16.1669   3
   6  -3   3 1586.47 23.3276   3
   6  -3   5 840.581 43.1499   3
   6  -3   6 120.253 59.2705   3
   6  -3   7 4.60449 67.4622   3
   6  -3   8 38.3070 39.4841   3
  -6   2  10 131.036 76.4928   3
   6  -2  -9 150.098 28.6388   3
   6  -2  -7 58.7577 22.1666   3
   6  -2  -5 160.733 18.9695   3
   6  -2  -2 2663.18 25.0316   3
   6  -2  -1 219.492 18.6133   3
   6  -2   0-7.16670 14.5990   3
   6  -2   1 427.446 19.0692   3
   6  -2   2 81.4951 15.3968   3
   6  -2   4 1660.21 22.1299   3
   6  -2   6 373.949 39.9977   3
   6  -2   7 181.909 58.2144   3
   6  -2   8 8.99093 44.2537   3
   6  -2   9 6.59595 40.1906   3
  -6   1   9 896.920 46.6208   3
   6  -1  -8 484.091 24.0841   3
   6  -1  -6 159.458 18.9415   3
   6  -1  -4 16.7238 14.3283   3
   6  -1  -1 1470.78 15.2960   3
   6  -1   0 178.994 18.7636   3
  -6   1  -1 143.687 13.8472   3
  -6   1  -2 73.6684 17.6641   3
   6  -1   3 1620.66 19.1365   3
   6  -1   5 1539.14 21.4618   3
   6  -1   7 4.06125 32.0130   3
   6  -1   8 151.385 55.5998   3
   6  -1   9 265.891 46.3470   3
  -6   1 -10 145.151 65.4638   3
   6   0  -9 183.948 26.0379   3
  -6   0   8 1353.50 40.9251   3
   6   0  -7 44.4363 21.5387   3
   6   0  -5 353.589 14.9284   3
   6   0  -3 185.949 12.6949   3
   6   0  -1 556.245 11.3493   3
  -6   0   0 662.730 9.75835   3
  -6   0  -1 173.750 10.6051   3
  -6   0  -2 41.1926 14.7622   3
  -6   0  -3 49.2433 23.6829   3
   6   0   4 1828.89 14.5167   3
   6   0   6 1410.05 20.8083   3
   6   0   8 21.2286 24.0329   3
   6   1  -8 318.570 22.3082   3
  -6  -1   7 601.982 32.4200   3
   6   1  -6 4.28209 18.3186   3
   6   1  -4 99.3925 12.6906   3
   6   1  -2 475.316 9.08843   3
   6   1   0-1.09927 9.57065   3
  -6  -1  -1-1.69613 8.21731   3
  -6  -1  -2 496.368 9.70234   3
  -6  -1  -3 149.007 7.55262   3
  -6  -1  -4 149.194 10.7556   3
  -6  -1  -5 1756.41 10.9154   3
   6   1   7 116.809 19.4284   3
  -6  -1  -9 8.27554 30.2853   3
   6   2  -9 113.661 31.1411   3
   6   2  -8 646.349 25.7461   3
   6   2  -7 330.137 19.8666   3
  -6  -2   6 309.523 27.0163   3
   6   2  -5 70.2181 15.1850   3
  -6  -2   3-1.98076 8.90065   3
  -6  -2   1 861.859 10.3543   3
  -6  -2   0 773.125 14.5488   3
  -6  -2  -1 99.1237 7.99299   3
  -6  -2  -2 168.952 7.77612   3
  -6  -2  -3 8.05679 8.49944   3
   6   2   4 1703.66 9.52891   3
  -6  -2  -6 1511.48 12.4289   3
   6   2   8 19.6080 21.9016   3
   6   2  10 163.656 31.2681   3
  -6  -2 -11 210.507 71.3544   3
   6   3  -9 237.574 32.9057   3
   6   3  -8 411.734 29.2252   3
   6   3  -7 986.512 23.0160   3
  -6  -3   6 5.56390 18.5454   3
  -6  -3   5 5.77475 18.3512   3
   6   3  -4 276.829 11.4968   3
  -6  -3   2 1026.63 10.7113   3
   6   3  -1 4931.98 44.4392   3
   6   3   0 718.922 8.95465   3
   6   3   1 692.994 9.30974   3
   6   3   2 431.929 8.63879   3
   6   3   3 55.2933 8.14645   3
  -6  -3  -4 43.2927 8.13802   3
  -6  -3  -5 1611.99 10.5676   3
  -6  -3  -7 710.346 14.4893   3
  -6  -3  -9-6.91842 23.9223   3
  -6  -4   9-7.86952 71.6323   3
   6   4  -8 392.920 30.8637   3
  -6  -4   7 161.822 32.2935   3
   6   4  -6 429.436 17.6666   3
  -6  -4   5 21.3651 13.3431   3
  -6  -4   4 50.0973 15.5204   3
  -6  -4   3 33.8449 9.87624   3
  -6  -4   1 344.273 9.32318   3
  -6  -4  -1 35.7256 8.12890   3
   6   4   2 25.2271 8.30803   3
   6   4   3 103.565 9.07913   3
   6   4   4 278.645 8.17165   3
  -6  -4  -5 550.642 9.69921   3
  -6  -4  -6 2667.93 14.8745   3
   6   4   8 99.0794 18.4722   3
   6   4  10 75.4142 37.2301   3
   6   5  -9 83.9466 54.2822   3
  -6  -5   8 203.985 39.3662   3
   6   5  -7 659.177 35.4558   3
  -6  -5   6 189.001 25.3900   3
  -6  -5   5 30.6277 15.9963   3
  -6  -5   4 117.879 11.7943   3
  -6  -5   3 7.44631 14.4562   3
  -6  -5   2 7.93580 11.3806   3
  -6  -5   0 1054.09 10.7596   3
  -6  -5  -2 317.411 8.99074   3
  -6  -5  -3 2.07462 8.97919   3
  -6  -5  -4 14.8664 9.74971   3
  -6  -5  -5 1186.70 11.7309   3
  -6  -5  -6 809.698 17.4548   3
  -6  -5  -7 765.639 16.7022   3
   6   5   9 11.4622 22.8815   3
   6   6  -8 164.426 49.8277   3
   6   6  -7 252.783 43.7185   3
  -6  -6   6 767.430 28.0063   3
  -6  -6   5 60.0190 29.2411   3
  -6  -6   4 96.9631 14.2621   3
  -6  -6   3 241.787 15.1435   3
  -6  -6   2 277.490 17.0935   3
  -6  -6   1 853.687 12.3440   3
  -6  -6  -1 317.558 9.55855   3
  -6  -6  -3 234.774 10.6666   3
  -6  -6  -4 69.5377 8.96203   3
  -6  -6  -5 134.659 14.5370   3
  -6  -6  -6 1408.57 16.6250   3
  -6  -6  -7 464.941 24.4049   3
  -6  -6  -8 83.2297 18.1611   3
   6   6  10-11.0430 24.5341   3
  -6  -7   7 324.496 34.5114   3
  -6  -7   6 332.782 60.4692   3
   6   7  -5 309.997 38.7006   3
  -6  -7   4-15.4362 35.3797   3
  -6  -7   3 36.3748 17.9083   3
  -6  -7   2 20.7081 22.6973   3
  -6  -7   1 983.997 24.5993   3
  -6  -7   0 889.880 12.7620   3
  -6  -7  -2 27.7346 10.7425   3
  -6  -7  -4 44.9715 13.3203   3
  -6  -7  -5 448.206 15.8784   3
  -6  -7  -6 921.246 19.5156   3
  -6  -7  -7 1382.85 24.5993   3
   6   7   8 50.7382 40.9691   3
  -6  -7  -9 16.0711 21.1159   3
  -6  -7 -11 180.181 40.3764   3
  -6  -8   6 575.465 35.4978   3
  -6  -8   5 69.2783 45.2548   3
  -6  -8   4 42.1414 52.7133   3
  -6  -8   3 100.356 50.2861   3
  -6  -8   2 8.92524 25.1683   3
  -6  -8   1 191.299 24.8567   3
  -6  -8   0 1642.37 34.4942   3
  -6  -8  -1 319.563 15.7650   3
  -6  -8  -3 40.2518 18.2940   3
  -6  -8  -5 95.7051 18.9038   3
  -6  -8  -6 1040.84 22.1950   3
  -6  -8  -7 244.751 24.0412   3
  -6  -8  -8 146.027 23.9781   3
  -6  -8 -10 19.9794 33.1064   3
  -6  -9   5 205.702 68.7311   3
  -6  -9   4 45.6077 67.1029   3
  -6  -9   3 6.49038 55.7125   3
  -6  -9   1 385.204 51.2173   3
  -6  -9   0 594.056 18.6885   3
  -6  -9  -2-3.14462 20.1884   3
  -6  -9  -4 220.168 27.8371   3
  -6  -9  -6 247.904 20.4755   3
  -6  -9  -7 649.753 22.5181   3
  -6  -9  -8 177.649 28.5330   3
  -6  -9  -9 1.35504 28.8985   3
  -6 -10   4 122.069 42.7341   3
  -6 -10   3 39.5458 70.5355   3
  -6 -10   2-0.93637 64.6247   3
  -6 -10   0 571.694 57.2315   3
  -6 -10  -1 400.571 26.5925   3
  -6 -10  -3 15.2646 23.2764   3
  -6 -10  -5 10.5165 24.6054   3
  -6 -10  -6 590.047 60.6306   3
  -6 -10  -7 161.347 31.5834   3
  -6 -10  -8 250.976 39.5948   3
  -6 -10  -9 6.96983 51.1066   3
  -6 -11   0 324.093 50.6584   3
  -6 -11  -1 928.069 67.9522   3
  -6 -11  -2 62.2680 30.8807   3
  -6 -11  -4-10.9461 37.1933   3
  -6 -11  -5-19.2772 63.7894   3
  -6 -11  -6 94.8963 29.8352   3
  -7   6  -1 26.7087 78.1264   3
  -7   5   5 0.50801 81.3054   3
   7  -5  -4-7.61637 41.9618   3
   7  -5  -3 12.1122 41.5661   3
   7  -5  -2 828.533 41.9750   3
   7  -5   0 445.577 39.4209   3
  -7   5  -2 6.19299 34.3428   3
  -7   5  -4 305.383 69.3880   3
   7  -4  -6 76.9129 44.6758   3
   7  -4  -4 159.597 32.9649   3
  -7   4   3 229.146 30.6803   3
   7  -4  -2 141.504 35.4165   3
   7  -4  -1 1119.71 31.5554   3
   7  -4   0 430.488 60.7074   3
  -7   4  -1 248.681 27.2071   3
   7  -4   3 116.308 28.2167   3
   7  -4   4 79.9260 66.8421   3
   7  -4   5 992.536 38.4094   3
  -7   4  -6 195.047 67.6392   3
   7  -3  -5 26.4479 27.7017   3
   7  -3  -4-32.1120 53.5029   3
   7  -3  -3 61.8388 27.1574   3
   7  -3  -2 467.315 27.5607   3
   7  -3  -1 368.771 26.2787   3
   7  -3   0 1288.65 22.5800   3
  -7   3  -2 60.1219 26.3059   3
   7  -3   4 196.056 25.5554   3
   7  -3   5 268.335 64.4160   3
   7  -3   6 544.238 51.4985   3
  -7   3  -7 95.7234 50.6723   3
   7  -2  -8 24.5059 42.8082   3
   7  -2  -6 102.203 24.6956   3
   7  -2  -3 62.7990 36.0086   3
   7  -2  -1 1223.30 20.3049   3
   7  -2   0 240.046 20.5537   3
   7  -2   1 334.790 18.8165   3
  -7   2  -3 1.98906 23.9900   3
   7  -2   5 861.924 25.9761   3
   7  -2   6 323.836 59.5789   3
   7  -2   7 890.843 43.1715   3
  -7   2  -8 28.4130 49.2491   3
  -7   1   9-6.34691 75.7721   3
  -7   1   8 396.951 67.2189   3
   7  -1  -7 498.279 25.9662   3
   7  -1  -5 51.6106 18.8776   3
   7  -1  -2 375.128 19.9945   3
   7  -1  -1 31.2084 23.4938   3
   7  -1   0 2020.27 21.9035   3
   7  -1   1 803.408 19.5162   3
  -7   1  -2 497.498 17.1856   3
   7  -1   4 59.1977 20.3317   3
   7  -1   6 1033.22 34.1069   3
   7  -1   7 460.894 58.5578   3
   7  -1   8 150.106 39.4842   3
   7  -1   9 23.5764 48.2008   3
  -7   0   9 65.7773 76.0111   3
   7   0  -8 11.4100 26.8220   3
  -7   0   7 565.111 58.6354   3
   7   0  -6 164.363 21.6870   3
   7   0  -4 29.9858 17.9676   3
  -7   0   2 3.07613 16.7499   3
  -7   0   1 802.425 14.5630   3
   7   0   0 1130.84 24.3186   3
   7   0   1 1624.04 18.2840   3
   7   0   2 38.7970 21.2749   3
  -7   0  -3 5.46213 14.8154   3
   7   0   5 737.321 19.1433   3
   7   0   6 360.972 42.6485   3
   7   0   7 880.204 27.7866   3
   7   0   9-24.1972 48.8585   3
  -7  -1   9 16.7359 50.1102   3
  -7  -1   8-8.30890 41.9407   3
   7   1  -7 94.1713 24.8287   3
   7   1  -5 165.814 18.6029   3
   7   1  -3 352.061 16.2511   3
   7   1  -1 8.46989 12.9804   3
  -7  -1   0 2226.08 15.7144   3
  -7  -1  -1 568.440 14.6752   3
  -7  -1  -2 602.284 11.2062   3
  -7  -1  -3 329.896 39.4536   3
   7   1   4-2.95342 14.5824   3
   7   1   6 1124.01 19.0379   3
   7   1   8 732.055 38.2017   3
   7   2  -9-2.03555 72.5664   3
   7   2  -8 28.2144 29.3351   3
  -7  -2   7 475.775 37.9400   3
  -7  -2   6 506.550 26.0255   3
  -7  -2   4 10.1542 15.3012   3
  -7  -2   2 141.409 12.7710   3
  -7  -2   1 478.458 20.0801   3
   7   2   0 471.496 14.7128   3
   7   2   1 2280.12 14.1645   3
  -7  -2  -2 153.778 11.2413   3
  -7  -2  -3 14.6708 11.1881   3
  -7  -2  -4 410.662 18.1802   3
  -7  -2  -5 134.515 14.0329   3
   7   2   7 1149.74 25.4660   3
  -7  -2  -9 28.8449 28.8385   3
   7   2  10 65.3882 44.4985   3
   7   3  -9 31.0248 74.4066   3
   7   3  -8-2.79987 32.7016   3
  -7  -3   7 59.7493 36.0880   3
  -7  -3   6 860.618 30.3510   3
   7   3  -5 501.231 20.9950   3
  -7  -3   4 298.152 28.1156   3
  -7  -3   3 114.299 13.2044   3
  -7  -3   1-3.98412 12.1923   3
  -7  -3   0 1242.33 14.4685   3
   7   3   1 1353.91 12.5385   3
   7   3   2 1255.90 12.6542   3
   7   3   3 7.13059 11.6777   3
  -7  -3  -4 33.9867 11.1259   3
  -7  -3  -5 104.332 28.1301   3
   7   3   6 588.198 15.8152   3
   7   3   8 549.215 37.1013   3
  -7  -3 -10 52.0801 46.5017   3
  -7  -4   8 101.131 42.4843   3
   7   4  -7 34.1352 37.0187   3
  -7  -4   6 356.289 27.8137   3
  -7  -4   5 1413.43 25.6024   3
  -7  -4   4 113.279 16.2670   3
  -7  -4   2 179.656 12.4481   3
  -7  -4   0 554.613 12.3800   3
  -7  -4  -1 2931.48 16.4033   3
   7   4   2 435.962 11.5212   3
   7   4   3 151.288 12.4964   3
   7   4   4 590.532 13.0971   3
  -7  -4  -5 253.572 11.7234   3
   7   4   7 1639.02 23.8683   3
   7   4   9 171.186 32.7333   3
   7   4  11-2.08179 70.6772   3
   7   5  -8 16.3905 73.4651   3
  -7  -5   7 2.16273 31.9424   3
  -7  -5   6 485.292 30.0959   3
  -7  -5   5 474.719 26.6914   3
  -7  -5   4 810.186 18.5716   3
  -7  -5   3 71.8144 14.7668   3
  -7  -5   2 39.6437 29.4783   3
  -7  -5   1 154.240 12.4492   3
  -7  -5  -1 779.489 12.8648   3
  -7  -5  -2 1630.94 13.8206   3
   7   5   3 61.3363 12.2374   3
   7   5   4 5.92712 11.8561   3
  -7  -5  -5 16.5829 13.5796   3
  -7  -5  -6 66.7925 14.4630   3
   7   5   8 640.094 22.7512   3
   7   5  10 93.5804 36.0863   3
   7   6  -7 33.3501 49.9223   3
  -7  -6   6 117.921 30.6128   3
  -7  -6   5 828.397 29.2174   3
  -7  -6   4 269.281 18.8052   3
  -7  -6   3 4.05915 21.3853   3
  -7  -6   2 68.1583 13.5722   3
  -7  -6   1 36.0946 19.7035   3
  -7  -6   0 113.467 12.1210   3
  -7  -6  -2 368.891 12.3174   3
  -7  -6  -3 196.455 12.0221   3
  -7  -6  -4 168.772 15.2536   3
  -7  -6  -5 3.96321 15.0723   3
  -7  -6  -6-0.15035 17.6370   3
  -7  -6  -7 727.003 21.5287   3
   7   6   9 413.859 26.1419   3
  -7  -7   6 263.865 41.5425   3
  -7  -7   5 655.043 47.0371   3
  -7  -7   4 706.132 34.6181   3
  -7  -7   3 15.6543 23.1080   3
  -7  -7   2 125.252 32.0976   3
  -7  -7   1 37.7895 16.2137   3
  -7  -7   0 507.229 24.9889   3
  -7  -7  -1 390.859 13.4034   3
  -7  -7  -3 442.866 15.3871   3
  -7  -7  -4 56.0947 16.1382   3
  -7  -7  -5 84.7178 16.0411   3
  -7  -7  -6 118.711 21.8756   3
  -7  -7  -7 168.703 29.1124   3
  -7  -7  -8 711.610 23.0930   3
   7   7  10 67.4805 29.3677   3
  -7  -8   5 488.667 51.1148   3
  -7  -8   4 357.673 67.5242   3
  -7  -8   3 284.270 41.9903   3
  -7  -8   2 36.5549 28.6467   3
  -7  -8   1 21.4175 32.6425   3
  -7  -8   0 13.0080 17.6329   3
  -7  -8  -1 579.756 51.2893   3
  -7  -8  -2 669.965 16.9228   3
  -7  -8  -4 21.0710 18.3373   3
  -7  -8  -5-4.35727 21.1053   3
  -7  -8  -6 6.40641 25.4894   3
  -7  -8  -7 155.088 27.0216   3
  -7  -8  -8 229.216 42.9683   3
  -7  -8  -9 356.790 37.9575   3
   7   9  -3 27.2738 56.0822   3
  -7  -9   2 37.9130 42.9164   3
  -7  -9   1 18.2180 21.3855   3
  -7  -9   0 61.0848 37.6605   3
  -7  -9  -1 141.742 20.9215   3
  -7  -9  -2 961.209 57.2378   3
  -7  -9  -3 186.286 21.4883   3
  -7  -9  -4 105.669 54.1885   3
  -7  -9  -5 3.08359 29.7165   3
  -7  -9  -6 26.8536 31.5207   3
  -7  -9  -7-3.46909 26.9693   3
  -7  -9  -8 404.798 39.3721   3
  -7  -9  -9 243.055 69.7362   3
  -7 -10   3 423.589 84.5342   3
  -7 -10   2 9.68239 49.6680   3
  -7 -10   0 42.8299 29.7623   3
  -7 -10  -1 153.276 62.3663   3
  -7 -10  -2 218.969 26.0205   3
  -7 -10  -3 1083.24 64.5857   3
  -7 -10  -4 94.6566 30.1603   3
  -7 -10  -5-36.9677 61.7169   3
  -7 -10  -6 60.9570 45.7306   3
  -7 -10  -7 30.9540 29.7454   3
  -7 -10  -8 153.220 74.5294   3
   7  11   1 3.39421 46.1327   3
  -7 -11  -3 551.689 31.0094   3
   7  11   5-47.0588 71.0328   3
  -8   4   4 273.577 84.6320   3
   8  -4  -3 73.3456 83.2529   3
   8  -4  -2-23.0892 84.5455   3
   8  -4   0 729.238 45.3744   3
   8  -4   2 443.143 56.4643   3
   8  -3  -4 60.4049 35.6856   3
   8  -3  -3 51.2220 40.2845   3
   8  -3  -2 218.696 38.4887   3
   8  -3  -1 56.4491 32.2739   3
   8  -3   1 825.743 30.8254   3
  -8   3  -3 301.449 34.0802   3
   8  -3   5-11.4116 74.5681   3
   8  -2  -5 150.129 31.5001   3
   8  -2  -4 612.076 39.6263   3
   8  -2  -3 8.52279 35.0713   3
   8  -2  -2 37.3025 26.7100   3
   8  -2  -1 92.3561 28.3548   3
   8  -2   0 354.758 25.7510   3
  -8   2  -2 1229.82 28.5532   3
   8  -2   4 39.6661 37.4684   3
  -8   2  -6 31.5206 35.9624   3
   8  -2   7 370.158 75.9360   3
  -8   1   7 93.6510 75.1919   3
   8  -1  -6 66.4035 31.1115   3
  -8   1   4 273.252 61.7713   3
   8  -1  -3 314.892 26.1320   3
   8  -1  -2 121.805 31.5978   3
   8  -1  -1 1.35901 23.9584   3
   8  -1   0-1.49295 25.2641   3
   8  -1   1 929.371 20.5864   3
  -8   1  -3 366.140 24.5260   3
   8  -1   5 21.4645 24.2724   3
   8  -1   6 12.8609 62.1308   3
   8  -1   7 553.619 42.6792   3
  -8   0   7 2.25803 35.5131   3
  -8   0   6 66.8202 63.0692   3
   8   0  -5 297.284 30.8351   3
   8   0  -3 163.829 30.6842   3
   8   0  -2-11.0786 20.1407   3
   8   0  -1 430.492 25.2808   3
   8   0   0 399.256 18.3614   3
   8   0   1 410.629 24.5299   3
   8   0   2 2035.92 22.6443   3
   8   0   4 161.027 21.6589   3
  -8   0  -6-9.21959 26.1236   3
   8   0   8 466.828 71.3566   3
  -8  -1   8 47.7807 76.9972   3
  -8  -1   7-21.4815 47.1100   3
  -8  -1   6 2.74687 28.4562   3
   8   1  -4 430.975 20.3123   3
  -8  -1   3 932.906 48.8874   3
  -8  -1   2 96.0673 17.0861   3
   8   1  -1-5.37111 16.3108   3
   8   1   0 26.4475 19.5743   3
  -8  -1  -1 766.435 17.5506   3
   8   1   2 662.103 23.2799   3
   8   1   3 857.139 20.6858   3
   8   1   5 51.5521 19.9708   3
   8   1   7 287.016 35.3227   3
   8   1   9 266.327 71.5987   3
  -8  -2   7 59.0675 40.4424   3
  -8  -2   6 63.6244 41.1905   3
  -8  -2   5 189.873 23.2051   3
  -8  -2   3 158.202 19.2314   3
  -8  -2   2 17.6518 30.8778   3
   8   2  -1 231.337 14.5269   3
   8   2   0-10.8096 13.6765   3
   8   2   1 61.2378 16.6184   3
   8   2   2 1059.80 17.0829   3
  -8  -2  -3 248.786 28.7747   3
   8   2   4 350.968 18.6125   3
   8   2   6 11.8672 31.1452   3
   8   2   8 433.869 32.3967   3
   8   2   9 75.2108 68.7958   3
  -8  -3   7 4.05086 79.0058   3
  -8  -3   6 7.80033 26.8070   3
  -8  -3   5 695.371 32.5046   3
  -8  -3   4 388.680 19.1714   3
  -8  -3   2-2.97730 16.3826   3
  -8  -3   1 41.4586 18.7317   3
  -8  -3   0 141.152 14.1301   3
   8   3   1 566.278 14.6652   3
   8   3   2 603.622 15.0428   3
   8   3   3 1545.14 17.7381   3
  -8  -3  -4 169.052 29.0366   3
   8   3   5 24.1368 17.7563   3
   8   3   7 39.5611 32.4698   3
  -8  -3  -9 476.546 38.5618   3
   8   3  10 71.7870 52.8163   3
  -8  -4   7 152.954 82.7485   3
  -8  -4   6 25.0675 49.0130   3
  -8  -4   5-10.8361 28.2912   3
  -8  -4   4 875.856 30.3462   3
  -8  -4   3 729.342 19.8085   3
  -8  -4   1 12.9764 14.4940   3
  -8  -4   0 87.2015 14.1419   3
   8   4   1 4.83508 13.6988   3
   8   4   2 720.836 14.8457   3
   8   4   3 362.432 14.7342   3
   8   4   4 528.746 15.2259   3
  -8  -4  -5 118.823 37.3771   3
   8   4   6-6.33538 24.4783   3
   8   4   8 169.722 32.9187   3
   8   4  10 320.818 52.4343   3
  -8  -5   6 31.5831 33.2464   3
  -8  -5   5 154.034 46.6725   3
  -8  -5   4 307.997 23.1356   3
  -8  -5   3 944.739 28.2856   3
  -8  -5   2 18.1226 15.3421   3
  -8  -5   1 2.53675 31.0274   3
  -8  -5   0 172.313 14.5334   3
  -8  -5  -1 51.4736 14.0858   3
   8   5   2 276.597 14.2464   3
   8   5   3 920.171 15.2664   3
  -8  -5  -4 413.014 20.9120   3
  -8  -5  -5 377.295 16.6938   3
  -8  -5  -6 138.585 43.8737   3
   8   5   7-10.2946 26.3951   3
   8   5   9 516.430 34.1071   3
  -8  -5 -10 241.482 83.0986   3
  -8  -6   5 24.0767 31.4825   3
  -8  -6   4 259.208 29.3883   3
  -8  -6   3 273.139 24.3103   3
  -8  -6   2 1033.97 37.6435   3
  -8  -6   1 21.7181 15.0093   3
  -8  -6   0 53.5229 44.2133   3
  -8  -6  -1 71.7431 14.5594   3
  -8  -6  -2 301.622 14.8001   3
  -8  -6  -3 255.608 16.5644   3
  -8  -6  -4 1240.94 20.0421   3
  -8  -6  -5 78.8274 18.0826   3
  -8  -6  -6 1.08512 19.4774   3
  -8  -6  -8 46.8672 33.5927   3
   8   6  10 308.182 69.0885   3
   8   7  -5 78.4577 58.1653   3
  -8  -7   4 51.5497 31.2778   3
  -8  -7   3 720.684 34.5308   3
  -8  -7   2 399.706 20.4773   3
  -8  -7   1 213.156 35.7065   3
  -8  -7   0 43.4708 17.1594   3
  -8  -7  -1 32.1173 33.5905   3
  -8  -7  -2 34.3928 16.9465   3
  -8  -7  -3 588.689 18.0467   3
  -8  -7  -4 482.645 19.6185   3
  -8  -7  -5 234.022 18.5488   3
  -8  -7  -6 30.7462 24.7297   3
  -8  -7  -7 5.94772 24.9797   3
   8   7   9 240.103 48.1543   3
   8   7  10 13.9983 68.6688   3
  -8  -8   3 348.711 36.4791   3
  -8  -8   2 706.562 64.4906   3
  -8  -8   1 60.3021 20.8379   3
  -8  -8   0 11.9545 30.2955   3
  -8  -8  -1 82.3592 21.0210   3
  -8  -8  -2 161.474 53.3004   3
  -8  -8  -3 282.411 20.2609   3
  -8  -8  -4 840.436 24.5352   3
  -8  -8  -5 289.356 20.5756   3
  -8  -8  -6 119.624 25.9556   3
  -8  -8  -7 62.7162 33.0862   3
   8   8   8-2.00679 36.9668   3
  -8  -9   2 245.358 26.1015   3
  -8  -9   1 331.266 66.2898   3
  -8  -9   0 30.4119 24.0919   3
  -8  -9  -1 11.5364 58.6795   3
  -8  -9  -2 5.69873 23.2228   3
  -8  -9  -3 440.228 58.8837   3
  -8  -9  -4 651.350 44.7979   3
  -8  -9  -5 824.460 63.4573   3
  -8  -9  -6 9.11015 45.4820   3
  -8  -9  -7 23.8049 32.1241   3
  -8  -9  -8 11.1300 71.2465   3
   8  10  -1 129.426 48.0631   3
  -8 -10  -1 20.0030 27.0211   3
  -8 -10  -3-3.25229 32.3377   3
  -8 -10  -5 364.774 69.6715   3
  -8 -10  -6 60.9038 51.2621   3
   9  -2  -3 402.547 59.1423   3
   9  -2  -2 71.9407 54.4086   3
   9  -2  -1 71.4232 37.6523   3
   9  -2   1 67.1433 32.9021   3
   9  -2   3 777.170 47.2170   3
   9  -2   4 96.2167 46.9982   3
  -9   1   4 333.362 78.6135   3
   9  -1  -3 318.298 31.9785   3
   9  -1  -2 653.996 31.3213   3
  -9   1   1-14.2232 33.3290   3
   9  -1   0 26.8178 33.5776   3
   9  -1   2 139.234 27.4386   3
   9  -1   4 664.505 30.5696   3
   9  -1   5 9.33911 86.8311   3
   9   0  -4 69.2246 31.1402   3
   9   0  -3 756.917 30.1242   3
   9   0  -2 91.5359 25.5678   3
   9   0  -1 205.898 27.3040   3
  -9   0   0 4.17671 29.9335   3
  -9   0  -1 97.8770 24.0592   3
   9   0   3 714.496 29.3442   3
   9   0   5 219.370 30.8583   3
   9   0   6-96.0500 80.1597   3
  -9  -1   5 57.4454 41.8677   3
   9   1  -3 330.970 27.0719   3
   9   1  -2 613.901 24.9155   3
   9   1  -1 184.581 23.4894   3
  -9  -1   0 74.2961 24.5935   3
  -9  -1  -1 153.576 30.8852   3
   9   1   2 41.1949 22.6156   3
   9   1   4 988.303 31.2650   3
   9   1   6 118.356 34.4521   3
  -9  -2   6 11.7725 52.0019   3
  -9  -2   5 15.7359 69.5530   3
   9   2  -4-15.0425 28.0606   3
  -9  -2   3 391.327 64.7486   3
   9   2  -2 173.360 22.9794   3
   9   2  -1 663.386 22.9184   3
   9   2   0 19.0003 19.2134   3
   9   2   1 0.67309 20.3780   3
  -9  -2  -2 90.8774 29.8079   3
   9   2   3 402.779 21.9222   3
   9   2   5 530.144 31.3673   3
   9   2   7 50.4688 34.4095   3
  -9  -2  -8 30.5974 78.0234   3
  -9  -3   6 69.1964 84.6249   3
  -9  -3   5 39.9419 27.4371   3
  -9  -3   4 53.5524 36.5395   3
  -9  -3   3 115.735 23.2145   3
  -9  -3   2 801.677 23.7396   3
   9   3  -1 256.885 21.9702   3
   9   3   0 105.247 19.1927   3
   9   3   1 76.2817 19.0827   3
   9   3   2-0.33213 19.9546   3
  -9  -3  -3 24.4307 28.7808   3
   9   3   4 774.994 23.9815   3
   9   3   6 256.780 31.7793   3
   9   3   8 7.44093 53.4911   3
  -9  -4   5 21.8570 49.2703   3
  -9  -4   4 36.1959 28.7038   3
  -9  -4   3 372.948 33.3495   3
  -9  -4   2 367.066 20.9103   3
  -9  -4   1 636.430 20.4564   3
   9   4   0 79.6386 17.3595   3
   9   4   1 15.0514 18.4512   3
   9   4   2 97.3202 18.5983   3
   9   4   3 112.406 19.6717   3
  -9  -4  -4 316.737 29.3905   3
  -9  -4  -5 668.430 29.7648   3
   9   4   7-0.84507 32.2515   3
  -9  -5   5 32.5477 78.8069   3
  -9  -5   4 27.2292 38.3619   3
  -9  -5   3 66.0131 26.0934   3
  -9  -5   2 610.245 28.6160   3
  -9  -5   1 582.657 20.5326   3
  -9  -5   0 497.746 18.1198   3
  -9  -5  -1 20.1641 17.1640   3
  -9  -5  -2-1.50435 16.8163   3
  -9  -5  -3 33.7713 20.7623   3
  -9  -5  -4 714.952 26.4914   3
  -9  -5  -5 959.365 41.2363   3
   9   5   6 715.195 31.8589   3
   9   5   8 33.1665 49.3431   3
  -9  -6   4 58.6739 47.1365   3
  -9  -6   3 5.04485 36.8553   3
  -9  -6   2 95.6306 23.1272   3
  -9  -6   1 758.544 34.3963   3
  -9  -6   0 90.4884 18.1599   3
  -9  -6  -1 6.91840 17.5018   3
  -9  -6  -2 79.2967 19.2110   3
  -9  -6  -3 9.35666 18.9799   3
  -9  -6  -4 373.982 27.5674   3
  -9  -6  -5 428.464 28.2396   3
  -9  -6  -6 137.442 66.3231   3
   9   6   7 25.0400 32.7097   3
  -9  -7   3-25.8617 44.8817   3
  -9  -7   2 454.914 37.4182   3
  -9  -7   1 454.869 24.1112   3
  -9  -7   0 482.398 34.3590   3
  -9  -7  -1 5.65983 22.6804   3
  -9  -7  -2 49.4743 20.2761   3
  -9  -7  -3 71.2326 20.4785   3
  -9  -7  -4 245.058 22.6098   3
  -9  -7  -5 175.683 25.4443   3
  -9  -7  -6 473.297 31.0741   3
  -9  -8   2 103.023 35.8841   3
  -9  -8   1 820.723 40.2319   3
  -9  -8   0 251.290 25.8226   3
  -9  -8  -1 155.325 36.5023   3
  -9  -8  -2 8.16872 24.3460   3
  -9  -8  -3 5.58203 24.3396   3
  -9  -8  -4 54.5722 22.2898   3
  -9  -8  -5 441.690 26.2685   3
  -9  -8  -6 297.111 29.8219   3
  -9  -8  -7 123.734 69.1929   3
   9   9  -1 88.5312 66.8054   3
  -9  -9   0 350.934 74.3660   3
  -9  -9  -1 91.7332 27.3625   3
  -9  -9  -2 10.1984 47.4417   3
  -9  -9  -3 41.9108 38.9416   3
  -9  -9  -4 38.2262 30.3870   3
  -9  -9  -5 254.532 49.2681   3
  -9  -9  -6 366.131 52.0748   3
   9  10   2 9.62737 57.0569   3
  10   0  -2 92.0833 56.9415   3
  10   0  -1 128.670 78.6207   3
  10   0   2-20.9425 52.8265   3
  10   0   4 74.4290 76.0556   3
  10   1  -2-13.2539 53.2210   3
 -10  -1   1 679.913 32.8115   3
 -10  -1   0 363.955 49.4206   3
  10   1   1 356.569 31.6567   3
  10   1   3 15.8709 40.6001   3
 -10  -2   3 128.563 71.1457   3
 -10  -2   2 163.501 31.2976   3
 -10  -2   1 369.517 28.2272   3
  10   2   0 660.137 28.1592   3
  10   2   1 152.515 47.4098   3
  10   2   2 1.92120 26.3945   3
  10   2   4 79.1456 53.8931   3
  10   2   5 52.4375 80.2587   3
 -10  -3   4 49.5453 73.1686   3
 -10  -3   3 31.6341 73.2882   3
 -10  -3   2-13.5826 27.8934   3
 -10  -3   1 320.641 27.5602   3
  10   3   0 250.448 26.7506   3
  10   3   1 252.520 26.1921   3
  10   3   2 25.8564 44.9199   3
  10   3   3-4.74409 29.4254   3
  10   3   5 94.1432 52.0805   3
 -10  -4   4-27.8339 79.5659   3
  10   4  -3 89.1869 49.7325   3
  10   4  -2 22.2929 30.4732   3
  10   4  -1 85.9871 26.7428   3
  10   4   0 702.416 26.9732   3
  10   4   1 243.918 25.5482   3
  10   4   2 132.928 23.2334   3
 -10  -4  -3 4.20067 56.5593   3
 -10  -4  -4-0.41312 38.0553   3
 -10  -5   3-17.4619 74.3074   3
  10   5  -2 5.66168 33.4310   3
  10   5  -1 351.601 29.5935   3
  10   5   0 400.507 25.9602   3
  10   5   1 384.766 23.6864   3
  10   5   2 14.6904 24.9243   3
  10   5   3 27.0306 25.5586   3
 -10  -5  -4-0.80583 61.1734   3
  10   5   5 88.0160 34.5870   3
 -10  -6   3 153.777 81.5275   3
 -10  -6   2 78.8148 50.3015   3
  10   6  -1 2.86591 30.0788   3
  10   6   0 287.017 29.3098   3
  10   6   1 243.988 25.6769   3
  10   6   2 154.049 25.7101   3
  10   6   3-0.29916 25.9073   3
 -10  -6  -4 33.5141 29.0989   3
 -10  -6  -5-10.8131 62.6125   3
  10   7  -2-9.01808 63.9022   3
 -10  -7   1 111.698 52.5159   3
 -10  -7   0 149.971 31.0772   3
  10   7   1 342.318 30.8447   3
  10   7   2 39.7489 33.8095   3
  10   7   3 74.8228 26.7387   3
 -10  -7  -4 12.9475 37.2806   3
 -10  -7  -5 14.2397 62.9635   3
 -10  -8   0 169.709 55.5744   3
 -10  -8  -1 183.654 36.9882   3
 -10  -8  -2 222.627 41.5367   3
 -10  -8  -3 41.2583 49.6993   3
 -10  -8  -4-25.4254 71.0759   3
 -10  -8  -5 33.2013 78.8667   3
  10   9   3 39.8540 80.1343   3
;
_shelx_hkl_checksum              57553
loop_
_space_group_symop_operation_xyz
'x, y, z'
'-x, -y, -z'
loop_
_atom_site_label
_atom_site_type_symbol
_atom_site_fract_x
_atom_site_fract_y
_atom_site_fract_z
_atom_site_U_iso_or_equiv
_atom_site_adp_type
_atom_site_occupancy
_atom_site_site_symmetry_order
_atom_site_calc_flag
_atom_site_refinement_flags_posn
_atom_site_refinement_flags_adp
_atom_site_refinement_flags_occupancy
Ru1 Ru 0.0000 1.0000 0.5000 0.01303(17) Uani 1 2 d S . P
Br1 Br 0.28850(8) 1.03761(7) 0.34474(6) 0.01720(18) Uani 1 1 d . . .
N1 N 0.1312(7) 0.7305(6) 0.5259(5) 0.0146(9) Uani 1 1 d . . .
N2 N -0.0929(7) 0.9426(6) 0.3146(5) 0.0143(8) Uani 1 1 d . . .
C1 C 0.2097(8) 0.6186(7) 0.6517(6) 0.0175(10) Uani 1 1 d . . .
H1 H 0.1943 0.6610 0.7416 0.021 Uiso 1 1 calc R U .
C2 C 0.3123(8) 0.4433(8) 0.6532(7) 0.0193(11) Uani 1 1 d . . .
H2 H 0.3663 0.3700 0.7418 0.023 Uiso 1 1 calc R U .
C3 C 0.3328(8) 0.3793(8) 0.5209(7) 0.0203(11) Uani 1 1 d . . .
H3 H 0.4041 0.2626 0.5184 0.024 Uiso 1 1 calc R U .
C4 C 0.2458(8) 0.4909(7) 0.3909(7) 0.0182(11) Uani 1 1 d . . .
H4 H 0.2558 0.4495 0.3012 0.022 Uiso 1 1 calc R U .
C5 C 0.1440(8) 0.6649(7) 0.3976(6) 0.0151(10) Uani 1 1 d . . .
C6 C 0.0228(8) 0.7856(7) 0.2766(6) 0.0149(10) Uani 1 1 d . . .
C7 C 0.0022(9) 0.7418(8) 0.1399(6) 0.0184(11) Uani 1 1 d . . .
H7 H 0.0863 0.6377 0.1132 0.022 Uiso 1 1 calc R U .
C8 C -0.1420(9) 0.8519(8) 0.0447(7) 0.0219(12) Uani 1 1 d . . .
H8 H -0.1556 0.8242 -0.0472 0.026 Uiso 1 1 calc R U .
C9 C -0.2678(9) 1.0064(8) 0.0887(7) 0.0195(11) Uani 1 1 d . . .
H9 H -0.3702 1.0807 0.0286 0.023 Uiso 1 1 calc R U .
C10 C -0.2381(8) 1.0469(7) 0.2224(6) 0.0174(10) Uani 1 1 d . . .
H10 H -0.3215 1.1505 0.2504 0.021 Uiso 1 1 calc R U .
Br2 Br 0.5000 0.5000 0.0000 0.0269(2) Uani 1 2 d S . P
loop_
_atom_site_aniso_label
_atom_site_aniso_U_11
_atom_site_aniso_U_22
_atom_site_aniso_U_33
_atom_site_aniso_U_23
_atom_site_aniso_U_13
_atom_site_aniso_U_12
Ru1 0.0147(3) 0.0108(3) 0.0120(3) -0.0034(2) -0.0017(2) -0.0010(2)
Br1 0.0176(3) 0.0165(3) 0.0163(3) -0.0037(2) -0.00092(19) -0.0036(2)
N1 0.016(2) 0.014(2) 0.015(2) -0.0050(17) -0.0002(16) -0.0040(17)
N2 0.016(2) 0.013(2) 0.013(2) -0.0039(16) -0.0020(16) -0.0021(17)
C1 0.020(3) 0.016(2) 0.016(3) -0.002(2) -0.006(2) -0.004(2)
C2 0.018(3) 0.017(3) 0.020(3) 0.001(2) -0.006(2) -0.003(2)
C3 0.018(3) 0.011(2) 0.030(3) -0.004(2) -0.004(2) -0.001(2)
C4 0.018(2) 0.015(2) 0.023(3) -0.009(2) 0.000(2) -0.003(2)
C5 0.016(2) 0.012(2) 0.016(2) -0.0056(19) -0.0014(19) -0.002(2)
C6 0.018(2) 0.013(2) 0.013(2) -0.0034(19) -0.0008(19) -0.004(2)
C7 0.024(3) 0.016(3) 0.016(3) -0.006(2) 0.000(2) -0.006(2)
C8 0.032(3) 0.021(3) 0.014(3) -0.006(2) 0.000(2) -0.010(3)
C9 0.021(3) 0.021(3) 0.018(3) -0.001(2) -0.007(2) -0.007(2)
C10 0.019(2) 0.014(2) 0.017(3) -0.003(2) -0.003(2) -0.003(2)
Br2 0.0268(5) 0.0269(5) 0.0161(4) -0.0058(3) -0.0022(3) 0.0062(4)
loop_
_atom_type_symbol
_atom_type_description
_atom_type_scat_dispersion_real
_atom_type_scat_dispersion_imag
_atom_type_scat_source
C C 0.0033 0.0016 'International Tables Vol C Tables 4.2.6.8 and 6.1.1.4'
H H 0.0000 0.0000 'International Tables Vol C Tables 4.2.6.8 and 6.1.1.4'
Cl Cl 0.1484 0.1585 'International Tables Vol C Tables 4.2.6.8 and 6.1.1.4'
Ru Ru -1.2594 0.8363 'International Tables Vol C Tables 4.2.6.8 and 6.1.1.4'
Br Br -0.2901 2.4595 'International Tables Vol C Tables 4.2.6.8 and 6.1.1.4'
N N 0.0061 0.0033 'International Tables Vol C Tables 4.2.6.8 and 6.1.1.4'
loop_
_geom_angle_atom_site_label_1
_geom_angle_atom_site_label_2
_geom_angle_atom_site_label_3
_geom_angle
_geom_angle_site_symmetry_1
_geom_angle_site_symmetry_3
N2 Ru1 N2 180.0 . 2_576
N2 Ru1 N1 102.82(17) . 2_576
N2 Ru1 N1 77.18(17) 2_576 2_576
N2 Ru1 N1 77.18(17) . .
N2 Ru1 N1 102.82(17) 2_576 .
N1 Ru1 N1 180.0 2_576 .
N2 Ru1 Br1 90.88(13) . 2_576
N2 Ru1 Br1 89.12(13) 2_576 2_576
N1 Ru1 Br1 89.55(13) 2_576 2_576
N1 Ru1 Br1 90.45(13) . 2_576
N2 Ru1 Br1 89.12(13) . .
N2 Ru1 Br1 90.88(13) 2_576 .
N1 Ru1 Br1 90.45(13) 2_576 .
N1 Ru1 Br1 89.55(13) . .
Br1 Ru1 Br1 180.0 2_576 .
C1 N1 C5 118.0(5) . .
C1 N1 Ru1 127.3(4) . .
C5 N1 Ru1 114.6(4) . .
C10 N2 C6 118.2(5) . .
C10 N2 Ru1 127.8(4) . .
C6 N2 Ru1 113.8(3) . .
N1 C1 C2 122.9(5) . .
C3 C2 C1 118.8(5) . .
C2 C3 C4 119.4(5) . .
C5 C4 C3 118.8(5) . .
N1 C5 C4 121.9(5) . .
N1 C5 C6 114.6(5) . .
C4 C5 C6 123.0(5) . .
N2 C6 C7 120.9(5) . .
N2 C6 C5 114.4(5) . .
C7 C6 C5 124.2(5) . .
C8 C7 C6 120.2(5) . .
C7 C8 C9 118.7(5) . .
C10 C9 C8 119.1(5) . .
N2 C10 C9 122.8(5) . .
loop_
_geom_bond_atom_site_label_1
_geom_bond_atom_site_label_2
_geom_bond_distance
_geom_bond_site_symmetry_2
Ru1 N2 2.076(5) .
Ru1 N2 2.076(5) 2_576
Ru1 N1 2.077(5) 2_576
Ru1 N1 2.077(5) .
Ru1 Br1 2.4561(5) 2_576
Ru1 Br1 2.4561(5) .
N1 C1 1.346(7) .
N1 C5 1.360(7) .
N2 C10 1.351(7) .
N2 C6 1.373(7) .
C1 C2 1.383(8) .
C2 C3 1.379(9) .
C3 C4 1.392(8) .
C4 C5 1.386(7) .
C5 C6 1.457(8) .
C6 C7 1.395(8) .
C7 C8 1.375(9) .
C8 C9 1.398(8) .
C9 C10 1.378(8) .
loop_
_geom_torsion_atom_site_label_1
_geom_torsion_atom_site_label_2
_geom_torsion_atom_site_label_3
_geom_torsion_atom_site_label_4
_geom_torsion
C5 N1 C1 C2 4.1(8)
Ru1 N1 C1 C2 -173.0(4)
N1 C1 C2 C3 -1.0(9)
C1 C2 C3 C4 -1.7(8)
C2 C3 C4 C5 1.3(8)
C1 N1 C5 C4 -4.5(8)
Ru1 N1 C5 C4 173.0(4)
C1 N1 C5 C6 168.2(5)
Ru1 N1 C5 C6 -14.4(6)
C3 C4 C5 N1 1.8(8)
C3 C4 C5 C6 -170.2(5)
C10 N2 C6 C7 5.5(7)
Ru1 N2 C6 C7 -168.5(4)
C10 N2 C6 C5 -166.5(5)
Ru1 N2 C6 C5 19.5(6)
N1 C5 C6 N2 -3.4(7)
C4 C5 C6 N2 169.1(5)
N1 C5 C6 C7 -175.1(5)
C4 C5 C6 C7 -2.6(9)
N2 C6 C7 C8 -3.5(8)
C5 C6 C7 C8 167.7(5)
C6 C7 C8 C9 -0.8(8)
C7 C8 C9 C10 2.8(8)
C6 N2 C10 C9 -3.5(8)
Ru1 N2 C10 C9 169.6(4)
C8 C9 C10 N2 -0.7(8)
