#------------------------------------------------------------------------------
#$Date: 2019-11-25 20:07:08 +0200 (Mon, 25 Nov 2019) $
#$Revision: 241696 $
#$URL: file:///home/coder/svn-repositories/cod/cif/4/13/15/4131505.cif $
#------------------------------------------------------------------------------
#
# This file is available in the Crystallography Open Database (COD),
# http://www.crystallography.net/
#
# All data on this site have been placed in the public domain by the
# contributors.
#
data_4131505
loop_
_publ_author_name
'Zhang, Wan-Ying'
'Tang, Yuan-Yuan'
'Li, Peng-Fei'
'Shi, Ping-Ping'
'Liao, Wei-Qiang'
'Fu, Da-Wei'
'Ye, Heng-Yun'
'Zhang, Yi'
'Xiong, Ren-Gen'
_publ_section_title
;
 Precise Molecular Design of High-T<sub>c</sub> 3D Organic-Inorganic
 Perovskite Ferroelectric: [MeHdabco]RbI<sub>3</sub> (MeHdabco =
 N-Methyl-1,4-diazoniabicyclo[2.2.2]octane).
;
_journal_issue                   31
_journal_name_full               'Journal of the American Chemical Society'
_journal_page_first              10897
_journal_page_last               10902
_journal_paper_doi               10.1021/jacs.7b06013
_journal_volume                  139
_journal_year                    2017
_chemical_formula_sum            'C6 H14 Cl3 N2 Rb'
_chemical_formula_weight         306.01
_space_group_crystal_system      cubic
_space_group_IT_number           221
_space_group_name_Hall           '-P 4 2 3'
_space_group_name_H-M_alt        'P m -3 m'
_audit_creation_method           SHELXL-2014/7
_cell_angle_alpha                90
_cell_angle_beta                 90
_cell_angle_gamma                90
_cell_formula_units_Z            1
_cell_length_a                   6.635(7)
_cell_length_b                   6.635(7)
_cell_length_c                   6.635(7)
_cell_measurement_reflns_used    1012
_cell_measurement_temperature    458(2)
_cell_measurement_theta_max      27.4894
_cell_measurement_theta_min      3.0612
_cell_volume                     292.1(5)
_computing_structure_refinement  'SHELXL-2014/7 (Sheldrick, 2014)'
_diffrn_ambient_temperature      458(2)
_diffrn_measured_fraction_theta_full 0.987
_diffrn_measured_fraction_theta_max 0.990
_diffrn_measurement_device_type  'Rigaku saturn 724'
_diffrn_radiation_type           MoK\a
_diffrn_radiation_wavelength     0.71073
_diffrn_reflns_av_R_equivalents  0.0456
_diffrn_reflns_av_unetI/netI     0.0152
_diffrn_reflns_Laue_measured_fraction_full 0.987
_diffrn_reflns_Laue_measured_fraction_max 0.990
_diffrn_reflns_limit_h_max       8
_diffrn_reflns_limit_h_min       -8
_diffrn_reflns_limit_k_max       7
_diffrn_reflns_limit_k_min       -8
_diffrn_reflns_limit_l_max       8
_diffrn_reflns_limit_l_min       -8
_diffrn_reflns_number            2105
_diffrn_reflns_point_group_measured_fraction_full 0.987
_diffrn_reflns_point_group_measured_fraction_max 0.990
_diffrn_reflns_theta_full        25.242
_diffrn_reflns_theta_max         27.434
_diffrn_reflns_theta_min         3.070
_exptl_absorpt_coefficient_mu    4.879
_exptl_absorpt_correction_T_max  1.0000
_exptl_absorpt_correction_T_min  0.7035
_exptl_absorpt_correction_type   multi-scan
_exptl_crystal_colour            COLORLESS
_exptl_crystal_density_diffrn    1.740
_exptl_crystal_description       BLOCK
_exptl_crystal_F_000             152
_exptl_crystal_size_max          0.20
_exptl_crystal_size_mid          0.15
_exptl_crystal_size_min          0.12
_refine_diff_density_max         0.681
_refine_diff_density_min         -0.627
_refine_diff_density_rms         0.113
_refine_ls_extinction_method     none
_refine_ls_goodness_of_fit_ref   1.032
_refine_ls_hydrogen_treatment    undef
_refine_ls_matrix_type           full
_refine_ls_number_parameters     8
_refine_ls_number_reflns         97
_refine_ls_number_restraints     0
_refine_ls_restrained_S_all      1.032
_refine_ls_R_factor_all          0.0648
_refine_ls_R_factor_gt           0.0648
_refine_ls_shift/su_max          0.023
_refine_ls_shift/su_mean         0.007
_refine_ls_structure_factor_coef Fsqd
_refine_ls_weighting_details
'w=1/[\s^2^(Fo^2^)+(0.1485P)^2^+0.4806P] where P=(Fo^2^+2Fc^2^)/3'
_refine_ls_weighting_scheme      calc
_refine_ls_wR_factor_gt          0.1920
_refine_ls_wR_factor_ref         0.1920
_reflns_Friedel_coverage         0.000
_reflns_number_gt                97
_reflns_number_total             97
_reflns_threshold_expression     'I > 2\s(I)'
_cod_data_source_file            ja7b06013_si_007.cif
_cod_data_source_block           shelxl
_cod_depositor_comments
;
The following automatic conversions were performed:

data item '_exptl_absorpt_correction_type' value 'Multi-scan' was
changed to 'multi-scan' in accordance with the
/home/saulius/struct/COD-crude-data/automatic-downloads/DataCite-retrospective/ACS/depositions/lib/dictionaries/cif_core.dic
dictionary named 'cif_core.dic' version 2.4.2 last updated on
2011-04-26.

Automatic conversion script
Id: cif_fix_values 6909 2019-04-08 15:41:33Z antanas 
;
_cod_original_cell_volume        292.1(9)
_cod_database_code               4131505
_shelx_shelxl_version_number     2014/7
_shelx_space_group_comment
;
The symmetry employed for this shelxl refinement is uniquely defined
by the following loop, which should always be used as a source of
symmetry information in preference to the above space-group names.
They are only intended as comments.
;
_shelx_res_file
;

    shelxl.res created by SHELXL-2014/7


TITL shelxl in P432                   New: Pm-3m
CELL  0.71073    6.6350    6.6350    6.6350    90.000    90.000    90.000
ZERR        1    0.0070    0.0070    0.0070     0.000     0.000     0.000
LATT   1
SYMM             - Y ,              X ,              Z
SYMM             - X ,            - Y ,              Z
SYMM               Y ,            - X ,              Z
SYMM               X ,            - Y ,            - Z
SYMM               Y ,              X ,            - Z
SYMM             - X ,              Y ,            - Z
SYMM             - Y ,            - X ,            - Z
SYMM               Z ,              X ,              Y
SYMM             - X ,              Z ,              Y
SYMM             - Z ,            - X ,              Y
SYMM               X ,            - Z ,              Y
SYMM               Z ,            - X ,            - Y
SYMM               X ,              Z ,            - Y
SYMM             - Z ,              X ,            - Y
SYMM             - X ,            - Z ,            - Y
SYMM               Y ,              Z ,              X
SYMM             - Z ,            - Y ,            - X
SYMM             - Z ,              Y ,              X
SYMM               Z ,              Y ,            - X
SYMM               Z ,            - Y ,              X
SYMM               Y ,            - Z ,            - X
SYMM             - Y ,            - Z ,              X
SYMM             - Y ,              Z ,            - X
SFAC  C  H Cl  N Rb
UNIT    6   14   3   2   1
TEMP   185
L.S. 5
FMAP 2
PLAN -20
ACTA
BOND $H
CONF
WGHT    0.148500    0.480600
FVAR      24.63684
RESI 0
RB1   5    0.000000    0.000000    0.000000    10.02083    0.05878    0.05878 =
         0.05878    0.00000    0.00000    0.00000
CL1   3    0.500000    0.000000    0.000000    10.06250    0.05680    0.18713 =
         0.18713    0.00000    0.00000    0.00000
C1    1    0.342214    0.500000    0.342214    10.22222    0.24242    0.13908 =
         0.24242    0.00000   -0.15226    0.00000
HKLF 4 1  1.0000  0.0000  0.0000  0.0000 -1.0000  0.0000  0.0000  0.0000 -1.0000

REM  shelxl in P432                   New: Pm-3m
REM R1 =  0.0648 for      97 Fo > 4sig(Fo)  and  0.0648 for all      97 data
REM      8 parameters refined using      0 restraints

END

WGHT      0.0842      0.6447

REM Highest difference peak  0.681,  deepest hole -0.627,  1-sigma level  0.113
Q1    1  -0.5000  0.0000  0.0843  10.25000  0.05    0.68
Q2    1  -0.5000  0.2753  0.0000  10.25000  0.05    0.22
Q3    1  -0.5000  0.2771  0.1040  10.50000  0.05    0.21
Q4    1  -0.5000  0.5000  0.0947  10.12500  0.05    0.21
Q5    1   0.2819  0.0000  0.0000  10.12500  0.05    0.20
Q6    1  -0.5000  0.0000  0.3821  10.25000  0.05    0.16
Q7    1   0.0000  0.2025  0.0000  10.12500  0.05    0.15
Q8    1  -0.5663  0.5000  0.0000  10.25000  0.05    0.15
Q9    1  -0.4397  0.1066  0.3509  11.00000  0.05    0.14
Q10   1   0.0000  0.2701  0.4366  10.50000  0.05    0.13
Q11   1  -0.5000  0.1523  0.3290  10.50000  0.05    0.13
Q12   1  -0.6054  0.3946  0.1094  10.50000  0.05    0.13
Q13   1  -0.5000  0.0899  0.2211  10.50000  0.05    0.13
Q14   1   0.0000  0.4049  0.2159  10.50000  0.05    0.11
Q15   1   0.3278  0.1864  0.0302  11.00000  0.05    0.11
Q16   1  -0.5000  0.1964  0.1338  10.50000  0.05    0.11
Q17   1   0.0000  0.3750  0.3300  10.50000  0.05    0.10
Q18   1   0.3312  0.0871  0.1318  11.00000  0.05    0.10
Q19   1   0.5000  0.0000  0.3303  10.25000  0.05    0.10
Q20   1   0.0000  0.3228  0.1383  10.50000  0.05    0.10
;
_shelx_res_checksum              56885
_shelx_hkl_file
;
   0   1   092239.58 2337.91   1-0.79776 0.79776 0.05345 0.05345-0.60059 0.60059
   0   0  -191100.57 2341.66   1-0.89488 0.89488 0.44307-0.44307-0.05348-0.05347
   0   0   184635.26 2095.94   1-0.86740 0.86740 0.49472-0.49472 0.05347 0.05348
  -1   0   092396.85 2329.29   1-0.05356-0.05356 0.55034-0.55034 0.83321-0.83321
   1   0   093304.89 2360.02   1 0.05356 0.05356 0.50895-0.50895 0.85912-0.85912
   0   1   090729.19 2484.75   1 0.46106-0.46106 0.05357 0.05357 0.88574-0.88574
   1   0   0100306.6 2477.49   1 0.05365 0.05365-0.67578 0.67578 0.73514-0.73514
  -1   0   090831.28 2203.35   1-0.05365-0.05365-0.78415 0.78415 0.61823-0.61823
   0   0   196543.97 2405.41   1-0.39473 0.39473-0.91723 0.91723 0.05357 0.05357
  -1   0   1614504.314613.83   1-0.75853 0.65163 0.00054-0.00054-0.65163 0.75853
   1   0   1649876.115454.16   1-0.48965 0.59676 0.63570-0.63570 0.59676-0.48965
   1  -1   0629252.514984.98   1 0.41719-0.31007 0.31007-0.41719 0.85428-0.85428
   0   1  -1629328.415217.94   1 0.55500-0.55500 0.63927-0.53225 0.53225-0.63927
   0  -1   1647715.015664.67   1 0.55749-0.55749 0.53107-0.63809 0.63809-0.53107
   1  -1   0678369.016180.88   1 0.55123-0.44422 0.44422-0.55123 0.70625-0.70625
   1   1   0638332.615281.30   1 0.34204-0.23474-0.23474 0.34204 0.90989-0.90989
  -1  -1   0614386.414672.34   1 0.26720-0.37450-0.37450 0.26720 0.88788-0.88788
   0  -1  -1554357.113173.81   1-0.02564 0.02564-0.75848 0.65118 0.65118-0.75848
  -1   0  -1643586.315301.95   1-0.31916 0.21201-0.92367 0.92367 0.21201-0.31916
  -1   1   1125280.6 3239.54   1-0.77362 0.66671 0.02006 0.08684-0.63332 0.74023
  -1  -1   1130447.3 3135.15   1-0.81375 0.70684 0.07735-0.18425-0.57604 0.68294
   1   1   1119605.6 3011.64   1-0.74315 0.85021 0.59213-0.48507 0.31160-0.20454
  -1   1  -1139835.2 3569.41   1-0.28453 0.17742 0.61310-0.50599 0.73697-0.84409
   1  -1   1131796.9 3349.50   1-0.09497 0.20211 0.56436-0.67149 0.82004-0.71290
  -1  -1   1130997.6 3143.43   1 0.35450-0.46161 0.35135-0.45847 0.86653-0.75941
  -1   1   1140265.8 3677.40   1 0.67184-0.77895 0.09838 0.00873 0.73413-0.62701
  -1   1  -1137472.2 3700.08   1 0.48910-0.59591 0.84905-0.74223 0.19973-0.30654
   1  -1   1144107.9 3816.08   1 0.53503-0.42822 0.75463-0.86144 0.37981-0.27300
   1   1  -1145232.2 4212.36   1 0.54164-0.43462 0.37246-0.26545 0.75358-0.86060
  -1  -1   1120565.5 3393.83   1 0.50101-0.60817 0.18391-0.29107 0.84567-0.73851
   1   1   1125893.0 3303.70   1 0.06907 0.03823-0.65797 0.76528 0.74986-0.64255
  -1  -1  -1130715.6 3298.03   1-0.03469-0.07261-0.76698 0.65968 0.64072-0.74802
   1  -1  -1137226.3 3303.12   1-0.09847 0.20578-0.82132 0.71402 0.56188-0.66919
   0  -1  -2793573.319062.26   1-0.90800 0.90800 0.30565-0.41261-0.28652 0.07260
   0  -1   2742509.417632.16   1-0.64419 0.64419 0.62215-0.72921 0.44489-0.23078
  -1   2   0789727.918855.43   1 0.38957-0.49668 0.32868-0.11444 0.86035-0.86035
   2   0  -1782654.018646.05   1 0.54026-0.32603 0.21808-0.21808 0.81274-0.91985
   1  -2   0726210.817547.44   1 0.47789-0.37074 0.10500-0.31931 0.87211-0.87211
   1   2   0738805.818194.92   1 0.41379-0.30663-0.07294 0.28726 0.90744-0.90744
   0  -1  -2746377.717785.38   1-0.25900 0.25900-0.91081 0.80365 0.32146-0.53577
   0  -2  -1760180.618195.61   1-0.84355 0.84355 0.12724-0.34105-0.52174 0.41483
   2   1   0804007.119112.95   1-0.15783 0.37210 0.58350-0.47636 0.79662-0.79662
  -2   1   0822764.119703.48   1 0.10851-0.32278 0.48486-0.37772 0.86783-0.86783
   1   0  -2887013.935573.28   1 0.45342-0.34661 0.88640-0.88640 0.09319-0.30682
  -1   0   2750520.818029.38   1 0.53953-0.64635 0.73909-0.73909 0.40328-0.18966
   0   2  -1874063.821355.51   1 0.55421-0.55421 0.47540-0.26136 0.68326-0.79027
   0   2   1851207.820412.23   1 0.30005-0.30005-0.31591 0.53052 0.90009-0.79278
   2   1   0823779.619731.60   1 0.29590-0.08129-0.32354 0.43084 0.89875-0.89875
   1   0   2751908.517968.36   1-0.28468 0.39183-0.91794 0.91794 0.27628-0.06197
   1  -1  -2108674.5 2956.01   1-0.80315 0.91006 0.06133-0.16823-0.59260 0.37879
   1   1  -2109965.6 2859.26   1-0.84550 0.95240 0.13080-0.02389-0.51770 0.30389
  -1  -1   2100883.0 2538.53   1-0.89831 0.79135 0.43341-0.54037-0.07201 0.28593
  -1  -1  -2118224.8 3232.15   1-0.87353 0.76657 0.48561-0.59257 0.03351-0.24743
   1   2   1101638.0 2696.26   1-0.84358 0.95064 0.52425-0.31014 0.11624-0.00919
  -2  -1  -1107951.8 3103.73   1-0.67320 0.45908 0.61567-0.72273 0.40955-0.51661
  -1   1  -2118086.4 3148.11   1-0.62643 0.51937 0.62535-0.51829 0.46530-0.67942
  -2   1  -1116431.5 3214.55   1-0.23921 0.02498 0.60352-0.49641 0.76061-0.86772
  -1   2  -1113670.7 3032.20   1-0.05375-0.05338 0.55040-0.33613 0.83316-0.94029
  -2  -1   1113351.7 2954.97   1-0.00316-0.21110 0.53178-0.63892 0.84687-0.73973
   1  -2   1109999.2 2868.67   1 0.26107-0.15394 0.40740-0.62167 0.87513-0.76799
  -2   1   1107936.2 3025.20   1 0.42013-0.63437 0.30804-0.20093 0.85357-0.74645
   2   1  -1110468.1 2776.92   1 0.43719-0.22295 0.29616-0.18905 0.84920-0.95632
  -1   2   1116453.1 3234.65   1 0.65528-0.76240 0.11503 0.09919 0.74656-0.63945
  -1   1  -2120933.2 3523.17   1 0.44310-0.54991 0.89408-0.78727 0.06527-0.27889
   2  -1   1105818.5 2915.59   1 0.48781-0.27419 0.85075-0.95757 0.19556-0.08875
   1   1  -2124645.9 3652.50   1 0.54913-0.44232 0.69614-0.58933 0.46242-0.67604
  -1   2  -1115110.1 3612.70   1 0.55040-0.65741 0.67878-0.46475 0.48611-0.59313
   1   2  -1108348.9 3548.41   1 0.52742-0.42040 0.29515-0.08112 0.79668-0.90370
   2   1  -1113769.5 3429.01   1 0.49833-0.28401 0.17413-0.06697 0.84931-0.95647
  -1   2   1108940.1 3025.31   1 0.40656-0.51372-0.09054 0.30486 0.90912-0.80196
   1   2   1115565.9 3813.44   1 0.24982-0.14252-0.40395 0.61856 0.88000-0.77269
   1  -2  -1105575.6 2703.07   1 0.19688-0.08958-0.48775 0.27314 0.85048-0.95779
   2   1   1117607.5 3167.17   1 0.09141 0.12320-0.63115 0.73846 0.77025-0.66294
   1   1   2106309.2 2841.65   1-0.07143 0.17874-0.79948 0.90679 0.59642-0.38180
  -1   1   2109036.4 2743.51   1-0.13106 0.02375-0.84524 0.95255 0.51805-0.30343
   2  -1   1110016.3 2865.44   1-0.36290 0.57720-0.92358 0.81642 0.12368-0.01653
   1  -1  -2106644.9 2685.88   1-0.36550 0.47265-0.92327 0.81612 0.11815-0.33246
   0  -2  -2858362.820822.29   1-0.88160 0.88160 0.20925-0.42306-0.42306 0.20925
  -2   0  -2804342.919626.52   1-0.65098 0.43686 0.62078-0.62078 0.43686-0.65098
   2   2   0879213.835162.44   1-0.41780 0.63202 0.63202-0.41780 0.65266-0.65266
   0  -2   2860677.020431.39   1-0.15616 0.15616 0.58302-0.79730 0.79730-0.58302
  -2   2   0949570.538142.97   1 0.21710-0.43137 0.43137-0.21710 0.87566-0.87566
  -2   0   2893073.535826.26   1 0.57945-0.79369 0.18516-0.18516 0.79369-0.57945
   2   0  -2999998.540079.01   1 0.51819-0.30456 0.79919-0.79919 0.30456-0.51819
  -2   2   0907284.936457.55   1 0.53642-0.75005 0.75005-0.53642 0.38686-0.38686
   0   2  -2833023.020739.46   1 0.55066-0.55066 0.68730-0.47368 0.47368-0.68730
  -2   0   2802281.319317.72   1 0.54120-0.75524 0.36974-0.36974 0.75524-0.54120
   2  -2   0846210.520853.23   1 0.53201-0.31797 0.31797-0.53201 0.78476-0.78476
   2   2   0922545.237313.26   1 0.37576-0.16144-0.16144 0.37576 0.91254-0.91254
   2   0   2870409.320909.26   1-0.20135 0.41566-0.88694 0.88694 0.41566-0.20135
   1  -2  -2681009.416573.81   1-0.76902 0.87593 0.01401-0.22782-0.63906 0.42525
  -2  -1   2639391.015334.77   1-0.83513 0.62132 0.11228-0.21919-0.53845 0.75226
  -2  -2  -1682589.516972.71   1-0.83733 0.62322 0.53057-0.74468 0.13176-0.23882
  -2  -1  -2672267.316599.73   1-0.77929 0.56518 0.57400-0.68106 0.25141-0.46552
  -1   2  -2714147.717145.67   1-0.45776 0.35065 0.63469-0.42047 0.62258-0.83680
  -2   2  -1685100.616629.78   1-0.08944-0.12482 0.56255-0.34828 0.82190-0.92904
  -2  -1   2674937.616134.52   1 0.46183-0.67606 0.27851-0.38562 0.84210-0.62787
  -2   2   1667752.116272.51   1 0.46008-0.67432 0.27978-0.06554 0.84263-0.73552
  -2   1   2676670.916448.36   1 0.61217-0.82641 0.15603-0.04891 0.77517-0.56093
  -2   2  -1657613.116056.76   1 0.49398-0.70760 0.84224-0.62862 0.21587-0.32268
  -1   2  -2725477.917989.75   1 0.51747-0.62428 0.80075-0.58712 0.30168-0.51531
  -2   1   2616271.514704.41   1 0.54217-0.75579 0.72888-0.62207 0.41806-0.20443
   2   1  -2735946.618133.32   1 0.55807-0.34404 0.57051-0.46349 0.60254-0.81658
  -2   2   1667945.416050.53   1 0.55013-0.76416 0.43428-0.22025 0.71326-0.60624
   2   2  -1721202.318223.22   1 0.49705-0.28273 0.16954 0.04477 0.85099-0.95815
   2   2   1718015.617710.66   1 0.23446-0.01985-0.42916 0.64377 0.87226-0.76495
   2  -2  -1642837.615427.12   1 0.21837-0.00376-0.45477 0.24016 0.86342-0.97072
  -1   2   2719905.717390.37   1 0.18289-0.29019-0.50851 0.72312 0.84140-0.62679
   1   2   2690976.516846.30   1 0.11321-0.00591-0.60404 0.81865 0.78886-0.57425
   1  -2  -2668613.315950.33   1-0.11824 0.22555-0.83615 0.62154 0.53559-0.75020
   2  -1   2716072.617349.74   1-0.35702 0.57133-0.92413 0.81697 0.13605 0.07825
  -2  -2   2564193.513441.48   1-0.90900 0.69508 0.31364-0.52756-0.27447 0.48839
  -2   2   2588991.314649.42   1 0.61125-0.82548 0.15687 0.05735 0.77572-0.56149
   2   2  -2652570.616514.13   1 0.55299-0.33896 0.46165-0.24761 0.69359-0.90762
  -2   2   2594727.414297.38   1 0.33249-0.54710-0.25387 0.46848 0.90829-0.69368
   2   2   2549046.613870.12   1 0.12087 0.09373-0.59416 0.80877 0.79520-0.58059
   2  -2  -2579607.513785.03   1-0.25048 0.46479-0.90794 0.69363 0.33599-0.55030
   0   3   0399931.3 9761.72   1-0.86061 0.86061 0.16035 0.16035-0.48335 0.48335
   0   0  -3424116.210697.75   1-0.90912 0.90912 0.38437-0.38437-0.16044-0.16043
   0   3   0464283.511262.57   1 0.60708-0.60708 0.16067 0.16067 0.77822-0.77822
   0   3   0453715.411862.31   1 0.49457-0.49457 0.16073 0.16073 0.85414-0.85414
   3   0   0438808.710599.21   1 0.16095 0.16095-0.53997 0.53997 0.82614-0.82614
   0   0   3420376.810388.24   1-0.34506 0.34506-0.92471 0.92471 0.16072 0.16072
  -1  -3   049953.80 1546.31   1-0.82620 0.71930 0.09722-0.41794-0.55491 0.55491
   0  -1  -349162.86 2355.47   1-0.90846 0.90846 0.30912-0.41608-0.28130-0.03957
   0   1  -352115.12 1956.94   1-0.88906 0.88906 0.45704-0.35008-0.02591-0.29496
   1   3   046930.90 1373.39   1-0.88152 0.98848 0.47210-0.15122 0.00485-0.00485
  -3   0  -150695.03 2124.55   1-0.40023 0.07890 0.63038-0.63038 0.66514-0.77226
  -3   0   150551.87 2233.74   1 0.11081-0.43222 0.48381-0.48381 0.86812-0.76099
  -1   3   049913.51 1870.31   1 0.40979-0.51690 0.31512 0.00622 0.85601-0.85601
  -1   3   052104.47 4588.79   1 0.53929-0.64631 0.35812-0.03707 0.76217-0.76217
   3   0  -149049.92 2041.57   1 0.47125-0.14977 0.08419-0.08419 0.87796-0.98512
   1   3   057362.31 5175.59   1 0.45213-0.34497 0.02788 0.29359 0.89151-0.89151
  -3   0   149849.20 1690.81   1 0.07203-0.39395-0.65449 0.65449 0.75263-0.64532
   3   0   151039.17 1677.65   1-0.03471 0.35664-0.76701 0.76701 0.64069-0.53338
   0  -2  -3338026.7 8796.83   1-0.89073 0.89073 0.23559-0.44940-0.38869 0.06797
  -2  -3   0331371.6 8166.80   1-0.91009 0.69617 0.37498-0.69585-0.17642 0.17642
   2   3   0315301.9 7697.16   1-0.59643 0.81054 0.62957-0.30840 0.49789-0.49789
  -3   0  -2337144.0 8649.80   1-0.57670 0.25536 0.63260-0.63260 0.51694-0.73116
  -2   3   0342159.6 8650.81   1 0.26207-0.47634 0.40684-0.08543 0.87509-0.87509
  -3   0   2328778.8 8266.90   1 0.34639-0.66774 0.35644-0.35644 0.86772-0.65349
   0   2  -3345792.9 9292.59   1 0.51760-0.51760 0.80046-0.58684 0.30221-0.62265
   3   0  -2358665.2 8949.87   1 0.54913-0.22808 0.68699-0.68699 0.47590-0.68993
  -2   3   0347877.5 9118.55   1 0.55731-0.77134 0.60341-0.28236 0.57034-0.57034
   2   3   0331244.1 9121.54   1 0.42304-0.20872-0.04984 0.37132 0.90473-0.90473
   0   2   3337326.9 8394.10   1 0.02368-0.02368-0.70878 0.92340 0.70502-0.38310
   3   0   2347167.0 8902.80   1-0.12156 0.44348-0.83854 0.83854 0.53109-0.31647
   0  -3  -150931.05 1915.52   1-0.78089 0.78089 0.02981-0.35052-0.62395 0.51705
   1   0  -351140.66 1859.85   1-0.86691 0.97382 0.17385-0.17385-0.46714 0.14643
  -3  -1   049260.67 1711.56   1-0.38822 0.06688 0.62910-0.73621 0.67343-0.67343
  -3   1   050191.53 2114.61   1-0.00150-0.31989 0.53115-0.42401 0.84727-0.84727
   0   3  -152138.63 1647.11   1 0.14223-0.14223 0.46909-0.14769 0.87161-0.97875
   3  -1   048689.31 1525.55   1 0.46886-0.14843 0.87255-0.97936 0.13717-0.13717
   0   3  -155347.84 3081.97   1 0.54835-0.54835 0.41949-0.09844 0.72341-0.83043
   3   1   053169.52 1921.13   1 0.29016 0.03174-0.33397 0.44127 0.89680-0.89680
   3  -1   050692.59 1517.01   1-0.09368 0.41560-0.81758 0.71027 0.56813-0.56813
   1   0   350139.41 1984.69   1-0.28599 0.39314-0.91824 0.91824 0.27391 0.04754
  -1   0   350010.78 1628.75   1-0.39807 0.29091-0.91620 0.91620 0.04589 0.27556
   1   1  -319753.67 1296.22   1-0.88263 0.98953 0.21200-0.10509-0.41953 0.09882
  -1  -3  -119051.87 1144.08   1-0.88950 0.78260 0.23176-0.55248-0.39377 0.28686
  -1  -1  -321117.26 2037.91   1-0.89360 0.78664 0.44638-0.55334-0.04702-0.27385
   1   3  -118767.51  597.43   1-0.85753 0.96459 0.50836-0.18719 0.07873-0.18579
  -1   1  -326768.36 1329.52   1-0.77752 0.67046 0.57502-0.46796 0.25457-0.57574
  -3   1  -119501.90 1710.02   1-0.24688-0.07445 0.60525-0.49813 0.75678-0.86389
  -3  -1   119204.30 1318.28   1-0.11583-0.20556 0.57100-0.67814 0.81273-0.70559
  -1   3  -120874.97 1444.50   1 0.06372-0.17086 0.50464-0.18324 0.86096-0.96810
  -3   1   122359.45 2700.83   1 0.23591-0.55732 0.42128-0.31415 0.87570-0.76856
   1   3  -118563.00  728.08   1 0.28778-0.18066 0.39175-0.07040 0.87390-0.98102
  -1   3   120787.69 1306.22   1 0.62174-0.72886 0.14720 0.17414 0.76926-0.66214
   1   1  -321403.12 1505.52   1 0.50322-0.39641 0.82784-0.72102 0.24786-0.56830
   1   3  -121144.30 2440.27   1 0.52585-0.41883 0.28772 0.03332 0.80043-0.90744
   3   1  -121512.18 1745.68   1 0.46678-0.14530 0.07058 0.03657 0.88155-0.98871
  -1   3   119144.08 1489.94   1 0.46161-0.56877 0.05521 0.26626 0.88535-0.77819
   1   3   120760.48 2353.85   1 0.34790-0.24059-0.22279 0.54471 0.91067-0.80336
   3   1   122720.24 2194.86   1 0.12605 0.19586-0.58739 0.69470 0.79942-0.69211
   1   1   320524.84 1193.55   1-0.12894 0.23625-0.84377 0.95108 0.52097-0.19904
  -1   1   319669.24  924.25   1-0.19365 0.08635-0.88343 0.99074 0.42665-0.10473
   3  -1   120211.32 1048.82   1-0.22781 0.54927-0.89917 0.79202 0.37361-0.26645
   1  -1   320542.25 1773.84   1-0.40602 0.51317-0.91345 0.80630 0.02730 0.29415
   1  -2  -363469.79 2926.45   1-0.81501 0.92191 0.07931-0.29312-0.57398 0.25327
  -2  -3   163295.38 1635.20   1-0.86525 0.65144 0.17020-0.49091-0.47155 0.57846
   1   2  -362696.61 1990.00   1-0.89049 0.99739 0.23482-0.02101-0.38972 0.06901
  -1  -2  -365535.72 2405.19   1-0.91067 0.80371 0.36661-0.58053-0.19042-0.13045
  -2  -3  -167129.50 2209.61   1-0.90685 0.69293 0.39962-0.72050-0.13387 0.02691
  -3  -1  -264659.82 4954.01   1-0.70104 0.37987 0.60780-0.71486 0.37296-0.58708
  -1   2  -364774.83 2100.28   1-0.69013 0.58307 0.61110-0.39698 0.38764-0.70881
  -1  -2   361358.33 1718.13   1-0.63718 0.53012 0.62348-0.83759 0.45305-0.13188
  -3   1  -262854.90 2154.77   1-0.45493 0.13360 0.63456-0.52744 0.62479-0.83901
  -2   3  -166612.93 2847.91   1-0.00172-0.21254 0.53123-0.20983 0.84722-0.95435
   2   3  -165236.83 1656.46   1 0.00988 0.20438 0.52672-0.20531 0.84998-0.95711
  -3  -1   267264.88 2209.45   1 0.18348-0.50489 0.44878-0.55592 0.87459-0.66032
  -2   3   161689.83 2412.58   1 0.46275-0.67699 0.27783 0.04351 0.84181-0.73470
  -1   2  -371252.80 3062.67   1 0.47848-0.58529 0.86224-0.64861 0.16610-0.48654
  -2   3  -163532.29 3299.69   1 0.53884-0.75246 0.74163-0.42119 0.39953-0.50634
   1   2  -367435.78 4584.68   1 0.54209-0.43528 0.72920-0.51557 0.41760-0.73804
   3   1  -264558.07 3608.39   1 0.55351-0.23246 0.46731-0.36030 0.68937-0.90340
  -2   3   160225.82 2356.76   1 0.53857-0.75260 0.35386-0.03281 0.76467-0.65765
   2   3  -171300.58 6048.98   1 0.50389-0.28957 0.19462 0.12685 0.84155-0.94871
   2   3   155968.70 3310.12   1 0.32502-0.11041-0.26856 0.59047 0.90677-0.79946
  -1   2   363662.26 1945.92   1 0.04197-0.14928-0.68889 0.90351 0.72364-0.40171
   1   2   360327.40 2091.00   1 0.02848 0.07882-0.70364 0.91825 0.70998-0.38806
   3   1   262239.18 2297.48   1 0.02023 0.30168-0.71244 0.81974 0.70143-0.48682
   3  -1   265035.25 2259.90   1-0.26334 0.58480-0.91217 0.80502 0.31397-0.09966
  -2   0  -3307644.9 8269.78   1-0.76422 0.55010 0.58219-0.58219 0.27752-0.59869
  -3  -2   0354353.5 8860.14   1-0.64643 0.32526 0.62171-0.83582 0.44226-0.44226
   0   3  -2342500.9 8381.28   1-0.47953 0.47953 0.63549-0.31416 0.60513-0.81935
  -3   2   0330928.0 8681.40   1 0.09514-0.41655 0.49090-0.27663 0.86600-0.86600
   0  -3   2331896.9 8015.55   1 0.36536-0.36536 0.34444-0.66579 0.86479-0.65056
  -2   0   3324439.1 8170.84   1 0.70773-0.92196 0.06024-0.06024 0.70390-0.38255
   2   0  -3366367.6 9119.29   1 0.44245-0.22882 0.89453-0.89453 0.06354-0.38397
   0   3  -2325745.2 9231.46   1 0.55707-0.55707 0.60857-0.28752 0.56506-0.77909
   3  -2   0328910.3 8209.60   1 0.55493-0.23388 0.48460-0.69863 0.67616-0.67616
   3   2   0352338.7 9173.81   1 0.36104-0.03957-0.19330 0.40762 0.91229-0.91229
   0   3   2349138.5 8948.92   1 0.27468-0.27468-0.36150 0.68341 0.89099-0.67638
   2   0   3327044.0 8362.27   1-0.22325 0.43755-0.89721 0.89721 0.38100-0.05954
   3  -2   0339685.2 8255.69   1-0.38155 0.70301-0.92058 0.70627 0.08327-0.08327
   1  -3  -262236.97 2481.91   1-0.72833 0.83524-0.03604-0.28467-0.68427 0.47046
  -1  -3  -262046.66 2215.80   1-0.90222 0.79526 0.27348-0.59436-0.33347 0.11955
  -2  -1  -369591.31 2631.91   1-0.83739 0.62327 0.53051-0.63757 0.13162-0.45279
  -3  -2  -164887.85 2360.64   1-0.74605 0.42488 0.59085-0.80497 0.30705-0.41411
  -2   1  -366433.85 2582.17   1-0.67608 0.46196 0.61494-0.50788 0.40590-0.72707
  -3  -2   165898.69 2032.16   1-0.46874 0.14740 0.63516-0.84938 0.61388-0.50676
  -1   3  -264938.84 2131.09   1-0.32175 0.21464 0.61983-0.29849 0.71573-0.92996
  -3   2  -166324.57 2559.58   1-0.13421-0.18719 0.57661-0.36234 0.80591-0.91305
   3   2  -164467.69 1887.75   1 0.27521 0.04619 0.39939-0.18512 0.87449-0.98162
  -3   2   163523.55 3017.99   1 0.29832-0.61973 0.38599-0.17172 0.87293-0.76579
  -2  -1   365361.23 2060.34   1 0.67500-0.88923 0.09513-0.20225 0.73165-0.41030
   2   1  -371186.70 2769.53   1 0.53104-0.31741 0.76686-0.66005 0.36042-0.68085
  -1   3  -263370.28 3158.70   1 0.54454-0.65135 0.71883-0.39840 0.43214-0.64576
   1   3  -267299.10 3808.34   1 0.55626-0.44924 0.50450-0.18345 0.66033-0.87436
   3   2  -169328.75 3357.46   1 0.47580-0.15432 0.09836 0.11595 0.87403-0.98119
  -1   3   266039.57 2331.00   1 0.33787-0.44517-0.24315 0.56507 0.90923-0.69462
   1   3   259654.36 2237.44   1 0.24308-0.13577-0.41511 0.73702 0.87669-0.66208
   3   2   166090.71 2538.40   1 0.23945 0.08245-0.42105 0.63566 0.87485-0.76755
   3  -2  -161972.41 1501.05   1 0.13146 0.19044-0.58024 0.36563 0.80376-0.91106
   2   1   361637.64 2375.10   1-0.08591 0.30053-0.81140 0.91871 0.57813-0.25620
  -2   1   366717.06 1950.13   1-0.20535-0.00894-0.88892 0.99608 0.40942-0.08796
   2  -1   364892.55 2335.21   1-0.34094 0.55525-0.92475 0.81760 0.16907 0.15238
   3  -2   164931.12 2147.45   1-0.38677 0.70823-0.91938 0.70508 0.07163 0.03552
  -3  -2   2153491.2 3865.96   1-0.73581 0.41509-0.02726-0.18654-0.67663 0.89044
  -2  -3  -2166998.5 4830.11   1-0.90751 0.69359 0.39575-0.71663-0.14069-0.07322
  -2  -2  -3177511.1 5228.68   1-0.88736 0.67344 0.46068-0.67460-0.01859-0.30228
  -2  -2   3172100.1 4312.85   1-0.86667 0.65275 0.49575-0.70967 0.05577 0.26510
  -3  -2  -2187416.1 8708.91   1-0.80685 0.48568 0.55618-0.77030 0.19910-0.41321
  -2   2  -3167498.8 4717.14   1-0.58549 0.37127 0.63175-0.41752 0.50801-0.82935
  -3   2  -2173848.0 4919.10   1-0.35196 0.03063 0.62449-0.41027 0.69722-0.91144
  -2   3  -2177060.5 4849.28   1-0.27801 0.06379 0.61182-0.29048 0.74052-0.95475
  -3  -2   2175948.9 4433.12   1-0.16457-0.15683 0.58539-0.79967 0.79386-0.57959
  -3   2   2180322.6 5330.85   1 0.45097-0.77232 0.28636-0.07213 0.84534-0.63111
  -2  -2   3173638.0 4324.84   1 0.54667-0.76091 0.21283-0.42707 0.80984-0.48849
  -2   3   2177690.5 5091.69   1 0.59231-0.80655 0.17390 0.14744 0.78671-0.57247
  -2   2   3175607.0 5105.19   1 0.69400-0.90823 0.07518 0.13904 0.71603-0.39468
  -2   3  -2166144.7 5128.72   1 0.50828-0.72190 0.81899-0.49856 0.26625-0.47988
   2   2  -3173306.1 8922.02   1 0.55266-0.33862 0.66186-0.44782 0.50646-0.82751
   2   3  -2181156.0 5982.62   1 0.54838-0.33435 0.41977-0.09872 0.72322-0.93726
   3   2  -2176709.7 8124.01   1 0.54360-0.22255 0.38516-0.17112 0.74574-0.95978
  -2   3   2172744.6 5628.66   1 0.44224-0.65656 0.00052 0.32095 0.89689-0.68257
   2   3   2181664.6 5608.03   1 0.23270-0.01809-0.43199 0.75391 0.87133-0.65672
   3   2   2178313.0 5804.35   1 0.14121 0.18069-0.56718 0.78178 0.81139-0.59678
  -2   2   3169976.2 4345.81   1 0.10672-0.32133-0.61230 0.82691 0.78338-0.46147
   2   2   3179410.5 4988.05   1 0.04683 0.16777-0.68347 0.89809 0.72846-0.40654
   2  -3  -2169553.9 4253.97   1-0.02255 0.23717-0.75554 0.43362 0.65470-0.86932
   3  -2   2179428.9 4943.09   1-0.37542 0.69688-0.92178 0.70748 0.09675 0.11755
   2  -2  -3171195.1 4295.98   1-0.40090 0.61521-0.91527 0.70096 0.03930-0.36076
   2  -2   3171682.7 4983.67   1-0.42431 0.63861-0.90535 0.69104-0.01709 0.33855
   0  -3  -332268.13 1791.31   1-0.86111 0.86111 0.16139-0.48211-0.48211 0.16139
  -3  -3   033026.36 1459.61   1-0.84448 0.52331 0.52331-0.84448 0.11396-0.11396
   0   3  -331440.73 1185.67   1-0.77812 0.77812 0.57468-0.25351 0.25351-0.57468
  -3   0  -329419.16 1764.87   1-0.69812 0.37694 0.60871-0.60871 0.37694-0.69812
   0  -3   331284.38 1286.25   1 0.00691-0.00691 0.52788-0.84928 0.84928-0.52788
  -3   3   030851.28 2619.18   1 0.14592-0.46733 0.46733-0.14592 0.87195-0.87195
  -3   0   331815.64 1751.35   1 0.50568-0.82703 0.24557-0.24557 0.82703-0.50568
   3   0  -335506.12 1438.72   1 0.47455-0.15411 0.86662-0.86662 0.15411-0.47455
  -3   3   027839.89 1340.39   1 0.50477-0.82521 0.82521-0.50477 0.25342-0.25342
   0   3  -328174.91 2173.88   1 0.54118-0.54118 0.73283-0.41239 0.41239-0.73283
  -3   0   325710.26 1851.22   1 0.51021-0.83168 0.21903-0.21903 0.83168-0.51021
   3   3   031349.84 2349.95   1 0.40816-0.08668-0.08668 0.40816 0.90878-0.90878
   0   3   328674.21 1716.30   1 0.17774-0.17774-0.51601 0.83793 0.83793-0.51601
   3   0   330310.85 2161.14   1-0.15799 0.47992-0.86296 0.86296 0.47992-0.15799
   1  -3  -323464.84 1661.61   1-0.77932 0.88623 0.02769-0.34840-0.62600 0.30528
   1   3  -321920.04 1017.42   1-0.88152 0.98843 0.20903 0.11168-0.42334 0.10262
  -1  -3  -323846.31 1584.31   1-0.90418 0.79722 0.28280-0.60368-0.32011-0.00076
  -3  -3  -125529.42 2776.11   1-0.86263 0.54175 0.50122-0.82210 0.06808-0.17504
  -3  -3   123974.71 1006.64   1-0.82712 0.50595 0.54001-0.86118 0.15570-0.04864
  -3  -1  -323533.03 1911.64   1-0.78012 0.45895 0.57352-0.68058 0.24993-0.57110
  -3   1  -321742.24 1865.81   1-0.61155 0.29038 0.62762-0.52056 0.48175-0.80292
  -1   3  -325607.33 1380.32   1-0.60315 0.49609 0.62875-0.30758 0.49078-0.81196
  -3   3  -122587.62 1997.44   1-0.06259-0.25880 0.55349-0.23209 0.83049-0.93763
  -1  -3   324332.22  874.36   1 0.07937-0.18651 0.49788-0.81928 0.86360-0.54219
   3   3  -123008.86  899.87   1 0.18039 0.14101 0.45035-0.12894 0.87443-0.98157
  -3   3   124275.39 2180.03   1 0.32232-0.64367 0.37127-0.04992 0.87078-0.76366
  -3  -1   322893.32 1198.45   1 0.41176-0.73311 0.31378-0.42089 0.85556-0.53421
  -3   1   322593.16 1913.75   1 0.54373-0.86508 0.21525-0.10814 0.81118-0.48983
  -3   3  -119802.41 1276.84   1 0.47534-0.79578 0.86576-0.54532 0.15652-0.26333
  -1   3  -324410.74 2095.23   1 0.51566-0.62247 0.80459-0.48416 0.29447-0.61490
  -3   3   121336.24 1236.26   1 0.53803-0.85846 0.74453-0.42409 0.39521-0.28839
   3   1  -323413.03 1717.11   1 0.54655-0.22611 0.70951-0.60270 0.44482-0.76525
   1   3  -324137.54 2368.23   1 0.55270-0.44568 0.66151-0.34046 0.50686-0.82791
  -3   1   318487.13 1346.58   1 0.54060-0.86165 0.36601-0.25899 0.75748-0.43643
   3   3  -125134.75 2540.46   1 0.48811-0.16663 0.13846 0.18300 0.86172-0.96888
   3   3   122291.75 1846.73   1 0.31874 0.00317-0.28071 0.60263 0.90531-0.79801
  -1   3   324944.25 3183.79   1 0.22055-0.32786-0.45134 0.77325 0.86466-0.54274
   1   3   322837.59 1513.26   1 0.16094-0.05364-0.53999 0.86190 0.82613-0.50422
   3   1   321826.06 1527.36   1-0.03895 0.36087-0.77092 0.87822 0.63573-0.31381
  -3   1   323823.49  797.49   1-0.17363-0.14828-0.87237 0.97968 0.45696-0.13504
   3  -1   325068.53 1708.57   1-0.26916 0.59062-0.91390 0.80675 0.30384 0.01761
  -3  -2   370203.07 2061.22   1-0.90348 0.58260 0.27937-0.49329-0.32505 0.64593
  -2  -3  -379859.82 3144.15   1-0.90953 0.69561 0.38077-0.70165-0.16660-0.15427
  -3  -3  -279631.45 4234.15   1-0.87886 0.55798 0.47683-0.79771 0.01477-0.22869
  -3  -2  -384872.34 6805.76   1-0.84702 0.52584 0.52059-0.73470 0.10741-0.42858
  -3   2  -376975.65 2917.16   1-0.53038 0.20904 0.63538-0.42116 0.56123-0.88256
  -2   3  -376934.26 2707.54   1-0.50761 0.29339 0.63579-0.31445 0.58145-0.90279
  -3   3  -275236.24 3477.05   1-0.27583-0.04550 0.61138-0.29004 0.74170-0.95592
  -3  -2   377304.48 2328.86   1 0.18200-0.50340 0.44953-0.66380 0.87452-0.55311
  -3   3   270282.84 3294.98   1 0.45421-0.77556 0.28403 0.03731 0.84440-0.63016
  -3   2   371646.71 2841.00   1 0.55277-0.87412 0.20779 0.00643 0.80700-0.48565
  -2   3   371922.62 2981.23   1 0.66853-0.88276 0.10175 0.21959 0.73669-0.41534
  -3   3  -274826.24 2742.96   1 0.44763-0.76806 0.89086-0.57042 0.07738-0.29100
  -2   3  -372418.59 3076.07   1 0.47549-0.68911 0.86560-0.54516 0.15696-0.47739
   3   2  -375978.47 3348.61   1 0.55722-0.23617 0.60533-0.39130 0.56838-0.88944
   2   3  -376602.77 4140.25   1 0.55754-0.34351 0.59725-0.27620 0.57656-0.89761
  -3   3   267337.76 2028.61   1 0.55679-0.87784 0.51438-0.19333 0.65221-0.43818
   3   3  -279069.55 4252.91   1 0.53962-0.21857 0.36010-0.03905 0.76100-0.97503
  -3   2   369589.42 2047.61   1 0.30748-0.62939-0.30209 0.51670 0.90232-0.58041
  -2   3   375751.41 2383.48   1 0.30628-0.52088-0.30434 0.62625 0.90197-0.58006
   3   3   277630.93 5315.18   1 0.23670 0.08521-0.42554 0.74745 0.87343-0.65882
   2   3   376324.25 2845.86   1 0.16094 0.05365-0.53998 0.86190 0.82613-0.50422
   3   2   374072.15 2705.55   1 0.07391 0.24800-0.65225 0.86687 0.75438-0.43246
   3  -3  -274944.55 1920.96   1-0.17252 0.49445-0.87172 0.54980 0.45860-0.67322
   3  -2   375776.92 2994.32   1-0.35773 0.67919-0.92407 0.70976 0.13457 0.18688
  -3  -3  -3 7953.62 2457.05   1-0.89204 0.57116 0.45022-0.77110-0.03949-0.28138
  -3   3  -3 6503.26 1169.54   1-0.46437 0.14304 0.63499-0.31365 0.61736-0.93870
  -3   3   3 8757.65 2153.92   1 0.54403-0.86538 0.21501 0.10633 0.81104-0.48969
   3   3  -3 6835.59 3258.86   1 0.55792-0.23687 0.54740-0.22635 0.62375-0.94480
  -3   3   3 4767.33 2115.70   1 0.46425-0.78573 0.06301 0.25846 0.88345-0.56198
   3   3   3 5936.25 2561.89   1 0.17238 0.14953-0.52375 0.84567 0.83424-0.51233
   3  -3  -3 6039.38  475.97   1-0.40810 0.72956-0.91265 0.59120 0.02236-0.34382
   3  -3   3 6507.58 1789.88   1-0.41972 0.74118-0.90763 0.58617-0.00572 0.32718
   0   0  -4464141.012057.92   1-0.91111 0.91111 0.35229-0.35229-0.21391-0.21391
  -4   0   0474467.012100.49   1-0.21422-0.21422 0.59761-0.59761 0.77263-0.77263
   0   4   0493749.212152.50   1 0.54498-0.54498 0.21423 0.21423 0.81061-0.81061
   4   0   0465961.212466.55   1 0.21460 0.21460-0.46065 0.46065 0.86124-0.86124
   0   0   4475907.012066.57   1-0.31797 0.31797-0.92356 0.92355 0.21430 0.21430
   0  -1  -4276235.9 7260.94   1-0.90652 0.90652 0.29575-0.40271-0.30122-0.12661
   0   1  -4288471.7 7659.16   1-0.90605 0.90605 0.40387-0.29691-0.12632-0.30151
  -4   0  -1268673.5 7221.01   1-0.39483-0.03361 0.62982-0.62982 0.66889-0.77600
  -4   0   1253602.2 6814.81   1-0.01680-0.41173 0.53697-0.53697 0.84343-0.73629
  -1   4   0273624.3 6999.51   1 0.39358-0.50070 0.32601 0.10244 0.85953-0.85953
  -1   4   0283415.1 8336.12   1 0.54001-0.64702 0.36241 0.06565 0.75963-0.75963
   4   0  -1255203.3 6870.53   1 0.45078-0.02215 0.02409-0.02409 0.89230-0.99946
   4   0   1277089.6 7173.84   1 0.04609 0.38313-0.68430 0.68430 0.72773-0.62042
  -4   0   1258994.8 6301.24   1-0.08236-0.34686-0.80852 0.80852 0.58266-0.47536
   0   1   4290435.1 7651.14   1-0.18024 0.18024-0.87615 0.98345 0.44706-0.01783
   0  -1   4278846.0 7714.64   1-0.41718 0.41718-0.90882 0.80166 0.00049 0.42811
  -2  -4   0281223.8 7351.27   1-0.86230 0.64849 0.16388-0.59150-0.47914 0.47914
   0  -2  -4291608.7 7951.82   1-0.89135 0.89135 0.23758-0.45138-0.38605-0.04156
   0   2  -4287627.7 7555.62   1-0.89282 0.89282 0.44831-0.23439-0.04324-0.38459
  -4   0  -2276926.4 7453.50   1-0.54271 0.11426 0.63491-0.63491 0.54986-0.76408
  -4   0   2293017.7 7817.41   1 0.16904-0.59758 0.45602-0.45602 0.87376-0.65949
  -2   4   0263314.3 7090.47   1 0.26955-0.48383 0.40261 0.02592 0.87477-0.87477
   0   2  -4285197.0 8101.47   1 0.47793-0.47793 0.86287-0.64925 0.16440-0.59165
  -2   4   0258099.9 9251.77   1 0.55790-0.77194 0.54649-0.11842 0.62456-0.62456
   2   4   0294144.2 8753.84   1 0.45629-0.24198 0.03974 0.38888 0.88893-0.88893
  -4   0   2266981.4 6680.52   1 0.13502-0.56424-0.57550 0.57550 0.80657-0.59196
   0   2   4296758.8 7775.03   1-0.02790 0.02790-0.76063 0.97524 0.64858-0.21935
   0  -3  -4120326.3 8544.24   1-0.86753 0.86753 0.17521-0.49593-0.46549 0.03787
  -3  -4   0116034.6 7902.33   1-0.91111 0.59023 0.34908-0.77692-0.21909 0.21909
   0   3  -4119436.1 8207.45   1-0.87512 0.87512 0.48307-0.16219 0.02805-0.45589
  -4   0  -3115139.3 8950.55   1-0.65687 0.22865 0.61952-0.61952 0.42976-0.75093
  -3   4   0110770.1 5331.22   1 0.16458-0.48599 0.45823-0.02969 0.87345-0.87345
  -4   0   3113061.9 5122.91   1 0.31864-0.74711 0.37349-0.37349 0.87118-0.54983
   4   0  -3111615.5 4958.91   1 0.49284-0.06559 0.84387-0.84387 0.21207-0.53251
   0   3  -4111482.8 9102.59   1 0.51104-0.51104 0.81383-0.49340 0.27659-0.70383
  -3   4   0109463.0 5097.13   1 0.53968-0.86012 0.73855-0.31130 0.40408-0.40408
   3   4   0118280.510703.84   1 0.44301-0.12153 0.00260 0.42602 0.89650-0.89650
   0   3   4113485.9 5447.93   1 0.11293-0.11293-0.60440 0.92631 0.78863-0.35941
   4   0   3117824.8 8230.66   1-0.09220 0.52143-0.81641 0.81641 0.57005-0.24812
   1   0  -4281716.0 7779.27   1-0.87447 0.98137 0.19123-0.19123-0.44578 0.01817
  -1   0  -4271333.8 7513.28   1-0.88436 0.77740 0.46676-0.46676-0.00619-0.42164
  -4  -1   0266607.1 6911.79   1-0.38479-0.04365 0.62871-0.73582 0.67575-0.67575
  -4   1   0268237.6 7330.14   1-0.08720-0.34133 0.56181-0.45468 0.82265-0.82265
   0   4  -1271490.1 6799.63   1 0.18824-0.18824 0.44636-0.01782 0.87482-0.98196
   4  -1   0263393.6 6778.10   1 0.44936-0.02212 0.88956-0.99637 0.08208-0.08208
   0   4  -1270030.9 8249.42   1 0.54710-0.54710 0.40987 0.01819 0.72984-0.83686
   0   4   1297205.3 8813.00   1 0.44339-0.44339 0.00363 0.42500 0.89632-0.78916
   4   1   0274694.2 7419.16   1 0.30479 0.12441-0.30710 0.41441 0.90154-0.90154
   4  -1   0283851.0 6993.83   1 0.06126 0.36796-0.66706 0.55975 0.74247-0.74247
   1   0   4278391.5 7490.28   1-0.27357 0.38072-0.91514 0.91514 0.29609 0.13251
  -1   0   4278361.2 7235.76   1-0.35572 0.24857-0.92423 0.92423 0.13876 0.28984
  -1  -4  -1134129.1 4105.38   1-0.83023 0.72333 0.10393-0.53155-0.54763 0.44072
   1  -1  -4141490.1 4250.56   1-0.85670 0.96360 0.15235-0.25926-0.49279 0.06518
   1   1  -4135101.8 3870.94   1-0.88622 0.99313 0.22200-0.11510-0.40658-0.02102
  -1  -1  -4128898.6 4162.35   1-0.90493 0.79797 0.40922-0.51618-0.11673-0.31110
  -1   1  -4131236.2 4291.20   1-0.84947 0.74241 0.51788-0.41082 0.10096-0.52918
  -4  -1  -1137931.3 4146.88   1-0.53827 0.10982 0.63510-0.74221 0.55399-0.66110
  -4   1  -1134411.4 4237.81   1-0.27393-0.15451 0.61099-0.50388 0.74272-0.84983
  -4  -1   1135303.5 3833.76   1-0.19359-0.23485 0.59240-0.69951 0.78203-0.67492
  -4   1   1136033.8 4800.06   1 0.09795-0.52649 0.48964-0.38250 0.86640-0.75926
  -1   4  -1131052.9 3892.07   1 0.10813-0.21527 0.48503-0.05649 0.86778-0.97491
  -1   4   1136786.2 4047.74   1 0.57761-0.68473 0.18675 0.24171 0.79465-0.68754
   1   1  -4138611.7 4128.41   1 0.45395-0.34714 0.88598-0.77917 0.09465-0.52190
   4  -1  -1136910.8 3390.08   1 0.51459-0.08734 0.80680-0.91361 0.29027-0.39708
  -1   4  -1129695.3 4660.58   1 0.55771-0.66473 0.53819-0.11012 0.63190-0.73892
   1   4  -1141629.6 5473.63   1 0.52966-0.42265 0.30612 0.12193 0.79103-0.89805
   4  -1  -1126403.0 3186.21   1 0.49516-0.06652 0.16281-0.26997 0.85340-0.96056
  -1   4   1139899.4 5275.70   1 0.49132-0.59848 0.14942 0.27921 0.85806-0.75090
   4   1  -1135631.5 4308.87   1 0.45475-0.02611 0.03532 0.07183 0.88991-0.99707
   1   4   1139269.4 5755.27   1 0.40760-0.30045-0.08802 0.51665 0.90890-0.80174
   4   1   1139634.7 3997.25   1 0.16679 0.26242-0.53174 0.63904 0.83032-0.72301
   4  -1   1138892.3 3743.56   1-0.10365 0.53288-0.82530 0.71799 0.55508-0.44778
   1   1   4131039.1 3901.60   1-0.14891 0.25622-0.85720 0.96451 0.49297-0.06374
  -1   1   4135041.0 3876.58   1-0.20357 0.09642-0.88805 0.99520 0.41221 0.01639
   1  -1   4139085.8 4339.19   1-0.37228 0.47943-0.92231 0.81516 0.10358 0.32502
   1  -2  -4198974.6 5795.28   1-0.83277 0.93967 0.10822-0.32203-0.54293 0.11531
   1   2  -4194650.5 5252.65   1-0.89182 0.99872 0.23909-0.02528-0.38403-0.04358
  -2  -4  -1191646.1 5302.15   1-0.89831 0.68439 0.25740-0.68524-0.35606 0.24910
  -1  -2  -4201485.8 5873.94   1-0.91107 0.80411 0.34507-0.55899-0.22553-0.20230
  -1   2  -4196509.3 5420.33   1-0.80702 0.69996 0.55606-0.34194 0.19876-0.62699
  -4  -1  -2185441.6 5804.06   1-0.65320 0.22497 0.62031-0.72737 0.43420-0.64831
  -4   1  -2181900.4 5435.67   1-0.44062 0.01217 0.63374-0.52662 0.63578-0.85000
   2   4  -1180646.8 4363.57   1-0.31550 0.52972 0.61877-0.19032 0.71942-0.82653
  -4  -1   2195561.5 5486.97   1 0.01267-0.44121 0.52562-0.63275 0.85062-0.63635
  -2   4  -1181528.7 5110.58   1 0.03922-0.25349 0.51492-0.08638 0.85633-0.96347
  -4   1   2196526.4 5760.57   1 0.25858-0.68712 0.40880-0.30166 0.87522-0.66095
  -2   4   1195591.7 5757.09   1 0.44400-0.65823 0.29134 0.13711 0.84733-0.74021
   2   4  -1189395.8 4561.14   1 0.55858-0.34435 0.20294 0.22551 0.80423-0.91135
  -1   2  -4171068.0 5231.43   1 0.44019-0.54701 0.89605-0.68242 0.05759-0.48484
   1   2  -4200914.3 6119.13   1 0.50595-0.39914 0.82316-0.60954 0.25769-0.68493
  -2   4  -1193230.5 6163.62   1 0.55052-0.76455 0.67796-0.24989 0.48712-0.59414
   4   1  -2189819.7 5586.26   1 0.54640-0.11833 0.40464-0.29762 0.73328-0.94731
  -2   4   1181452.7 5567.75   1 0.53970-0.75374 0.36059 0.06747 0.76071-0.65369
   2   4  -1205388.9 7484.15   1 0.51325-0.29894 0.23128 0.19735 0.82648-0.93364
   2   4   1195539.0 6228.52   1 0.38557-0.17126-0.13951 0.56814 0.91206-0.80490
   4   1   2197375.3 5476.85   1 0.07030 0.35892-0.65652 0.76383 0.75102-0.53640
  -1   2   4199217.8 5352.57   1-0.02320-0.08410-0.75616 0.97078 0.65396-0.22473
   1   2   4196767.5 5604.28   1-0.01698 0.12429-0.75017 0.96479 0.66101-0.23178
   4  -1   2194697.6 5319.43   1-0.16814 0.59737-0.86914 0.76184 0.46508-0.25047
   1  -3  -481682.24 4132.84   1-0.80258 0.90949 0.06049-0.38120-0.59345 0.16583
  -3  -4   178208.44 3336.35   1-0.88041 0.55969 0.20609-0.63371-0.42708 0.53398
   1   3  -475318.05 3534.09   1-0.88838 0.99529 0.22836 0.09234-0.39826-0.02935
  -1  -3  -480428.25 4222.23   1-0.90287 0.79591 0.27645-0.59733-0.32924-0.09859
  -3  -4  -180806.39 4407.22   1-0.90984 0.58896 0.37771-0.80555-0.17180 0.06484
  -1   3  -476040.98 5088.21   1-0.76277 0.65571 0.58293-0.26175 0.27995-0.70818
  -4  -1  -377382.64 4484.59   1-0.73719 0.30896 0.59466-0.70172 0.32079-0.64196
  -4   1  -380977.55 4123.93   1-0.57725 0.14881 0.63255-0.52544 0.51638-0.83771
  -3   4  -175152.40 4052.54   1-0.02477-0.29663 0.53994-0.11140 0.84133-0.94847
   3   4  -173484.69 3079.31   1 0.10431 0.21709 0.48677-0.05823 0.86727-0.97441
  -4  -1   379610.13 4158.74   1 0.19785-0.62639 0.44144-0.54857 0.87520-0.55379
  -3   4   182526.50 4542.75   1 0.32167-0.64302 0.37166 0.05679 0.87085-0.76373
  -4   1   381503.68 4258.37   1 0.38173-0.81020 0.33383-0.22671 0.86187-0.54052
  -1   3  -474867.65 4546.41   1 0.48174-0.58855 0.85840-0.53797 0.17623-0.60347
  -3   4  -177440.58 4757.39   1 0.51490-0.83533 0.80617-0.37893 0.29146-0.39827
   1   3  -474070.82 7086.27   1 0.53109-0.42428 0.76671-0.44628 0.36067-0.78791
   4   1  -379162.69 3910.41   1 0.55146-0.12339 0.67124-0.56422 0.49529-0.81634
  -3   4   170060.17 3477.42   1 0.55585-0.87690 0.62874-0.20067 0.54378-0.43677
   3   4  -182433.23 5199.41   1 0.50101-0.17954 0.18392 0.24471 0.84566-0.95282
   3   4   180240.55 4666.00   1 0.37568-0.05420-0.16163 0.59026 0.91254-0.80538
  -1   3   480099.56 3780.28   1 0.13993-0.24724-0.56890 0.89082 0.81040-0.38118
   1   3   475293.46 3718.67   1 0.10570 0.00160-0.61359 0.93551 0.78251-0.35329
   4   1   380158.14 4170.52   1 0.01076 0.41846-0.72235 0.82966 0.69143-0.36951
   4  -1   376922.14 3709.72   1-0.19288 0.62212-0.88303 0.77572 0.42784-0.10591
   2   0  -4274512.5 7290.84   1-0.76158 0.97539 0.00440-0.00440-0.64805 0.22043
   0  -4  -2284099.2 7656.76   1-0.78816 0.78816 0.03982-0.46744-0.61417 0.40036
  -2   0  -4274440.4 7917.61   1-0.83063 0.61651 0.53688-0.53688 0.14767-0.57590
  -4  -2   0286233.3 7573.17   1-0.58374 0.15529 0.63193-0.84615 0.50980-0.50980
   0   4  -2277091.9 6977.21   1-0.33434 0.33434 0.62186-0.19341 0.70816-0.92239
  -4   2   0276964.2 7756.36   1-0.00214-0.42640 0.53139-0.31712 0.84712-0.84712
   0  -4   2274778.8 6758.14   1 0.67043-0.67043 0.09982-0.52828 0.73522-0.52099
   4  -2   0262000.7 6809.37   1 0.55796-0.12990 0.58085-0.79488 0.59269-0.59269
   0   4  -2292392.2 9004.49   1 0.55808-0.55808 0.56935-0.14129 0.60363-0.81766
   0   4   2282774.8 8992.67   1 0.36339-0.36339-0.18830 0.61694 0.91240-0.69808
   4   2   0282776.1 7710.86   1 0.36274 0.06589-0.18969 0.40401 0.91237-0.91237
   4  -2   0284515.3 7078.16   1-0.16551 0.59474-0.86757 0.65295 0.46895-0.46895
   2   0   4274577.0 7581.78   1-0.22395 0.43826-0.89752 0.89752 0.37986 0.04875
  -2   0   4282362.6 7427.76   1-0.38513 0.17082-0.91978 0.91978 0.07531 0.35329
   2  -1  -4194456.7 5539.62   1-0.75426 0.96807-0.00482-0.10208-0.65655 0.22893
   2   1  -4205243.5 5558.23   1-0.75244 0.96625-0.00709 0.11399-0.65861 0.23100
  -1  -4  -2200448.1 6955.84   1-0.86564 0.75873 0.17105-0.59867-0.47053 0.25672
  -2  -1  -4201405.2 6383.58   1-0.87328 0.65936 0.48600-0.59296 0.03436-0.46220
  -2   1  -4188052.5 5794.15   1-0.77896 0.56485 0.57419-0.46714 0.25200-0.68023
  -4  -2  -1196182.0 6066.40   1-0.68561 0.25738 0.61238-0.82649 0.39359-0.50065
  -4  -2   1191229.8 5043.81   1-0.43865 0.01020 0.63361-0.84783 0.63727-0.53016
  -1   4  -2197160.5 5385.28   1-0.23665 0.12954 0.60294-0.17449 0.76187-0.97609
  -4   2  -1185125.3 5589.87   1-0.18302-0.24542 0.58962-0.37539 0.78667-0.89378
  -4   2   1196850.1 5903.38   1 0.16594-0.59448 0.45756-0.24329 0.87355-0.76641
  -1   4   2197973.0 5919.00   1 0.68154-0.78866 0.08835 0.34010 0.72642-0.51218
   2   1  -4174189.5 5181.44   1 0.48135-0.26773 0.85887-0.75206 0.17501-0.60226
  -1   4  -2200879.5 7311.66   1 0.55185-0.65887 0.66829-0.24023 0.49883-0.71286
   1   4  -2178295.2 6370.10   1 0.55470-0.44768 0.48152-0.05345 0.67855-0.89259
   4   2  -1193204.7 6959.16   1 0.46663-0.03800 0.07014 0.14417 0.88166-0.98882
  -1   4   2202298.7 6072.44   1 0.41569-0.52285-0.06825 0.49688 0.90693-0.69262
   1   4   2191440.2 5941.03   1 0.33175-0.22445-0.25534 0.68455 0.90815-0.69354
   4   2   1196547.2 5745.90   1 0.25689 0.17232-0.39210 0.60671 0.88332-0.77601
   2   1   4193171.5 5551.66   1-0.11122 0.32583-0.83099 0.93830 0.54504-0.11581
  -2   1   4191777.6 5836.80   1-0.21256-0.00174-0.89237 0.99953 0.39809 0.03052
   4  -2   1190698.7 5037.39   1-0.25543 0.68404-0.90963 0.69533 0.32758-0.22042
   2  -1   4194609.7 5649.62   1-0.32002 0.53433-0.92376 0.81660 0.21035 0.21826
   2  -2  -4230291.3 6951.57   1-0.73658 0.95039-0.02634-0.18746-0.67583 0.24821
  -2  -4  -2229714.2 6422.67   1-0.90517 0.69125 0.28800-0.71584-0.31258 0.09866
  -2  -2  -4225342.6 6504.39   1-0.90034 0.68642 0.42695-0.64087-0.08418-0.34365
  -4  -2  -2230760.8 6401.88   1-0.75787 0.32964 0.58535-0.79947 0.28805-0.50217
  -2   2  -4227661.4 6397.70   1-0.72385 0.50974 0.59994-0.38582 0.34072-0.76895
  -4   2  -2220750.6 6464.98   1-0.35609-0.07234 0.62507-0.41085 0.69460-0.90882
  -4  -2   2226605.8 5936.17   1-0.24482-0.18362 0.60479-0.81901 0.75781-0.54359
  -2   4  -2219252.2 6012.03   1-0.21721 0.00299 0.59834-0.16989 0.77123-0.98545
  -4   2   2235028.3 6994.60   1 0.30559-0.73413 0.38169-0.16742 0.87230-0.65803
  -2   4   2222896.6 6630.34   1 0.56137-0.77561 0.20060 0.22786 0.80287-0.58864
  -2  -2   4218017.2 5605.11   1 0.70606-0.92029 0.06208-0.27631 0.70542-0.27695
   2   2  -4230459.6 6750.23   1 0.52510-0.31148 0.78293-0.56930 0.33358-0.76083
  -2   4  -2232202.0 7278.07   1 0.53116-0.74478 0.76651-0.33926 0.36099-0.57462
   2   4  -2221136.0 7533.47   1 0.54734-0.33331 0.41169 0.01636 0.72864-0.94267
   4   2  -2213621.4 6837.06   1 0.53636-0.10829 0.34127-0.12724 0.77190-0.98594
  -2   4   2218651.311110.55   1 0.48646-0.70078 0.13294 0.29568 0.86352-0.64920
   2   4   2226710.2 6852.55   1 0.31504-0.10043-0.28780 0.71701 0.90438-0.68977
   4   2   2228247.4 7601.24   1 0.16961 0.25960-0.52771 0.74232 0.83231-0.61770
   2   2   4234258.5 6663.47   1 0.00419 0.21042-0.72911 0.94372 0.68438-0.25515
  -2   2   4224306.3 5820.47   1 0.00804-0.22265-0.72516 0.93978 0.68852-0.25929
   4  -2   2222081.1 5960.45   1-0.27959 0.70821-0.91671 0.70241 0.28539-0.07109
   2  -2   4212168.9 6089.67   1-0.39247 0.60677-0.91788 0.70357 0.05875 0.36985
  -2  -3  -456576.11 4078.52   1-0.91097 0.69705 0.35962-0.68050-0.20196-0.22587
  -3  -4  -256366.53 3467.44   1-0.90969 0.58881 0.37919-0.80703-0.16929-0.04462
  -4  -2  -357265.60 3782.73   1-0.80983 0.38160 0.55399-0.76810 0.19301-0.51418
  -2   3  -455439.56 2882.93   1-0.67274 0.45863 0.61579-0.29462 0.41013-0.83836
  -4   2  -352287.59 2983.39   1-0.50692 0.07847 0.63579-0.42157 0.58205-0.90339
  -3   4  -251619.10 3151.70   1-0.22751-0.09382 0.60081-0.17236 0.76633-0.98055
  -4  -2   355058.01 2727.63   1-0.02895-0.39959 0.54148-0.75575 0.84021-0.51880
  -4   2   356169.66 3700.45   1 0.41077-0.83924 0.31445-0.10022 0.85579-0.53444
  -3   4   256400.20 3412.86   1 0.44006-0.76141 0.29413 0.13432 0.84842-0.63418
  -2   3   454036.07 3325.43   1 0.71081-0.92504 0.05682 0.26452 0.70108-0.27261
  -2   3  -453497.12 3370.54   1 0.44216-0.65578 0.89473-0.57430 0.06277-0.49002
  -3   4  -254916.51 8154.69   1 0.48779-0.80823 0.85078-0.42353 0.19549-0.40911
   2   3  -455018.94 3672.74   1 0.54364-0.33002 0.72275-0.40232 0.42669-0.85394
   4   2  -356038.63 3641.08   1 0.55809-0.13002 0.56760-0.35357 0.60527-0.92632
  -3   4   242394.58 2371.28   1 0.55198-0.87303 0.45136-0.02329 0.70113-0.48709
   3   4  -256966.50 7713.49   1 0.54004-0.21899 0.36264 0.06542 0.75949-0.97352
   3   4   255964.61 3900.03   1 0.31083 0.01107-0.29578 0.72500 0.90326-0.68865
  -2   3   451754.99 3491.20   1 0.19907-0.41368-0.48445 0.80637 0.85186-0.42264
   2   3   457600.01 3864.33   1 0.11170 0.10289-0.60597 0.92788 0.78760-0.35838
   4   2   356293.53 4812.73   1 0.10710 0.32211-0.61182 0.82643 0.78371-0.46179
   4  -2   352317.24 2809.22   1-0.28157 0.71018-0.91720 0.70290 0.28186 0.03959
   0  -4  -3124894.9 8840.09   1-0.82104 0.82104 0.08884-0.51646-0.56390 0.24318
  -3   0  -4111631.5 5256.39   1-0.77988 0.45871 0.57366-0.57366 0.25036-0.67859
  -4  -3   0118824.5 8087.01   1-0.76923 0.34100 0.57957-0.90074 0.26900-0.26900
   0   4  -3112069.0 4902.66   1-0.71014 0.71014 0.60483-0.17660 0.36037-0.68154
  -4   3   0114636.0 6245.66   1 0.04850-0.47705 0.51107-0.18966 0.85816-0.85816
  -3   0   4112795.6 5270.28   1 0.59820-0.91955 0.16866-0.16866 0.78339-0.35492
   0   4  -3119505.6 9493.04   1 0.55051-0.55051 0.68820-0.26095 0.47255-0.79299
   4   3   0113705.4 9046.38   1 0.40521 0.02342-0.09378 0.41526 0.90939-0.90939
   0   4   3110619.0 5187.14   1 0.28856-0.28856-0.33685 0.76607 0.89624-0.57433
   3   0   4117962.4 8332.98   1-0.16978 0.49170-0.87011 0.87011 0.46267-0.03344
   4  -3   0112032.3 4718.76   1-0.35817 0.78678-0.92403 0.60257 0.13364-0.13364
  -3   0   4114790.9 3280.91   1-0.40413 0.08268-0.91414 0.91414 0.03174 0.39686
   1  -4  -376377.68 4013.03   1-0.73731 0.84422-0.02547-0.40214-0.67506 0.35434
  -1  -4  -383477.78 4332.09   1-0.87763 0.77073 0.19901-0.62662-0.43605 0.11534
  -3  -1  -481176.16 4225.45   1-0.83269 0.51152 0.53498-0.64204 0.14284-0.57107
  -4  -3  -184280.32 4342.22   1-0.81072 0.38249 0.55332-0.87449 0.19118-0.29824
  -3   1  -479386.23 4023.76   1-0.72186 0.40069 0.60068-0.49362 0.34363-0.77186
  -4  -3   182193.84 3774.06   1-0.71160 0.28337 0.60433-0.92550 0.35831-0.25126
  -1   4  -377359.01 3500.39   1-0.53155 0.42444 0.63534-0.20690 0.56016-0.88149
  -4   3  -176690.28 4363.17   1-0.12134-0.30720 0.57270-0.25130 0.81072-0.91786
  -4   3   175858.96 4511.54   1 0.20063-0.62917 0.44000-0.11859 0.87529-0.76816
  -3  -1   473460.60 3450.08   1 0.54517-0.86652 0.21407-0.32119 0.81052-0.38206
  -3   1   478166.50 4237.99   1 0.61652-0.93787 0.15204-0.04492 0.77251-0.34404
   3   1  -472371.27 3820.60   1 0.49989-0.17945 0.83328-0.72647 0.23610-0.66335
  -1   4  -383324.64 5567.09   1 0.53347-0.64028 0.75957-0.33232 0.37208-0.69252
   1   4  -381928.76 5080.50   1 0.55631-0.44930 0.62199-0.19392 0.55102-0.87207
   4   3  -186375.61 5352.50   1 0.48054-0.05191 0.11349 0.20798 0.86959-0.97675
  -1   4   374502.62 3594.15   1 0.33491-0.44221-0.24908 0.67829 0.90873-0.58681
   4   3   180363.25 4451.69   1 0.32440 0.10481-0.26976 0.59168 0.90663-0.79932
   1   4   374771.82 5204.20   1 0.26307-0.15576-0.38160 0.81082 0.88609-0.56418
   4  -3  -165858.03 2707.68   1 0.20153 0.22768-0.48074 0.15882 0.85338-0.96069
   3   1   478721.50 4348.26   1-0.06881 0.39073-0.79727 0.90458 0.59968-0.17044
  -3   1   481145.00 3492.72   1-0.19778-0.12367-0.88514 0.99229 0.42119 0.00741
   4  -3  -179766.63 3257.89   1-0.24474 0.67335-0.90587 0.58441 0.34567-0.45282
   3  -1   480253.39 4172.85   1-0.26179 0.58325-0.91169 0.80454 0.31666 0.11194
   4  -3   175982.13 3511.89   1-0.37053 0.79914-0.92259 0.60113 0.10736-0.00021
  -2  -4  -355874.16 3248.88   1-0.90617 0.69225 0.29362-0.72146-0.30435-0.01652
  -3  -2  -457657.13 3624.64   1-0.87532 0.55444 0.48276-0.69668 0.02738-0.45522
  -4  -3  -257808.46 4735.63   1-0.84221 0.41398 0.52568-0.84685 0.11972-0.33384
  -3   2  -453363.30 3287.10   1-0.66516 0.34399 0.61763-0.40352 0.41961-0.84784
  -4  -3   257533.55 2656.92   1-0.62288 0.19465 0.62592-0.94709 0.46928-0.25516
  -2   4  -355135.50 2996.77   1-0.45039 0.23616 0.63432-0.20587 0.62831-0.94965
  -4   3  -256763.67 3794.67   1-0.29326-0.13517 0.61477-0.29344 0.73214-0.94637
  -4   3   259324.35 3781.90   1 0.32445-0.75292 0.36997-0.04862 0.87054-0.65630
  -3  -2   451627.23 2417.24   1 0.41417-0.73552 0.31213-0.52636 0.85500-0.42653
  -3   2   453438.76 3441.16   1 0.61534-0.93669 0.15313 0.06110 0.77324-0.34477
  -2   4   348810.71 2969.59   1 0.63471-0.84894 0.13500 0.29346 0.76086-0.43951
  -2   4  -348016.75 3093.29   1 0.50387-0.71749 0.82675-0.39951 0.25017-0.57060
   3   2  -452975.00 4193.73   1 0.53696-0.21653 0.74822-0.53460 0.38964-0.81689
   2   4  -352637.33 3746.18   1 0.55809-0.34405 0.56480-0.13673 0.60788-0.92893
   4   3  -257646.66 3975.43   1 0.53356-0.10549 0.32607-0.00502 0.78037-0.99440
  -2   4   355515.47 3162.53   1 0.40680-0.62112-0.08994 0.51858 0.90907-0.58759
   4   3   255563.80 3521.62   1 0.25067 0.17854-0.40253 0.72445 0.88041-0.66580
   2   4   353770.00 3181.52   1 0.25299-0.03838-0.39865 0.82787 0.88151-0.55959
  -3   2   454813.18 2416.00   1 0.09524-0.41716-0.62642 0.84104 0.77363-0.34440
   3   2   451627.05 3371.66   1 0.03257 0.28934-0.69921 0.91383 0.71416-0.28493
   3  -2   453724.01 3241.73   1-0.33633 0.65779-0.92470 0.71039 0.17832 0.25028
   4  -3   253379.05 2815.35   1-0.36439 0.79300-0.92341 0.60195 0.12052 0.09378
  -3  -4  -369345.89 3824.32   1-0.91055 0.58967 0.36863-0.79647-0.18706-0.13381
  -3  -3  -468324.87 4242.61   1-0.90190 0.58102 0.42151-0.74239-0.09428-0.33355
  -4  -3  -371482.48 4181.16   1-0.86702 0.43918 0.49525-0.81613 0.05467-0.37555
  -3   3  -470522.89 3856.97   1-0.61580 0.29463 0.62701-0.30584 0.47711-0.90534
  -4   3  -367609.95 4199.94   1-0.45059 0.02214 0.63433-0.31299 0.62816-0.94949
  -3   4  -368022.46 3678.45   1-0.41732 0.09599 0.63198-0.20354 0.65301-0.97434
  -4   3   363580.82 3963.02   1 0.41768-0.84614 0.30973 0.01161 0.85416-0.53281
  -3   4   363224.44 3722.71   1 0.52278-0.84413 0.23215 0.19631 0.82024-0.49889
  -3   3   462918.92 3710.11   1 0.60120-0.92255 0.16597 0.15537 0.78166-0.35319
  -3   4  -363400.16 3619.01   1 0.45953-0.77996 0.88129-0.45404 0.11025-0.43068
   3   3  -470407.43 7266.31   1 0.55073-0.23030 0.68685-0.36642 0.47424-0.90149
   3   4  -366272.18 4549.52   1 0.55713-0.23608 0.52160-0.09353 0.64617-0.96722
   4   3  -371685.19 4425.35   1 0.55684-0.12877 0.51536-0.19431 0.65139-0.97244
   3   4   365857.37 5485.98   1 0.25437 0.06754-0.39635 0.82557 0.88215-0.56024
   4   3   367873.00 6866.09   1 0.19193 0.23728-0.49517 0.81708 0.84732-0.52541
   3   3   471519.67 3979.64   1 0.12708 0.19482-0.58603 0.90794 0.80025-0.37103
   4  -3   366767.81 3624.52   1-0.35038 0.77899-0.92454 0.60308 0.14983 0.17162
   3  -3   463391.01 3644.21   1-0.39167 0.71313-0.91810 0.59664 0.06057 0.36803
   0  -4  -495586.25 7929.33   1-0.83473 0.83473 0.11160-0.53921-0.53921 0.11160
  -4  -4   093212.43 4349.65   1-0.88774 0.45990 0.45990-0.88774-0.02017 0.02017
   0   4  -488467.51 3929.78   1-0.85666 0.85666 0.50943-0.08120 0.08120-0.50943
  -4   0  -487938.84 5047.03   1-0.74185 0.31362 0.59269-0.59269 0.31362-0.74185
  -4   4   083775.73 4719.57   1 0.07238-0.50092 0.50092-0.07238 0.86245-0.86245
  -4   0   485971.04 4344.15   1 0.42412-0.85259 0.30529-0.30529 0.85259-0.42412
  -4   4   067823.29 3173.66   1 0.45657-0.88382 0.88382-0.45657 0.10194-0.10194
   0   4  -481740.89 5294.31   1 0.52823-0.52823 0.77473-0.34748 0.34748-0.77473
   4   4   091603.67 5288.58   1 0.43842-0.00978-0.00978 0.43842 0.89871-0.89871
   0   4   487503.70 7110.85   1 0.22798-0.22798-0.43957 0.86879 0.86879-0.43957
   4   0   487817.02 4462.62   1-0.11318 0.54241-0.83245 0.83245 0.54241-0.11318
  -4   0   482264.75 3629.61   1-0.40945-0.01915-0.91212 0.91212 0.01915 0.40945
   1  -4  -483338.54 4736.22   1-0.76607 0.87297 0.01017-0.43779-0.64267 0.21505
  -1  -4  -484480.05 4741.74   1-0.88042 0.77352 0.20614-0.63376-0.42702-0.00059
  -4  -4  -184517.10 4037.16   1-0.88969 0.46185 0.45565-0.88349-0.02870-0.07825
  -4  -1  -476394.85 4813.62   1-0.79827 0.37004 0.56218-0.66924 0.21611-0.64434
  -1   4  -477631.58 4029.97   1-0.72493 0.61787 0.59953-0.17130 0.33915-0.76738
  -4   1  -470405.70 4766.78   1-0.68404 0.25581 0.61281-0.50576 0.39564-0.82387
  -4   4  -175164.02 4185.96   1-0.08619-0.34234 0.56148-0.13294 0.82298-0.93012
  -4   4   175136.50 4656.33   1 0.21136-0.63990 0.43440-0.00586 0.87556-0.76843
  -4  -1   475051.47 3694.01   1 0.33656-0.76503 0.36255-0.46967 0.86906-0.44059
  -4   1   475559.18 4107.04   1 0.46721-0.89568 0.27457-0.16746 0.84042-0.41195
  -1   4  -480591.14 5059.97   1 0.50566-0.61248 0.82366-0.39642 0.25665-0.68389
   4   1  -469902.39 3566.44   1 0.51021-0.08296 0.81540-0.70859 0.27347-0.70071
   1   4  -481179.79 5371.20   1 0.54277-0.43596 0.72643-0.29918 0.42153-0.84877
   4   4  -189251.13 5983.80   1 0.49462-0.06599 0.16092 0.26771 0.85407-0.96123
   4   4   178463.19 5042.60   1 0.37563 0.05300-0.16173 0.59037 0.91254-0.80538
  -1   4   474302.10 7276.25   1 0.26512-0.37242-0.37808 0.80730 0.88699-0.45777
   1   4   475874.68 5426.47   1 0.20974-0.10243-0.46818 0.89740 0.85837-0.42915
   4   1   469306.27 3667.81   1-0.02281 0.45204-0.75579 0.86310 0.65440-0.22517
   4  -1   479297.85 4258.96   1-0.19889 0.62750-0.88570 0.77855 0.41947 0.00913
  -2  -4  -484702.2110970.00   1-0.90485 0.69093 0.28624-0.71408-0.31513-0.11270
  -4  -4  -292316.63 3488.03   1-0.89533 0.46749 0.44189-0.86973-0.05576-0.15815
  -4  -2  -478340.32 5969.75   1-0.84760 0.41938 0.51994-0.73406 0.10587-0.53410
  -2   4  -474990.80 5789.00   1-0.63224 0.41812 0.62436-0.19613 0.45873-0.88696
  -4   2  -472676.56 6052.43   1-0.63032 0.20209 0.62469-0.41058 0.46091-0.88914
  -4   4  -273918.19 5634.89   1-0.25248-0.17596 0.60648-0.17803 0.75393-0.96816
  -4   4   280180.49 6271.20   1 0.32371-0.75218 0.37042 0.05803 0.87062-0.65639
  -4   2   468263.84 5223.31   1 0.48395-0.91242 0.26214-0.04791 0.83490-0.40643
  -2   4   472609.36 5674.42   1 0.67812-0.89236 0.09191 0.33655 0.72917-0.30070
  -2   4  -476302.48 6144.43   1 0.47337-0.68699 0.86789-0.44065 0.15056-0.57780
   4   2  -473398.17 5761.57   1 0.54331-0.11607 0.72415-0.51053 0.42474-0.85198
   2   4  -481163.07 7031.89   1 0.55128-0.33765 0.68348-0.25623 0.47847-0.90571
   4   4  -285917.32 7909.85   1 0.53510-0.10704 0.33436 0.09370 0.77579-0.98982
  -2   4   468316.98 4957.95   1 0.32932-0.54393-0.26013 0.68935 0.90767-0.47845
   4   4   276288.08 6144.33   1 0.31617 0.11304-0.28564 0.71486 0.90467-0.69006
   2   4   476390.47 7762.12   1 0.20511 0.00949-0.47527 0.90449 0.85559-0.42637
   4   2   476200.52 5840.83   1 0.06627 0.36295-0.66124 0.87586 0.74723-0.31800
   4  -2   469579.79 5182.15   1-0.27277 0.70138-0.91492 0.70061 0.29750 0.13111
   4  -4   272265.77 5310.81   1-0.42077 0.84938-0.90712 0.47851-0.00832 0.22262
  -3  -4  -425017.32 7847.01   1-0.91111 0.59023 0.35106-0.77890-0.21589-0.21194
  -4  -4  -325639.74 5444.46   1-0.90160 0.47376 0.42261-0.85045-0.09225-0.22862
  -4  -3  -427111.73 3425.71   1-0.88553 0.45769 0.46443-0.78531-0.01096-0.41687
  -4   3  -422587.37 2345.80   1-0.58429 0.15584 0.63187-0.31054 0.50925-0.93769
  -3   4  -424695.68 2387.98   1-0.57715 0.25582 0.63256-0.20411 0.51648-0.94492
  -4   4  -326031.37 2730.95   1-0.41080-0.01763 0.63140-0.20296 0.65769-0.97902
  -4   4   327814.18 3329.33   1 0.40891-0.83737 0.31572 0.11274 0.85621-0.53486
  -4   3   424297.45 2821.00   1 0.48321-0.91168 0.26270 0.05864 0.83515-0.40669
  -3   4   423014.79 2636.66   1 0.57725-0.89860 0.18706 0.24140 0.79484-0.36638
   4   3  -427623.48 3197.94   1 0.55226-0.12419 0.66510-0.34405 0.50263-0.93069
   3   4  -419554.35 7197.28   1 0.55382-0.23277 0.65153-0.22346 0.51844-0.94650
   4   4  -325151.6111267.74   1 0.55562-0.12755 0.49426-0.06619 0.66856-0.98961
   4   4   325193.08 5616.22   1 0.26435 0.16486-0.37941 0.80862 0.88666-0.56474
   3   4   424132.92 7125.95   1 0.21058 0.11132-0.46688 0.89610 0.85887-0.42966
   4   3   423402.43 7532.37   1 0.14937 0.27984-0.55606 0.87797 0.81760-0.38838
   4  -3   423004.02 2886.16   1-0.33173 0.76034-0.92455 0.60309 0.18747 0.24113
   4  -4   322734.11 2339.64   1-0.39918 0.82779-0.91584 0.48723 0.04332 0.27813
   3  -4   420087.37 2381.38   1-0.42979 0.75125-0.90239 0.47378-0.03089 0.45950
  -4  -4  -421441.68 6969.12   1-0.90689 0.47905 0.39939-0.82723-0.13426-0.29357
  -4   4  -420250.14 2354.71   1-0.55060 0.12215 0.63450-0.20606 0.54243-0.97088
  -4   4   417537.93 2014.77   1 0.46969-0.89816 0.27275 0.15571 0.83963-0.41117
   4   4  -421622.3510457.35   1 0.55580-0.12773 0.62938-0.20132 0.54309-0.97116
   4   4   417193.33 3832.89   1 0.22372 0.20549-0.44634 0.87556 0.86644-0.43722
   4  -4   420994.72 2780.60   1-0.37548 0.80409-0.92177 0.49316 0.09662 0.33198
   0   0  -546743.82 2874.13   1-0.90949 0.90949 0.31829-0.31829-0.26740-0.26739
  -5   0   046344.70 3001.64   1-0.26777-0.26777 0.60973-0.60973 0.74599-0.74599
   0   5   045910.58 2473.18   1 0.47640-0.47640 0.26779 0.26779 0.83745-0.83745
   0   5   054666.9810058.36   1 0.52184-0.52184 0.26789 0.26789 0.80987-0.80987
   5   0   044141.83 1879.64   1 0.26826 0.26826-0.37267 0.37267 0.88833-0.88833
   0   0   541441.23 2503.44   1-0.28932 0.28932-0.91898 0.91898 0.26788 0.26788
   0  -1  -533512.30 2420.05   1-0.90231 0.90231 0.27390-0.38086-0.33287-0.20192
   0   1  -533572.89 2219.64   1-0.91105 0.91105 0.35669-0.24973-0.20675-0.32804
  -5   0  -133625.92 2842.15   1-0.41012-0.12543 0.63134-0.63134 0.65817-0.76529
  -5   0   134014.75 2484.66   1-0.11601-0.41965 0.57106-0.57106 0.81266-0.70553
  -1   5   030403.82 1848.44   1 0.35684-0.46396 0.34987 0.18571 0.86617-0.86617
   1   5   035814.51 2087.45   1 0.61213-0.50501 0.15607 0.37950 0.77519-0.77519
  -1   5   036988.33 4232.13   1 0.54388-0.65089 0.38702 0.14806 0.74458-0.74458
   1   5   040094.1613154.04   1 0.49959-0.39243 0.17869 0.35709 0.84763-0.84763
   5   0  -132060.79 2940.37   1 0.45638 0.07940 0.04001-0.04001 0.88888-0.99603
   5   0   135722.41 2205.39   1 0.12007 0.41644-0.59519 0.59519 0.79456-0.68725
   0   1   532917.44 2186.39   1-0.17580 0.17580-0.87362 0.98093 0.45372 0.08281
   0  -1   534847.48 2460.34   1-0.37655 0.37655-0.92158 0.81442 0.09428 0.44148
  -2  -5   046227.44 2329.05   1-0.75010 0.53630-0.00997-0.52454-0.66123 0.66123
   0  -2  -543182.68 2996.79   1-0.88778 0.88778 0.22655-0.44036-0.40064-0.13387
   0   2  -542921.62 2480.83   1-0.90874 0.90874 0.38740-0.17348-0.15522-0.37957
  -5   0  -240419.34 2609.18   1-0.53384-0.00170 0.63527-0.63527 0.55806-0.77228
  -5   0   241739.26 3323.33   1 0.03118-0.56685 0.51821-0.51821 0.85468-0.64041
  -2   5   044156.15 3167.19   1 0.25301-0.46728 0.41190 0.12377 0.87539-0.87539
  -2   5   037850.90 3527.35   1 0.55757-0.77160 0.53337 0.00170 0.63609-0.63609
   2   5   044957.95 4089.62   1 0.48193-0.26761 0.11798 0.41780 0.86822-0.86822
   5   0   242223.25 2319.98   1 0.02757 0.50896-0.70462 0.70462 0.70904-0.49443
   0   2   544484.46 2628.00   1-0.04940 0.04940-0.78038 0.99499 0.62334-0.08680
   0  -2   538033.98 2671.02   1-0.43667 0.43667-0.89830 0.68399-0.04857 0.58434
  -3  -5   014823.23 3369.24   1-0.85540 0.53469 0.14976-0.68428-0.49583 0.49583
   0  -3  -518569.56 5665.16   1-0.86675 0.86675 0.17349-0.49421-0.46757-0.06694
   0   3  -515477.38 3580.15   1-0.90518 0.90518 0.40806-0.08718-0.11882-0.41597
  -5   0  -317440.77 6504.63   1-0.63638 0.10109 0.62362-0.62362 0.45398-0.77515
  -5   0   315586.64 1728.33   1 0.15959-0.69527 0.46069-0.46069 0.87309-0.55168
  -3   5   016960.05 2900.00   1 0.16021-0.48161 0.46038 0.07528 0.87314-0.87314
   0   3  -514578.95 5622.42   1 0.47528-0.47528 0.86582-0.54539 0.15633-0.69039
  -3   5   013187.52 4426.44   1 0.54969-0.87013 0.69297-0.15892 0.46648-0.46648
   3   5   020586.04 8840.29   1 0.47054-0.14906 0.08201 0.45378 0.87855-0.87855
   0   3   516506.19 1676.33   1 0.07502-0.07502-0.65094 0.97286 0.75541-0.21887
   5   0   317229.95 2053.11   1-0.02577 0.56231-0.75861 0.75861 0.65103-0.32910
   0  -4  -526219.09 9765.40   1-0.83823 0.83823 0.11769-0.54531-0.53246-0.00206
  -5   0  -422498.34 7825.68   1-0.71814 0.18285 0.60204-0.60204 0.34901-0.77724
  -4   5   021765.73 2912.63   1 0.07543-0.50397 0.49960 0.03607 0.86296-0.86296
  -5   0   425923.91 2741.54   1 0.26085-0.79653 0.40752-0.40752 0.87514-0.44660
   0   4  -523620.71 8805.18   1 0.49832-0.49832 0.83574-0.40849 0.23066-0.76472
   4   5   025409.4410612.97   1 0.46555-0.03692 0.06690 0.46888 0.88248-0.88248
   0   4   522320.50 6050.99   1 0.18581-0.18581-0.50423 0.93345 0.84333-0.30681
   5   0   425628.78 5577.77   1-0.05414 0.59068-0.78459 0.78459 0.61763-0.18840
   1   0  -537643.77 2439.92   1-0.87222 0.97912 0.18590-0.18590-0.45239-0.08212
  -1   0  -534345.69 2632.23   1-0.90239 0.79543 0.41971-0.41971-0.09761-0.43718
  -5  -1   036113.78 2510.45   1-0.40465-0.13090 0.63082-0.73793 0.66205-0.66205
  -5   1   036892.84 2791.12   1-0.16173-0.37382 0.58378-0.47667 0.79563-0.79563
   0   5  -133152.54 1739.83   1 0.17437-0.17437 0.45337 0.08230 0.87409-0.98123
   0   5   137146.30 2296.02   1 0.64263-0.64263 0.12740 0.40818 0.75550-0.64838
   0   5  -138779.40 3785.58   1 0.54872-0.54872 0.42251 0.11256 0.72137-0.82838
   0   5   137158.7312316.17   1 0.47762-0.47762 0.10414 0.43165 0.87236-0.76520
   5   1   031776.68 2445.11   1 0.33054 0.20598-0.25774 0.36505 0.90791-0.90791
   5  -1   032986.42 1644.32   1 0.17499 0.36153-0.52000 0.41270 0.83604-0.83604
   1   0   534909.14 2644.24   1-0.25433 0.36148-0.90926 0.90926 0.32946 0.20630
  -1   0   535221.80 2300.04   1-0.31757 0.21042-0.92351 0.92351 0.21508 0.32068
  -1  -5  -114306.76 1795.80   1-0.75296 0.64606-0.00644-0.52807-0.65802 0.55112
   1  -1  -514985.75 5876.20   1-0.85748 0.96439 0.15394-0.26085-0.49092-0.04359
   1   1  -514002.15 5632.79   1-0.88159 0.98849 0.20920-0.10230-0.42311-0.11140
  -1  -1  -515495.47 4651.16   1-0.91031 0.80335 0.37216-0.47912-0.18116-0.35363
  -1   1  -515974.44 5267.22   1-0.88751 0.78055 0.46037-0.35341-0.01921-0.51558
   1   5  -111152.56 1006.82   1-0.88606 0.99302 0.46337 0.07142-0.01312-0.09383
  -5  -1  -114206.55 1973.38   1-0.52881-0.00674 0.63543-0.74254 0.56265-0.66976
  -5   1  -114316.52 1789.17   1-0.31014-0.22541 0.61784-0.51073 0.72254-0.82966
  -5  -1   113352.18 1836.85   1-0.26094-0.27461 0.60830-0.71541 0.74957-0.64246
  -5   1   114774.70 2447.53   1-0.01326-0.52240 0.53564-0.42850 0.84434-0.73720
  -1   5  -114138.61 1798.33   1 0.10899-0.21612 0.48464 0.05103 0.86789-0.97502
   1   5  -112019.82 1517.25   1 0.24772-0.14059 0.41482 0.12085 0.87552-0.98266
  -1   5   114402.87 1531.94   1 0.52504-0.63215 0.23036 0.30522 0.81930-0.71219
   5  -1  -113549.20  793.85   1 0.50371 0.03033 0.82701-0.93383 0.24961-0.35642
  -1   5  -115730.52 5849.48   1 0.55740-0.66442 0.52848 0.00659 0.64031-0.74732
   1   5  -118276.28 6503.10   1 0.53554-0.42852 0.33673 0.19835 0.77447-0.88148
  -1   5   114472.51 4183.91   1 0.51194-0.61910 0.22596 0.30982 0.82876-0.72160
   5  -1  -111918.34 1294.16   1 0.49041 0.04538 0.14629-0.25345 0.85912-0.96628
   5   1  -111719.74 5090.83   1 0.45797 0.07781 0.04459 0.06256 0.88784-0.99500
   1   5   116028.44 5857.48   1 0.44961-0.34245 0.02081 0.51498 0.89297-0.78582
   5   1   112708.11 5341.31   1 0.21110 0.32542-0.46608 0.57339 0.85918-0.75188
   5  -1   114172.18 1205.23   1 0.00700 0.52953-0.72623 0.61892 0.68741-0.58010
   1   1   516004.59 4400.77   1-0.15006 0.25737-0.85794 0.96525 0.49133 0.04520
  -1   1   515493.59 1524.82   1-0.19294 0.08563-0.88306 0.99036 0.42775 0.10878
   1  -1   515720.74 2551.69   1-0.33937 0.44652-0.92474 0.81759 0.17223 0.36352
  -1  -1   516072.96 2305.22   1-0.40686 0.29971-0.91313 0.80598 0.02531 0.51045
  -2  -5  -134901.23 4951.12   1-0.84014 0.62633 0.12107-0.65560-0.52867 0.42177
   1  -2  -534173.17 2443.11   1-0.83719 0.94409 0.11586-0.32967-0.53449-0.00002
   1   2  -533566.90 2191.10   1-0.88530 0.99220 0.21936-0.00555-0.41002-0.12449
  -1  -2  -532458.70 2978.52   1-0.90955 0.80259 0.31887-0.53279-0.26651-0.26828
  -1   2  -532026.95 2684.32   1-0.86847 0.76151 0.49319-0.27927 0.05009-0.58489
  -5  -1  -233688.28 3050.76   1-0.63042 0.09514 0.62468-0.73173 0.46079-0.67491
  -5   1  -234204.20 2800.42   1-0.44690-0.08864 0.63412-0.52701 0.63099-0.84522
  -5  -1   233521.01 2933.00   1-0.10913-0.42654 0.56890-0.67603 0.81513-0.60086
  -2   5  -133140.52 2530.26   1 0.04691-0.26118 0.51174 0.02393 0.85785-0.96499
  -5   1   237385.19 3054.17   1 0.12211-0.65779 0.47859-0.37146 0.86950-0.65523
   2   5  -129254.94 1298.30   1 0.34697-0.13274 0.35608 0.17949 0.86764-0.97476
  -2   5   135488.96 2812.62   1 0.41073-0.62496 0.31448 0.22109 0.85580-0.74868
   1   2  -529169.83 2405.78   1 0.46408-0.35727 0.87717-0.66354 0.12325-0.65730
  -2   5  -133124.82 2935.83   1 0.55424-0.76827 0.64738-0.11229 0.52317-0.63018
   5   1  -227509.99 2089.98   1 0.54328-0.00819 0.38302-0.27600 0.74708-0.96112
  -2   5   129853.57 8234.14   1 0.54436-0.75840 0.39029 0.14479 0.74252-0.63550
   2   5  -137014.2515005.10   1 0.52312-0.30880 0.27365 0.26214 0.80712-0.91428
   2   5   132688.9211665.86   1 0.43034-0.21603-0.03108 0.56688 0.90212-0.79496
   5   1   233066.92 3015.27   1 0.12199 0.41452-0.59269 0.70000 0.79613-0.58152
   1   2   532977.69 4765.75   1-0.03760 0.14491-0.76968 0.98429 0.63731-0.10077
  -1   2   532996.96 2045.21   1-0.04877-0.05853-0.77982 0.99443 0.62409-0.08755
   5  -1   233904.24 2187.93   1-0.07526 0.61180-0.80268 0.69538 0.59163-0.37701
   1  -2   535102.88 2968.30   1-0.40232 0.50947-0.91478 0.70048 0.03600 0.49975
   1  -3  -520084.60 7341.01   1-0.81108 0.91798 0.07324-0.39395-0.58032 0.04580
   1   3  -518431.50 1671.16   1-0.88066 0.98756 0.20675 0.11395-0.42624-0.10827
  -3  -5  -118391.63 3180.52   1-0.89143 0.57072 0.23783-0.77236-0.38570 0.27880
  -1  -3  -519850.00 4554.21   1-0.89923 0.79227 0.26097-0.58185-0.35109-0.18370
  -1   3  -519453.18 1819.59   1-0.84718 0.74012 0.52041-0.19924 0.10698-0.64227
  -5  -1  -320744.83 2731.23   1-0.71105 0.17577 0.60452-0.71158 0.35909-0.68026
  -5   1  -318898.00 2673.99   1-0.56519 0.02963 0.63355-0.52644 0.52835-0.84969
  -3   5  -117720.17 3022.87   1-0.01350-0.30790 0.53572-0.00005 0.84428-0.95141
  -5  -1   319416.68 2472.47   1 0.03497-0.57065 0.51666-0.62380 0.85547-0.53406
  -5   1   319824.03 3056.14   1 0.23482-0.77050 0.42187-0.31474 0.87571-0.55430
  -3   5   119300.25 2337.16   1 0.30380-0.62520 0.38276 0.15291 0.87246-0.76533
  -1   3  -518393.26 7311.28   1 0.44575-0.55256 0.89222-0.57179 0.07234-0.60640
   1   3  -518901.13 7096.74   1 0.49751-0.39069 0.83699-0.51656 0.22785-0.76191
  -3   5  -118748.97 2536.12   1 0.53156-0.85199 0.76535-0.23129 0.36287-0.46968
   5   1  -316173.14 1745.36   1 0.55361-0.01853 0.65344-0.54643 0.51624-0.83729
  -3   5   113815.40 5372.92   1 0.55768-0.87873 0.59301-0.05792 0.58079-0.47377
   3   5  -119944.92 6284.68   1 0.51347-0.19200 0.23218 0.30360 0.82609-0.93325
   3   5   118125.96 6363.50   1 0.41981-0.09833-0.05798 0.59377 0.90575-0.79859
  -1   3   518070.30 4836.10   1 0.09302-0.20033-0.62916 0.95109 0.77168-0.23514
   1   3   521223.26 2793.18   1 0.07270 0.03460-0.65369 0.97562 0.75325-0.21671
   5   1   317170.20 2270.06   1 0.06250 0.47403-0.66562 0.77293 0.74366-0.42173
   5  -1   321204.26 2234.79   1-0.11509 0.65163-0.83386 0.72655 0.53983-0.21791
   1  -4  -527789.03 3829.19   1-0.77893 0.88583 0.02716-0.45478-0.62651 0.09199
  -1  -4  -527165.17 6701.84   1-0.87831 0.77141 0.20071-0.62833-0.43390-0.10061
  -4  -5  -123777.86 3650.03   1-0.91040 0.48256 0.32920-0.86400-0.25056 0.14360
  -1   4  -522395.86 2429.11   1-0.83156 0.72450 0.53603-0.10780 0.14549-0.68078
  -5  -1  -423705.41 7387.02   1-0.77386 0.23857 0.57707-0.68412 0.26100-0.68923
  -5   1  -421954.83 6677.44   1-0.66343 0.12814 0.61804-0.51098 0.42175-0.84998
  -4   5  -123637.06 3391.40   1-0.07296-0.35557 0.55705-0.02137 0.82726-0.93440
  -5  -1   423754.90 2631.89   1 0.15575-0.69143 0.46256-0.56970 0.87279-0.44425
  -4   5   125270.96 4202.49   1 0.20412-0.63266 0.43818 0.09748 0.87539-0.76826
  -5   1   424384.04 2924.96   1 0.32122-0.85680 0.37194-0.26482 0.87090-0.44243
  -1   4  -523905.75 9402.18   1 0.47348-0.58030 0.86777-0.44052 0.15091-0.68497
  -4   5  -119158.80 5245.68   1 0.47755-0.90480 0.86330-0.32924 0.16325-0.27006
   1   4  -521006.66 7640.32   1 0.51634-0.40953 0.80315-0.37591 0.29718-0.83124
   4   5  -123786.58 8449.04   1 0.50807-0.07944 0.21063 0.32515 0.83515-0.94231
   4   5   121757.78 8248.44   1 0.41705 0.01158-0.06488 0.60068 0.90656-0.79940
  -1   4   517844.68 6327.35   1 0.21514-0.32245-0.45981 0.88903 0.86155-0.32503
   1   4   520889.42 5914.59   1 0.17285-0.06555-0.52307 0.95229 0.83457-0.29804
   5   1   422922.16 7360.09   1 0.02600 0.51053-0.70630 0.81361 0.70743-0.27820
   5  -1   424335.83 2813.34   1-0.13194 0.66848-0.84585 0.73854 0.51683-0.08760
   0  -5  -247348.93 3094.96   1-0.72816 0.72816-0.03624-0.49827-0.68444 0.47063
   2   0  -543957.98 4190.97   1-0.78180 0.99561 0.03105-0.03105-0.62274 0.08822
  -2   0  -544386.45 3145.88   1-0.87200 0.65808 0.48796-0.48796 0.03861-0.57341
  -5  -2   043556.24 2561.32   1-0.56407 0.02852 0.63363-0.84786 0.52945-0.52945
   0   5  -240650.00 2079.66   1-0.26606 0.26606 0.60938-0.07382 0.74689-0.96112
  -5   2   040437.76 2972.58   1-0.08611-0.44956 0.56145-0.34718 0.82301-0.82301
   0   5  -245034.67 4477.17   1 0.55805-0.55805 0.55654-0.02146 0.61549-0.82952
   0   5   253673.88 6057.41   1 0.42250-0.42250-0.05120 0.58699 0.90491-0.69059
   5   2   042196.53 2935.46   1 0.37554 0.16025-0.16194 0.37626 0.91254-0.91254
   5  -2   036390.00 2106.39   1 0.03068 0.50585-0.70126 0.48664 0.71224-0.71224
   2   0   543824.51 3386.42   1-0.21373 0.42803-0.89292 0.89292 0.39623 0.13952
  -2   0   542905.22 2554.53   1-0.33765 0.12335-0.92472 0.92472 0.17568 0.36008
   2  -1  -538176.19 3415.18   1-0.77318 0.98699 0.01947-0.12638-0.63388 0.09936
   2   1  -533421.66 2448.05   1-0.77869 0.99250 0.02684 0.08005-0.62682 0.09230
  -1  -5  -234942.67 4053.80   1-0.81127 0.70437 0.07354-0.60807-0.58001 0.36620
  -2  -1  -533811.10 2708.18   1-0.89456 0.68064 0.44391-0.55087-0.05183-0.48296
  -2   1  -534152.03 2657.25   1-0.84179 0.62768 0.52611-0.41905 0.12076-0.65605
  -5  -2  -134587.16 2561.70   1-0.65541 0.12012 0.61984-0.83395 0.43153-0.53859
  -5  -2   132308.31 1989.85   1-0.44918-0.08637 0.63425-0.84847 0.62924-0.52213
  -5   2  -130193.09 2539.43   1-0.23319-0.30236 0.60214-0.38791 0.76357-0.87068
  -1   5  -230953.77 1967.03   1-0.19835 0.09123 0.59362-0.05807 0.77991-0.99413
  -5   2   136023.25 3773.07   1 0.05395-0.58962 0.50879-0.29452 0.85919-0.75206
  -1   5   236279.96 2944.68   1 0.62836-0.73548 0.14101 0.39457 0.76502-0.55079
  -1   5  -234520.1910576.67   1 0.55465-0.66166 0.64315-0.10807 0.52793-0.74196
   1   5  -233853.1313077.22   1 0.55470-0.44768 0.48153 0.05355 0.67855-0.89258
   5   2  -129420.33 2684.05   1 0.46795 0.06784 0.07412 0.14019 0.88063-0.98779
  -1   5   237266.80 5758.82   1 0.46342-0.57057 0.06053 0.47526 0.88406-0.66975
   1   5   231541.30 9752.93   1 0.39335-0.28619-0.12171 0.65750 0.91129-0.69697
   5   2   134091.45 2569.20   1 0.28232 0.25419-0.34801 0.56262 0.89396-0.78666
   2   1   531339.59 2378.89   1-0.11779 0.33240-0.83582 0.94313 0.53620 0.00033
   5  -2   132134.91 1876.63   1-0.11968 0.65622-0.83719 0.62258 0.53364-0.42633
  -2   1   534411.78 2058.60   1-0.19924-0.01506-0.88588 0.99303 0.41893 0.11682
   2  -1   535853.48 3186.49   1-0.29594 0.51024-0.92032 0.81317 0.25576 0.27999
  -2  -1   531097.33 2203.00   1-0.42981 0.21550-0.90238 0.79523-0.03094 0.56670
   2  -2  -528740.14 2847.43   1-0.75621 0.97002-0.00238-0.21142-0.65431 0.11979
   2   2  -529173.78 2095.32   1-0.75439 0.96820-0.00466 0.21847-0.65640 0.12188
  -2  -5  -231038.28 2377.66   1-0.86930 0.65550 0.17919-0.71371-0.46064 0.24683
  -2  -2  -525910.00 2503.00   1-0.90805 0.69413 0.39232-0.60624-0.14667-0.38812
  -2   2  -526708.83 2593.37   1-0.81019 0.59608 0.55372-0.33961 0.19227-0.72756
  -5  -2  -224693.59 2235.25   1-0.72713 0.19184 0.59869-0.81281 0.33591-0.55002
  -5   2  -229355.05 2814.84   1-0.37528-0.16027 0.62758-0.41336 0.68212-0.89634
  -5  -2   226077.89 2139.40   1-0.31221-0.22334 0.61820-0.83243 0.72134-0.50712
  -2   5  -229204.82 2544.00   1-0.18934-0.02487 0.59129-0.05573 0.78391-0.99813
  -5   2   227457.88 2941.52   1 0.17697-0.71265 0.45206-0.23779 0.87425-0.65997
  -2   5   227701.75 2577.20   1 0.52105-0.73529 0.23352 0.30205 0.82095-0.60672
   2   2  -523296.87 2426.69   1 0.48401-0.27038 0.85563-0.64200 0.18337-0.71743
  -2   5  -224729.89 8506.95   1 0.54101-0.75464 0.73347-0.19941 0.41147-0.62509
   2   5  -225491.50 4245.41   1 0.54869-0.33466 0.42228 0.11279 0.72152-0.93556
   5   2  -225657.1310422.33   1 0.53386 0.00121 0.32769-0.11366 0.77948-0.99351
  -2   5   225850.78 2849.52   1 0.51226-0.72658 0.22724 0.30855 0.82821-0.61390
   2   5   225590.11 9138.28   1 0.37566-0.16135-0.16166 0.69745 0.91254-0.69822
   5   2   225699.40 2376.86   1 0.20342 0.33309-0.47786 0.69246 0.85455-0.63994
   2   2   527223.10 2498.14   1-0.01700 0.23161-0.75019 0.96481 0.66099-0.12445
  -2   2   528841.06 1961.74   1-0.02912-0.18549-0.76178 0.97639 0.64717-0.11063
   5  -2   225880.44 1882.41   1-0.17655 0.71309-0.87405 0.65943 0.45261-0.23799
   2  -2   524859.12 2309.46   1-0.36069 0.57499-0.92380 0.70950 0.12835 0.40740
   2  -3  -520755.62 3053.34   1-0.73227 0.94608-0.03143-0.28927-0.68028 0.14576
  -3  -5  -223677.16 3446.46   1-0.90139 0.58051 0.26984-0.80464-0.33863 0.12471
  -2  -3  -524474.72 5855.94   1-0.91070 0.69678 0.33423-0.65511-0.24270-0.29209
  -2   3  -523503.03 6413.79   1-0.78044 0.56632 0.57334-0.25217 0.24936-0.78465
  -5  -2  -323700.11 2984.25   1-0.78274 0.24745 0.57199-0.78610 0.24521-0.56638
  -5   2  -322999.32 3071.19   1-0.50364-0.03191 0.63580-0.42157 0.58489-0.90622
  -3   5  -222652.61 2179.12   1-0.20448-0.11685 0.59518-0.05963 0.77713-0.99135
  -5  -2   324032.48 2011.84   1-0.16395-0.37160 0.58440-0.79863 0.79472-0.47339
  -5   2   326858.12 3256.33   1 0.27689-0.81257 0.39843-0.18416 0.87440-0.55299
  -3   5   221778.99 2468.78   1 0.41315-0.73450 0.31283 0.22274 0.85524-0.64100
  -3   5  -223547.24 7169.01   1 0.50870-0.82913 0.81822-0.28417 0.26780-0.48143
   2   3  -521895.23 8461.85   1 0.51326-0.29964 0.80948-0.48904 0.28511-0.81917
   5   2  -323252.85 4076.65   1 0.55799-0.02290 0.55162-0.33758 0.61996-0.94101
   3   5  -225676.8911007.28   1 0.54288-0.22183 0.38041 0.15466 0.74870-0.96273
   3   5   224132.2110595.87   1 0.36792-0.04644-0.17856 0.71436 0.91254-0.69822
   5   2   320774.74 6940.26   1 0.14450 0.39202-0.56272 0.77733 0.81391-0.49199
  -2   3   522399.41 3401.07   1 0.13544-0.35005-0.57494 0.89685 0.80690-0.27038
   2   3   528150.64 4934.17   1 0.08137 0.13324-0.64335 0.96527 0.76123-0.22469
   5  -2   323183.42 2264.72   1-0.19883 0.73459-0.88567 0.67136 0.41957-0.09811
   2  -3   521601.79 2795.96   1-0.40795 0.62225-0.91271 0.59126 0.02273 0.51303
  -2  -4  -516014.23 4917.16   1-0.90161 0.68769 0.27078-0.69862-0.33730-0.19749
  -4  -5  -213973.58 3939.69   1-0.91096 0.48312 0.34054-0.87534-0.23274 0.01882
  -5  -2  -417700.32 5039.90   1-0.82560 0.29031 0.54133-0.75545 0.15914-0.58737
  -2   4  -511953.60 3594.23   1-0.75689 0.54278 0.58583-0.15760 0.28966-0.82495
  -5   2  -412907.84 5090.01   1-0.61406 0.07877 0.62726-0.41315 0.47901-0.90724
  -4   5  -211318.71 2476.78   1-0.23216-0.19628 0.60190-0.06634 0.76407-0.97830
  -4   5   214820.79 2447.88   1 0.30841-0.73695 0.38001 0.15565 0.87204-0.65777
  -5   2   413636.63 2466.28   1 0.35249-0.88807 0.35262-0.13839 0.86683-0.43836
  -2   4   513035.45 1998.78   1 0.70175-0.91598 0.06680 0.36165 0.70928-0.17369
  -2   4  -515212.43 4534.59   1 0.44090-0.65452 0.89558-0.46833 0.05945-0.59351
  -4   5  -210085.61 4563.80   1 0.45553-0.88277 0.88469-0.35063 0.09903-0.31265
   2   4  -515030.48 8730.01   1 0.52870-0.31508 0.77346-0.34621 0.34960-0.88366
   5   2  -412620.22 5351.17   1 0.54553-0.01147 0.71435-0.50073 0.43827-0.86552
   4   5  -216779.55 6721.80   1 0.53891-0.11084 0.35585 0.17923 0.76350-0.97754
   4   5   214993.26 7602.14   1 0.36840 0.06023-0.17753 0.71332 0.91255-0.69823
   2   4   514241.43 4610.50   1 0.17179 0.04281-0.52460 0.95382 0.83383-0.29731
   5   2   414230.97 4282.97   1 0.10414 0.43237-0.61555 0.83016 0.78118-0.35196
   5  -2   414007.63 1727.08   1-0.20319 0.73896-0.88786 0.67356 0.41280 0.01581
   0  -5  -318171.26 2147.53   1-0.77191 0.77191 0.01780-0.55233-0.63547 0.31475
  -3   0  -515565.70 5942.22   1-0.83512 0.51395 0.53269-0.53269 0.13708-0.67236
  -5  -3   015829.87 3965.87   1-0.72394 0.18865 0.59991-0.92108 0.34060-0.34060
  -5   3   016459.90 2683.22   1-0.03749-0.49818 0.54460-0.22319 0.83785-0.83785
  -3   0   516523.20 1773.68   1 0.64706-0.96841 0.12311-0.12311 0.75243-0.21684
   0   5  -317592.33 6075.06   1 0.55223-0.55223 0.66529-0.13021 0.50240-0.82345
   5   3   016144.49 5649.60   1 0.41149 0.12430-0.07858 0.40006 0.90801-0.90801
   0   5   314555.52 3842.40   1 0.36579-0.36579-0.18315 0.71895 0.91249-0.59101
   5  -3   011309.10  987.08   1-0.14982 0.68636-0.85779 0.53587 0.49167-0.49167
   3   0   516152.75 2860.68   1-0.16783 0.48975-0.86896 0.86896 0.46554 0.07099
  -3   0   515514.50 1563.28   1-0.34745 0.02599-0.92465 0.92465 0.15584 0.37991
  -1  -5  -321323.49 5915.61   1-0.83649 0.72958 0.11464-0.64916-0.53585 0.21513
  -3  -1  -520819.99 7960.15   1-0.86896 0.54808 0.49248-0.59944 0.04852-0.58332
  -3   1  -517980.93 6078.97   1-0.79803 0.47685 0.56234-0.45529 0.21658-0.75187
  -5  -3  -121943.11 2872.51   1-0.77343 0.23814 0.57730-0.89847 0.26175-0.36881
  -5  -3   117396.91 3758.98   1-0.66090 0.12561 0.61862-0.93979 0.42486-0.31780
  -1   5  -317659.71 1660.00   1-0.48869 0.38158 0.63568-0.10012 0.59755-0.91889
  -5   3  -119249.47 2812.41   1-0.17935-0.35619 0.58863-0.26730 0.78824-0.89536
  -5   3   124773.85 3545.77   1 0.09322-0.62890 0.49176-0.17035 0.86572-0.75858
  -3  -1   518797.90 2002.91   1 0.61388-0.93523 0.15447-0.26158 0.77413-0.23855
  -3   1   517395.94 2112.73   1 0.65626-0.97761 0.11406-0.00694 0.74585-0.21027
  -1   5   317387.69 2103.69   1 0.68898-0.79610 0.08053 0.45504 0.72028-0.39893
   3   1  -518263.53 1884.60   1 0.44562-0.12519 0.89231-0.78550 0.07199-0.60605
  -1   5  -321905.13 7953.31   1 0.54162-0.64843 0.73110-0.19704 0.41489-0.73532
   1   5  -319814.53 7537.39   1 0.55726-0.45024 0.60459-0.06950 0.56914-0.89019
   5   3  -120427.72 8212.05   1 0.48065 0.05514 0.11383 0.20764 0.86949-0.97664
  -1   5   316525.69 5672.82   1 0.40725-0.51441-0.08888 0.62467 0.90898-0.58750
   1   5   318955.14 6651.50   1 0.34030-0.23299-0.23827 0.77479 0.90962-0.58771
   5   3   118431.91 8139.98   1 0.33865 0.19787-0.24159 0.56351 0.90936-0.80206
   3   1   517425.90 2156.38   1-0.08037 0.40230-0.80690 0.91421 0.58518-0.04864
  -3   1   519147.71 1337.44   1-0.18456-0.13735-0.87855 0.98585 0.44054 0.09599
   5  -3   117577.07 2259.81   1-0.23830 0.77406-0.90343 0.58197 0.35639-0.24924
   3  -1   517639.22 2262.32   1-0.24699 0.56845-0.90669 0.79954 0.34189 0.19387
  -2  -5  -326497.76 7046.13   1-0.87946 0.66566 0.20365-0.73818-0.43018 0.10946
  -3  -2  -526519.22 3340.73   1-0.89388 0.57300 0.44568-0.65960-0.04839-0.48640
  -5  -3  -224819.08 2909.71   1-0.81272 0.27743 0.55181-0.87298 0.18703-0.40115
  -3   2  -524760.67 3227.94   1-0.76080 0.43963 0.58391-0.36980 0.28323-0.81851
  -2   5  -323597.20 2275.76   1-0.41723 0.20301 0.63198-0.09642 0.65308-0.97441
  -5   3  -222920.10 3258.84   1-0.32150-0.21405 0.61978-0.29845 0.71588-0.93011
  -5   3   227303.39 4069.77   1 0.20553-0.74121 0.43745-0.11604 0.87543-0.66116
  -2   5   326704.71 3233.67   1 0.59352-0.80776 0.17283 0.36275 0.78603-0.46468
  -3   2   522944.10 2856.56   1 0.65083-0.97218 0.11942 0.09480 0.74977-0.21418
   3   2  -523560.42 2550.04   1 0.49738-0.17694 0.83719-0.62356 0.22742-0.76148
  -2   5  -325704.95 8565.54   1 0.51884-0.73246 0.79775-0.26369 0.30722-0.62765
   2   5  -322654.6910946.27   1 0.55802-0.34399 0.55409-0.01900 0.61772-0.93878
   5   3  -223202.4710370.65   1 0.53158 0.00350 0.31576 0.00528 0.78594-0.99997
  -2   5   323377.94 5660.96   1 0.46416-0.67848 0.06276 0.47303 0.88351-0.56204
   2   5   322105.80 7356.88   1 0.32593-0.11132-0.26679 0.80331 0.90696-0.58505
   5   3   220304.04 6323.10   1 0.27178 0.26474-0.36657 0.68849 0.88980-0.67519
   3   2   520353.73 2357.97   1 0.01019 0.31172-0.72294 0.93756 0.69083-0.15429
   5  -3   222736.72 2186.92   1-0.26491 0.80067-0.91265 0.59119 0.31125-0.09695
   3  -2   522230.13 2992.62   1-0.31220 0.63366-0.92290 0.70859 0.22534 0.31042
  -3  -5  -315788.95 4654.08   1-0.90322 0.58234 0.27811-0.81291-0.32685 0.00597
  -3  -3  -514996.10 6041.67   1-0.90828 0.58740 0.39075-0.71163-0.14941-0.38538
  -5  -3  -313927.56 4522.13   1-0.84392 0.30863 0.52390-0.84507 0.11539-0.43656
  -3   3  -512147.20 5436.47   1-0.72754 0.40637 0.59853-0.27736 0.33530-0.87059
  -5   3  -313828.47 2198.29   1-0.45479-0.08076 0.63455-0.31321 0.62490-0.94624
  -3   5  -312438.86 1843.40   1-0.39054 0.06920 0.62936-0.09380 0.67184-0.99318
  -5   3   314773.45 3360.06   1 0.29571-0.83139 0.38752-0.06612 0.87313-0.55173
  -3   5   313220.75 2456.09   1 0.49169-0.81304 0.25630 0.27928 0.83219-0.51084
  -3   3   511597.40 2103.22   1 0.63495-0.95630 0.13477 0.18657 0.76070-0.22512
  -3   5  -311431.30 5336.33   1 0.48291-0.80334 0.85698-0.32292 0.17991-0.50034
   3   3  -513564.48 5794.42   1 0.52356-0.20312 0.78677-0.46633 0.32691-0.86096
   3   5  -316022.95 6690.79   1 0.55689-0.23584 0.51637 0.01871 0.65056-0.97161
   5   3  -311122.94 4763.86   1 0.55613-0.02104 0.50223-0.18118 0.66217-0.98322
   3   5   311425.32 3686.46   1 0.32162 0.00029-0.27516 0.81168 0.90600-0.58408
   5   3   312197.22 4300.09   1 0.21743 0.31909-0.45624 0.77816 0.86287-0.54096
   3   3   513473.76 4532.15   1 0.09831 0.22359-0.62285 0.94476 0.77613-0.23961
   5  -3   313589.91 1805.55   1-0.26955 0.80531-0.91402 0.59256 0.30316 0.01829
   3  -3   513443.10 2863.12   1-0.36266 0.68412-0.92360 0.60214 0.12419 0.41157
  -3  -4  -516665.27 4847.27   1-0.91036 0.58948 0.32862-0.75646-0.25147-0.28332
  -4  -5  -316650.67 5300.49   1-0.91083 0.48299 0.33693-0.87173-0.23845-0.08242
  -5  -3  -418271.14 5291.65   1-0.86900 0.33420 0.49243-0.81331 0.04842-0.47626
  -3   4  -511571.23 4630.45   1-0.70185 0.38068 0.60754-0.17931 0.37186-0.90715
  -5   3  -414195.47 1774.53   1-0.57260 0.03705 0.63296-0.31162 0.52103-0.94948
  -4   5  -314232.76 2403.07   1-0.38817-0.04027 0.62910-0.09354 0.67346-0.99480
  -5   3   417480.08 2926.06   1 0.36375-0.89933 0.34547-0.02412 0.86506-0.43659
  -4   5   315105.85 2339.24   1 0.38808-0.81655 0.32966 0.20592 0.86064-0.53929
  -3   4   514544.87 2175.78   1 0.61068-0.93203 0.15740 0.27106 0.77607-0.24049
   3   4  -512371.54 6049.79   1 0.53656-0.21613 0.74959-0.32235 0.38755-0.92161
   5   3  -413241.84 6016.27   1 0.55343-0.01835 0.65514-0.33409 0.51429-0.94236
   4   5  -314598.66 6000.32   1 0.55551-0.12744 0.49260 0.04247 0.66988-0.99093
   4   5   314194.68 5072.56   1 0.32537 0.10384-0.26788 0.80440 0.90684-0.58493
   5   3   415576.59 5791.81   1 0.17693 0.35958-0.51719 0.83910 0.83737-0.40816
   3   4   514361.27 3773.24   1 0.17969 0.14221-0.51318 0.94240 0.83925-0.30273
   5  -3   415445.69 2311.84   1-0.26306 0.79882-0.91208 0.59063 0.31446 0.11414
   3  -4   517570.33 2978.34   1-0.39941 0.72087-0.91577 0.48716 0.04279 0.49297
   4  -5   316735.38 2267.97   1-0.43126 0.85987-0.90156 0.36579-0.03463 0.35609
   0  -5  -424309.07 7605.47   1-0.79339 0.79339 0.04718-0.58171-0.60687 0.17925
  -4   0  -522588.14 7603.04   1-0.80420 0.37597 0.55808-0.55808 0.20443-0.73971
  -5   4   022117.21 2559.45   1-0.01133-0.52434 0.53490-0.10636 0.84483-0.84483
  -4   0   523740.54 2587.21   1 0.49140-0.91986 0.25652-0.25652 0.83229-0.29671
   0   5  -426234.6111293.60   1 0.53678-0.53678 0.74886-0.21480 0.38867-0.81591
   5   4   024914.1610898.10   1 0.44120 0.09459-0.00231 0.43094 0.89740-0.89740
   0   5   420724.75 7139.38   1 0.31704-0.31704-0.28396 0.82049 0.90489-0.47568
   4   0   524575.17 2470.80   1-0.11872 0.54795-0.83650 0.83650 0.53494 0.00159
   1  -5  -424497.92 3754.43   1-0.72311 0.83002-0.04206-0.49245-0.68944 0.26182
  -1  -5  -427631.54 4106.08   1-0.84653 0.73963 0.13272-0.66724-0.51551 0.08790
  -5  -4  -127226.56 3686.35   1-0.86308 0.32828 0.50063-0.92847 0.06673-0.17369
  -4  -1  -525042.44 8318.73   1-0.84242 0.41419 0.52546-0.63252 0.11920-0.65448
  -4   1  -521575.17 7942.93   1-0.76394 0.33571 0.58233-0.47527 0.27798-0.81326
  -1   5  -422802.63 2003.95   1-0.70105 0.59399 0.60780-0.07251 0.37296-0.80119
  -5   4  -123455.25 3026.56   1-0.14612-0.38955 0.58013-0.15159 0.80130-0.90844
  -5   4   124976.33 4427.54   1 0.11073-0.64641 0.48384-0.05530 0.86811-0.76098
  -4  -1   520808.25 1997.03   1 0.42669-0.85515 0.30351-0.41063 0.85194-0.31636
  -4   1   521098.99 2411.13   1 0.52173-0.95019 0.23299-0.12587 0.82067-0.28509
   4   1  -520618.66 2045.76   1 0.45258-0.02533 0.88708-0.78026 0.09087-0.62493
  -1   5  -421573.64 8205.61   1 0.51877-0.62558 0.79791-0.26385 0.30693-0.73418
   1   5  -423200.74 9280.10   1 0.54796-0.44115 0.70241-0.16835 0.45425-0.88149
   5   4  -123221.5710916.67   1 0.49401 0.04178 0.15877 0.26986 0.85483-0.96199
   5   4   121958.34 8223.81   1 0.38331 0.15247-0.14461 0.57325 0.91222-0.80506
  -1   5   417109.88 4584.08   1 0.35532-0.46262-0.20740 0.74393 0.91144-0.48222
   1   5   418553.06 4938.77   1 0.29417-0.18686-0.32670 0.86322 0.89818-0.46896
   4   1   523208.90 2598.70   1-0.03881 0.46804-0.77079 0.87810 0.63590-0.09936
   4  -1   526297.14 2859.75   1-0.19263 0.62187-0.88290 0.77559 0.42822 0.10831
   5  -4   121688.91 1846.76   1-0.32831 0.86407-0.92438 0.49577 0.19422-0.08707
  -2  -5  -415814.21 4367.85   1-0.88176 0.66795 0.20966-0.74418-0.42253-0.00508
  -4  -2  -514099.64 4243.85   1-0.87563 0.44779 0.48225-0.69617 0.02628-0.56108
  -5  -4  -215854.00 4733.87   1-0.87617 0.34137 0.48137-0.90921 0.02440-0.23832
  -4   2  -512899.55 4916.54   1-0.72547 0.29724 0.59933-0.38521 0.33835-0.87364
  -2   5  -414765.32 1343.09   1-0.60704 0.39292 0.62824-0.09295 0.48662-0.91485
  -5   4  -215217.12 2429.86   1-0.28582-0.24973 0.61335-0.18491 0.73627-0.95049
  -5   4   217120.67 2759.70   1 0.21438-0.75006 0.43281-0.00426 0.87562-0.66134
  -4   2   512927.11 2415.56   1 0.53113-0.95959 0.22548-0.01125 0.81673-0.28115
  -2   5   413673.07 2770.38   1 0.63882-0.85306 0.13107 0.40451 0.75810-0.32963
  -2   5  -414981.80 5132.88   1 0.49204-0.70566 0.84500-0.31094 0.20941-0.63666
   4   2  -511788.62 5102.29   1 0.50472-0.07748 0.82529-0.61167 0.25324-0.78730
   2   5  -417880.16 8735.67   1 0.55241-0.33838 0.66387-0.12879 0.50408-0.93215
   5   4  -216010.14 8905.87   1 0.53345 0.00163 0.32549 0.10256 0.78069-0.99472
   5   4   214656.13 4196.43   1 0.32879 0.20772-0.26118 0.69040 0.90756-0.69295
   2   5   413828.33 4651.11   1 0.28345-0.06884-0.34601 0.88254 0.89438-0.46516
   4   2   514249.25 2536.28   1 0.04252 0.38671-0.68829 0.90290 0.72418-0.18764
   4  -2   516149.23 2825.98   1-0.25749 0.68610-0.91031 0.69601 0.32405 0.21170
   5  -4   213495.93 1313.72   1-0.33213 0.86790-0.92457 0.49596 0.18667 0.02763
  -3  -5  -415441.69 4317.88   1-0.90220 0.58132 0.27339-0.80819-0.33359-0.09424
  -4  -3  -517260.88 5682.83   1-0.89881 0.47097 0.43189-0.75277-0.07488-0.45991
  -5  -4  -318279.52 4731.89   1-0.88828 0.35348 0.45874-0.88658-0.02251-0.29836
  -4   3  -515415.87 6068.69   1-0.69226 0.26403 0.61047-0.28930 0.38481-0.92010
  -3   5  -416000.70 1707.51   1-0.55415 0.23282 0.63430-0.09874 0.53904-0.96749
  -5   4  -317771.60 2722.27   1-0.42028-0.11526 0.63223-0.20379 0.65086-0.97220
  -5   4   322971.04 4123.71   1 0.29737-0.83305 0.38655 0.04198 0.87300-0.55160
  -4   3   512415.76 1907.38   1 0.52616-0.95463 0.22946 0.09188 0.81883-0.28325
  -3   5   413037.99 2622.87   1 0.54506-0.86641 0.21416 0.32142 0.81057-0.38211
  -3   5  -414943.61 5568.17   1 0.45500-0.77544 0.88512-0.35106 0.09757-0.52482
   4   3  -513826.28 5033.40   1 0.52932-0.10208 0.77174-0.45131 0.35245-0.88650
   3   5  -416723.68 5466.14   1 0.55552-0.23447 0.63305-0.09797 0.53910-0.96717
   5   4  -314938.00 7042.99   1 0.55483-0.01975 0.48323-0.05516 0.67723-0.99828
   5   4   314454.21 7965.13   1 0.28090 0.25561-0.35054 0.77976 0.89342-0.57151
   3   5   414829.73 5826.96   1 0.28231 0.03959-0.34803 0.88455 0.89396-0.46474
   4   3   513655.66 4497.84   1 0.12133 0.30788-0.59356 0.91547 0.79559-0.25906
   4  -3   514326.38 2445.28   1-0.30974 0.73835-0.92258 0.60112 0.23001 0.30575
   5  -4   315823.52 2186.01   1-0.32452 0.86028-0.92413 0.49552 0.20163 0.11982
  -4  -5  -4 9408.13 2386.92   1-0.91006 0.48222 0.32457-0.85937-0.25774-0.17009
  -4  -4  -510147.77 4040.60   1-0.91025 0.48241 0.37295-0.80079-0.17983-0.35496
  -5  -4  -4 9594.68 3885.96   1-0.89837 0.36357 0.43323-0.86107-0.07235-0.35548
  -4   4  -5 7255.48 4274.32   1-0.66710 0.23888 0.61717-0.18894 0.41720-0.95248
  -5   4  -4 8010.81 2217.68   1-0.54258 0.00703 0.63491-0.20646 0.54998-0.97842
  -4   5  -4 9070.54 2275.82   1-0.53026 0.10182 0.63538-0.09983 0.56133-0.98978
  -5   4   4 6941.32 2127.36   1 0.36016-0.89574 0.34776 0.08070 0.86564-0.43717
  -4   5   4 8291.36 2125.19   1 0.44598-0.87445 0.28993 0.24564 0.84677-0.41831
  -4   4   5 7960.91 1839.21   1 0.51031-0.93878 0.24196 0.18649 0.82524-0.28966
   4   4  -5 7845.82 3323.78   1 0.54093-0.11368 0.73382-0.30657 0.41097-0.94503
   5   4  -4 7147.53 2821.67   1 0.55644-0.02136 0.62004-0.19197 0.55310-0.98116
   4   5  -4 9414.41 4214.73   1 0.55685-0.12878 0.61294-0.07786 0.56054-0.98861
   4   5   4 7159.90 3653.03   1 0.28878 0.14043-0.33645 0.87297 0.89632-0.46710
   5   4   4 8214.02 3054.96   1 0.24282 0.29370-0.41554 0.84476 0.87656-0.44734
   4   4   5 8142.54 3415.71   1 0.19455 0.23466-0.49126 0.92048 0.84900-0.31248
   5  -4   410805.46 2111.90   1-0.31039 0.84615-0.92266 0.49405 0.22878 0.19982
   4  -4   5 9805.21 2299.53   1-0.34982 0.77844-0.92456 0.49595 0.15098 0.38478
   4  -5   4 9996.23 2572.28   1-0.40592 0.83454-0.91349 0.37772 0.02753 0.40108
   0  -5  -5 6828.65 2709.09   1-0.80206 0.80206 0.05972-0.59424-0.59424 0.05972
  -5   0  -5 5138.88 1922.79   1-0.78194 0.24666 0.57246-0.57246 0.24666-0.78194
  -5   5   0 7027.05 2625.09   1-0.00368-0.53199 0.53199 0.00368 0.84674-0.84674
  -5   0   5 5686.66 1731.26   1 0.33383-0.86941 0.36424-0.36424 0.86941-0.33383
   0   5  -5 3343.71 1886.89   1 0.51159-0.51159 0.81276-0.27870 0.27870-0.81276
   5   5   0 8415.73 3522.59   1 0.46639 0.06940 0.06940 0.46639 0.88185-0.88185
   0   5   5 3484.73 1711.38   1 0.27795-0.27795-0.35576 0.89228 0.89228-0.35576
   5   0   5 4235.18 2129.94   1-0.06627 0.60281-0.79512 0.79512 0.60281-0.06627
   1  -5  -516818.82 2645.72   1-0.74052 0.84743-0.02163-0.51288-0.67167 0.13715
  -1  -5  -514390.66 4299.33   1-0.84834 0.74143 0.13610-0.67062-0.51165-0.02287
  -5  -1  -511948.28 4366.49   1-0.82200 0.28672 0.54439-0.65145 0.16713-0.70242
  -5   1  -514306.91 5079.81   1-0.74153 0.20625 0.59283-0.48577 0.31411-0.84940
  -5   5  -112806.13 2384.28   1-0.13184-0.40383 0.57590-0.04022 0.80681-0.91394
  -5   5   113024.31 3110.97   1 0.11097-0.64665 0.48373 0.05194 0.86814-0.76101
  -5   1   512462.77 2097.19   1 0.38219-0.91778 0.33353-0.22641 0.86178-0.32620
  -1   5  -513294.98 5216.19   1 0.49049-0.59731 0.84715-0.31309 0.20431-0.73837
   1   5  -513109.95 5303.35   1 0.52653-0.41972 0.77927-0.24521 0.33984-0.87390
   5   5  -111107.75 7615.07   1 0.50708 0.02871 0.20677 0.32901 0.83672-0.94388
   5   5   112808.19 4473.42   1 0.42083 0.11495-0.05541 0.59121 0.90544-0.79828
  -1   5   511025.45 3915.80   1 0.31182-0.41912-0.29391 0.83044 0.90353-0.36701
   1   5   512020.67 4718.52   1 0.25887-0.15156-0.38874 0.92527 0.88422-0.34770
   5   1   512316.23 1987.50   1 0.00617 0.53036-0.72708 0.83439 0.68651-0.14997
   5  -1   513474.60 2147.16   1-0.13496 0.67149-0.84792 0.74061 0.51264 0.02389
  -2  -5  -5 6268.64 2990.07   1-0.87965 0.66584 0.20414-0.73866-0.42956-0.10495
  -5  -5  -2 7171.18 2654.83   1-0.90830 0.37350 0.39059-0.92539-0.14968-0.06423
  -5  -2  -5 8183.50 2792.37   1-0.85892 0.32412 0.50598-0.71990 0.07894-0.61374
  -5   2  -5 8076.46 4152.72   1-0.70412 0.16883 0.60682-0.39270 0.36874-0.90403
  -5   5  -2 9114.07 2500.21   1-0.26727-0.26828 0.60963-0.07407 0.74626-0.96048
  -5   5   2 8727.66 3732.09   1 0.20789-0.74356 0.43622 0.09945 0.87549-0.66122
  -5   2   5 6156.42 1557.34   1 0.40568-0.94126 0.31791-0.10367 0.85694-0.32136
  -2   5   5 6231.22 1872.58   1 0.66512-0.87936 0.10520 0.43038 0.73928-0.20369
  -2   5  -5 7821.94 4181.14   1 0.46205-0.67568 0.87903-0.34498 0.11743-0.65149
   2   5  -5 6528.50 3832.11   1 0.53655-0.32292 0.74964-0.21558 0.38748-0.92154
   5   5  -2 8996.29 3974.08   1 0.53750-0.00241 0.34768 0.18739 0.76824-0.98228
   5   5   210358.35 4295.75   1 0.37555 0.16024-0.16191 0.69770 0.91254-0.69822
   2   5   5 7348.25 3787.22   1 0.25118-0.03657-0.40168 0.93820 0.88065-0.34413
   5   2   5 6307.07 1835.03   1 0.07894 0.45759-0.64626 0.86087 0.75901-0.22247
   5  -2   5 5389.54 2232.49   1-0.19728 0.73305-0.88488 0.67058 0.42196 0.11380
   5  -5   2 5725.33 1334.05   1-0.37854 0.91431-0.92120 0.38543 0.08992 0.12438
  -3  -5  -510009.15 4822.16   1-0.89907 0.57819 0.26034-0.79514-0.35196-0.18283
  -5  -5  -3 9582.57 3667.47   1-0.90965 0.37485 0.37967-0.91447-0.16847-0.15240
  -5  -3  -510508.84 2802.05   1-0.88760 0.35280 0.46019-0.78107-0.01958-0.51521
  -3   5  -5 8681.94 4088.05   1-0.68652 0.36535 0.61213-0.07684 0.39240-0.92769
  -5   3  -5 9556.09 3292.72   1-0.67253 0.13724 0.61584-0.29467 0.41040-0.94569
  -5   5  -311245.47 2450.54   1-0.40051-0.13504 0.63041-0.09485 0.66495-0.98628
  -5   5   310970.39 2962.00   1 0.28562-0.82130 0.39340 0.14226 0.87386-0.55246
  -5   3   5 8985.25 2696.23   1 0.41181-0.94739 0.31375 0.00759 0.85555-0.31996
  -3   5   5 9416.99 2902.20   1 0.57905-0.90040 0.18551 0.35006 0.79390-0.25832
   5   3  -5 9931.55 3674.52   1 0.53114 0.00291 0.76657-0.44614 0.36089-0.89495
   3   5  -510618.16 5273.39   1 0.54281-0.22237 0.72626-0.19221 0.42176-0.95582
   5   5  -3 7701.66 4617.99   1 0.55481-0.01973 0.48302 0.05206 0.67739-0.99844
   5   5   3 8299.80 3336.35   1 0.33556 0.20095-0.24777 0.78429 0.90884-0.58693
   3   5   5 9810.40 3953.10   1 0.25243 0.06948-0.39960 0.93612 0.88124-0.34472
   5   3   5 9787.59 3757.59   1 0.14928 0.38724-0.55619 0.87810 0.81753-0.28101
   5  -3   510117.75 2100.95   1-0.24971 0.78547-0.90767 0.58621 0.33731 0.19845
   5  -5   3 9413.00 1695.13   1-0.36403 0.89979-0.92345 0.38768 0.12129 0.20016
   3  -5   5 9962.57 2632.05   1-0.42471 0.74617-0.90514 0.36937-0.01811 0.55387
  -4  -5  -5 3366.99 1690.39   1-0.90808 0.48024 0.30621-0.84101-0.28568-0.24911
  -5  -5  -4 2361.59 1404.58   1-0.91086 0.37606 0.36259-0.89739-0.19707-0.23076
  -5  -4  -5 2625.54 1289.97   1-0.90581 0.37101 0.40507-0.83291-0.12418-0.41061
  -4   5  -5 2472.73 1237.33   1-0.65202 0.22380 0.62056-0.08527 0.43561-0.97089
  -5   4  -5 3171.86 1919.74   1-0.64892 0.11363 0.62120-0.19297 0.43931-0.97460
  -5   5  -4 2682.13 1459.95   1-0.52457-0.01098 0.63554-0.09998 0.56648-0.99492
  -5   5   4 3831.46 1963.55   1 0.34482-0.88040 0.35743 0.17814 0.86795-0.43948
  -5   4   5 3581.72 1749.88   1 0.40489-0.94048 0.31843 0.11002 0.85711-0.32153
  -4   5   5 3849.59 1826.39   1 0.48549-0.91396 0.26099 0.27459 0.83437-0.29879
   5   4  -5 1010.83  859.11   1 0.54245-0.00839 0.72773-0.30049 0.41968-0.95374
   4   5  -5 4199.14 2433.07   1 0.54626-0.11901 0.71090-0.17684 0.44295-0.97701
   5   5  -4 4235.53 2438.46   1 0.55726-0.02218 0.60446-0.06938 0.56927-0.99734
   5   5   4 4612.64 2819.90   1 0.30134 0.23518-0.31352 0.85005 0.90049-0.47127
   4   5   5 3325.43 1847.33   1 0.26078 0.16843-0.38550 0.92202 0.88508-0.34856
   5   4   5 3296.97 1881.16   1 0.21491 0.32160-0.46016 0.88938 0.86142-0.32490
   5  -4   5 3681.50 1919.33   1-0.29178 0.82754-0.91950 0.49089 0.26339 0.27237
   5  -5   4 3859.56 1711.12   1-0.34545 0.88121-0.92470 0.38894 0.15994 0.26867
   4  -5   5  795.39 1421.02   1-0.37888 0.80749-0.92113 0.38537 0.08917 0.44658
   0   0  -685531.81 6951.34   1-0.90407 0.90407 0.28227-0.28227-0.32087-0.32087
  -6   0   085722.16 6617.03   1-0.32133-0.32133 0.61976-0.61976 0.71598-0.71598
   0   6   090172.13 6454.29   1 0.40057-0.40057 0.32134 0.32134 0.85806-0.85806
   0   6   0100097.6 4743.87   1 0.53260-0.53260 0.32105 0.32105 0.78310-0.78310
   6   0   078626.61 5576.02   1 0.32191 0.32191-0.27460 0.27460 0.90607-0.90607
   0   0   690666.96 3301.14   1-0.25901 0.25901-0.91081 0.91081 0.32145 0.32145
   0  -1  -663325.39 5064.93   1-0.89467 0.89467 0.24871-0.35561-0.37107-0.27035
   0   1  -659574.59 4781.59   1-0.90874 0.90874 0.31138-0.20442-0.27789-0.36386
  -6   0  -159350.57 5128.55   1-0.43671-0.20595 0.63348-0.63348 0.63873-0.74584
  -6   0   159947.36 5084.48   1-0.20043-0.44223 0.59416-0.59416 0.77897-0.67186
  -1   6   063022.26 4775.99   1 0.30572-0.41284 0.38123 0.26146 0.87246-0.87246
   1   6   059753.83 4264.11   1 0.50498-0.39786 0.24611 0.39658 0.82729-0.82729
  -1   6   063037.51 6460.06   1 0.54858-0.65560 0.42139 0.22070 0.72213-0.72213
   1   6   070471.31 6578.44   1 0.51641-0.40925 0.24433 0.39861 0.82074-0.82074
   6   0   157524.37 5108.62   1 0.18985 0.45396-0.49825 0.49825 0.84598-0.73868
   0   1   661612.32 4906.89   1-0.16135 0.16135-0.86504 0.97235 0.47503 0.16880
   0  -1   661393.53 4989.06   1-0.33736 0.33736-0.92472 0.81757 0.17626 0.46665
   0  -2  -656008.62 4868.90   1-0.88089 0.88089 0.20736-0.42117-0.42546-0.21595
   0   2  -649698.28 4294.97   1-0.91059 0.91059 0.33227-0.11835-0.24577-0.39598
  -6   0  -249713.88 4395.82   1-0.54089-0.10177 0.63499-0.63499 0.55156-0.76578
  -6   0   251079.01 4616.67   1-0.08237-0.56044 0.56021-0.56021 0.82424-0.60997
  -2   6   050321.35 4223.48   1 0.21929-0.43356 0.43021 0.21259 0.87568-0.87568
  -2   6   049451.06 8010.52   1 0.55782-0.77186 0.54266 0.09943 0.62796-0.62796
   2   6   062551.0710234.15   1 0.50257-0.28825 0.18967 0.45328 0.84347-0.84347
   6   0   253316.62 4136.82   1 0.09882 0.54500-0.62222 0.62222 0.77657-0.56196
   0   2   651094.25 4214.32   1-0.05309 0.05309-0.78366 0.99827 0.61891 0.02493
   0  -2   649605.31 4401.30   1-0.39563 0.39563-0.91696 0.70265 0.05152 0.59139
   0  -3  -636205.97 3331.35   1-0.86126 0.86126 0.16170-0.48241-0.48174-0.15968
   0   3  -635392.86 1856.98   1-0.91101 0.91101 0.34231-0.02143-0.22994-0.41181
  -6   0  -331673.04 9500.81   1-0.63134-0.01100 0.62452-0.62452 0.45975-0.78092
  -6   0   334660.79 2416.78   1 0.02491-0.66772 0.52074-0.52074 0.85334-0.53194
  -3   6   038398.28 2654.88   1 0.13837-0.45977 0.47094 0.17186 0.87124-0.87124
  -3   6   028611.41 9471.04   1 0.55070-0.87175 0.67666-0.03456 0.48871-0.48871
   3   6   036472.1712002.03   1 0.49302-0.17155 0.15533 0.48762 0.85603-0.85603
   0   3   637161.21 2232.71   1 0.05700-0.05700-0.67196 0.99388 0.73838-0.09453
   6   0   335935.54 2093.95   1 0.04104 0.60280-0.68992 0.68992 0.72271-0.40079
   0  -3   631115.66 2452.37   1-0.43624 0.43624-0.89857 0.57711-0.04746 0.69038
   0  -4  -616501.66 5755.36   1-0.83525 0.83525 0.11248-0.54010-0.53824-0.10318
  -6   0  -413514.95 4187.64   1-0.70704 0.06470 0.60586-0.60586 0.36470-0.79292
  -4   6   014806.77 3152.61   1 0.06181-0.49035 0.50546 0.13734 0.86063-0.86063
  -6   0   414644.44 2605.88   1 0.11483-0.75764 0.48196-0.48196 0.86863-0.44009
   0   4  -610590.88 3997.92   1 0.46371-0.46371 0.87752-0.45027 0.12216-0.76303
   4   6   010266.44 9393.49   1 0.48822-0.05959 0.13886 0.50408 0.86159-0.86159
   0   4   611645.87 3853.98   1 0.16025-0.16025-0.54097 0.97018 0.82563-0.18180
   6   0   414650.43 1994.06   1 0.00684 0.63700-0.72639 0.72639 0.68723-0.25800
   0  -5  -6 9067.82 2705.76   1-0.80244 0.80244 0.06028-0.59480-0.59366-0.04775
  -6   0  -5 6003.33 2095.07   1-0.76888 0.12654 0.57976-0.57976 0.26961-0.80489
  -5   6   0 5538.06 1717.84   1-0.01154-0.52413 0.53498 0.10782 0.84478-0.84478
  -6   0   5 7723.03 1680.62   1 0.18425-0.82707 0.44839-0.44839 0.87463-0.33895
   0   5  -6 7261.25 2710.73   1 0.48080-0.48080 0.85952-0.32546 0.17331-0.81418
   5   6   0 4602.18 4282.98   1 0.48799 0.04780 0.13806 0.50488 0.86185-0.86185
   0   5   6 4775.06 2133.02   1 0.25094-0.25094-0.40208 0.93861 0.88053-0.23671
   6   0   5 8268.78 1854.25   1-0.01097 0.65482-0.74430 0.74430 0.66774-0.13120
   1   0  -665494.31 6330.98   1-0.86443 0.97133 0.16843-0.16843-0.47369-0.16773
  -1   0  -657253.51 5054.57   1-0.91017 0.80321 0.37398-0.37398-0.17809-0.46366
  -6  -1   061454.32 4806.00   1-0.43583-0.20683 0.63342-0.74053 0.63939-0.63939
  -6   1   061211.41 5385.31   1-0.23002-0.41264 0.60140-0.49429 0.76511-0.76511
   0   6  -156745.49 4110.64   1 0.12899-0.12899 0.47538 0.16743 0.87027-0.97740
   0   6   164928.99 4878.03   1 0.56584-0.56584 0.19683 0.44586 0.80067-0.69355
   0   6  -172655.5112563.53   1 0.55156-0.55156 0.44731 0.19479 0.70405-0.81106
   0   6   176461.5311021.63   1 0.50261-0.50261 0.18983 0.45311 0.84340-0.73625
   6   1   056462.22 4416.99   1 0.36221 0.28074-0.19083 0.29798 0.91235-0.91235
   1   0   661648.82 5237.86   1-0.23073 0.33789-0.90039 0.90039 0.36884 0.27407
  -1   0   656632.73 4515.61   1-0.28059 0.17343-0.91696 0.91696 0.28362 0.35929
   1  -1  -669017.59 5502.72   1-0.85171 0.95862 0.14254-0.24944-0.50424-0.13718
   1   1  -664287.59 4989.04   1-0.87202 0.97893 0.18544-0.07854-0.45296-0.18846
  -1  -1  -657214.71 4781.96   1-0.91070 0.80374 0.33428-0.44124-0.24263-0.39912
  -1   1  -666279.34 5160.99   1-0.90531 0.79835 0.40745-0.30049-0.11991-0.52184
  -6  -1  -159434.95 4898.85   1-0.53749-0.10517 0.63513-0.74224 0.55471-0.66182
  -6   1  -157086.09 4928.35   1-0.35138-0.29128 0.62441-0.51730 0.69759-0.80470
  -6  -1   160355.20 4916.85   1-0.32341-0.31925 0.62010-0.72721 0.71475-0.60764
  -6   1   161057.90 5707.44   1-0.10858-0.53422 0.56872-0.46159 0.81532-0.70819
  -1   6  -159250.33 4464.52   1 0.08168-0.18882 0.49687 0.14594 0.86397-0.97110
  -1   6   161418.51 4739.50   1 0.46466-0.57178 0.27644 0.36625 0.84122-0.73410
   1   6   164622.89 4927.05   1 0.66519-0.55808 0.10513 0.53756 0.73922-0.63211
  -1   6  -154885.96 5121.04   1 0.55768-0.66470 0.53728 0.10481 0.63269-0.73971
   1   6  -176747.4213388.63   1 0.54188-0.43487 0.37401 0.26808 0.75264-0.85966
  -1   6   161715.38 5451.37   1 0.52714-0.63416 0.29385 0.34824 0.79734-0.69033
   1   6   172635.54 8614.72   1 0.48080-0.37364 0.11431 0.52864 0.86934-0.76218
   6   1  -158730.98 5096.65   1 0.47148 0.17147 0.08490 0.02225 0.87777-0.98493
   6   1   158909.12 4538.98   1 0.25765 0.38617-0.39081 0.49811 0.88367-0.77636
   6  -1   159852.49 4268.97   1 0.10721 0.53661-0.61168 0.50437 0.78380-0.67649
   1   1   662519.54 7899.76   1-0.14033 0.24764-0.85156 0.95886 0.50512 0.13872
  -1   1   659470.14 4463.01   1-0.17412 0.06682-0.87265 0.97996 0.45623 0.18761
   1  -1   661630.53 4944.45   1-0.30620 0.41336-0.92207 0.81492 0.23667 0.40624
  -1  -1   659120.90 5049.70   1-0.36228 0.25513-0.92364 0.81649 0.12499 0.51792
  -2  -6  -158087.57 4549.36   1-0.75463 0.54083-0.00435-0.63707-0.65612 0.54922
   1  -2  -655756.50 5022.92   1-0.83384 0.94074 0.11005-0.32386-0.54091-0.10050
   1   2  -651707.23 3893.88   1-0.87384 0.98075 0.18973 0.02407-0.44765-0.19377
  -1  -2  -653199.01 5538.16   1-0.90538 0.79842 0.28913-0.50305-0.31092-0.33083
  -1   2  -652146.37 4788.07   1-0.89816 0.79120 0.43387-0.21995-0.07112-0.57063
  -6  -1  -253031.10 4525.12   1-0.62548-0.01685 0.62550-0.73256 0.46637-0.68048
  -6   1  -253740.78 4894.49   1-0.46559-0.17707 0.63504-0.52793 0.61639-0.83062
  -6  -1   253493.63 4312.53   1-0.20651-0.43615 0.59569-0.70281 0.77620-0.56198
  -6   1   249168.37 4703.33   1 0.00500-0.64781 0.52862-0.42149 0.84883-0.63456
  -2   6  -148934.71 4283.73   1 0.03031-0.24458 0.51856 0.12424 0.85449-0.96163
  -2   6   153023.64 4538.00   1 0.36616-0.58040 0.34392 0.29877 0.86465-0.75754
  -2   6  -151608.31 5604.96   1 0.55499-0.76903 0.63933 0.00276 0.53218-0.63920
  -2   6   150757.23 7241.34   1 0.54956-0.76359 0.42938 0.21271 0.71666-0.60965
   2   6  -153969.0017300.04   1 0.53219-0.31816 0.31894 0.32315 0.78424-0.89125
   2   6   154265.3718714.26   1 0.46460-0.25028 0.06405 0.57889 0.88319-0.77603
   6   1   253243.42 4252.95   1 0.17473 0.46909-0.52037 0.62768 0.83586-0.62125
   6  -1   253991.40 4052.14   1 0.01499 0.62884-0.71795 0.61064 0.69593-0.48131
   1   2   649686.85 4011.30   1-0.04237 0.14967-0.77404 0.98865 0.63171 0.01213
  -1   2   652914.30 5513.76   1-0.05302-0.05428-0.78360 0.99821 0.61899 0.02484
   1  -2   651666.25 4893.96   1-0.36503 0.47218-0.92333 0.70903 0.11916 0.52375
  -1  -2   646571.51 4136.84   1-0.41999 0.31284-0.90750 0.69319-0.00639 0.64931
   1  -3  -628729.66 9978.82   1-0.81057 0.91748 0.07247-0.39318-0.58113-0.06029
  -1  -3  -625368.86 7984.65   1-0.89239 0.78548 0.24095-0.56166-0.38154-0.25988
  -1   3  -626437.14 3831.32   1-0.89114 0.78418 0.45233-0.13145-0.03532-0.60643
  -6  -1  -326657.57 9166.79   1-0.69938 0.05704 0.60832-0.71538 0.37523-0.69640
  -6   1  -328681.57 3147.73   1-0.56789-0.07477 0.63334-0.52623 0.52570-0.84704
  -6  -1   329028.76 2561.79   1-0.09465-0.54816 0.56425-0.67139 0.82015-0.49874
  -3   6  -128056.15 2414.11   1-0.02321-0.29818 0.53936 0.10344 0.84174-0.94888
  -6   1   327641.93 2758.86   1 0.10408-0.74689 0.48687-0.37974 0.86724-0.54583
  -3   6   127632.51 2777.91   1 0.27229-0.59370 0.40106 0.24175 0.87464-0.76750
   1   3  -625152.13 2284.70   1 0.45873-0.35192 0.88198-0.56154 0.10800-0.74887
  -3   6  -121016.72 6333.40   1 0.53807-0.85850 0.74438-0.10351 0.39542-0.50224
   3   6  -132519.4113464.90   1 0.52459-0.20354 0.28182 0.36027 0.80335-0.91037
   3   6   133287.3311795.11   1 0.45467-0.13320 0.03510 0.60784 0.88996-0.78280
   6   1   328001.00 2002.31   1 0.11588 0.52793-0.60061 0.70791 0.79109-0.46918
  -1   3   628614.81 1913.79   1 0.07053-0.17783-0.65625 0.97818 0.75123-0.10738
   1   3   630043.28 2198.34   1 0.05667 0.05063-0.67233 0.99426 0.73807-0.09422
   6  -1   329852.98 1981.91   1-0.03619 0.68004-0.76838 0.66107 0.63896-0.31704
   1  -3   631028.86 3065.81   1-0.40807 0.51523-0.91267 0.59121 0.02243 0.62048
   1  -4  -621758.63 5603.79   1-0.78163 0.88853 0.03081-0.45843-0.62297-0.01844
  -1  -4  -624027.95 8644.43   1-0.87261 0.76570 0.18681-0.61443-0.45127-0.19015
  -6  -1  -423118.63 5316.82   1-0.75996 0.11762 0.58433-0.69138 0.28461-0.71284
  -6   1  -423526.32 5788.49   1-0.65643 0.01409 0.61962-0.51256 0.43030-0.85853
  -4   6  -123875.16 3482.05   1-0.07803-0.35050 0.55876 0.08404 0.82564-0.93278
  -4   6   124893.28 3089.73   1 0.18266-0.61121 0.44920 0.19361 0.87455-0.76742
  -6   1   426047.11 2634.68   1 0.18462-0.82743 0.44821-0.34107 0.87465-0.44611
   1   4  -618657.94 7088.19   1 0.48295-0.37614 0.85693-0.42969 0.18003-0.82090
   4   6  -126684.84 8316.50   1 0.52046-0.09182 0.26177 0.38118 0.81276-0.91992
   4   6   122889.19 7535.77   1 0.45077-0.02213 0.02405 0.61890 0.89231-0.78515
  -1   4   624598.75 4735.79   1 0.18426-0.29156-0.50651 0.93573 0.84231-0.19848
   1   4   622218.24 6778.39   1 0.15054-0.04323-0.55446 0.98368 0.81847-0.17465
   6   1   423820.04 2231.86   1 0.07712 0.56672-0.64844 0.75575 0.75734-0.32811
   6  -1   422963.05 7302.89   1-0.06280 0.70665-0.79214 0.68483 0.60709-0.17786
   1  -5  -6 9214.96 2067.22   1-0.74670 0.85361-0.01415-0.52037-0.66499 0.02357
  -1  -5  -6 9959.35 4131.70   1-0.84471 0.73781 0.12935-0.66387-0.51934-0.12207
  -6  -1  -5 8931.35 2620.86   1-0.80859 0.16624 0.55491-0.66197 0.19557-0.73085
  -6   1  -5 8866.70 3298.04   1-0.72996 0.08761 0.59759-0.49053 0.33171-0.86700
  -5   6  -1 9456.29 2452.45   1-0.13370-0.40197 0.57646 0.06634 0.80610-0.91324
  -5   6   113751.15 4011.19   1 0.09706-0.63274 0.49004 0.15276 0.86627-0.75914
  -6   1   5 9140.15 2319.81   1 0.24545-0.88827 0.41607-0.30894 0.87557-0.33989
  -1   5  -610024.26 4295.10   1 0.45837-0.56518 0.88229-0.34823 0.10698-0.74785
   1   5  -6 9175.57 4614.22   1 0.49766-0.39085 0.83676-0.30270 0.22838-0.86925
   5   6  -113410.24 6364.75   1 0.51931 0.01648 0.25674 0.38621 0.81510-0.92226
   5   6   1 8889.07 3863.10   1 0.45224 0.08354 0.02820 0.61474 0.89144-0.78428
   1   5   6 8427.61 2798.41   1 0.23480-0.12750-0.42860 0.96513 0.87244-0.22861
   6   1   5 9293.60 4226.56   1 0.05404 0.58980-0.67534 0.78264 0.73552-0.19898
   6  -1   512139.37 2036.10   1-0.07375 0.71760-0.80142 0.69411 0.59352-0.05698
   2   0  -654081.46 4419.52   1-0.78527 0.99908 0.03581-0.03581-0.61810-0.02331
  -2   0  -649500.13 6332.21   1-0.89575 0.68183 0.44076-0.44076-0.05794-0.58381
  -6  -2   049736.77 3934.38   1-0.56814-0.07452 0.63332-0.84755 0.52545-0.52545
  -6   2   049530.34 4719.59   1-0.16238-0.48028 0.58396-0.36974 0.79537-0.79537
   0   6   252843.22 4176.00   1 0.66080-0.66080 0.10954 0.53315 0.74252-0.52828
   0   6  -246433.94 4831.87   1 0.55808-0.55808 0.56063 0.08146 0.61174-0.82577
   0   6   258978.56 9137.29   1 0.46414-0.46414 0.06268 0.58027 0.88353-0.66922
   6   2   047427.34 4189.72   1 0.39584 0.24711-0.11593 0.33025 0.91097-0.91097
   2   0   654882.89 4907.06   1-0.19676 0.41107-0.88461 0.88461 0.42276 0.22015
  -2   0   649691.78 3997.40   1-0.29410 0.07980-0.91997 0.91997 0.25914 0.38377
  -1  -6  -258426.73 4826.98   1-0.74317 0.63627-0.01844-0.62297-0.66884 0.45503
   2   1  -657979.26 4546.89   1-0.78324 0.99705 0.03302 0.07388-0.62083-0.02059
   2  -1  -655514.58 4658.75   1-0.77736 0.99117 0.02504-0.13195-0.62855-0.01287
  -2  -1  -649932.26 4634.63   1-0.90647 0.69255 0.40167-0.50863-0.13023-0.51152
  -2   1  -651896.32 4918.91   1-0.88094 0.66702 0.47316-0.36620 0.00706-0.64882
  -6  -2  -154998.47 6428.48   1-0.64666 0.00432 0.62166-0.83577 0.44199-0.54904
  -6  -2   151651.96 4020.32   1-0.47650-0.16616 0.63541-0.84963 0.60761-0.50050
  -6   2  -153233.84 4848.46   1-0.28444-0.35822 0.61308-0.39886 0.73703-0.84414
  -1   6  -247145.35 3532.58   1-0.19703 0.08992 0.59329 0.04937 0.78050-0.99472
  -6   2   153962.02 5834.75   1-0.04436-0.59844 0.54708-0.33280 0.83590-0.72876
  -1   6   254247.08 4492.30   1 0.56874-0.67585 0.19436 0.44833 0.79922-0.58498
  -1   6  -252874.84 5278.65   1 0.55523-0.66225 0.63658 0.00551 0.53522-0.74926
   1   6  -256882.18 5960.53   1 0.55571-0.44869 0.49553 0.14656 0.66755-0.88158
  -1   6   256702.40 6008.64   1 0.49562-0.60278 0.16445 0.47849 0.85282-0.63850
   6   2  -147452.02 4129.65   1 0.47725 0.16569 0.10296 0.11135 0.87271-0.97986
   1   6   244447.1613509.10   1 0.43963-0.33248-0.00652 0.64948 0.89815-0.68383
   6   2   144762.49 6453.99   1 0.31312 0.33070-0.29144 0.50605 0.90388-0.79658
   6  -2   152998.40 3801.26   1 0.01057 0.63326-0.72254 0.50793 0.69123-0.58393
   2   1   654758.93 4785.72   1-0.11279 0.32741-0.83216 0.93947 0.54292 0.10091
  -2   1   652844.05 4154.06   1-0.17587-0.03873-0.87366 0.98097 0.45362 0.19022
   2  -1   656481.64 5266.55   1-0.26932 0.48363-0.91395 0.80680 0.30355 0.33936
  -2  -1   650237.10 4224.98   1-0.38040 0.16609-0.92082 0.81367 0.08583 0.55708
   2  -2  -639089.35 4220.28   1-0.76196 0.97577 0.00489-0.21870-0.64760 0.00617
   2   2  -634040.26 2894.65   1-0.76492 0.97873 0.00869 0.20511-0.64405 0.00263
  -2  -6  -240660.70 3540.30   1-0.81025 0.59644 0.07198-0.71340-0.58164 0.36783
  -2  -2  -633575.5310731.39   1-0.91105 0.69713 0.35637-0.57029-0.20729-0.43446
  -2   2  -638010.07 3440.43   1-0.86457 0.65065 0.49862-0.28471 0.06221-0.70397
  -6  -2  -230672.43 7526.99   1-0.71275 0.07041 0.60394-0.81805 0.35669-0.57081
  -6   2  -233126.12 3650.36   1-0.40346-0.23920 0.63070-0.41648 0.66288-0.87710
  -6  -2   233980.66 2824.03   1-0.37430-0.26836 0.62746-0.84169 0.68277-0.46854
  -2   6  -232918.24 3058.23   1-0.18885-0.02536 0.59116 0.05150 0.78412-0.99835
  -6   2   233126.49 4164.73   1 0.06247-0.70529 0.50518-0.29091 0.86074-0.64647
  -2   6   234539.85 3295.38   1 0.47250-0.68673 0.27068 0.37201 0.83873-0.62449
  -2   6  -230791.87 9807.06   1 0.54478-0.75840 0.71777-0.07690 0.43360-0.64723
   2   6  -235687.0512986.70   1 0.55122-0.33719 0.44410 0.19799 0.70634-0.92037
   6   2  -234271.75 5246.26   1 0.53625 0.10584 0.34067-0.12663 0.77225-0.98628
  -2   6   232478.27 3817.15   1 0.52943-0.74347 0.30500 0.33710 0.79162-0.57759
   2   6   231177.93 9547.19   1 0.42310-0.20878-0.04969 0.69264 0.90471-0.69039
   6   2   229031.75 9554.19   1 0.24104 0.40278-0.41845 0.63306 0.87566-0.66105
   2   2   634474.84 3319.85   1-0.02360 0.23821-0.75654 0.97116 0.65351-0.00966
  -2   2   636093.76 5256.50   1-0.03746-0.17715-0.76954 0.98416 0.63749 0.00635
   6  -2   235621.12 2889.69   1-0.07179 0.71563-0.79978 0.58516 0.59597-0.38136
   2  -2   638291.03 3944.56   1-0.32831 0.54262-0.92438 0.71008 0.19420 0.44871
   2  -3  -626941.14 2808.60   1-0.74009 0.95389-0.02216-0.29855-0.67214 0.03071
  -3  -6  -225304.47 2897.59   1-0.85831 0.53759 0.15561-0.79704-0.48896 0.27515
  -2  -3  -623845.93 5108.34   1-0.90798 0.69406 0.30545-0.62633-0.28681-0.35493
  -2   3  -621307.89 8714.98   1-0.84782 0.63370 0.51971-0.19854 0.10531-0.74765
  -6  -2  -324348.70 2580.31   1-0.76707 0.12472 0.58071-0.79483 0.27270-0.59387
  -6   2  -323842.26 2863.43   1-0.51358-0.12908 0.63574-0.42151 0.57624-0.89758
  -3   6  -222090.88 2260.92   1-0.20336-0.11797 0.59490 0.04776 0.77764-0.99186
  -6   2   323638.77 2777.35   1 0.15340-0.79621 0.46371-0.24944 0.87260-0.55119
  -3   6   223547.22 2382.54   1 0.37586-0.69721 0.33766 0.30503 0.86296-0.64873
   2   3  -618636.24 7609.48   1 0.47493-0.26131 0.86621-0.54578 0.15527-0.79614
  -3   6  -219035.53 5757.91   1 0.51879-0.83922 0.79787-0.15700 0.30700-0.52062
   3   6  -223744.11 9351.99   1 0.54677-0.22572 0.40741 0.23468 0.73146-0.94550
   3   6   220314.86 7948.78   1 0.41418-0.09271-0.07197 0.71492 0.90734-0.69302
   6   2   320959.15 9552.44   1 0.18512 0.45869-0.50523 0.71984 0.84288-0.52097
   2   3   623572.60 2083.46   1 0.06599 0.14862-0.66157 0.98350 0.74696-0.10311
   6  -2   322487.30 1802.99   1-0.11130 0.75515-0.83106 0.61644 0.54492-0.22299
   2  -3   622198.79 2800.27   1-0.37348 0.58779-0.92212 0.60066 0.10097 0.54194
  -2  -4  -6 9632.15 2383.51   1-0.89534 0.68154 0.25109-0.67871-0.36783-0.27359
  -2   4  -6 8635.48 2922.21   1-0.83664 0.62252 0.53124-0.10301 0.13344-0.77578
  -6  -2  -4 9754.49 3336.32   1-0.81102 0.16867 0.55310-0.76722 0.19057-0.61880
  -6   2  -410279.00 3074.26   1-0.61155-0.03078 0.62762-0.41351 0.48174-0.90997
  -4   6  -2 9985.10 2385.47   1-0.23015-0.19828 0.60143 0.04123 0.76505-0.97927
  -6   2   4 9738.80 1789.17   1 0.22605-0.86887 0.42660-0.21233 0.87573-0.44718
  -4   6   210903.94 2636.70   1 0.28113-0.70967 0.39600 0.24680 0.87415-0.65988
  -4   6  -2 6910.23 2727.43   1 0.47471-0.90195 0.86645-0.22558 0.15459-0.36821
   2   4  -6 7896.84 3386.46   1 0.49690-0.28328 0.83791-0.41066 0.22579-0.86666
   4   6  -210283.80 5002.54   1 0.54365-0.11558 0.38549 0.25661 0.74554-0.95957
   4   6   2 8291.47 2758.86   1 0.41204 0.01659-0.07724 0.72020 0.90788-0.69356
   2   4   6 8431.46 2692.62   1 0.15140 0.06320-0.55326 0.98248 0.81912-0.17530
   6   2   4 8020.93 2747.32   1 0.14512 0.49870-0.56188 0.77649 0.81438-0.38516
   6  -2   4 9264.68 1570.10   1-0.12827 0.77211-0.84330 0.62868 0.52190-0.09267
   2  -4   611457.17 3051.91   1-0.40632 0.62063-0.91334 0.48472 0.02659 0.61632
  -2  -5  -6 6187.92 2225.30   1-0.87422 0.66041 0.19064-0.72516-0.44652-0.19489
  -6  -2  -5 4364.09 2076.28   1-0.84586 0.20351 0.52184-0.73596 0.11042-0.64571
  -6   2  -5 3613.51 1970.23   1-0.69465 0.05231 0.60976-0.39565 0.38162-0.91690
  -5   6  -2 3959.30 1643.08   1-0.26446-0.27109 0.60904 0.03362 0.74774-0.96196
  -5   6   2 6526.78 2760.02   1 0.18883-0.72451 0.44606 0.19674 0.87485-0.66057
  -6   2   5 4828.05 2235.02   1 0.28033-0.92315 0.39646-0.18219 0.87420-0.33852
  -2   5   6 6044.88 2256.90   1 0.67788-0.89211 0.09216 0.44341 0.72937-0.08667
   2   5  -6 2999.89 2614.25   1 0.50972-0.29610 0.81633-0.28227 0.27162-0.91249
   5   6  -2 6878.82 3149.09   1 0.54247-0.00738 0.37773 0.26436 0.75036-0.96439
   5   6   2 3946.10 2369.82   1 0.41568 0.12010-0.06827 0.71122 0.90694-0.69262
   2   5   6 5763.88 2785.87   1 0.22923-0.01462-0.43757 0.97410 0.86947-0.22564
   6   2   5 3284.91 1498.62   1 0.11886 0.52496-0.59677 0.81138 0.79355-0.25703
   6  -2   5 5125.05 2010.01   1-0.13165 0.77550-0.84565 0.63104 0.51722 0.01931
   2  -5   6 8165.37 3097.20   1-0.42902 0.64332-0.90283 0.36706-0.02893 0.67185
  -3   0  -635569.98 3160.90   1-0.87297 0.55209 0.48647-0.48647 0.03538-0.67714
  -6  -3   037314.87 2315.42   1-0.70477 0.06242 0.60661-0.92778 0.36785-0.36785
  -6   3   034783.53 3029.32   1-0.11619-0.52661 0.57111-0.24971 0.81260-0.81260
  -3   0   629167.10 1973.94   1 0.66911-0.99046 0.10116-0.10116 0.73624-0.09354
   0   6  -334786.7714643.26   1 0.55319-0.55319 0.65724-0.01514 0.51186-0.83291
   6   3   036337.56 4596.60   1 0.42468 0.21827-0.04567 0.36715 0.90418-0.90418
   0   6   333912.39 4283.06   1 0.42275-0.42275-0.05056 0.69352 0.90483-0.58335
   3   0   634684.19 2395.34   1-0.15723 0.47916-0.86249 0.86249 0.48102 0.16282
  -3   0   635452.59 2107.78   1-0.29736-0.02409-0.92059 0.92059 0.25314 0.38977
  -1  -6  -333991.78 2767.61   1-0.78224 0.67534 0.03165-0.67308-0.62216 0.30145
  -3  -1  -626752.96 8254.71   1-0.89195 0.57107 0.45042-0.55738-0.03910-0.60265
  -3   1  -627716.14 2736.13   1-0.84957 0.52839 0.51777-0.41071 0.10069-0.74303
  -6  -3  -128423.42 2440.99   1-0.75337 0.11103 0.58751-0.90868 0.29539-0.40244
  -6   3  -127800.01 2646.66   1-0.23619-0.40647 0.60283-0.28149 0.76210-0.86921
  -6   3   127771.84 3113.97   1-0.00358-0.63923 0.53195-0.21054 0.84676-0.73963
  -1   6   326750.74 2184.34   1 0.63404-0.74116 0.13563 0.50706 0.76130-0.43995
  -3  -1   624919.83 1920.57   1 0.64490-0.96625 0.12520-0.23232 0.75393-0.11123
  -3   1   624606.52 2526.58   1 0.67458-0.99593 0.09556 0.01155 0.73198-0.08928
  -1   6  -328831.06 9595.68   1 0.54487-0.65168 0.71735-0.07648 0.43418-0.75462
   1   6  -326390.55 8753.51   1 0.55733-0.45031 0.60281 0.03928 0.57095-0.89200
   6   3  -123816.85 9677.05   1 0.48708 0.15587 0.13500 0.18646 0.86285-0.97001
  -1   6   327608.3411516.85   1 0.45739-0.56454 0.04289 0.60006 0.88823-0.56675
   1   6   324279.30 8115.33   1 0.39799-0.29084-0.11088 0.75384 0.91065-0.58918
   6   3   124318.22 9593.35   1 0.35830 0.28464-0.19910 0.52058 0.91212-0.80496
   3   1   628522.75 2456.34   1-0.07993 0.40186-0.80654 0.91385 0.58574 0.05810
   3  -1   627166.80 2882.66   1-0.22723 0.54869-0.89892 0.79177 0.37455 0.26836
  -3  -1   624923.44 2081.66   1-0.39094 0.06948-0.91830 0.81115 0.06223 0.58068
  -2  -6  -324826.09 3290.53   1-0.83462 0.62081 0.11140-0.75282-0.53943 0.21872
  -3  -2  -623129.46 7467.94   1-0.90531 0.58443 0.40745-0.62137-0.11991-0.52184
  -3   2  -621808.63 6022.31   1-0.82684 0.50566 0.54026-0.32615 0.15635-0.79870
  -6  -3  -222375.45 7017.60   1-0.79422 0.15187 0.56486-0.88604 0.22390-0.43802
  -2   6  -322608.17 1633.15   1-0.40808 0.19386 0.63115 0.01151 0.65962-0.98096
  -6   3  -224775.23 2496.06   1-0.35630-0.28636 0.62510-0.30377 0.69446-0.90869
  -6   3   227315.07 2579.00   1 0.09642-0.73923 0.49033-0.16892 0.86618-0.65191
  -2   6   324221.70 2696.67   1 0.54533-0.75956 0.21394 0.42875 0.81045-0.48910
  -3   2   620398.42 2371.87   1 0.66787-0.98922 0.10242 0.11181 0.73719-0.09449
   3   2  -617978.86 7845.21   1 0.45056-0.13013 0.88865-0.67503 0.08535-0.72622
  -2   6  -319274.33 9339.61   1 0.52608-0.73970 0.78043-0.13956 0.33786-0.65829
   2   6  -323714.2510396.37   1 0.55806-0.34403 0.55803 0.08406 0.61413-0.93518
   6   3  -218321.83 7315.82   1 0.53367 0.10842 0.32665-0.00560 0.78005-0.99408
   2   6   323443.36 7139.72   1 0.38265-0.16833-0.14611 0.78907 0.91226-0.59078
   6   3   222178.33 6392.45   1 0.29809 0.34573-0.31951 0.64143 0.89947-0.68486
   3   2   625760.60 2909.12   1 0.00145 0.32047-0.73189 0.94651 0.68141-0.03756
   6  -3   222163.61 1390.27   1-0.15395 0.79780-0.86043 0.53850 0.48575-0.27113
   3  -2   623890.98 3049.67   1-0.28574 0.60720-0.91819 0.70388 0.27435 0.36856
  -3  -6  -315880.42 4082.05   1-0.87078 0.55007 0.18257-0.82400-0.45650 0.13578
  -3  -3  -615782.49 5968.58   1-0.91102 0.59014 0.35791-0.67879-0.20476-0.43699
  -6  -3  -316106.78 5349.97   1-0.82809 0.18574 0.53916-0.86033 0.15350-0.47468
  -3   3  -613294.81 5463.74   1-0.80655 0.48537 0.55640-0.23523 0.19972-0.84206
  -6   3  -317518.81 3110.93   1-0.47058-0.17208 0.63522-0.31389 0.61239-0.93373
  -3   6  -315474.31 2001.85   1-0.38349 0.06216 0.62856 0.01410 0.67663-0.99796
  -6   3   316770.43 3485.96   1 0.18030-0.82311 0.45039-0.12898 0.87443-0.55302
  -3   6   317045.57 2796.78   1 0.45209-0.77344 0.28556 0.35713 0.84502-0.52367
  -3   3   616840.61 2732.02   1 0.65202-0.97337 0.11824 0.20310 0.74891-0.10621
   3   3  -611104.62 4700.48   1 0.48575-0.16532 0.85342-0.53299 0.18894-0.82981
  -3   6  -315304.61 4496.57   1 0.49580-0.81623 0.83957-0.19870 0.22203-0.54246
   3   6  -317349.28 7301.39   1 0.55726-0.23621 0.52471 0.11738 0.64353-0.96458
   6   3  -313003.82 6305.94   1 0.55645 0.08564 0.50784-0.18679 0.65760-0.97865
   3   6   313522.12 5563.84   1 0.37558-0.05410-0.16184 0.80480 0.91254-0.59106
   6   3   314254.11 7155.20   1 0.24742 0.39640-0.40794 0.72986 0.87883-0.55692
   3   3   617882.79 5927.96   1 0.08268 0.23923-0.64176 0.96369 0.76242-0.11857
   6  -3   315503.97 1720.30   1-0.17921 0.82305-0.87556 0.55364 0.44862-0.12670
   3  -3   617259.54 3235.07   1-0.33242 0.65388-0.92458 0.60312 0.18610 0.45680
  -4  -6  -310243.80 2734.99   1-0.89266 0.46504 0.24184-0.88327-0.38033 0.05962
  -3  -4  -610612.46 3600.77   1-0.90754 0.58666 0.30232-0.73016-0.29149-0.35026
  -6  -3  -410664.57 4366.48   1-0.85563 0.21329 0.51069-0.83186 0.08411-0.51234
  -3   4  -6 9053.26 3749.52   1-0.79138 0.47021 0.56669-0.13846 0.22928-0.87162
  -6   3  -410826.38 2049.62   1-0.57430-0.06836 0.63281-0.31148 0.51934-0.94778
  -4   6  -312683.17 2350.95   1-0.38221-0.04622 0.62841 0.01425 0.67749-0.99882
  -6   3   411942.62 3073.31   1 0.24677-0.88958 0.41535-0.09394 0.87554-0.44700
  -4   6   310389.94 1816.63   1 0.35724-0.78571 0.34961 0.29308 0.86610-0.54475
  -3   4   611113.95 2645.09   1 0.62856-0.94991 0.14083 0.28763 0.76490-0.12220
  -4   6  -3 9982.54 4476.72   1 0.45150-0.87875 0.88792-0.24705 0.08792-0.40835
   3   4  -611357.43 5096.87   1 0.50621-0.18577 0.82271-0.39547 0.25862-0.89949
   4   6  -3 9249.17 4915.35   1 0.55621-0.12815 0.50368 0.13841 0.66099-0.98204
   4   6   3 9054.31 4502.02   1 0.37555 0.05308-0.16191 0.80487 0.91254-0.59106
   6   3   4 8632.97 3295.99   1 0.20861 0.43520-0.46991 0.79182 0.85770-0.42848
   3   4   610451.77 4405.98   1 0.16041 0.16149-0.54074 0.96995 0.82575-0.18192
   6  -3   410781.63 2092.50   1-0.18624 0.83009-0.87947 0.55755 0.43799-0.00876
   3  -4   610201.55 2350.66   1-0.36779 0.68925-0.92298 0.49437 0.11326 0.52964
  -3  -5  -6 6238.36 2091.96   1-0.89289 0.57217 0.24259-0.77712-0.37932-0.26209
  -6  -3  -5 5497.84 2246.17   1-0.87800 0.23624 0.47831-0.79919 0.01789-0.55269
  -6   3  -5 4031.54 1961.22   1-0.66526 0.02292 0.61761-0.29644 0.41948-0.95477
  -5   6  -3 5017.78 1962.73   1-0.39515-0.14040 0.62986 0.01280 0.66867-0.99001
  -5   6   3 2783.11 1982.67   1 0.26280-0.79848 0.40643 0.23638 0.87506-0.55366
  -6   3   5 4069.58 1608.28   1 0.29623-0.93905 0.38722-0.06581 0.87309-0.33742
  -3   5   6 3623.05 1934.95   1 0.59820-0.91955 0.16866 0.36691 0.78339-0.14069
   3   5  -6 4462.41 3696.06   1 0.51771-0.19728 0.80023-0.26617 0.30265-0.94352
   5   6  -3 5941.01 3213.79   1 0.55568-0.02059 0.49513 0.14696 0.66787-0.98892
   5   6   3 3761.64 1961.01   1 0.38140 0.15438-0.14891 0.79186 0.91233-0.59085
   3   5   6 4414.00 1570.65   1 0.23197 0.08994-0.43318 0.96970 0.87094-0.22711
   6   3   5 4144.71 1437.99   1 0.18120 0.46261-0.51098 0.83289 0.84027-0.30374
   6  -3   5 5399.95 1362.86   1-0.18248 0.82633-0.87740 0.55547 0.44369 0.09284
   3  -5   6 5347.59 2641.02   1-0.39325 0.71471-0.91766 0.38189 0.05696 0.58595
   0  -6  -413508.54 2739.05   1-0.74373 0.74373-0.01776-0.62366-0.66823 0.24061
  -4   0  -611997.85 4261.82   1-0.84903 0.42080 0.51836-0.51836 0.10211-0.74445
  -6   4   013503.71 2129.78   1-0.08925-0.55355 0.56249-0.13395 0.82196-0.82196
  -4   0   613899.54 1751.29   1 0.52973-0.95820 0.22660-0.22660 0.81733-0.17463
   0   6  -411511.32 4414.65   1 0.54053-0.54053 0.73535-0.09448 0.40875-0.83600
   6   4   013052.93 6517.76   1 0.44991 0.19303 0.02165 0.40697 0.89280-0.89280
   0   6   411271.85 4184.31   1 0.38369-0.38369-0.14377 0.78673 0.91219-0.48356
   4   0   614908.92 2820.55   1-0.11415 0.54338-0.83317 0.83317 0.54110 0.10274
  -1  -6  -429197.40 2706.88   1-0.80117 0.69427 0.05841-0.69984-0.59557 0.16795
  -4  -1  -622312.68 6077.53   1-0.87457 0.44673 0.48397-0.59093 0.02997-0.67173
  -4   1  -621064.09 6864.82   1-0.82246 0.39423 0.54401-0.43695 0.16614-0.80848
  -6   4  -119358.06 2446.52   1-0.20554-0.43712 0.59545-0.16701 0.77664-0.88375
  -6   4   118454.42 2874.44   1 0.01783-0.66064 0.52357-0.09503 0.85179-0.74465
  -4   1   623743.02 2812.26   1 0.55279-0.98126 0.20778-0.10066 0.80699-0.16429
  -1   6   425100.16 2845.94   1 0.67343-0.78055 0.09674 0.54595 0.73288-0.30441
  -1   6  -424971.9712162.85   1 0.52533-0.63214 0.78235-0.14148 0.33457-0.76182
   1   6  -420796.33 8645.74   1 0.54987-0.44306 0.69196-0.05109 0.46778-0.89503
   6   4  -123227.2111493.50   1 0.49844 0.14450 0.17454 0.25408 0.84916-0.95632
  -1   6   419351.83 7185.61   1 0.41860-0.52576-0.06102 0.70397 0.90611-0.47748
   6   4   119617.60 9061.29   1 0.39698 0.24596-0.11325 0.54189 0.91080-0.80365
   1   6   423191.54 3867.38   1 0.36028-0.25312-0.19492 0.83788 0.91224-0.48361
   4   1   624366.53 2325.58   1-0.04262 0.47186-0.77427 0.88158 0.63140 0.01243
   4  -1   626420.75 2988.95   1-0.17975 0.60899-0.87587 0.76856 0.44780 0.19604
  -2  -6  -410324.07 3035.17   1-0.84456 0.63075 0.12907-0.77050-0.51966 0.09204
  -4  -2  -610386.05 5120.83   1-0.89440 0.46656 0.44434-0.65826-0.05099-0.59076
  -6  -4  -210711.03 3146.71   1-0.86029 0.21853 0.50424-0.93208 0.07496-0.28888
  -4   2  -611327.68 3055.55   1-0.79665 0.36842 0.56327-0.34915 0.21925-0.86160
  -6   4  -2 8383.53 2030.66   1-0.32439-0.31827 0.62026-0.19182 0.71416-0.92838
  -6   4   210223.75 2359.24   1 0.11171-0.75452 0.48339-0.05485 0.86824-0.65397
  -4   2   6 7921.30 2124.38   1 0.55831-0.98678 0.20317 0.01106 0.80436-0.16166
  -2   6   410304.64 2710.72   1 0.59298-0.80721 0.17331 0.46938 0.78634-0.35787
   4   2  -6 8099.43 2985.75   1 0.45599-0.02874 0.88431-0.67069 0.10031-0.74118
  -2   6  -4 6486.00 2782.52   1 0.50240-0.71602 0.82921-0.18834 0.24493-0.67218
   2   6  -4 8784.38 4750.48   1 0.55326-0.33923 0.65667-0.01457 0.51252-0.94059
   6   4  -2 8611.13 4483.80   1 0.53510 0.10699 0.33435 0.09371 0.77580-0.98983
   2   6   4 8068.57 3570.39   1 0.34809-0.13348-0.22240 0.86623 0.91069-0.48147
   6   4   2 9723.39 3524.88   1 0.34699 0.29682-0.22464 0.65386 0.91056-0.69595
   4   2   6 7959.28 4562.85   1 0.03157 0.39765-0.70029 0.91491 0.71315-0.06930
   4  -2   6 6792.08 1823.01   1-0.23767 0.66628-0.90318 0.68888 0.35743 0.28548
  -3  -6  -4 9984.12 3823.93   1-0.87441 0.55369 0.19108-0.83251-0.44597 0.01835
  -4  -3  -611462.89 3872.28   1-0.90722 0.47938 0.39748-0.71836-0.13764-0.50411
  -6  -4  -310702.11 3461.82   1-0.87634 0.23458 0.48109-0.90893 0.02380-0.34468
  -4   3  -6 8339.86 3869.86   1-0.77422 0.34599 0.57687-0.25569 0.26037-0.90272
  -6   4  -310069.98 1913.70   1-0.44010-0.20256 0.63370-0.20526 0.63617-0.95751
  -6   4   312445.36 3656.79   1 0.18986-0.83268 0.44554-0.01699 0.87489-0.55348
  -3   6   410197.78 2400.47   1 0.50540-0.82675 0.24578 0.39691 0.82713-0.39867
  -4   3   6 8554.68 1912.43   1 0.55140-0.97987 0.20893 0.11241 0.80764-0.16494
  -3   6  -4 9255.08 5228.89   1 0.46993-0.79037 0.87147-0.23060 0.14032-0.56756
   4   3  -6 6644.66 3443.99   1 0.49149-0.06424 0.84577-0.52534 0.20759-0.84846
   3   6  -414238.11 8036.29   1 0.55585-0.23480 0.62866 0.01343 0.54388-0.97194
   6   4  -3 9566.66 5167.82   1 0.55520 0.08689 0.48821-0.06014 0.67334-0.99440
   3   6   410527.55 4166.81   1 0.34303-0.02112-0.23274 0.87656 0.91003-0.48081
   6   4   3 8749.67 3199.40   1 0.30255 0.34127-0.31128 0.74050 0.90086-0.57895
   4   3   611146.95 3965.79   1 0.10537 0.32384-0.61401 0.93593 0.78222-0.13839
   4  -3   6 8829.78 2409.73   1-0.28500 0.71362-0.91802 0.59656 0.27568 0.36722
  -4  -6  -4 2216.38 1269.41   1-0.89284 0.46523 0.24245-0.88388-0.37952-0.04809
  -4  -4  -6 2582.41 1633.44   1-0.91104 0.48320 0.34363-0.77147-0.22783-0.41392
  -6  -4  -4 3228.19 1684.68   1-0.88988 0.24812 0.45522-0.88306-0.02956-0.39827
  -4   4  -6 1039.41 1267.26   1-0.75748 0.32925 0.58554-0.15731 0.28869-0.93104
  -6   4  -4 1368.26 1747.46   1-0.54745-0.09521 0.63467-0.20623 0.54541-0.97385
  -4   6  -4 2113.98 1170.31   1-0.52405 0.09561 0.63555 0.00711 0.56694-0.99539
  -6   4   4 1213.70 1953.86   1 0.25163-0.89444 0.41266 0.01587 0.87543-0.44689
  -4   6   4 1438.50 1969.23   1 0.41353-0.84199 0.31257 0.33012 0.85515-0.42668
  -4   4   6 3040.26 1782.71   1 0.53478-0.96325 0.22254 0.20592 0.81515-0.17245
   4   4  -6 2621.33 1564.83   1 0.51135-0.08411 0.81323-0.38598 0.27779-0.91866
   6   4  -4 1402.43 1310.39   1 0.55617 0.08592 0.62412-0.19606 0.54875-0.97682
   4   6  -4 4164.64 2136.61   1 0.55698-0.12891 0.61049 0.03160 0.56308-0.99115
   4   6   4 1604.78 1337.34   1 0.34497 0.08424-0.22879 0.87261 0.91030-0.48108
   6   4   4 1392.52 1490.33   1 0.26662 0.37719-0.37549 0.80471 0.88764-0.45842
   4   4   6  888.56  914.28   1 0.17586 0.25335-0.51874 0.94796 0.83664-0.19281
   6  -4   4 2132.01 1036.36   1-0.23524 0.87816-0.90222 0.47361 0.36144 0.06716
   4  -4   6 3267.87 1694.67   1-0.32224 0.75085-0.92395 0.49534 0.20606 0.43685
   4  -6   4 2249.90 1861.33   1-0.42567 0.85428-0.90464 0.26172-0.02049 0.44910
   0  -6  -5 9614.09 3055.08   1-0.75811 0.75811 0.00000-0.64143-0.65212 0.11760
  -5   0  -6 6755.78 3132.60   1-0.83053 0.29524 0.53697-0.53697 0.14790-0.79024
  -6   5   0 7086.38 3146.27   1-0.07876-0.56404 0.55900-0.02333 0.82541-0.82541
  -5   0   6 5034.15 1428.84   1 0.38100-0.91658 0.33431-0.33431 0.86201-0.21931
   0   6  -5 3528.13 2804.71   1 0.51862-0.51862 0.79823-0.15736 0.30633-0.84039
   6   5   0 6033.40 2603.38   1 0.47218 0.17077 0.08705 0.44874 0.87719-0.87719
   0   6   5 5741.38 2229.97   1 0.35224-0.35224-0.21382 0.85765 0.91115-0.37463
   5   0   6 7082.23 1747.15   1-0.06729 0.60383-0.79598 0.79598 0.60156 0.04228
  -1  -6  -510347.76 4798.78   1-0.80853 0.70162 0.06937-0.71079-0.58434 0.04982
  -5  -1  -610710.04 3628.31   1-0.85895 0.32415 0.50594-0.61290 0.07884-0.72060
  -5   1  -6 6687.70 2481.60   1-0.80212 0.26684 0.55954-0.45248 0.20856-0.85091
  -6   5  -1 6322.17 1903.59   1-0.19087-0.45179 0.59169-0.05613 0.78324-0.89035
  -6   5   1 9305.20 2315.40   1 0.02316-0.66598 0.52144 0.01422 0.85296-0.74583
  -5   1   6 8470.27 2070.47   1 0.42128-0.95686 0.30726-0.20014 0.85329-0.21059
  -1   6   510629.68 2956.78   1 0.69542-0.80253 0.07366 0.56903 0.71481-0.17923
  -1   6  -5 7339.10 3925.02   1 0.50018-0.60699 0.83282-0.19195 0.23711-0.77117
   1   6  -5 9268.59 4429.16   1 0.53151-0.42470 0.76548-0.12461 0.36265-0.89671
   6   5  -1 8760.00 3821.32   1 0.51011 0.13284 0.21862 0.31716 0.83185-0.93901
   6   5   111997.50 4828.52   1 0.42998 0.21297-0.03204 0.56784 0.90226-0.79510
   1   6   5 6985.99 4747.05   1 0.33074-0.22343-0.25734 0.90117 0.90795-0.37143
   5   1   6 9397.94 1935.82   1-0.00152 0.53806-0.73489 0.84220 0.67817-0.03432
   5  -1   610779.16 2106.40   1-0.12881 0.66535-0.84368 0.73637 0.52115 0.12269
  -2  -6  -5 3247.52 2813.48   1-0.84653 0.63272 0.13271-0.77414-0.51552-0.01899
  -5  -2  -6 4310.33 1921.34   1-0.88284 0.34804 0.46966-0.68358-0.00021-0.64154
  -5   2  -6 4813.06 2487.55   1-0.77538 0.24010 0.57622-0.36211 0.25833-0.90068
  -6   5  -2 4022.14 1785.75   1-0.30717-0.33549 0.61732-0.08176 0.72426-0.93848
  -6   5   2 4680.80 2136.13   1 0.11187-0.75468 0.48332 0.05235 0.86826-0.65399
  -5   2   6 3056.28 1613.56   1 0.43971-0.97530 0.29438-0.08015 0.84851-0.20581
  -2   6   5 4511.23 1832.68   1 0.62219-0.83642 0.14679 0.49590 0.76898-0.23339
  -2   6  -5 4963.02 2418.72   1 0.47492-0.68854 0.86622-0.22536 0.15523-0.68928
   2   6  -5 3721.48 3230.31   1 0.54007-0.32645 0.73707-0.09620 0.40624-0.94030
   6   5  -2 6345.06 3710.38   1 0.53872 0.10337 0.35478 0.18029 0.76413-0.97816
   6   5   2 4018.01 2284.21   1 0.38805 0.25489-0.13387 0.66967 0.91185-0.69754
   2   6   5 4587.74 2307.36   1 0.31926-0.10465-0.27972 0.92355 0.90544-0.36892
   5   2   6 4158.19 1820.08   1 0.06590 0.47063-0.66167 0.87629 0.74688-0.10303
   5  -2   6 4031.74 1662.97   1-0.18380 0.72033-0.87812 0.66351 0.44170 0.20213
  -3  -6  -5 5406.06 4035.30   1-0.87306 0.55235 0.18788-0.82930-0.44995-0.08457
  -5  -3  -6 3038.60 1974.52   1-0.90068 0.36588 0.42582-0.74670-0.08628-0.55547
  -5   3  -6 4866.97 2383.21   1-0.75261 0.21733 0.58786-0.26669 0.29661-0.93895
  -6   5  -3 6804.83 2565.54   1-0.42245-0.22021 0.63241-0.09685 0.64929-0.97062
  -6   5   3 3667.92 2944.83   1 0.18552-0.82833 0.44775 0.08792 0.87469-0.55329
  -5   3   6 3859.91 1509.28   1 0.44274-0.97833 0.29223 0.02911 0.84768-0.20498
  -3   6   5 4435.74 2043.29   1 0.54050-0.86185 0.21789 0.42480 0.81263-0.27705
  -3   6  -5 4410.82 2305.55   1 0.44165-0.76208 0.89508-0.25421 0.06142-0.59548
   3   6  -5 4335.22 3043.57   1 0.54540-0.22497 0.71493-0.07406 0.43748-0.97154
   6   5  -3 3130.54 1576.60   1 0.55514 0.08695 0.48735 0.04772 0.67401-0.99506
   6   5   3 3565.48 2305.04   1 0.35091 0.29290-0.21657 0.75310 0.91101-0.58910
   3   6   5 4155.76 2197.50   1 0.31602 0.00589-0.28593 0.92976 0.90463-0.36811
   5   3   6 4628.48 2345.97   1 0.13266 0.40385-0.57865 0.90056 0.80471-0.16088
   5  -3   6 5231.18 2356.90   1-0.23149 0.76725-0.90070 0.57924 0.36761 0.27530
   0  -6  -6 3472.12 2154.46   1-0.76248 0.76248 0.00555-0.64698-0.64698 0.00555
  -6   0  -6 3826.98 1986.29   1-0.81806 0.17572 0.54762-0.54762 0.17572-0.81806
  -6   6   0 2523.34 1747.21   1-0.08254-0.56027 0.56027 0.08254 0.82418-0.82418
   0   6  -6 2425.46 1540.23   1 0.49092-0.49092 0.84657-0.20570 0.20570-0.84657
   6   6   0 2251.64 3175.36   1 0.49181 0.15113 0.15113 0.49181 0.85747-0.85747
   0   6   6 2608.49 1266.79   1 0.32761-0.32761-0.26349 0.90732 0.90732-0.26349
   6   0   6 2784.86 1629.31   1-0.01707 0.66091-0.75026 0.75026 0.66091-0.01707
  -1  -6  -6 3981.70 1771.60   1-0.80832 0.70142 0.06905-0.71048-0.58467-0.05675
  -6  -1  -6 2847.35 1524.72   1-0.84660 0.20426 0.52104-0.62810 0.10849-0.75084
  -6   1  -6 2872.65 1563.19   1-0.78947 0.14712 0.56789-0.46084 0.23285-0.87520
  -6   6  -1 3516.43 1740.91   1-0.19055-0.45211 0.59160 0.05106 0.78338-0.89049
  -6   6   1 4171.36 2865.30   1 0.01486-0.65768 0.52475 0.11805 0.85112-0.74398
  -6   1   6 5093.41 1820.67   1 0.28740-0.93021 0.39237-0.28524 0.87374-0.23093
  -1   6   6 1487.06 2042.96   1 0.70523-0.81235 0.06299 0.57970 0.70617-0.06347
  -1   6  -6 2932.39 2121.81   1 0.47067-0.57748 0.87072-0.22985 0.14250-0.78337
   1   6  -6 2462.54 2021.61   1 0.50596-0.39914 0.82315-0.18228 0.25771-0.89858
   6   6  -1 4447.15 2894.82   1 0.52135 0.12160 0.26568 0.37726 0.81092-0.91808
   6   6   1 3333.33 2404.40   1 0.45833 0.18462 0.04561 0.59733 0.88760-0.78045
   1   6   6 3284.12 1488.04   1 0.30803-0.20073-0.30105 0.94488 0.90248-0.25865
   6   1   6 5990.77 2484.60   1 0.04288 0.60096-0.68788 0.79519 0.72455-0.08070
   6  -1   6 1247.85 1610.18   1-0.07401 0.71786-0.80164 0.69433 0.59319 0.05064
   0   0  -7 3773.57 1895.60   1-0.89402 0.89402 0.24642-0.24642-0.37416-0.37416
  -7   0   0 4924.93 2025.35   1-0.37489-0.37489 0.62753-0.62753 0.68238-0.68238
   0   7   0 3232.03 1176.09   1 0.31630-0.31630 0.37490 0.37490 0.87143-0.87143
   0   7   0 3024.69 3226.64   1 0.54197-0.54197 0.37455 0.37455 0.75231-0.75231
   0   0   7 1697.34 1682.87   1-0.22693 0.22693-0.89880 0.89880 0.37503 0.37503
   0  -1  -7 9545.01 4234.75   1-0.88452 0.88453 0.21720-0.32410-0.41283-0.33550
   0   1  -7 6994.89 3010.71   1-0.90049 0.90049 0.26604-0.15908-0.34399-0.40472
  -7   0  -1 7921.10 2457.89   1-0.47008-0.27969 0.63521-0.63521 0.61280-0.71991
  -7   0   1 6767.45 1481.25   1-0.27664-0.47313 0.61154-0.61154 0.74126-0.63415
  -1   7   0 8919.96 1721.53   1 0.24312-0.35025 0.41735 0.33259 0.87561-0.87561
  -1   7   0 8654.44 3841.87   1 0.55295-0.65996 0.46119 0.28792 0.69393-0.69393
   1   7   010233.34 3726.39   1 0.52974-0.42273 0.30652 0.44259 0.79082-0.79082
   0   1   7 7504.40 2569.11   1-0.14048 0.14048-0.85166 0.95897 0.50490 0.24624
   0  -1   7 6935.95 1845.63   1-0.29844 0.29844-0.92079 0.81363 0.25114 0.49892
   0  -2  -7 5222.47 2244.91   1-0.87068 0.87068 0.18232-0.39613-0.45680-0.29152
   0   2  -7 5419.65 2144.46   1-0.90347 0.90347 0.27933-0.06541-0.32511-0.42360
  -7   0  -2 4641.86 1682.06   1-0.55835-0.19142 0.63403-0.63403 0.53501-0.74923
  -7   0   2 5041.32 1845.22   1-0.18040-0.56937 0.58891-0.58891 0.78779-0.57357
  -2   7   0 7134.34 2119.49   1 0.17178-0.38605 0.45466 0.29528 0.87393-0.87393
  -2   7   0 3901.53 1998.39   1 0.55809-0.77212 0.56458 0.18452 0.60808-0.60808
   2   7   0 5568.83 3700.63   1 0.51943-0.30511 0.25726 0.49284 0.81486-0.81486
   7   0   2 4309.44 2150.48   1 0.16862 0.58251-0.52913 0.52913 0.83161-0.61700
   0   2   7 4777.18 1960.86   1-0.04536 0.04536-0.77675 0.99137 0.62816 0.12298
   0  -2   7 3181.80 1722.30   1-0.35438 0.35438-0.92432 0.71001 0.14155 0.60851
   0  -3  -7 2221.45 1629.05   1-0.85180 0.85180 0.14270-0.46342-0.50405-0.24428
  -7   0  -3 3692.77 2111.72   1-0.63752-0.11187 0.62342-0.62342 0.45266-0.77384
  -7   0   3 3339.74 1742.07   1-0.09196-0.65798 0.56338-0.56338 0.82106-0.49965
  -3   7   0 2756.13 1605.13   1 0.10229-0.42370 0.48768 0.26226 0.86700-0.86700
   3   7   0 4352.80 3502.05   1 0.51162-0.19014 0.22467 0.52543 0.82931-0.82931
   7   0   3 2411.01 1036.65   1 0.10825 0.64287-0.61036 0.61036 0.78468-0.46277
   0   3   7 4312.98 2088.73   1 0.05299-0.05299-0.67653 0.99845 0.73450 0.01665
   0  -3   7 2075.71 1901.30   1-0.39587 0.39587-0.91688 0.59543 0.05096 0.69910
   0  -4  -7 1966.71 1666.87   1-0.82731 0.82731 0.09904-0.52666-0.55294-0.19538
  -7   0  -4 3675.32 2232.34   1-0.70615-0.04324 0.60616-0.60616 0.36593-0.79416
  -7   0   4 4319.34 1938.88   1-0.01521-0.73472 0.53637-0.53637 0.84384-0.41529
  -4   7   0 4895.05 2279.04   1 0.03422-0.46276 0.51697 0.23297 0.85531-0.85531
   4   7   0 1464.58 2035.96   1 0.50730-0.07866 0.20763 0.54247 0.83637-0.83637
   0   4   7 4345.78 1593.95   1 0.14829-0.14829-0.55754 0.98676 0.81679-0.06566
   7   0   4 2519.87 1248.98   1 0.06949 0.68166-0.65747 0.65747 0.75026-0.32103
   0  -4   7 5339.87 2510.82   1-0.42529 0.42529-0.90484 0.47623-0.01955 0.76962
   0  -5  -7 2107.63 2047.84   1-0.79669 0.79669 0.05190-0.58643-0.60214-0.14618
  -7   0  -5 1493.83 1468.54   1-0.76416 0.01476 0.58221-0.58221 0.27761-0.81289
  -5   7   0 3021.82 2496.76   1-0.03276-0.50291 0.54288 0.20706 0.83916-0.83916
   0   5  -7  911.70 1078.66   1 0.44587-0.44587 0.89214-0.35808 0.07266-0.82034
   5   7   0 1837.81 2044.28   1 0.50651 0.02927 0.20461 0.54550 0.83759-0.83759
   1   0  -7 7941.36 3330.58   1-0.85203 0.95894 0.14316-0.14316-0.50352-0.24480
  -1   0  -7 6477.35 2751.26   1-0.91034 0.80338 0.32831-0.32831-0.25195-0.49676
  -7  -1   0 7045.66 1955.23   1-0.47330-0.27648 0.63531-0.74242 0.61021-0.61021
  -7   1   0 8011.93 1715.27   1-0.29467-0.45510 0.61504-0.50793 0.73135-0.73135
   0   7   1 7818.76 1568.33   1 0.48252-0.48252 0.26321 0.48659 0.83539-0.72827
   0   7  -1 8772.75 3575.56   1 0.55453-0.55453 0.47937 0.26974 0.68021-0.78723
   0   7   1 5463.72 2719.47   1 0.52163-0.52163 0.26694 0.48316 0.81032-0.70317
   1   0   7 9776.10 2635.62   1-0.20383 0.31098-0.88818 0.88818 0.41180 0.33826
  -1   0   710322.91 1840.88   1-0.24340 0.13624-0.90537 0.90537 0.34791 0.40215
   1  -1  -7 7930.38 2892.26   1-0.84094 0.94784 0.12250-0.22941-0.52707-0.22125
   1   1  -7 6940.00 3351.94   1-0.85792 0.96483 0.15484-0.04793-0.48987-0.25845
  -1  -1  -7 6455.10 2362.45   1-0.90640 0.79944 0.29502-0.40198-0.30229-0.44642
  -1   1  -7 7165.15 2419.73   1-0.91107 0.80411 0.35550-0.24854-0.20869-0.54002
  -7  -1  -1 7845.20 2140.39   1-0.55734-0.19243 0.63410-0.74121 0.53598-0.64309
  -7   1  -1 7627.93 2566.20   1-0.39567-0.35410 0.62991-0.52280 0.66831-0.77542
  -7  -1   1 7664.82 2248.31   1-0.38330-0.36647 0.62854-0.73565 0.67676-0.56965
  -7   1   1 2459.79 1849.24   1-0.19385-0.55593 0.59246-0.48535 0.78192-0.67481
  -1   7   1 6324.87 1719.11   1 0.39641-0.50353 0.32413 0.42568 0.85894-0.75183
   1   7   1 8249.57 1382.89   1 0.56820-0.46108 0.19482 0.55499 0.79949-0.69237
  -1   7  -1 6341.93 3079.99   1 0.55805-0.66507 0.55738 0.19172 0.61472-0.72174
   1   7  -1 9452.36 3449.64   1 0.54781-0.44080 0.41533 0.33378 0.72621-0.83323
  -1   7   1 4649.24 2902.53   1 0.53927-0.64628 0.35799 0.39112 0.76225-0.65523
   1   7   1 8280.07 3215.74   1 0.50484-0.39768 0.19822 0.55188 0.84014-0.73298
   7   1   1 5056.02 2041.81   1 0.30569 0.44543-0.30543 0.41273 0.90180-0.79450
   1   1   7 6855.40 2353.60   1-0.12344 0.23075-0.83989 0.94720 0.52852 0.22262
  -1   1   7 7800.14 3045.76   1-0.14955 0.04225-0.85761 0.96492 0.49205 0.25909
   1  -1   7 6503.32 1937.02   1-0.27218 0.37933-0.91476 0.80760 0.29854 0.45152
  -1  -1   7 5143.04 2365.04   1-0.31872 0.21157-0.92363 0.81648 0.21286 0.53720
   1  -2  -7 6059.41 2571.01   1-0.82484 0.93174 0.09499-0.30880-0.55732-0.19100
   1   2  -7 5093.15 2255.11   1-0.85752 0.96443 0.15402 0.05978-0.49084-0.25748
  -1  -2  -7 5790.50 2624.16   1-0.89803 0.79107 0.25635-0.47027-0.35751-0.39120
  -1   2  -7 6428.55 2673.81   1-0.91002 0.80306 0.37569-0.16177-0.17521-0.57350
  -7  -1  -2 6076.68 2250.38   1-0.63294-0.11645 0.62424-0.73130 0.45792-0.67204
  -7   1  -2 7464.28 2588.46   1-0.49221-0.25756 0.63573-0.52862 0.59461-0.80883
  -7  -1   2 7232.83 1779.66   1-0.29144-0.45833 0.61443-0.72154 0.73316-0.51894
  -7   1   2 4410.49 2247.59   1-0.09849-0.65145 0.56550-0.45836 0.81884-0.60457
  -2   7  -1 4849.22 1357.55   1-0.00532-0.20894 0.53262 0.21732 0.84633-0.95347
  -2   7   1 4603.03 1366.19   1 0.31170-0.52594 0.37766 0.37215 0.87189-0.76478
  -2   7  -1 4554.70 2027.76   1 0.55437-0.76840 0.64611 0.10300 0.52460-0.63162
  -2   7   1 4510.80 2608.57   1 0.55402-0.76806 0.47322 0.27588 0.68491-0.57789
   2   7  -1 5814.46 3490.65   1 0.54067-0.32664 0.36647 0.38264 0.75720-0.86422
   2   7   1 6861.84 4976.12   1 0.49158-0.27727 0.15033 0.59977 0.85775-0.75059
   7   1   2 4677.29 1694.29   1 0.22832 0.52280-0.43902 0.54633 0.86897-0.65436
  -1   2   7 4138.22 1621.04   1-0.04445-0.06285-0.77593 0.99054 0.62924 0.12190
   1   2   7 7326.11 2167.53   1-0.03642 0.14373-0.76859 0.98320 0.63870 0.11245
   1  -2   7 5170.67 2189.97   1-0.32741 0.43456-0.92433 0.71002 0.19598 0.55408
  -1  -2   7 5157.45 1593.92   1-0.37564 0.26849-0.92174 0.70744 0.09628 0.65378
   1  -3  -7 8187.49 3227.59   1-0.80361 0.91052 0.06201-0.38272-0.59190-0.15642
  -1  -3  -7 7248.24 3488.32   1-0.88357 0.77666 0.21455-0.53526-0.41625-0.33207
  -1   3  -7 5809.75 2963.82   1-0.90871 0.80175 0.38764-0.06676-0.15481-0.59390
  -7  -1  -3 6343.30 2380.79   1-0.69907-0.05032 0.60841-0.71547 0.37564-0.69682
  -7   1  -3 7106.30 2090.21   1-0.58083-0.16894 0.63221-0.52510 0.51276-0.83410
  -3   7  -1 8222.00 2174.19   1-0.05020-0.27120 0.54915 0.20079 0.83420-0.94134
  -7   1   3 7001.61 2205.01   1-0.01311-0.73683 0.53558-0.42844 0.84438-0.52297
  -3   7   1 9166.66 2577.32   1 0.22950-0.55091 0.42475 0.32519 0.87573-0.76859
  -3   7  -1 5317.00 1674.80   1 0.53956-0.85999 0.73900 0.00867 0.40341-0.51022
   3   7  -1 9313.72 4954.19   1 0.53481-0.21376 0.33275 0.41636 0.77669-0.88371
   3   7   1 6480.85 3902.57   1 0.48278-0.16131 0.12078 0.62933 0.86736-0.76020
   7   1   3 6219.44 2505.09   1 0.17046 0.58066-0.52650 0.63380 0.83290-0.51099
  -1   3   7 7480.13 1246.99   1 0.06462-0.17193-0.66316 0.98509 0.74567 0.00548
   1   3   7 9741.41 3414.17   1 0.05305 0.05425-0.67646 0.99838 0.73456 0.01659
   7  -1   3 7828.22 1547.37   1 0.04331 0.70783-0.68740 0.58009 0.72498-0.40305
   1  -3   7 7711.72 2474.37   1-0.36979 0.47695-0.92270 0.60124 0.10895 0.64111
  -1  -3   7 4985.76 1640.12   1-0.41638 0.30923-0.90918 0.58772 0.00243 0.74763
   1  -4  -7 6851.88 3084.72   1-0.77700 0.88390 0.02456-0.45218-0.62901-0.11931
  -1  -4  -7 3741.68 2215.06   1-0.86360 0.75669 0.16665-0.59426-0.47583-0.27249
  -7  -1  -4 4116.35 2327.61   1-0.75540 0.00600 0.58654-0.69360 0.29209-0.72032
  -7   1  -4 4394.94 2218.23   1-0.65982-0.08957 0.61886-0.51181 0.42618-0.85441
  -4   7  -1 2794.23 1341.94   1-0.09876-0.32977 0.56559 0.18435 0.81874-0.92588
  -7   1   4 5133.54 2582.08   1 0.05880-0.80875 0.50674-0.39960 0.86008-0.43154
  -4   7   1 4414.01 1536.13   1 0.14923-0.57777 0.46573 0.28421 0.87225-0.76511
   1   4  -7 3780.65 2507.74   1 0.44495-0.33814 0.89279-0.46555 0.07019-0.81787
   4   7  -1 3770.67 2331.93   1 0.53112-0.10306 0.31345 0.43565 0.78717-0.89419
   4   7   1 4958.64 2817.65   1 0.47858-0.04995 0.10720 0.64291 0.87146-0.76431
   1   4   7 4732.76 1404.80   1 0.14026-0.03296-0.56846 0.99768 0.81066-0.05953
   7   1   4 5699.62 1974.24   1 0.13024 0.62088-0.58185 0.68916 0.80279-0.37357
   7  -1   4 3432.09 1123.07   1 0.00858 0.74256-0.72460 0.61729 0.68911-0.25987
   1  -4   7 2203.18 2530.50   1-0.40087 0.50802-0.91528 0.48667 0.03939 0.71067
   2   0  -7 6384.18 1529.98   1-0.77846 0.99227 0.02652-0.02652-0.62712-0.12120
  -2   0  -7 5968.28 2625.10   1-0.90795 0.69403 0.39300-0.39300-0.14550-0.60321
  -7  -2   0 4386.52 1700.90   1-0.58598-0.16380 0.63170-0.84592 0.50752-0.50752
  -7   2   0 6356.66 2032.61   1-0.23343-0.51634 0.60219-0.38797 0.76345-0.76345
   0   7   2 4533.98 1377.68   1 0.58572-0.58572 0.17970 0.57011 0.79033-0.57610
   0   7  -2 5433.31 2372.60   1 0.55803-0.55803 0.57584 0.17327 0.59749-0.81152
   0   7   2 5372.26 1905.73   1 0.49485-0.49485 0.16173 0.58838 0.85379-0.63947
   7   2   0 3887.58 1992.57   1 0.42122 0.32888-0.05443 0.26875 0.90532-0.90532
   2   0   7 4175.73 1876.81   1-0.17426 0.38888-0.87273 0.87273 0.45602 0.29512
  -2   0   7 3565.57 1422.82   1-0.25184 0.03754-0.90841 0.90841 0.33369 0.41637
   2  -1  -7 5803.45 1765.92   1-0.77193 0.98574 0.01783-0.12473-0.63544-0.11288
   2   1  -7 6407.21 1680.60   1-0.77568 0.98949 0.02279 0.08410-0.63071-0.11761
  -2  -1  -7 5914.78 2388.98   1-0.91100 0.69708 0.35868-0.46564-0.20351-0.54520
  -2   1  -7 6811.19 2129.58   1-0.90196 0.68804 0.42131-0.31435-0.09466-0.65405
  -7  -2  -1 4638.96 1951.66   1-0.65238-0.09701 0.62048-0.83460 0.43518-0.54224
  -7  -2   1 7332.69 1611.74   1-0.51230-0.23747 0.63575-0.84998 0.57736-0.47025
  -7   2  -1 5204.23 1949.78   1-0.33636-0.41341 0.62217-0.40795 0.70692-0.81404
  -7   2   1 4506.20 2654.31   1-0.13338-0.61656 0.57636-0.36209 0.80623-0.69909
  -1   7   2 4778.84 1463.40   1 0.50222-0.60934 0.24824 0.50157 0.82833-0.61410
   1   7   2 6396.67 1555.70   1 0.66353-0.55641 0.10680 0.64300 0.74048-0.52624
  -1   7  -2 7205.05 2669.58   1 0.55467-0.66168 0.64292 0.10618 0.52818-0.74222
   1   7  -2 7516.93 3885.98   1 0.55699-0.44998 0.51855 0.23055 0.64872-0.86276
  -1   7   2 5554.10 3547.25   1 0.51872-0.62588 0.25421 0.49590 0.81626-0.60195
   1   7   2 5005.40 3027.62   1 0.47490-0.36774 0.09553 0.65458 0.87483-0.66051
   7   2   1 4976.79 1906.54   1 0.34761 0.40351-0.22337 0.43798 0.91063-0.80333
   2   1   7 5853.02 1986.27   1-0.09995 0.31457-0.82247 0.92977 0.55995 0.19119
  -2   1   7 6791.79 2461.34   1-0.14823-0.06637-0.85676 0.96407 0.49394 0.25721
   2  -1   7 6774.71 2055.26   1-0.24045 0.45476-0.90426 0.79711 0.35282 0.39724
  -2  -1   7 3891.71 1290.84   1-0.33234 0.11803-0.92458 0.81742 0.18626 0.56380
   2  -2  -7 2357.96 1970.35   1-0.75825 0.97206 0.00019-0.21399-0.65195-0.09637
  -2  -2  -7 4133.48 1488.56   1-0.90954 0.69562 0.31876-0.53268-0.26668-0.48203
  -2   2  -7 4382.62 1977.06   1-0.89483 0.68091 0.44322-0.22930-0.05317-0.69554
  -7  -2  -2 3849.43 2105.00   1-0.71114-0.03825 0.60449-0.81860 0.35896-0.57307
  -7   2  -2 5718.44 3572.17   1-0.43743-0.31235 0.63353-0.41930 0.63819-0.85241
  -7   2   2 3801.14 1993.00   1-0.04112-0.70882 0.54591-0.33164 0.83683-0.62255
  -2   7   2 4573.60 1730.22   1 0.41607-0.63030 0.31083 0.43897 0.85455-0.64031
  -2   7  -2 3446.11 1816.58   1 0.54529-0.75891 0.71546 0.03221 0.43677-0.65039
   2   7  -2 4132.03 2663.72   1 0.55402-0.33998 0.47313 0.27598 0.68498-0.89902
   2   7   2 5731.51 2731.03   1 0.46036-0.24605 0.05154 0.69856 0.88622-0.67191
   7   2   2 2701.18 1444.99   1 0.28144 0.46968-0.34959 0.56420 0.89363-0.67902
   2   2   7 5516.24 1815.40   1-0.01989 0.23451-0.75299 0.96761 0.65772 0.09343
   2  -2   7 3591.00 3046.27   1-0.29492 0.50923-0.92013 0.70582 0.25763 0.49243
  -2  -2   7 3524.64 1312.90   1-0.39096 0.17665-0.91830 0.70399 0.06219 0.68788
   2  -3  -7 5917.22 2668.62   1-0.73833 0.95214-0.02425-0.29645-0.67399-0.07433
  -2  -3  -7 4175.49 1862.51   1-0.90226 0.68834 0.27368-0.59456-0.33318-0.41553
  -2   3  -7 4317.60 2240.56   1-0.88849 0.67457 0.45829-0.13741-0.02341-0.72530
  -7  -2  -3 4228.96 2394.89   1-0.76162 0.01222 0.58350-0.79762 0.28186-0.60303
  -7   2  -3 4400.63 1956.14   1-0.53252-0.21725 0.63531-0.42109 0.55927-0.88061
  -3   7  -2 1861.78 1053.88   1-0.22127-0.10006 0.59932 0.15045 0.76931-0.98353
  -7   2   3 3111.80 2143.10   1 0.03965-0.78960 0.51474-0.30047 0.85642-0.53501
  -3   7   2 3206.41 1539.15   1 0.32938-0.65073 0.36697 0.38284 0.86996-0.65573
  -3   7  -2 2504.24 1230.52   1 0.52256-0.84300 0.78917-0.04149 0.32268-0.53630
   3   7  -2 5640.50 2700.44   1 0.55082-0.22977 0.44042 0.30869 0.70895-0.92299
   3   7   2 4785.98 3143.63   1 0.45154-0.13006 0.02622 0.72388 0.89186-0.67754
   7   2   3 2674.13 1652.58   1 0.22826 0.52286-0.43912 0.65373 0.86894-0.54703
   2   3   7 3653.42 2493.59   1 0.06191 0.15270-0.66631 0.98823 0.74309 0.00805
   2  -3   7 3391.71 2055.35   1-0.33808 0.55239-0.92473 0.60327 0.17481 0.57525
  -2  -3   7 2264.40 1336.02   1-0.43143 0.21712-0.90146 0.58000-0.03507 0.78514
  -2  -4  -7 3569.60 1380.19   1-0.88739 0.67358 0.22540-0.65302-0.40214-0.34618
  -7  -2  -4 2400.46 1035.97   1-0.80408 0.05467 0.55817-0.77228 0.20468-0.63291
  -7   2  -4 1813.48 1452.43   1-0.61916-0.13023 0.62650-0.41239 0.47341-0.90164
  -4   7  -2 2385.71 1750.91   1-0.24454-0.18390 0.60472 0.14505 0.75795-0.97218
  -7   2   4 1195.28 2847.91   1 0.10652-0.85647 0.48577-0.27149 0.86757-0.43902
  -4   7   2 2491.62 1881.10   1 0.24363-0.67218 0.41707 0.33287 0.87560-0.66133
   2   4  -7 2128.32 1237.80   1 0.45894-0.24531 0.88180-0.45455 0.10858-0.85626
   4   7  -2 1444.02 3385.00   1 0.54847-0.12041 0.42051 0.32860 0.72272-0.93676
   4   7   2 3721.59 1987.07   1 0.44813-0.01949 0.01668 0.73342 0.89380-0.67949
   7   2   4 1766.05 1767.22   1 0.18870 0.56242-0.49995 0.71456 0.84524-0.41602
   2   4   7 2985.29 1378.03   1 0.14188 0.07272-0.56628 0.99549 0.81190-0.06077
   7  -2   4 2523.15 1141.10   1-0.05002 0.80117-0.78093 0.56632 0.62260-0.19337
   2  -4   7 1707.06 1686.36   1-0.37076 0.58507-0.92255 0.49394 0.10686 0.64320
  -3   0  -7 1662.36 1201.65   1-0.89597 0.57509 0.44014-0.44014-0.05913-0.68958
  -7   3   0 2542.74 2174.29   1-0.19023-0.55954 0.59152-0.27019 0.78352-0.78352
   0   7   3 2078.01 1689.49   1 0.64848-0.64848 0.12172 0.62809 0.75143-0.43008
  -3   0   7 3725.13 1741.39   1 0.67385-0.99520 0.09632-0.09632 0.73256 0.01725
   0   7  -3 3592.93 2494.35   1 0.55277-0.55277 0.66089 0.08822 0.50759-0.82864
   0   7   3 4215.36 1909.16   1 0.46512-0.46512 0.06559 0.68451 0.88281-0.56133
   7   3   0 3829.22 2224.95   1 0.44292 0.30718 0.00237 0.31910 0.89655-0.89655
   3   0   7 2950.13 2291.00   1-0.14056 0.46248-0.85171 0.85171 0.50480 0.24635
  -3  -1  -7 8835.47 3273.56   1-0.90542 0.58454 0.40693-0.51389-0.12085-0.62786
  -3   1  -7 8967.98 3073.18   1-0.88408 0.56320 0.46729-0.36033-0.00510-0.74361
  -7  -3  -1 7060.21 2647.78   1-0.74761-0.00178 0.59016-0.91133 0.30460-0.41166
  -7   3  -1 9767.30 3141.16   1-0.29261-0.45716 0.61465-0.29332 0.73251-0.83962
  -7   3   1 6856.28 1921.41   1-0.09268-0.65725 0.56361-0.24221 0.82081-0.71368
  -1   7   3 7914.78 1771.09   1 0.57221-0.67933 0.19139 0.55841 0.79745-0.47610
  -3   1   7 7032.36 1835.22   1 0.67831-0.99966 0.09171 0.01539 0.72902 0.02079
  -1   7  -3 7539.28 3117.76   1 0.54532-0.65213 0.71531 0.03236 0.43697-0.75741
   1   7  -3 6102.79 3123.22   1 0.55690-0.44988 0.61206 0.13705 0.56145-0.88250
   7   3  -1 6246.28 3525.43   1 0.49832 0.25179 0.17409 0.14738 0.84933-0.95649
  -1   7   3 4274.68 2876.69   1 0.49296-0.60012 0.15512 0.59499 0.85610-0.53462
   1   7   3 6103.03 3639.47   1 0.44357-0.33641 0.00413 0.74598 0.89622-0.57474
   7   3   1 6144.98 3547.03   1 0.38328 0.36682-0.14468 0.46616 0.91222-0.80506
   3   1   7 7131.00 1970.29   1-0.07108 0.39300-0.79918 0.90649 0.59686 0.15429
   3  -1   7 8582.62 2850.63   1-0.20370 0.52516-0.88811 0.78096 0.41200 0.33806
  -3  -1   7 8605.64 2127.89   1-0.33824 0.01678-0.92473 0.81758 0.17450 0.57556
  -2  -7  -3 3639.41 2125.02   1-0.77296 0.55915 0.01919-0.76752-0.63415 0.31344
  -3  -2  -7 3625.84 1797.78   1-0.91060 0.58972 0.36777-0.58169-0.18849-0.56022
  -3   2  -7 2759.90 1456.33   1-0.87175 0.55087 0.48834-0.27442 0.03945-0.78817
  -7  -3  -2 3184.87 1644.90   1-0.78643 0.03703 0.56977-0.89094 0.23847-0.45259
  -7   3  -2 4709.02 2741.45   1-0.39540-0.35438 0.62988-0.30855 0.66850-0.88272
  -7   3   2 2029.77 2184.08   1-0.00446-0.74548 0.53228-0.21088 0.84655-0.63228
  -2   7   3 4501.11 2051.11   1 0.49010-0.70433 0.25750 0.49230 0.83275-0.51140
  -3   2   7 1279.25 2508.96   1 0.67179-0.99314 0.09842 0.11580 0.73416 0.01565
  -2   7  -3 3886.13 3611.75   1 0.52861-0.74223 0.77371-0.02602 0.34919-0.66962
   2   7  -3 4617.27 3793.20   1 0.55807-0.34403 0.57208 0.17703 0.60106-0.92211
   2   7   3 2667.10 1688.96   1 0.42890-0.21458-0.03484 0.78495 0.90267-0.58120
   7   3   2 3151.01 2348.52   1 0.32829 0.42284-0.26217 0.58408 0.90746-0.69285
   3   2   7 3333.07 1670.85   1 0.00272 0.31919-0.73060 0.94521 0.68279 0.06835
   3  -2   7 2932.70 2608.85   1-0.25713 0.57859-0.91020 0.69589 0.32467 0.42539
  -3  -2   7 1608.42 1495.54   1-0.39995 0.07849-0.91559 0.70128 0.04152 0.70854
  -3  -3  -7 5184.50 2601.89   1-0.90992 0.58904 0.32291-0.64379-0.26030-0.48841
  -3   3  -7 5036.99 1892.73   1-0.86102 0.54014 0.50332-0.18244 0.07283-0.82155
  -7  -3  -3 5450.63 2165.89   1-0.81994 0.07054 0.54609-0.86726 0.17164-0.49281
  -7   3  -3 6292.60 1922.91   1-0.49424-0.25554 0.63575-0.31442 0.59290-0.91424
  -7   3   3 5481.81 2733.21   1 0.07166-0.82161 0.50123-0.17982 0.86233-0.54093
  -3   7   3 4384.02 1689.05   1 0.40458-0.72593 0.31865 0.43116 0.85718-0.53584
  -3   3   7 6010.39 1808.34   1 0.65680-0.97815 0.11352 0.20782 0.74546 0.00435
   3   3  -7 4389.62 1776.94   1 0.44176-0.12133 0.89500-0.57456 0.06173-0.80941
  -3   7  -3 4811.95 2237.54   1 0.50178-0.82221 0.83024-0.08256 0.24272-0.56315
   3   7  -3 4814.12 3701.73   1 0.55781-0.23676 0.54233 0.20677 0.62825-0.94930
   3   7   3 4465.71 2310.83   1 0.42078-0.09930-0.05555 0.80567 0.90545-0.58398
   7   3   3 4539.10 2704.12   1 0.28088 0.47024-0.35058 0.67249 0.89341-0.57150
   3   3   7 4652.72 1969.04   1 0.07769 0.24423-0.64776 0.96969 0.75786-0.00670
   3  -3   7 9267.22 3117.76   1-0.30073 0.62219-0.92119 0.59973 0.24689 0.50317
  -3  -4  -7 2731.73 1624.39   1-0.90204 0.58116 0.27269-0.70053-0.33459-0.41412
  -7  -3  -4  889.36  727.63   1-0.84814 0.09874 0.51935-0.84052 0.10446-0.53269
  -7   3  -4 2047.48 1873.99   1-0.58616-0.16323 0.63071-0.30953 0.50854-0.93677
  -7   3   4 2941.53 1883.79   1 0.13403-0.88398 0.47300-0.15159 0.87080-0.44226
  -4   7   3 1526.01 1643.30   1 0.31749-0.74595 0.37419 0.37562 0.87130-0.54995
  -3   4   7 1926.24 1995.43   1 0.63459-0.95594 0.13512 0.29334 0.76094-0.01112
  -4   7  -3   20.73  708.10   1 0.46209-0.88934 0.87900-0.13132 0.11754-0.43797
   3   4  -7 2214.10 1780.87   1 0.46815-0.14771 0.87326-0.44601 0.13506-0.88275
   4   7  -3 3629.35 2672.02   1 0.55721-0.12914 0.52349 0.22562 0.64456-0.96561
   4   7   3 3622.39 2952.16   1 0.41856 0.01006-0.06110 0.81122 0.90612-0.58464
   3  -4   7  443.20 1767.04   1-0.33476 0.65621-0.92466 0.49605 0.18146 0.56860
  -4   0  -7 2940.95 1687.69   1-0.88100 0.45316 0.47305-0.47305 0.00683-0.75555
  -7   4   0 3985.98 3008.15   1-0.16343-0.58634 0.58426-0.15581 0.79493-0.79493
   0   7   4 3056.07 1715.96   1 0.68558-0.68558 0.08412 0.66569 0.72311-0.29464
   0   7  -4 5314.22 2289.57   1 0.54136-0.54136 0.73213 0.01554 0.41340-0.84064
   7   4   0 1754.37 2363.45   1 0.46323 0.28687 0.05999 0.36863 0.88419-0.88419
   0   7   4 2870.98 2038.36   1 0.43583-0.43583-0.01668 0.76680 0.89987-0.47123
   4   0   7 3464.08 1775.99   1-0.10240 0.53163-0.82435 0.82435 0.55673 0.19442
  -1  -7  -4 3473.87 1656.72   1-0.74485 0.63794-0.01641-0.73191-0.66702 0.23940
  -4  -1  -7 6397.97 2762.65   1-0.89533 0.46749 0.44189-0.54885-0.05575-0.69296
  -4   1  -7 4601.58 2109.16   1-0.86492 0.43708 0.49816-0.39120 0.06116-0.80988
  -7   4  -1 3641.46 1920.29   1-0.26386-0.48591 0.60892-0.18047 0.74805-0.85516
  -7   4   1 5281.25 3150.36   1-0.06914-0.68080 0.55574-0.12720 0.82846-0.72133
  -4   1   7 2443.46 2034.14   1 0.56624-0.99470 0.19649-0.08937 0.80047-0.05065
  -1   7   4 4403.49 2303.21   1 0.61682-0.72394 0.15176 0.59805 0.77232-0.34386
  -1   7  -4 7539.92 3330.13   1 0.52771-0.63452 0.77614-0.02846 0.34512-0.77237
   1   7  -4 3789.13 2495.94   1 0.54984-0.44303 0.69215 0.05552 0.46753-0.89478
   7   4  -1 5152.85 3712.52   1 0.50692 0.24318 0.20618 0.22245 0.83696-0.94412
   1   7   4 3233.00 1765.39   1 0.41398-0.30682-0.07247 0.82258 0.90739-0.47875
   7   4   1 2966.51 1532.38   1 0.41524 0.33487-0.06937 0.49801 0.90706-0.79990
   4   1   7 2187.79 1755.53   1-0.03760 0.46683-0.76967 0.87698 0.63732 0.11383
   4  -1   7 2866.60 1871.03   1-0.16163 0.59086-0.86521 0.75790 0.47463 0.27651
  -2  -7  -4 2992.19 2230.46   1-0.79308 0.57927 0.04674-0.79507-0.60731 0.17969
  -4  -2  -7  846.56 1079.25   1-0.90591 0.47807 0.40456-0.61848-0.12508-0.62363
  -4   2  -7 3219.71 1709.75   1-0.84782 0.41959 0.51971-0.30560 0.10532-0.85472
  -7   4  -2 4454.01 2828.47   1-0.36647-0.38331 0.62647-0.19802 0.68791-0.90214
  -7   4   2 2497.78 2089.84   1 0.01499-0.76494 0.52470-0.09616 0.85115-0.63688
  -2   7   4 1575.83 1652.28   1 0.54042-0.75466 0.21795 0.53185 0.81266-0.38420
  -4   2   7 2505.30 2312.95   1 0.57012-0.99859 0.19318 0.02104 0.79852-0.04870
  -2   7  -4  453.55 1444.50   1 0.50714-0.72076 0.82106-0.07338 0.26203-0.68928
   2   7  -4 3749.64 2508.13   1 0.55287-0.33883 0.66007 0.08903 0.50855-0.93662
   7   4  -2 2394.63 2210.45   1 0.53952 0.20958 0.35951 0.06854 0.76135-0.97538
   2   7   4 2252.63 1478.80   1 0.39993-0.18561-0.10632 0.85644 0.91035-0.48171
   7   4   2 3448.40 1799.16   1 0.36860 0.38150-0.17709 0.60573 0.91256-0.69824
   4   2   7 3104.09 1776.37   1 0.03040 0.39882-0.70157 0.91618 0.71195 0.03920
   4  -2   7 4666.79 2593.94   1-0.21428 0.64289-0.89318 0.67887 0.39536 0.35470
  -3  -7  -4 2313.85 1253.54   1-0.83012 0.50941 0.10375-0.85208-0.54783 0.12021
  -4  -3  -7 1676.34 1747.26   1-0.91092 0.48308 0.36107-0.68195-0.19957-0.54914
  -7  -4  -3 3530.35 1815.78   1-0.86853 0.11981 0.49311-0.92095 0.04991-0.37079
  -4   3  -7 1519.43  835.32   1-0.83412 0.40589 0.53365-0.21248 0.13947-0.88887
  -7   4  -3 2614.75 1791.25   1-0.46695-0.28282 0.63509-0.20664 0.61531-0.93664
  -7   4   3 3383.67 3260.41   1 0.08693-0.83688 0.49455-0.06601 0.86478-0.54337
  -3   7   4 3846.51 1650.34   1 0.45852-0.77987 0.28091 0.46889 0.84311-0.41464
  -4   3   7 1024.11 1591.82   1 0.56269-0.99116 0.19949 0.12185 0.80223-0.05241
   4   3  -7 1387.53  860.42   1 0.44583-0.01858 0.89217-0.57173 0.07254-0.82022
  -3   7  -4 2628.26 1228.78   1 0.47778-0.79822 0.86303-0.11535 0.16396-0.59121
   3   7  -4  959.31 1305.67   1 0.55539-0.23434 0.63467 0.11443 0.53732-0.96539
   3   7   4 2210.40 1829.60   1 0.39290-0.07142-0.12274 0.87286 0.91134-0.48271
   4  -3   7 2511.57 1849.86   1-0.25781 0.68642-0.91042 0.58896 0.32351 0.42655
  -5   0  -7 2118.43 1628.32   1-0.86721 0.33241 0.49498-0.49498 0.05407-0.80279
  -7   5   0 2025.76 2765.17   1-0.15091-0.59903 0.58152-0.04584 0.79940-0.79940
   0   7   5 1453.67 1772.72   1 0.70593-0.70593 0.06222 0.68758 0.70554-0.16995
   0   7  -5  772.68 1259.60   1 0.52147-0.52147 0.79176-0.04408 0.31806-0.85212
   7   5   0 2020.31 1711.29   1 0.48199 0.26812 0.11818 0.41760 0.86816-0.86816
   0   7   5  718.65  707.22   1 0.40991-0.40991-0.08243 0.83255 0.90839-0.37259
   0   0  -813160.26 5722.22   1-0.88024 0.88024 0.20567-0.20567-0.42761-0.42761
  -8   0   010804.47 1836.56   1-0.42844-0.42844 0.63288-0.63288 0.64489-0.64489
   0   8   012403.75 5456.74   1 0.54940-0.54940 0.42806 0.42806 0.71757-0.71757
   0   0   813257.48 2024.48   1-0.19198 0.19198-0.88255 0.88255 0.42923 0.42923
   0  -1  -8 8108.31 2947.21   1-0.87058 0.87058 0.18211-0.28902-0.45706-0.39817
   0   1  -8 8757.57 3638.28   1-0.88623 0.88623 0.22204-0.11513-0.40654-0.44869
  -8   0  -1 9223.84 1938.07   1-0.50780-0.34909 0.63579-0.63579 0.58129-0.68840
  -8   0   1 9127.62 2069.09   1-0.34764-0.50924 0.62387-0.62387 0.69994-0.59283
  -1   8   0 7062.49 3091.98   1 0.55625-0.66327 0.50428 0.35184 0.66051-0.66051
   1   8   010121.65 4654.69   1 0.54078-0.43377 0.36715 0.48897 0.75679-0.75679
   0   1   8 6474.70 1915.87   1-0.11486 0.11486-0.83369 0.94100 0.54014 0.31831
   0  -1   8 8193.72 2580.37   1-0.25901 0.25901-0.91081 0.80365 0.32145 0.53576
   0  -2  -8 6245.23 3466.44   1-0.85682 0.85682 0.15261-0.36642-0.49249-0.36273
  -8   0  -2 7758.54 2275.12   1-0.58289-0.27399 0.63201-0.63201 0.51067-0.72489
  -8   0   2 7570.39 2090.89   1-0.26886-0.58802 0.60996-0.60996 0.74542-0.53119
  -2   8   0 4453.64 2404.74   1 0.55764-0.77168 0.59423 0.26190 0.57958-0.57958
   2   8   010130.07 5843.70   1 0.53271-0.31868 0.32164 0.53449 0.78278-0.78278
   0   2   8 7086.66 1559.23   1-0.02961 0.02961-0.76223 0.97685 0.64661 0.21184
   0  -2   8 7554.60 2363.83   1-0.31256 0.31256-0.92294 0.70864 0.22466 0.63256
   0  -3  -8 4453.12 2908.31   1-0.83845 0.83845 0.11807-0.43879-0.53203-0.32320
  -8   0  -3 3905.78 2225.66   1-0.65187-0.20458 0.62059-0.62059 0.43579-0.75696
  -8   0   3 3701.09 1745.31   1-0.19580-0.66109 0.59297-0.59297 0.78105-0.45971
  -3   8   0 4440.89 1784.64   1 0.05364-0.37505 0.50892 0.34816 0.85913-0.85913
   3   8   0 3901.63 2352.35   1 0.52651-0.20546 0.29082 0.56531 0.79887-0.79887
   0   3   8 4336.91 1504.91   1 0.05929-0.05929-0.66933 0.99125 0.74059 0.11787
   0  -3   8 3574.21 1698.73   1-0.35404 0.35404-0.92434 0.60288 0.14225 0.71496
   1   0  -8 8224.13 3532.96   1-0.83502 0.94192 0.11209-0.11209-0.53867-0.31655
  -1   0  -8 9464.64 3346.39   1-0.90398 0.79702 0.28182-0.28182-0.32152-0.53415
  -8  -1   0 8451.69 2229.29   1-0.51460-0.34228 0.63573-0.74284 0.57534-0.57534
  -8   1   0 8016.84 1967.06   1-0.35699-0.49990 0.62520-0.51808 0.69403-0.69403
   0   8  -1 9766.26 3663.74   1 0.55688-0.55688 0.51610 0.34003 0.65078-0.75780
   0   8   1 9374.42 4579.74   1 0.53577-0.53577 0.33803 0.51809 0.77373-0.66672
   1   0   8 8949.34 2029.91   1-0.17321 0.28052-0.87212 0.87212 0.45758 0.40087
  -1   0   8 6468.31 2767.87   1-0.20521 0.09805-0.88885 0.88885 0.40965 0.44756
   1  -1  -812886.20 4937.45   1-0.82549 0.93239 0.09605-0.20296-0.55617-0.29906
   1   1  -810772.47 5232.42   1-0.83898 0.94589 0.11902-0.01211-0.53097-0.32425
  -1  -1  -811581.14 5156.37   1-0.89739 0.79043 0.25399-0.36095-0.36078-0.49489
  -1   1  -811622.96 4857.10   1-0.90770 0.80074 0.30345-0.19649-0.28981-0.56586
  -8  -1  -115275.46 2002.38   1-0.58445-0.27243 0.63185-0.73897 0.50908-0.61619
  -8   1  -113351.17 2038.09   1-0.44195-0.41493 0.63382-0.52671 0.63477-0.74188
  -8  -1   117866.87 2216.07   1-0.44168-0.41520 0.63380-0.74091 0.63497-0.52786
  -8   1   115403.48 2669.43   1-0.27256-0.58433 0.61072-0.50361 0.74345-0.63634
  -1   8  -112525.20 6831.54   1 0.55789-0.66491 0.58479 0.27134 0.58887-0.69589
   1   8  -1 8770.50 3770.97   1 0.55276-0.44575 0.45926 0.39686 0.69535-0.80237
  -1   8   111198.13 4130.16   1 0.54835-0.65537 0.41956 0.43656 0.72337-0.61635
   1   8   114692.78 7174.21   1 0.52315-0.41613 0.27522 0.58090 0.80657-0.69955
   1   1   813668.58 2572.61   1-0.10126 0.20857-0.82347 0.93078 0.55823 0.30022
  -1   1   811714.66 4435.34   1-0.12067 0.01336-0.83791 0.94521 0.53229 0.32616
   1  -1   812908.62 2441.25   1-0.23687 0.34403-0.90287 0.79572 0.35875 0.49846
  -1  -1   812328.93 2293.17   1-0.27523 0.16808-0.91559 0.80843 0.29315 0.56407
   1  -2  -8 6438.53 2318.78   1-0.81089 0.91779 0.07295-0.28676-0.58062-0.27460
  -1  -2  -8 6702.07 3006.14   1-0.88641 0.77951 0.22256-0.43637-0.40586-0.44937
  -1   2  -8 5833.58 2906.76   1-0.90944 0.80248 0.31781-0.10389-0.26812-0.58755
  -8  -1  -2 6871.14 3192.30   1-0.64910-0.20735 0.62117-0.72822 0.43909-0.65321
  -8   1  -2 6479.46 2332.85   1-0.52418-0.33271 0.63555-0.52844 0.56683-0.78105
  -8   1   2 6356.91 1790.73   1-0.19225-0.66463 0.59205-0.48494 0.78263-0.56840
  -2   8   1 8676.75 2324.71   1 0.24811-0.46238 0.41461 0.44247 0.87551-0.76838
  -2   8  -1 3935.07 2483.76   1 0.55254-0.76657 0.66281 0.19332 0.50534-0.61236
   2   8  -1 7195.12 4379.76   1 0.54781-0.33378 0.41533 0.44080 0.72621-0.83323
   2   8   1 8501.16 3515.25   1 0.51306-0.29874 0.23050 0.62676 0.82681-0.71965
   1   2   8 8600.31 2089.57   1-0.02271 0.13001-0.75569 0.97031 0.65452 0.20393
  -1   2   8 7548.47 1575.16   1-0.02722-0.08007-0.75999 0.97460 0.64935 0.20910
   1  -2   8 5649.15 2676.07   1-0.28898 0.39613-0.91891 0.70460 0.26849 0.58873
  -1  -2   8 7460.21 1811.66   1-0.33063 0.22348-0.92450 0.71020 0.18964 0.66758
   1  -3  -8 6008.72 3328.05   1-0.79125 0.89815 0.04414-0.36486-0.60989-0.24534
  -1  -3  -8 5121.86 2430.55   1-0.87147 0.76456 0.18415-0.50486-0.45455-0.40067
  -8  -1  -3 4650.29 1990.27   1-0.70742-0.14903 0.60574-0.71280 0.36417-0.68534
  -8   1  -3 6403.39 2445.19   1-0.60130-0.25515 0.62898-0.52193 0.49275-0.81393
  -8   1   3 7623.10 1735.38   1-0.11973-0.73735 0.57221-0.46507 0.81131-0.48991
  -3   8   1 8003.32 1739.13   1 0.17638-0.49778 0.45236 0.40471 0.87421-0.76708
   3   8  -1 6116.50 4572.82   1 0.54349-0.22244 0.38441 0.47171 0.74621-0.85323
   3   8   1 5951.84 3195.31   1 0.50561-0.18413 0.20113 0.65613 0.83898-0.73183
   1  -3   8 9453.57 2695.44   1-0.33035 0.43751-0.92449 0.60303 0.19019 0.66703
  -1  -3   8 4114.57 2135.81   1-0.37248 0.26532-0.92228 0.60082 0.10316 0.75405
   2   0  -8 9414.44 2139.00   1-0.76388 0.97769 0.00735-0.00735-0.64531-0.20992
  -2   0  -8 6150.51 3151.40   1-0.91106 0.69714 0.34427-0.34427-0.22681-0.62886
  -8  -2   0 6108.44 2979.39   1-0.61188-0.24457 0.62757-0.84169 0.48139-0.48139
  -8   2   0 7735.00 2275.52   1-0.30116-0.55572 0.61624-0.40201 0.72769-0.72769
   0   8  -2 7018.80 4113.02   1 0.55750-0.55750 0.59861 0.25751 0.57519-0.78922
   0   8   2 8435.82 3745.80   1 0.51797-0.51797 0.25099 0.60628 0.81774-0.60342
   2   0   810033.13 3711.44   1-0.14872 0.36334-0.85708 0.85708 0.49324 0.36522
  -2   0   8 6165.58 1504.80   1-0.20942-0.00488-0.89089 0.89089 0.40304 0.45418
   2  -1  -8 6947.33 2223.55   1-0.75910 0.97291 0.00126-0.10817-0.65096-0.20427
  -2  -1  -8 5733.05 2647.82   1-0.90909 0.69517 0.31442-0.42138-0.27329-0.58238
  -2   1  -8 5416.07 2691.42   1-0.91057 0.69665 0.36832-0.26136-0.18758-0.66809
  -8  -2  -1 7025.56 2448.34   1-0.66794-0.18851 0.61697-0.83108 0.41615-0.52321
  -8   2  -1 6596.49 2643.73   1-0.38876-0.46813 0.62916-0.41494 0.67306-0.78017
  -8   2   1 9607.37 2063.81   1-0.21593-0.64096 0.59803-0.38380 0.77183-0.66472
  -1   8   2 6393.46 1365.00   1 0.42807-0.53519 0.30255 0.55438 0.85159-0.63736
  -1   8  -2 5499.05 4236.36   1 0.55307-0.66009 0.65830 0.19783 0.51062-0.72466
   1   8  -2 9415.78 4080.78   1 0.55792-0.45091 0.54765 0.30848 0.62353-0.83756
  -1   8   2 5738.56 3140.71   1 0.53512-0.64214 0.33446 0.52166 0.77573-0.56170
   1   8   2 8088.58 3231.93   1 0.50221-0.39505 0.18835 0.66892 0.84398-0.62966
   2   1   8 7567.72 1760.79   1-0.08128 0.29589-0.80764 0.91495 0.58404 0.27442
   2  -1   8 9550.95 2820.60   1-0.20939 0.42370-0.89088 0.78373 0.40308 0.45413
  -2  -1   8 6010.50 1718.91   1-0.28474 0.07043-0.91796 0.81080 0.27616 0.58105
   2  -2  -8 4427.10 2440.24   1-0.74718 0.96099-0.01356-0.20024-0.66447-0.19076
  -2  -2  -8 5320.47 2345.31   1-0.90345 0.68953 0.27922-0.49314-0.32526-0.53041
  -2   2  -8 3297.35 1580.47   1-0.90892 0.69500 0.38603-0.17211-0.15757-0.69810
  -8  -2  -2 3243.52 1221.68   1-0.71909-0.13736 0.60169-0.81581 0.34764-0.56176
  -8   2  -2 4844.13 2625.34   1-0.47530-0.38158 0.63538-0.42115 0.60858-0.82281
  -8   2   2 3694.12 1660.91   1-0.13652-0.72055 0.57730-0.36303 0.80503-0.59076
  -2   8   2 2377.66 1506.21   1 0.35160-0.56583 0.35318 0.50374 0.86696-0.65273
  -2   8  -2 4207.20 2384.61   1 0.54356-0.75718 0.72309 0.13139 0.42622-0.63984
   2   8  -2 2284.62 2146.42   1 0.55641-0.34237 0.50703 0.34909 0.65826-0.87230
   2   8   2 3678.76 2502.04   1 0.48998-0.27566 0.14481 0.71245 0.85962-0.64530
   8   2   2 3202.33 1860.85   1 0.32391 0.53451-0.27071 0.48532 0.90652-0.69191
   2   2   8 3211.75 1817.04   1-0.00851 0.22312-0.74187 0.95649 0.67048 0.18798
   2  -2   8 3709.51 2518.75   1-0.26018 0.47449-0.91118 0.69688 0.31943 0.53778
  -2  -2   8 5091.14 1733.51   1-0.34281 0.12850-0.92474 0.71044 0.16529 0.69192
  -3   0  -8 4358.10 1637.16   1-0.90812 0.58724 0.39188-0.39188-0.14745-0.70822
  -8   3   0 6872.71 2298.44   1-0.26060-0.59628 0.60823-0.28689 0.74975-0.74975
   0   8   3 4254.95 1333.08   1 0.57385-0.57385 0.18999 0.66694 0.79661-0.47526
   0   8  -3 5258.03 3372.19   1 0.55120-0.55120 0.67314 0.18299 0.49300-0.81405
   0   8   3 5082.62 4328.02   1 0.49713-0.49713 0.16982 0.68744 0.85088-0.52941
   3   0   8 5901.86 2102.13   1-0.11920 0.44112-0.83685 0.83685 0.53429 0.32416
  -3  -1  -8 6147.50 3225.13   1-0.91089 0.59001 0.36183-0.46879-0.19833-0.65734
  -3   1  -8 4777.15 2741.67   1-0.90327 0.58239 0.41627-0.30931-0.10392-0.75175
  -8   3  -1 6081.34 2961.73   1-0.34878-0.50811 0.62403-0.30270 0.69923-0.80634
  -8   3   1 7209.67 2247.56   1-0.17626-0.68062 0.58780-0.26646 0.78956-0.68245
  -1   8   3 4030.66 1220.47   1 0.50287-0.60999 0.24773 0.60919 0.82809-0.50674
  -1   8  -3 5613.45 3038.94   1 0.54376-0.65057 0.72225 0.13224 0.42740-0.74783
   1   8  -3 3481.61 1508.97   1 0.55581-0.44880 0.62920 0.22692 0.54328-0.86433
   1   8   3 4603.23 2795.60   1 0.47918-0.37203 0.10912 0.74814 0.87090-0.54942
;
_shelx_hkl_checksum              43978
loop_
_space_group_symop_operation_xyz
'x, y, z'
'-y, x, z'
'-x, -y, z'
'y, -x, z'
'x, -y, -z'
'y, x, -z'
'-x, y, -z'
'-y, -x, -z'
'z, x, y'
'-x, z, y'
'-z, -x, y'
'x, -z, y'
'z, -x, -y'
'x, z, -y'
'-z, x, -y'
'-x, -z, -y'
'y, z, x'
'-z, -y, -x'
'-z, y, x'
'z, y, -x'
'z, -y, x'
'y, -z, -x'
'-y, -z, x'
'-y, z, -x'
'-x, -y, -z'
'y, -x, -z'
'x, y, -z'
'-y, x, -z'
'-x, y, z'
'-y, -x, z'
'x, -y, z'
'y, x, z'
'-z, -x, -y'
'x, -z, -y'
'z, x, -y'
'-x, z, -y'
'-z, x, y'
'-x, -z, y'
'z, -x, y'
'x, z, y'
'-y, -z, -x'
'z, y, x'
'z, -y, -x'
'-z, -y, x'
'-z, y, -x'
'-y, z, x'
'y, z, -x'
'y, -z, x'
loop_
_atom_site_label
_atom_site_type_symbol
_atom_site_fract_x
_atom_site_fract_y
_atom_site_fract_z
_atom_site_U_iso_or_equiv
_atom_site_adp_type
_atom_site_occupancy
_atom_site_site_symmetry_order
_atom_site_calc_flag
_atom_site_refinement_flags_posn
_atom_site_refinement_flags_adp
_atom_site_refinement_flags_occupancy
Rb1 Rb 0.0000 0.0000 0.0000 0.0588(12) Uani 1 48 d S T P
Cl1 Cl 0.5000 0.0000 0.0000 0.144(4) Uani 1 16 d S T P
C1 C 0.342(2) 0.5000 0.342(2) 0.208(14) Uani 0.8889 4 d S T P
loop_
_atom_site_aniso_label
_atom_site_aniso_U_11
_atom_site_aniso_U_22
_atom_site_aniso_U_33
_atom_site_aniso_U_23
_atom_site_aniso_U_13
_atom_site_aniso_U_12
Rb1 0.0588(12) 0.0588(12) 0.0588(12) 0.000 0.000 0.000
Cl1 0.057(3) 0.187(6) 0.187(6) 0.000 0.000 0.000
C1 0.24(2) 0.139(17) 0.24(2) 0.000 -0.15(2) 0.000
loop_
_atom_type_symbol
_atom_type_description
_atom_type_scat_dispersion_real
_atom_type_scat_dispersion_imag
_atom_type_scat_source
C C 0.0033 0.0016 'International Tables Vol C Tables 4.2.6.8 and 6.1.1.4'
H H 0.0000 0.0000 'International Tables Vol C Tables 4.2.6.8 and 6.1.1.4'
Cl Cl 0.1484 0.1585 'International Tables Vol C Tables 4.2.6.8 and 6.1.1.4'
N N 0.0061 0.0033 'International Tables Vol C Tables 4.2.6.8 and 6.1.1.4'
Rb Rb -0.9393 2.9676 'International Tables Vol C Tables 4.2.6.8 and 6.1.1.4'
loop_
_geom_angle_atom_site_label_1
_geom_angle_atom_site_label_2
_geom_angle_atom_site_label_3
_geom_angle
_geom_angle_site_symmetry_1
_geom_angle_site_symmetry_3
Cl1 Rb1 Cl1 90.0 17 .
Cl1 Rb1 Cl1 90.0 17 1_455
Cl1 Rb1 Cl1 180.0 . 1_455
Cl1 Rb1 Cl1 90.0 17 2_545
Cl1 Rb1 Cl1 90.0 . 2_545
Cl1 Rb1 Cl1 90.0 1_455 2_545
Cl1 Rb1 Cl1 90.0 17 2
Cl1 Rb1 Cl1 90.0 . 2
Cl1 Rb1 Cl1 90.0 1_455 2
Cl1 Rb1 Cl1 180.0 2_545 2
Cl1 Rb1 Cl1 180.0 17 17_554
Cl1 Rb1 Cl1 90.0 . 17_554
Cl1 Rb1 Cl1 90.0 1_455 17_554
Cl1 Rb1 Cl1 90.0 2_545 17_554
Cl1 Rb1 Cl1 90.0 2 17_554
Rb1 Cl1 Rb1 180.0 1_655 .
C1 C1 C1 60.0 34_566 4_565
C1 C1 C1 120.002(7) 34_566 2_655
C1 C1 C1 90.001(8) 4_565 2_655
C1 C1 C1 90.0 34_566 9
C1 C1 C1 120.008(6) 4_565 9
C1 C1 C1 60.019(1) 2_655 9
loop_
_geom_bond_atom_site_label_1
_geom_bond_atom_site_label_2
_geom_bond_distance
_geom_bond_site_symmetry_2
Rb1 Cl1 3.318(4) 17
Rb1 Cl1 3.318(4) .
Rb1 Cl1 3.318(4) 1_455
Rb1 Cl1 3.318(4) 2_545
Rb1 Cl1 3.318(4) 2
Rb1 Cl1 3.318(4) 17_554
Cl1 Rb1 3.318(4) 1_655
C1 C1 1.48(2) 34_566
C1 C1 1.48(2) 4_565
C1 C1 1.48(2) 2_655
C1 C1 1.48(2) 9
