#------------------------------------------------------------------------------
#$Date: 2019-11-25 22:42:35 +0200 (Mon, 25 Nov 2019) $
#$Revision: 241983 $
#$URL: file:///home/coder/svn-repositories/cod/cif/4/13/18/4131892.cif $
#------------------------------------------------------------------------------
#
# This file is available in the Crystallography Open Database (COD),
# http://www.crystallography.net/
#
# All data on this site have been placed in the public domain by the
# contributors.
#
data_4131892
loop_
_publ_author_name
'Liao, Wei-Qiang'
'Tang, Yuan-Yuan'
'Li, Peng-Fei'
'You, Yu-Meng'
'Xiong, Ren-Gen'
_publ_section_title
;
 Competitive Halogen Bond in the Molecular Ferroelectric with Large
 Piezoelectric Response.
;
_journal_issue                   11
_journal_name_full               'Journal of the American Chemical Society'
_journal_page_first              3975
_journal_page_last               3980
_journal_paper_doi               10.1021/jacs.7b12524
_journal_volume                  140
_journal_year                    2018
_chemical_formula_sum            'C4 H11 Br3 Cd Cl N'
_chemical_formula_weight         460.72
_space_group_crystal_system      hexagonal
_space_group_IT_number           194
_space_group_name_Hall           '-P 6c 2c'
_space_group_name_H-M_alt        'P 63/m m c'
_atom_sites_solution_hydrogens   geom
_audit_creation_method           SHELXL-2014/7
_cell_angle_alpha                90
_cell_angle_beta                 90
_cell_angle_gamma                120
_cell_formula_units_Z            2
_cell_length_a                   9.5900(4)
_cell_length_b                   9.5900(4)
_cell_length_c                   7.0146(5)
_cell_measurement_reflns_used    1427
_cell_measurement_temperature    373(2)
_cell_measurement_theta_max      27.4662
_cell_measurement_theta_min      2.4505
_cell_volume                     558.69(5)
_computing_structure_refinement  'SHELXL-2014/7 (Sheldrick, 2014)'
_diffrn_ambient_temperature      373(2)
_diffrn_measured_fraction_theta_full 0.996
_diffrn_measured_fraction_theta_max 0.996
_diffrn_measurement_device_type  'Rigaku saturn 724'
_diffrn_radiation_type           MoK\a
_diffrn_radiation_wavelength     0.71073
_diffrn_reflns_av_R_equivalents  0.0606
_diffrn_reflns_av_unetI/netI     0.0270
_diffrn_reflns_Laue_measured_fraction_full 0.996
_diffrn_reflns_Laue_measured_fraction_max 0.996
_diffrn_reflns_limit_h_max       11
_diffrn_reflns_limit_h_min       -12
_diffrn_reflns_limit_k_max       10
_diffrn_reflns_limit_k_min       -12
_diffrn_reflns_limit_l_max       9
_diffrn_reflns_limit_l_min       -9
_diffrn_reflns_number            3935
_diffrn_reflns_point_group_measured_fraction_full 0.996
_diffrn_reflns_point_group_measured_fraction_max 0.996
_diffrn_reflns_theta_full        25.242
_diffrn_reflns_theta_max         27.447
_diffrn_reflns_theta_min         3.802
_exptl_absorpt_coefficient_mu    12.862
_exptl_absorpt_correction_T_max  1.0000
_exptl_absorpt_correction_T_min  0.6130
_exptl_absorpt_correction_type   multi-scan
_exptl_crystal_colour            colorless
_exptl_crystal_density_diffrn    2.739
_exptl_crystal_description       blcok
_exptl_crystal_F_000             424
_exptl_crystal_size_max          0.15
_exptl_crystal_size_mid          0.12
_exptl_crystal_size_min          0.10
_refine_diff_density_max         1.014
_refine_diff_density_min         -0.832
_refine_diff_density_rms         0.215
_refine_ls_extinction_coef       0.048(14)
_refine_ls_extinction_expression Fc^*^=kFc[1+0.001xFc^2^\l^3^/sin(2\q)]^-1/4^
_refine_ls_extinction_method     'SHELXL-2014/7 (Sheldrick 2014'
_refine_ls_goodness_of_fit_ref   1.204
_refine_ls_hydrogen_treatment    constr
_refine_ls_matrix_type           full
_refine_ls_number_parameters     29
_refine_ls_number_reflns         274
_refine_ls_number_restraints     12
_refine_ls_restrained_S_all      1.194
_refine_ls_R_factor_all          0.0735
_refine_ls_R_factor_gt           0.0644
_refine_ls_shift/su_max          0.006
_refine_ls_shift/su_mean         0.002
_refine_ls_structure_factor_coef Fsqd
_refine_ls_weighting_details
'w=1/[\s^2^(Fo^2^)+(0.1285P)^2^+0.2918P] where P=(Fo^2^+2Fc^2^)/3'
_refine_ls_weighting_scheme      calc
_refine_ls_wR_factor_gt          0.1936
_refine_ls_wR_factor_ref         0.2059
_reflns_Friedel_coverage         0.000
_reflns_number_gt                236
_reflns_number_total             274
_reflns_threshold_expression     'I > 2\s(I)'
_cod_data_source_file            ja7b12524_si_004.cif
_cod_data_source_block           shelxl
_cod_depositor_comments
;
The following automatic conversions were performed:

data item '_exptl_absorpt_correction_type' value 'Multi-scan' was
changed to 'multi-scan' in accordance with the
/home/saulius/struct/COD-crude-data/automatic-downloads/DataCite-retrospective/ACS/depositions/lib/dictionaries/cif_core.dic
dictionary named 'cif_core.dic' version 2.4.2 last updated on
2011-04-26.

Automatic conversion script
Id: cif_fix_values 6909 2019-04-08 15:41:33Z antanas 
;
_cod_original_cell_volume        558.69(6)
_cod_database_code               4131892
_shelx_shelxl_version_number     2014/7
_shelx_space_group_comment
;
The symmetry employed for this shelxl refinement is uniquely defined
by the following loop, which should always be used as a source of
symmetry information in preference to the above space-group names.
They are only intended as comments.
;
_shelx_res_file
;

    shelxl.res created by SHELXL-2014/7


TITL shelxl in P6(3)/mmc
CELL 0.71073   9.5900   9.5900   7.0146  90.000  90.000 120.000
ZERR    2.00   0.0004   0.0004   0.0005   0.000   0.000   0.000
LATT  1
SYMM -Y, X-Y, Z
SYMM -X+Y, -X, Z
SYMM -X, -Y, 0.5+Z
SYMM Y, -X+Y, 0.5+Z
SYMM X-Y, X, 0.5+Z
SYMM Y, X, -Z
SYMM X-Y, -Y, -Z
SYMM -X, -X+Y, -Z
SYMM -Y, -X, 0.5-Z
SYMM -X+Y, Y, 0.5-Z
SYMM X, X-Y, 0.5-Z
SFAC C H N CL Cd Br
UNIT 8 22 2 2 2 6
L.S. 10
TEMP 100
BOND

ACTA
FMAP 2
PLAN 10
WGHT    0.128500    0.291800
EXTI    0.048306
FVAR       8.22919
MN1   5    0.000000    0.000000    0.000000    10.08333    0.08299    0.08299 =
         0.04553    0.00000    0.00000    0.04150
BR1   6    0.130172   -0.130172    0.250000    10.25000    0.12557    0.12557 =
         0.06887    0.00000    0.00000    0.08370
PART  -1  ! ammonium, DFIX parameters from 273K structure
DFIX 1.49 0.01 N1 C1 N1 C2 N1 C3 N1 C4
DFIX 2.46 0.01 C1 C2 C1 C3 C1 C4 C2 C3 C2 C4 C3 C4
DFIX 1.76 0.01 C1 CL2
DFIX 2.68 0.01 N1 CL2
EADP C1 C2 C3 C4

N1    3    0.336018   -0.325586   -0.241236    10.08333    0.10829
CL2   4    0.369965   -0.424742    0.103849    10.08333    0.56601
C1    1    0.334670   -0.291301   -0.032293    10.08333    0.19885
AFIX  23
H1A   2    0.231231   -0.303322    0.002020    10.08333   -1.20000
H1B   2    0.417288   -0.181262   -0.005375    10.08333   -1.20000
AFIX   0
C2    1    0.420895   -0.169527   -0.349390    10.08333    0.19885
AFIX  33
H2A   2    0.529565   -0.106985   -0.304118    10.08333   -1.50000
H2B   2    0.421806   -0.191476   -0.482772    10.08333   -1.50000
H2C   2    0.365517   -0.110458   -0.330350    10.08333   -1.50000
AFIX   0
C3    1    0.165869   -0.423447   -0.312204    10.08333    0.19885
AFIX  33
H3A   2    0.111613   -0.523127   -0.243175    10.08333   -1.50000
H3B   2    0.110523   -0.364347   -0.293169    10.08333   -1.50000
H3C   2    0.166812   -0.445365   -0.445590    10.08333   -1.50000
AFIX   0
C4    1    0.422708   -0.418107   -0.271252    10.08333    0.19885
AFIX  33
H4A   2    0.531373   -0.355632   -0.225939    10.08333   -1.50000
H4B   2    0.368469   -0.517833   -0.202312    10.08333   -1.50000
H4C   2    0.423636   -0.439932   -0.404669    10.08333   -1.50000
PART 0

AFIX   0
HKLF 4

REM  shelxl in P6(3)/mmc
REM R1 =  0.0644 for     236 Fo > 4sig(Fo)  and  0.0735 for all     274 data
REM     29 parameters refined using     12 restraints

END

WGHT      0.1314      0.2834

REM Highest difference peak  1.014,  deepest hole -0.832,  1-sigma level  0.215
Q1    1   0.3020 -0.3020  0.0744  10.50000  0.05    0.91
Q2    1   0.1401 -0.1401  0.1049  10.50000  0.05    0.57
Q3    1   0.3886 -0.2227 -0.4164  10.50000  0.05    0.52
Q4    1   0.3923  0.0000 -0.5000  10.50000  0.05    0.35
Q5    1   0.7105 -0.1448 -0.2500  10.25000  0.05    0.27
Q6    1   0.5000 -0.5000 -0.5000  10.25000  0.05    0.21
Q7    1   0.2161  0.0381  0.2500  10.50000  0.05    0.17
Q8    1   0.3593 -0.5751  0.1132  11.00000  0.05    0.12
Q9    1   0.1886 -0.1886 -0.0001  10.50000  0.05    0.12
Q10   1   0.1061 -0.2454  0.0313  11.00000  0.05    0.10
;
_shelx_res_checksum              65338
_shelx_hkl_file
;
   0   0  -1  699.84  472.16   1-0.36434 0.36434-0.92988 0.92988-0.05069-0.05069
   0   0   1  396.62  294.63   1-0.33467 0.33467-0.94096 0.94096 0.05069 0.05069
   0   0   1  643.81  312.29   1 0.99753-0.99753 0.04847-0.04847 0.05072 0.05072
   0   0  -1  533.61  271.83   1 0.99269-0.99269 0.10947-0.10947-0.05072-0.05072
   0   0  -2306775.6 6484.70   1-0.37769 0.37769-0.92036 0.92036-0.10139-0.10139
   0   0   2293887.3 6070.39   1-0.31801 0.31801-0.94265 0.94265 0.10137 0.10137
   0   0   2298651.8 6554.38   1 0.99468-0.99468 0.01756-0.01756 0.10144 0.10144
   0   0  -2322941.6 7120.43   1 0.98500-0.98500 0.13955-0.13955-0.10144-0.10144
   0   0  -3 1205.86  812.55   1-0.39004 0.39004-0.90815 0.90815-0.15208-0.15208
   0   0   3  435.65 1008.90   1 0.98826-0.98826-0.01363 0.01363 0.15216 0.15216
   0   0  -4999998.252057.03   1-0.40136 0.40136-0.89319 0.89319-0.20278-0.20278
   0   0   4829280.342021.76   1 0.97816-0.97816-0.04513 0.04513 0.20288 0.20288
   0   0  -5 -116.44 1359.86   1-0.41162 0.41162-0.87539 0.87539-0.25347-0.25347
   0   0   5 1086.38 2325.07   1 0.96425-0.96425-0.07701 0.07701 0.25354 0.25354
   0   0  -624233.05 7492.28   1-0.42077 0.42077-0.85464 0.85464-0.30417-0.30417
   0   0   621256.82 2854.42   1 0.94632-0.94632-0.10912 0.10912 0.30425 0.30425
   0   0  -7 1135.61 1712.74   1-0.42877 0.42877-0.83079 0.83079-0.35486-0.35486
   0   0   7  761.77 1433.27   1 0.92410-0.92410-0.14156 0.14156 0.35495 0.35495
   0   0  -867778.01 6275.12   1-0.43536 0.43536-0.80365 0.80365-0.40570-0.40570
   0   0   861340.97 4921.58   1 0.89723-0.89723-0.17438 0.17438 0.40566 0.40566
   0   0  -9  945.41 1243.60   1-0.44079 0.44079-0.77290 0.77290-0.45642-0.45642
   0   0   9  219.02 1147.05   1 0.86522-0.86522-0.20760 0.20760 0.45637 0.45637
   1   0  -9  705.42 1194.06   1-0.44444 0.53008-0.74184 0.74184-0.50213-0.41070
  -1   1  -9  541.78 1083.47   1-0.44430 0.40148-0.74337 0.81753-0.49999-0.41284
   0  -1  -9 1539.82 1480.51   1-0.43137 0.38855-0.82133 0.74715-0.37327-0.53924
  -1   0   9 1304.86 1421.80   1 0.80318-0.88880-0.26054 0.26054 0.53574 0.37701
   0   1   9  236.32 1128.12   1 0.87947-0.83666-0.19345 0.26760 0.43485 0.47789
   1  -1   9  198.34 1910.06   1 0.89809-0.85527-0.17341 0.09925 0.40417 0.50857
  -1   1  -830577.49 9599.12   1-0.44090 0.39808-0.77218 0.84634-0.45753-0.35387
   1   0  -834521.3912119.45   1-0.44082 0.52646-0.77268 0.77268-0.45675-0.35466
   0  -1  -829092.2111535.88   1-0.42173 0.37891-0.85211 0.77794-0.30989-0.50122
  -1   0   830119.28 3502.32   1 0.83446-0.92009-0.23538 0.23538 0.49825 0.31308
   0   1   829541.06 3888.03   1 0.91344-0.87063-0.15524 0.22940 0.37617 0.43516
   1  -1   829533.49 4201.01   1 0.92708-0.88427-0.13754 0.06338 0.34869 0.46264
   1   0  -7 1541.07 1509.07   1-0.43620 0.52184-0.79958 0.79958-0.41277-0.29721
  -1   1  -7 1203.61 1325.34   1-0.43670 0.39388-0.79707 0.87124-0.41708-0.29290
   0  -1  -7  554.71 1285.43   1-0.40967 0.36685-0.87914 0.80497-0.24343-0.46629
  -1   0   7 1600.84 1394.81   1 0.86003-0.94566-0.21253 0.21253 0.46385 0.24606
   0   1   7  751.76 1179.47   1 0.94178-0.89897-0.11627 0.19042 0.31547 0.39444
   1  -1   7 1803.42 2284.02   1 0.95096-0.90815-0.10144 0.02729 0.29217 0.41774
   1   0  -6 8283.36 2286.94   1-0.43104 0.51669-0.82258 0.82258-0.37088-0.23745
  -1   1  -6 7237.87 2051.38   1-0.43221 0.38939-0.81801 0.89219-0.37951-0.22883
   0  -1  -6 7860.80 2784.73   1-0.39469 0.35187-0.90249 0.82832-0.17238-0.43596
  -1   0   6 8104.16 2164.29   1 0.87995-0.96558-0.19295 0.19295 0.43410 0.17440
   0   1   610435.79 2460.00   1 0.96484-0.92203-0.07581 0.14996 0.25162 0.35687
   1  -1   6 9267.17 2507.38   1 0.97004-0.92722-0.06481-0.00934 0.23412 0.37437
  -1   1  -5 8213.97 2246.49   1-0.42757 0.38474-0.83483 0.90901-0.34674-0.16021
   1   0  -5 8533.27 2646.57   1-0.42540 0.51105-0.84167 0.84167-0.33258-0.17437
   0  -1  -5 5972.27 1976.57   1-0.37583 0.33300-0.92189 0.84772-0.09408-0.41287
  -1   0   5 6108.16 1819.98   1 0.89371-0.97934-0.17830 0.17830 0.41168 0.09539
   0   1   5 5779.73 1871.20   1 0.98263-0.93983-0.03254 0.10668 0.18266 0.32455
   1  -1   5 8272.15 2117.05   1 0.98440-0.94160-0.02704-0.04709 0.17381 0.33341
  -1   1  -4483919.4 9976.34   1-0.42371 0.38088-0.84665 0.92083-0.32192-0.08363
   1   0  -4438906.012525.80   1-0.42016 0.50580-0.85623 0.85623-0.30055-0.10500
   0  -1  -4409484.0 9281.02   1-0.35102 0.30820-0.93635 0.86218-0.00351-0.40205
  -1   0   4448269.2 8440.68   1 0.89949-0.98512-0.17182 0.17182 0.40173 0.00393
   1  -1   4393479.6 8156.78   1 0.99391-0.95111 0.01269-0.08682 0.10939 0.29638
   0   1   4410843.3 7822.33   1 0.99443-0.95163 0.01592 0.05820 0.10411 0.30166
  -1   1  -3 8466.91 2343.07   1-0.42212 0.37930-0.85106 0.92523-0.31224 0.00807
   0  -1  -3 6327.21 1082.11   1-0.31514 0.27234-0.94265 0.86853 0.10997-0.41409
  -1   0   3 7888.61 1264.63   1 0.89167-0.97729-0.18054 0.18054 0.41512-0.11087
   1  -1   3 7091.23 1342.69   1 0.99769-0.95489 0.05641-0.13055 0.03762 0.26670
   0   1   3 6604.75  893.34   1 0.99710-0.95430 0.07580-0.00167 0.00549 0.29883
  -1   1  -211581.05 3103.25   1-0.42603 0.38321-0.83973 0.91390-0.33666 0.13387
   1   0  -210991.48 3249.52   1-0.41949 0.50513-0.85791 0.85791-0.29665 0.09387
   1  -1   2 8747.06 1702.37   1-0.38553 0.42835-0.91304 0.83887-0.13307 0.33585
  -1   0   2 9704.67 2315.10   1-0.35924 0.27359-0.93268 0.93268-0.03225 0.23503
   0  -1  -211207.04 1048.23   1-0.25491 0.21212-0.92749 0.85338 0.27342-0.47617
   0   1   2 8974.69  735.36   1-0.16605 0.20884-0.86627 0.94039 0.47116-0.26841
   0   1   2 9094.84  780.18   1-0.85104 0.89383-0.32030 0.39441 0.41607-0.21330
  -1   0   210419.57 1042.50   1 0.84971-0.93534-0.22203 0.22203 0.47820-0.27536
   1   0  -211327.81 1086.66   1 0.95421-0.86859-0.09584 0.09584 0.28333-0.48617
   1  -1   212626.74 1314.84   1 0.99276-0.94996 0.10909-0.18323-0.05007 0.25296
   0   1   210699.80 1017.65   1 0.97505-0.93225 0.16632-0.09218-0.14697 0.34986
   1   0  -1 1877.10  581.58   1-0.44106 0.52670-0.77105 0.77105-0.45927 0.35784
  -1   1  -1 2086.97  803.36   1-0.44137 0.39855-0.76882 0.84298-0.46271 0.36128
   1  -1   1 2189.84  889.80   1-0.42720 0.47002-0.83603 0.76186-0.34429 0.44569
  -1   0   1 5584.82  637.62   1-0.41328 0.32763-0.87202 0.87202-0.26224 0.36363
   0  -1  -1 2373.49  426.32   1-0.11782 0.07502-0.81893 0.74480 0.56166-0.66305
   0   1   1 1745.91  407.76   1-0.05904 0.10184-0.74929 0.82342 0.65959-0.55820
   1  -1   1 2117.48  482.94   1-0.92266 0.96544-0.25124 0.17713 0.29253-0.19114
   0  -1  -1 2709.75  713.10   1-0.77419 0.73140-0.37218 0.29807 0.51195-0.61334
   0   1   1 2126.59  413.01   1-0.59293 0.63575-0.45113 0.52529 0.66701-0.56558
  -1   0   1 2222.37  549.77   1 0.67290-0.75850-0.34365 0.34365 0.65505-0.55368
   1   0  -1 1640.68  349.70   1 0.77420-0.68858-0.28164 0.28164 0.56681-0.66823
   1  -1   1 1848.19  520.51   1 0.96500-0.92220 0.18750-0.26164-0.18330 0.28474
   0   1  -1 1962.05  658.68   1-0.44352 0.48634-0.57047 0.64464-0.69125 0.58983
   0  -1   1 2046.13  748.71   1-0.44765 0.40483-0.67008 0.59592-0.59210 0.69353
  -1   0  -1 1597.59  306.40   1-0.29658 0.21100-0.94089 0.94089 0.16357-0.26495
   1   0   1 2087.23  449.90   1-0.24625 0.33183-0.92331 0.92331 0.29470-0.19333
   1  -1  -1 2457.76  329.89   1-0.16368 0.20647-0.86413 0.79002 0.47589-0.57726
  -1   1   1 1833.14  341.09   1-0.08293 0.04013-0.77906 0.85319 0.62143-0.52003
  -1   0  -1 2130.31  993.57   1-0.74523 0.65965-0.38816 0.38816 0.54218-0.64356
   1   0   1 1757.19  966.74   1-0.64398 0.72961-0.43320 0.43320 0.63056-0.52913
  -1   1   1 2415.64  345.42   1 0.71352-0.75632-0.32093 0.39507 0.62280-0.52142
   1  -1  -1 2226.56  394.28   1 0.88664-0.84383-0.18596 0.11180 0.42341-0.52483
   0  -1   1 5319.08  610.60   1 0.91867-0.96148-0.14866 0.07450 0.36597-0.26455
   0   1  -1 4214.71  667.94   1 0.96218-0.91937-0.08110 0.15526 0.26002-0.36144
   0   1  -211423.05 2543.95   1-0.44344 0.48626-0.75181 0.82598-0.48798 0.28512
   0  -1   212697.40 1184.74   1-0.41733 0.37450-0.86311 0.78894-0.28436 0.48714
  -1   0  -210444.74 2951.29   1-0.34251 0.25686-0.93917 0.93917 0.02518-0.22796
   1   0   210738.29  820.72   1-0.27058 0.35617-0.93390 0.93390 0.23365-0.03091
  -1   1   2 9843.66  782.56   1-0.19844 0.15565-0.89297 0.96709 0.40399-0.20124
  -1   0  -212395.59 1379.42   1-0.93130 0.84573-0.24046 0.24046 0.27357-0.47635
   1   0   210140.47 3095.23   1-0.81557 0.90115-0.34624 0.34624 0.46362-0.26085
  -1   1   210644.98  850.89   1 0.91764-0.96045-0.14998 0.22413 0.36801-0.16518
   0  -1   210737.68 1330.91   1 0.95351-0.99633-0.09706 0.02291 0.28526-0.08243
   0   1  -2 9394.47  959.16   1 0.99502-0.95221 0.01986 0.05426 0.09767-0.30056
   1  -1  -210691.17  987.83   1 0.99636-0.95355 0.03106-0.10520 0.07934-0.28223
   0   1  -3 6996.86 2218.53   1-0.43699 0.47981-0.79559 0.86975-0.41960 0.11532
  -1   0  -3 8064.76 2464.45   1-0.36708 0.28143-0.92820 0.92820-0.06078-0.24338
  -1   1   3 7333.24 1149.21   1 0.93730-0.98012-0.12303 0.19718 0.32605-0.02180
   0  -1   3 7420.43 1427.23   1 0.95665-0.99946-0.09150 0.01735 0.27648 0.02776
   1   0   3 6978.34 1265.49   1 0.98290-0.89729 0.14594-0.14594-0.11227 0.41661
   0   1  -4428300.411487.50   1-0.43544 0.47827-0.80403 0.87821-0.40485-0.00070
  -1   0  -4425653.6 9915.74   1-0.38491 0.29927-0.91367 0.91367-0.13053-0.27502
   1  -1  -4416454.4 9155.51   1-0.37274 0.41556-0.92429 0.85011-0.08214-0.32342
  -1   1   4447984.0 8072.14   1 0.93390-0.97671-0.12800 0.20216 0.33383 0.07183
   0  -1   4452402.7 9015.53   1 0.95047-0.99328-0.10228 0.02812 0.29348 0.11218
   1   0   4438999.5 8539.54   1 0.99693-0.91133 0.07815-0.07815 0.00159 0.40418
   0   1  -5 6582.92 2108.66   1-0.43640 0.47922-0.79862 0.87278-0.41443-0.09269
  -1   0  -5 5832.85 2267.25   1-0.39931 0.31366-0.89621 0.89621-0.19325-0.31370
   1  -1  -5 6242.28 1847.34   1-0.39218 0.43500-0.90562 0.83145-0.16133-0.34561
  -1   1   5 6366.89 1619.63   1 0.92176-0.96458-0.14465 0.21880 0.35975 0.14733
   0  -1   5 6041.60 1889.04   1 0.93888-0.98169-0.12069 0.04653 0.32239 0.18469
   1   0   5 4645.38 1618.92   1 0.99541-0.90981 0.02283-0.02283 0.09283 0.41439
   0   1  -6 8681.61 3124.07   1-0.43887 0.48169-0.78519 0.85936-0.43687-0.17168
  -1   0  -6 8541.60 2645.17   1-0.41139 0.32574-0.87584 0.87584-0.25228-0.35606
   1  -1  -6 8243.12 2540.33   1-0.40723 0.45005-0.88359 0.80942-0.23113-0.37721
  -1   1   6 8674.82 2376.46   1 0.90373-0.94654-0.16692 0.24108 0.39420 0.21429
   0  -1   6 7792.66 2028.90   1 0.92275-0.96556-0.14335 0.06919 0.35773 0.25077
   1   0   6 6650.10 1959.75   1 0.98478-0.89917-0.02582 0.02582 0.17184 0.43682
   0   1  -7 1494.39 1540.20   1-0.44173 0.48455-0.76611 0.84028-0.46682-0.24315
  -1   0  -7 1385.01 1612.46   1-0.42161 0.33596-0.85244 0.85244-0.30915-0.40057
   1  -1  -7 1321.41 1283.77   1-0.41931 0.46213-0.85835 0.78418-0.29563-0.41410
  -1   1   7 1340.79 1687.84   1 0.88045-0.92326-0.19244 0.26660 0.43332 0.27659
   0  -1   7 1202.84 2251.49   1 0.90222-0.94503-0.16868 0.09453 0.39691 0.31300
   1   0   7  143.25 1655.28   1 0.96733-0.88170-0.07066 0.07066 0.24344 0.46647
   0   1  -826171.41 8506.66   1-0.44440 0.48722-0.74227 0.81644-0.50152-0.30989
   1  -1  -830569.49 7451.96   1-0.42906 0.47188-0.82979 0.75562-0.35685-0.45426
  -1   0  -830905.7411047.44   1-0.43017 0.34452-0.82581 0.82581-0.36466-0.44646
  -1   1   828304.07 3015.72   1 0.85187-0.89469-0.22008 0.29423 0.47525 0.33608
   0  -1   832315.77 3798.76   1 0.87709-0.91990-0.19588 0.12172 0.43856 0.37277
   1   0   829544.26 3999.44   1 0.94378-0.85816-0.11315 0.11315 0.31058 0.50075
   0   1  -9  436.09 1528.50   1-0.44645 0.48927-0.71395 0.78812-0.53938-0.37345
  -1   0  -9 1434.54 1412.60   1-0.43697 0.35133-0.79568 0.79568-0.41944-0.49339
   1  -1  -9   -9.42 1384.30   1-0.43659 0.47941-0.79764 0.72347-0.41611-0.49673
  -1   1   9  538.75 1477.55   1 0.81762-0.86043-0.24926 0.32342 0.51899 0.39375
   0  -1   9  655.61 1983.22   1 0.84699-0.88980-0.22448 0.15032 0.48188 0.43086
   1   0   9  282.44 1208.04   1 0.91425-0.82862-0.15424 0.15424 0.37462 0.53812
  -1   2  -8 6645.94 2895.66   1-0.44680 0.44680-0.70678 0.85511-0.54847-0.26294
   2  -1  -8 4731.94 2837.37   1-0.43651 0.56497-0.79804 0.72387-0.41542-0.39598
  -1  -1  -8 6345.72 2455.00   1-0.41546 0.28699-0.86735 0.79318-0.27401-0.53711
  -2   1   8 4696.32 1787.85   1 0.77356-0.90200-0.28208 0.35624 0.56746 0.24386
   1  -2   8 5447.35 2304.99   1 0.90644-0.90644-0.16374 0.01543 0.38929 0.42204
   1   1   8 6035.79 2083.13   1 0.95678-0.82834-0.09125 0.16541 0.27609 0.53523
  -1   2  -7  189.29 1102.97   1-0.44564 0.44564-0.72699 0.87532-0.52237-0.18761
   2  -1  -7 1062.99  919.93   1-0.42975 0.55822-0.82733 0.75316-0.36170-0.34803
  -1  -1  -7  583.08  763.56   1-0.40169 0.27322-0.89267 0.81850-0.20436-0.50536
  -2   1   7 1112.94 1401.41   1 0.79723-0.92568-0.26502 0.33918 0.54237 0.16754
   1  -2   7  604.25 1665.91   1 0.92995-0.92995-0.13359-0.01471 0.34254 0.36737
   1   1   7  581.06 1394.91   1 0.97933-0.85092-0.04197 0.11611 0.19782 0.51228
  -1   2  -655721.8710810.98   1-0.44450 0.44450-0.74120 0.88953-0.50302-0.10554
   2  -1  -666469.3213212.11   1-0.42128 0.54975-0.85332 0.77914-0.30718-0.30115
  -1  -1  -662730.0913435.62   1-0.38468 0.25621-0.91390 0.83973-0.12959-0.47875
  -2   1   658966.03 4649.71   1 0.81276-0.94120-0.25311 0.32727 0.52472 0.08377
   1  -2   665243.41 6043.17   1 0.94918-0.94918-0.10443-0.04387 0.29687 0.31163
   1   1   657884.92 4625.35   1 0.99371-0.86530 0.01149 0.06264 0.11135 0.49731
  -1   2  -5 1419.79 1416.67   1-0.44388 0.44388-0.74765 0.89598-0.49394-0.01319
   2  -1  -5  801.83 1287.54   1-0.41117 0.53964-0.87626 0.80209-0.25117-0.25578
  -1  -1  -5  922.26 1397.19   1-0.36332 0.23485-0.93047 0.85630-0.04696-0.45998
  -2   1   5  388.81 1248.89   1 0.81778-0.94622-0.24913 0.32329 0.51880-0.01171
   1  -2   5  400.35 1930.66   1 0.96447-0.96447-0.07657-0.07173 0.25283 0.25424
   1   1   5   89.30 1387.06   1 0.99734-0.86893 0.07170 0.00243 0.01230 0.49491
  -1   2  -460484.32 3253.56   1-0.44439 0.44439-0.74237 0.89070-0.50139 0.09568
   2  -1  -459273.45 2623.12   1-0.39912 0.52759-0.89648 0.82231-0.19238-0.21317
  -1  -1  -456817.37 3109.99   1-0.33538 0.20691-0.94083 0.86666 0.04839-0.45396
  -2   1   456497.99 2454.64   1 0.80613-0.93457-0.25828 0.33243 0.53239-0.12672
   1  -2   467670.28 3952.70   1 0.97606-0.97606-0.05052-0.09775 0.21151 0.19425
   1   1   466189.42 3104.54   1 0.98384-0.85543 0.14313-0.06900-0.10751 0.51329
  -1   2  -3  269.28  855.61   1-0.44636 0.44636-0.71568 0.86401-0.53717 0.23289
   2  -1  -3  489.43  592.55   1-0.38419 0.51266-0.91439 0.84022-0.12755-0.17661
  -1  -1  -3  718.47 1092.09   1-0.29575 0.16737-0.94074 0.86662 0.16592-0.47004
  -1  -1  -3  150.28  774.91   1-0.93552 0.80716-0.23490 0.16079 0.26384-0.56800
  -2   1   3  352.23  840.61   1 0.76069-0.88913-0.29086 0.36502 0.58029-0.27604
   1  -2   3 1589.53 1333.00   1 0.98421-0.98421-0.02766-0.12061 0.17481 0.12952
  -1   2  -2569113.012198.33   1-0.44732 0.44732-0.64062 0.78895-0.62409 0.42124
   2  -1  -2594903.411557.45   1-0.36279 0.49126-0.93077 0.85660-0.04504-0.15774
  -1  -1  -2571483.111339.58   1-0.23283 0.10446-0.91599 0.84187 0.32672-0.52946
  -2   1   2539649.110196.78   1-0.22430 0.09593-0.91083 0.98495 0.34650-0.14376
   1   1   2588769.612206.20   1-0.56810 0.69655-0.45888 0.53304 0.68314-0.48028
  -2   1   2564602.811121.38   1 0.62742-0.75583-0.36656 0.44070 0.68699-0.48424
   2  -1  -2555860.510932.25   1 0.85839-0.72995-0.21408 0.13992 0.46618-0.66902
   1  -2   2555231.711967.29   1 0.98897-0.98897-0.01086-0.13740 0.14768 0.05520
  -1   2  -1  440.94  453.83   1-0.42687 0.42687-0.43381 0.58203-0.79346 0.69210
   1  -2   1   -3.64  355.21   1-0.44406 0.44406-0.57735 0.42902-0.68517 0.78660
   2  -1  -1  159.92  220.22   1-0.30275 0.43113-0.94180 0.86768 0.14611-0.24748
  -1  -1  -1  168.79  431.33   1-0.11072-0.01767-0.81118 0.73704 0.57421-0.67560
  -2   1   1  224.82  223.82   1-0.08113-0.04726-0.77690 0.85103 0.62437-0.52297
   1   1   1   44.66  333.88   1-0.02637 0.15477-0.70543 0.77957 0.70827-0.60688
  -1  -1  -1  491.08  450.50   1-0.43726 0.30881-0.49090 0.41674 0.75353-0.85496
   1   1   1  159.80  231.35   1-0.22721 0.35566-0.51726 0.59142 0.82511-0.72368
  -2   1   1  171.86  308.84   1 0.25452-0.38289-0.48552 0.55963 0.83635-0.73497
   2  -1  -1  215.25  302.27   1 0.48410-0.35570-0.42497 0.35084 0.76487-0.86624
   1  -2   1  157.25  659.56   1 0.98933-0.98933-0.00941-0.13886 0.14532-0.04388
  -1   2  -1  381.16  561.52   1 0.99539-0.99539 0.09300 0.05527-0.02314-0.07829
   1  -2   0480664.8 9465.22   1-0.34073 0.34073-0.07411-0.07411-0.93723 0.93723
  -2   1   0512007.8 9361.16   1-0.44684 0.31838-0.62563 0.69979-0.63946 0.63946
  -1  -1   0468238.5 8869.53   1 0.14987-0.27832-0.40790 0.33374 0.90063-0.90063
   1   1   0486832.8 9215.22   1 0.22583-0.09738-0.24284 0.31700 0.94341-0.94341
   1  -2   0466208.1 9034.64   1 0.29218-0.29218-0.07416-0.07416 0.95348-0.95348
   2  -1   0518116.8 9888.69   1-0.21365 0.34201-0.51828 0.44416 0.82809-0.82809
  -1  -1   0478017.5 9270.55   1 0.20038-0.32875-0.49530 0.42118 0.84529-0.84529
   1   1   0474172.8 9120.09   1 0.35346-0.22505-0.46395 0.53808 0.81228-0.81228
   1  -2   0495501.7 9426.98   1 0.96566-0.96566-0.07415-0.07415 0.24899-0.24899
   1   1  -1 2488.08 1309.03   1-0.39782 0.52618-0.28575 0.35986-0.87182 0.77046
  -1  -1   1   86.67  193.76   1-0.43534 0.30688-0.49342 0.41926-0.75299 0.85442
  -2   1  -1   84.14  421.63   1-0.41465 0.28618-0.86911 0.94329-0.26961 0.16822
   2  -1   1  230.39  273.06   1-0.36595 0.49443-0.92890 0.85473-0.05662 0.15801
   1  -2  -1  -62.24  434.72   1 0.02054-0.02054-0.63621 0.48795 0.77123-0.87262
  -1   2   1  179.43  350.92   1 0.11000-0.11000-0.48498 0.63330 0.86757-0.76604
  -2   1  -1  821.74  882.04   1-0.76068 0.63232-0.37983 0.45394 0.52638-0.62776
   2  -1   1  320.21  408.97   1-0.63200 0.76045-0.43766 0.36350 0.63954-0.53811
  -1  -1   1  768.83  836.57   1 0.62795-0.75636-0.36631 0.29217 0.68664-0.58527
   1   1  -1  347.70  514.80   1 0.75655-0.62811-0.29362 0.36777 0.58430-0.68571
  -1  -1   2525288.510939.28   1-0.43622 0.30776-0.79951 0.72535-0.41289 0.61574
  -2   1  -2526504.410863.66   1-0.40557 0.27709-0.88645 0.96062-0.22295 0.02016
  -2   1  -2555058.712453.51   1-0.90826 0.77990-0.26766 0.34177 0.32156-0.52433
  -1   2   2539863.110303.43   1-0.87994 0.87994-0.29578 0.44400 0.37175-0.16898
  -1  -1   2510883.610570.42   1 0.78656-0.91500-0.27287 0.19872 0.55394-0.35111
  -1   2   2514027.0 9958.10   1 0.98384-0.98384-0.02883 0.17711 0.17669 0.02619
   1   1  -3  214.22  651.48   1-0.44682 0.57528-0.70629 0.78045-0.54908 0.24480
  -2   1  -3  -86.03  820.68   1-0.40733 0.27886-0.88341 0.95758-0.23164-0.07253
   1  -2  -3 1248.06 1455.06   1-0.25843 0.25843-0.92906 0.78083 0.26466-0.56877
  -1   2   3   81.61  361.06   1-0.91036 0.91036-0.26538 0.41359 0.31751-0.01335
  -1  -1   3  254.89 1013.32   1 0.84229-0.97073-0.22863 0.15447 0.48812-0.18387
  -1   2   3  922.19 1240.31   1 0.97556-0.97556-0.05176 0.20003 0.21350 0.09082
   2  -1   3 1846.58 1531.30   1 0.96737-0.83896 0.18287-0.25700-0.17533 0.47967
   1   1  -450310.91 3247.00   1-0.44468 0.57314-0.73914 0.81330-0.50588 0.10018
  -2   1  -470920.93 3447.65   1-0.41265 0.28418-0.87331 0.94748-0.25891-0.14664
   1  -2  -459379.81 2836.75   1-0.31353 0.31353-0.94261 0.79438 0.11475-0.52023
  -1  -1   458506.51 3113.10   1 0.86027-0.98871-0.21231 0.13815 0.46351-0.05784
  -1   2   464574.11 2787.93   1 0.96236-0.96236-0.08075 0.22906 0.25946 0.14620
   2  -1   462582.50 3360.44   1 0.99123-0.86282 0.11644-0.19058-0.06242 0.46820
   1   1  -5  488.37 1110.39   1-0.44408 0.57254-0.74564 0.81981-0.49679-0.01034
  -2   1  -5  -98.70 1256.62   1-0.41913 0.29066-0.85879 0.93296-0.29461-0.21233
   1  -2  -5  703.42  899.47   1-0.35032 0.35032-0.93662 0.78828-0.00110-0.50585
  -1  -1   5 1041.14 1901.62   1 0.86106-0.98950-0.21157 0.13741 0.46239 0.04469
  -1   2   5  165.43  972.49   1 0.94490-0.94490-0.11138 0.25970 0.30781 0.19927
   2  -1   5  377.52 1689.77   1 0.99769-0.86928 0.06012-0.13426 0.03149 0.47573
   1   1  -664461.6314892.02   1-0.44471 0.57317-0.73886 0.81302-0.50627-0.10228
  -2   1  -666498.0011753.38   1-0.42575 0.29728-0.84060 0.91477-0.33483-0.27350
   1  -2  -656363.22 4935.41   1-0.37674 0.37674-0.92115 0.77281-0.09763-0.51071
  -1  -1   665757.61 5312.82   1 0.85184-0.98028-0.22011 0.14596 0.47530 0.13319
  -1   2   663483.47 4703.79   1 0.92302-0.92302-0.14299 0.29130 0.35717 0.25132
   2  -1   657223.82 4972.66   1 0.99343-0.86501 0.00985-0.08399 0.11401 0.49465
   1   1  -7  -19.40  628.23   1-0.44587 0.57433-0.72368 0.79785-0.52675-0.18323
  -2   1  -7  612.92  875.63   1-0.43198 0.30351-0.81895 0.89312-0.37776-0.33197
   1  -2  -7  431.59  898.72   1-0.39692 0.39692-0.89955 0.75120-0.18235-0.52738
  -1  -1   7  679.78 1553.28   1 0.83538-0.96382-0.23460 0.16044 0.49708 0.21283
  -1   2   7  -10.65  952.96   1 0.89641-0.89641-0.17529 0.32360 0.40707 0.30284
   2  -1   7  377.05 1886.61   1 0.98124-0.85282-0.03664-0.03749 0.18927 0.52084
   1   1  -8 5794.64 4248.89   1-0.44699 0.57545-0.70216 0.77633-0.55421-0.25720
  -2   1  -8 4020.48 1915.23   1-0.43732 0.30887-0.79382 0.86799-0.42258-0.38882
   1  -2  -8 6213.11 3162.67   1-0.41275 0.41275-0.87310 0.72476-0.25944-0.55168
  -1  -1   8 3666.57 1801.93   1 0.81274-0.94118-0.25313 0.17897 0.52475 0.28658
  -1   2   8 3894.44 1283.19   1 0.86460-0.86460-0.20819 0.35650 0.45728 0.35405
   2  -1   8 2606.88 1957.79   1 0.96236-0.83392-0.08076 0.00661 0.25949 0.55184
   2   0  -8 3067.12 1304.83   1-0.44540 0.61667-0.73041 0.73041-0.51780-0.29361
  -2   2  -8 2831.95 1793.50   1-0.44501 0.35937-0.73525 0.88359-0.51122-0.30018
   0  -2  -8 2259.19 1293.16   1-0.40466 0.31901-0.88797 0.73962-0.21852-0.59260
  -2   0   8 2480.72 1847.86   1 0.75729-0.92854-0.29313 0.29313 0.58358 0.22774
   0   2   8 2988.81 1816.07   1 0.92575-0.84012-0.13935 0.28766 0.35151 0.45982
   2  -2   8 2508.92 1519.28   1 0.94644-0.86081-0.10892-0.03938 0.30394 0.50739
   2   0  -718514.58 4779.78   1-0.44303 0.61431-0.75556 0.75556-0.48253-0.22745
  -2   2  -717936.74 5313.98   1-0.44286 0.35722-0.75702 0.90535-0.48039-0.22959
   0  -2  -719779.11 5475.08   1-0.38678 0.30113-0.91174 0.76339-0.13829-0.57144
  -2   0   722695.14 3650.28   1 0.77770-0.94896-0.27919 0.27919 0.56322 0.14669
   0   2   718590.57 2978.68   1 0.95543-0.86980-0.09369 0.24200 0.27995 0.42996
   2  -2   722973.08 3551.49   1 0.96713-0.88151-0.07108-0.07722 0.24411 0.46580
  -2   2  -6119202.6 5794.66   1-0.44066 0.35502-0.77382 0.92215-0.45498-0.15357
   2   0  -6115502.3 6933.81   1-0.44041 0.61169-0.77551 0.77551-0.45233-0.15622
   0  -2  -6114271.2 6221.49   1-0.36422 0.27857-0.92995 0.78161-0.05023-0.55810
  -2   0   6104595.5 7200.39   1 0.78969-0.96094-0.27060 0.27060 0.55059 0.05790
   0   2   6107700.9 7211.88   1 0.97846-0.89285-0.04432 0.19260 0.20159 0.40707
   2  -2   6117248.8 6209.01   1 0.98270-0.89709-0.03232-0.11594 0.18232 0.42634
   2   0  -591393.71 6769.53   1-0.43819 0.60947-0.78909 0.78909-0.43048-0.07664
  -2   2  -589277.23 6196.47   1-0.43897 0.35333-0.78459 0.93292-0.43784-0.06928
   0  -2  -584064.21 5845.70   1-0.33504 0.24939-0.94090 0.79255 0.04951-0.55647
  -2   0   583238.02 5477.24   1 0.79071-0.96196-0.26985 0.26985 0.54950-0.04241
   2  -2   578865.65 5570.80   1 0.99307-0.90746 0.00789-0.15617 0.11720 0.39001
   0   2   580502.83 5120.92   1 0.99370-0.90809 0.01142 0.13684 0.11145 0.39576
  -2   2  -413579.76 3645.12   1-0.43858 0.35294-0.78688 0.93521-0.43412 0.02841
   2   0  -413457.85 3984.16   1-0.43745 0.60872-0.79317 0.79317-0.42368 0.01798
   0  -2  -412284.22 1547.15   1-0.29525 0.20967-0.94065 0.79242 0.16731-0.57280
  -2   0   410514.14 1487.68   1 0.77490-0.94615-0.28115 0.28115 0.56610-0.16044
   2  -2   414485.55 1835.22   1 0.99760-0.91199 0.05069-0.19897 0.04707 0.35870
   0   2   413932.27 1755.89   1 0.99685-0.91124 0.07927 0.06900-0.00026 0.40604
   2   0  -3326466.5 8486.65   1-0.43999 0.61127-0.77825 0.77825-0.44801 0.14373
  -2   2  -3341027.3 8879.01   1-0.44056 0.35492-0.77451 0.92284-0.45391 0.14963
   0  -2  -3341081.3 7850.93   1-0.23795 0.15237-0.91890 0.77067 0.31463-0.61874
   0   2   3334654.5 7358.51   1-0.68658 0.77215-0.41614 0.56436 0.59617-0.29201
  -2   0   3356431.8 8509.49   1 0.72817-0.89938-0.31214 0.31214 0.61018-0.30606
   2  -2   3331357.6 8678.93   1 0.99467-0.90906 0.09810-0.24638-0.03166 0.33600
   0   2   3330616.3 7490.27   1 0.97243-0.88682 0.17226-0.02398-0.15714 0.46147
   2   0  -2659673.613106.95   1-0.44689 0.61817-0.70470 0.70470-0.55106 0.34821
  -2   2  -2670395.713871.75   1-0.44547 0.35983-0.72946 0.87779-0.51907 0.31621
  -2   0   2693974.713406.67   1-0.39109 0.21980-0.90692 0.90692-0.15663 0.35941
   0  -2  -2643805.012526.16   1-0.14686 0.06128-0.84836 0.70013 0.50863-0.71137
   0  -2  -2679888.413275.38   1-0.84824 0.76267-0.32250 0.17429 0.42008-0.62286
  -2   0   2724815.4 9662.96   1 0.61637-0.78759-0.37177 0.37177 0.69416-0.49141
   2  -2   2653232.113546.89   1 0.97981-0.89421 0.15450-0.30277-0.12682 0.32971
  -2   2  -1659002.313012.96   1-0.44471 0.35907-0.58623 0.73456-0.67717 0.57574
  -2   0   1689938.312660.18   1-0.44716 0.27588-0.69763 0.69763-0.55978 0.66120
   2  -2   1660421.013099.71   1-0.44481 0.53045-0.73767 0.58934-0.50790 0.60933
  -2   2  -1660249.113031.77   1-0.93798 0.85240-0.23156 0.37978 0.25800-0.35939
   2  -2   1660464.812963.78   1-0.84245 0.92802-0.32696 0.17874 0.42821-0.32682
   2   0  -1722524.713800.01   1 0.54967-0.37846-0.40057 0.40057 0.73307-0.83444
  -2   2   010806.51  826.78   1-0.34950 0.26392-0.10297 0.25119-0.93125 0.93125
   2  -2   011353.23 1231.02   1-0.40850 0.49408-0.33466 0.18644-0.84918 0.84918
  -2   0   012668.58  602.74   1-0.08560-0.08560-0.78226 0.78226 0.61703-0.61703
   0  -2   010771.26  895.54   1 0.23045-0.31609-0.23193 0.08361 0.94503-0.94503
   0   2   010536.48  780.73   1 0.29348-0.20785-0.07056 0.21888 0.95335-0.95335
  -2   2   011795.60  836.63   1-0.79455 0.70898-0.35992 0.50814 0.48900-0.48900
   2  -2   010890.99  689.85   1-0.60386 0.68950-0.44752 0.29920 0.65959-0.65959
  -2   0   012154.18 3126.11   1-0.08557-0.08557-0.52082 0.52082 0.84936-0.84936
   2   0   013560.45 3349.55   1 0.08557 0.08557-0.51072 0.51072 0.85547-0.85547
   0  -2   010757.88  826.19   1 0.53356-0.61917-0.40690 0.25863 0.74144-0.74144
   0   2   011545.52  806.06   1 0.72021-0.63460-0.31696 0.46523 0.61711-0.61711
   0   2  -1729894.8 9143.73   1-0.38902 0.47460-0.24851 0.39674-0.88707 0.78571
   0  -2   1732375.3 8903.17   1-0.42642 0.34084-0.43105 0.28282-0.79520 0.89656
  -2   2   1719301.313247.60   1 0.15580-0.24144-0.39590 0.54422 0.90497-0.80344
   2   0   1728013.2 8864.73   1-0.35123 0.52250-0.50504 0.50504 0.78839-0.68696
   2  -2  -1771117.1 7495.42   1 0.39331-0.30770-0.45331 0.30503 0.79988-0.90125
   0  -2   1714057.913863.73   1 0.81696-0.90259-0.24979 0.10148 0.51977-0.41836
   0   2  -1773315.8 9032.11   1 0.91931-0.83369-0.14783 0.29614 0.36469-0.46610
  -2   0  -2675881.113534.45   1-0.31969 0.14853-0.94261 0.94261 0.09627-0.29902
   2  -2  -2677596.212834.65   1-0.20216 0.28774-0.89574 0.74751 0.39594-0.59868
  -2   2   2687988.812948.91   1-0.04108-0.04452-0.72562 0.87389 0.68685-0.48407
  -2   0  -2684174.013993.08   1-0.79056 0.61941-0.36240 0.36240 0.49363-0.69640
   0  -2   2731944.5 9989.60   1 0.89063-0.97625-0.18167 0.03336 0.41685-0.21402
   2  -2  -2777404.3 8402.73   1 0.94557-0.85994-0.11031-0.03799 0.30613-0.50896
   0   2  -3302392.7 7892.30   1-0.44704 0.53268-0.63117 0.77950-0.63385 0.32957
  -2   0  -3308344.6 7798.86   1-0.35080 0.17951-0.93644 0.93644-0.00276-0.30141
   2  -2  -3327899.4 7374.93   1-0.29221 0.37780-0.94006 0.79183 0.17574-0.47986
  -2   0  -3326151.4 8397.29   1-0.91254 0.74139-0.26297 0.26297 0.31323-0.61739
  -2   2   3320721.2 6889.82   1 0.78579-0.87142-0.27342 0.42173 0.55475-0.25050
   0  -2   3325219.3 8423.88   1 0.91145-0.99708-0.15770 0.00939 0.37996-0.07571
   2  -2  -3312773.6 7089.31   1 0.99731-0.91170 0.04342-0.19169 0.05905-0.36338
   0   2  -416331.68 6545.92   1-0.44758 0.53322-0.67911 0.82744-0.58178 0.17607
  -2   0  -416678.82 4197.59   1-0.37259 0.20130-0.92439 0.92439-0.08158-0.32397
   2  -2  -414379.05 4267.35   1-0.34014 0.42579-0.93979 0.79144 0.03296-0.43853
  -2   2   413811.70 1509.21   1 0.83197-0.91759-0.23749 0.38580 0.50141-0.09574
   0  -2   411108.28 1922.59   1 0.91389-0.99951-0.15470 0.00639 0.37532 0.03034
   2   0   414382.92 1841.26   1 0.96895-0.79774 0.17966-0.17966-0.16983 0.57561
   0   2  -582401.53 6106.21   1-0.44720 0.53284-0.69612 0.84445-0.56161 0.05448
  -2   0  -584428.70 5928.39   1-0.38972 0.21843-0.90851 0.90851-0.15073-0.35622
   2  -2  -5101355.1 6462.68   1-0.37063 0.45628-0.92581 0.77746-0.07412-0.43283
  -2   2   596467.18 5865.99   1 0.83948-0.92511-0.23107 0.37938 0.49180 0.01528
   0  -2   584098.60 5849.41   1 0.90714-0.99277-0.16290 0.01459 0.38799 0.11908
   2   0   591827.32 6281.63   1 0.99248-0.82126 0.11054-0.11054-0.05250 0.55973
   0   2  -697505.90 7104.07   1-0.44719 0.53283-0.69655 0.84488-0.56109-0.04746
  -2   0  -6103565.2 7936.96   1-0.40384 0.23254-0.88930 0.88930-0.21457-0.39376
   2  -2  -6100307.917094.71   1-0.39252 0.47817-0.90521 0.75687-0.16281-0.44553
  -2   2   6110376.7 7660.22   1 0.83038-0.91601-0.23882 0.38713 0.50340 0.10509
   0  -2   6122032.7 6097.69   1 0.89420-0.97983-0.17776 0.02944 0.41085 0.19764
   2   0   6114096.0 5856.05   1 0.99759-0.82637 0.05025-0.05025 0.04779 0.56087
   0   2  -719301.71 6813.43   1-0.44745 0.53309-0.68656 0.83490-0.57306-0.13692
  -2   0  -721046.54 4346.38   1-0.41568 0.24438-0.86687 0.86687-0.27521-0.43452
   2  -2  -720913.49 6749.36   1-0.40919 0.49483-0.88005 0.73170-0.24097-0.46876
  -2   2   719012.98 2472.59   1 0.81116-0.89679-0.25437 0.40268 0.52659 0.18332
   0  -2   721126.85 3443.21   1 0.87606-0.96169-0.19692 0.04860 0.44014 0.26977
   2   0   720680.11 2780.03   1 0.99058-0.81936-0.00419 0.00419 0.13685 0.57325
   0   2  -8 2943.78 1650.09   1-0.44765 0.53329-0.66900 0.81733-0.59332-0.21808
  -2   0  -8 2058.96 1560.64   1-0.42559 0.25429-0.84111 0.84111-0.33377-0.47735
   2  -2  -8 3814.93 2369.32   1-0.42218 0.50783-0.85089 0.70255-0.31261-0.49851
  -2   2   8 2951.09 1398.94   1 0.78395-0.86958-0.27475 0.42306 0.55670 0.25463
   0  -2   8 1494.58 1659.11   1 0.85299-0.93862-0.21906 0.07075 0.47372 0.33761
   2   0   8 3588.10 2040.52   1 0.97434-0.80313-0.05474 0.05474 0.21828 0.59327
  -1   3  -8 2060.95 1476.14   1-0.44704 0.48986-0.63105 0.85355-0.63397-0.17744
   3  -2  -8 3093.52 2579.22   1-0.43212 0.60341-0.81840 0.67005-0.37879-0.43233
  -2  -1  -8 4136.75 2337.86   1-0.41067 0.19655-0.87723 0.80306-0.24858-0.56253
  -3   2   8 2767.97 1586.16   1 0.68778-0.85899-0.33560 0.48387 0.64368 0.16731
   1  -3   8 3399.43 2293.55   1 0.88167-0.92448-0.19118-0.03128 0.43140 0.37993
   2   1   8 3824.53 1804.60   1 0.98296-0.76895-0.03153 0.10567 0.18104 0.63051
  -1   3  -711406.34 5144.98   1-0.44741 0.49023-0.64444 0.86694-0.62008-0.08989
   3  -2  -7 8476.63 3265.40   1-0.42266 0.59395-0.84960 0.70126-0.31547-0.39426
  -2  -1  -7 6263.04 2786.33   1-0.39583 0.18171-0.90101 0.82683-0.17746-0.53227
  -3   2   7 7931.48 1836.34   1 0.70578-0.87700-0.32544 0.47371 0.62924 0.08038
   1  -3   7 8043.19 2812.36   1 0.90414-0.94695-0.16645-0.05601 0.39347 0.31644
   2   1   7 7484.78 2269.89   1 0.99575-0.78173 0.02553 0.04860 0.08840 0.62170
  -1   3  -695731.1718668.06   1-0.44750 0.49032-0.64901 0.87151-0.61523 0.00667
   3  -2  -686447.65 6763.35   1-0.41056 0.58186-0.87745 0.72910-0.24801-0.36033
  -2  -1  -676573.5316691.71   1-0.37765 0.16353-0.92039 0.84622-0.10123-0.50711
  -3   2   683161.69 5852.62   1 0.71089-0.88210-0.32247 0.47075 0.62500-0.01675
   1  -3   679173.27 6396.38   1 0.92229-0.96510-0.14396-0.07850 0.35868 0.24982
   2   1   682688.10 6383.91   1 0.99603-0.78201 0.08778-0.01365-0.01444 0.62310
  -1   3  -536191.67 8332.91   1-0.44734 0.49016-0.64135 0.86385-0.62333 0.11620
   3  -2  -532406.30 2691.18   1-0.39497 0.56626-0.90214 0.75379-0.17359-0.33336
  -2  -1  -533858.58 6776.03   1-0.35504 0.14092-0.93468 0.86051-0.01741-0.48954
  -3   2   532347.71 2713.04   1 0.69725-0.86846-0.33031 0.47858 0.63618-0.12930
   1  -3   535215.47 3891.45   1 0.93623-0.97905-0.12461-0.09785 0.32852 0.17855
   2   1   533172.04 3415.34   1 0.97870-0.76468 0.15741-0.08327-0.13178 0.63900
  -1   3  -421378.72 4339.21   1-0.44637 0.48919-0.61466 0.83716-0.65033 0.24462
   3  -2  -421067.71 4928.15   1-0.37379 0.54508-0.92350 0.77515-0.08616-0.31939
  -2  -1  -417628.55 1803.31   1-0.32591 0.11179-0.94215 0.86798 0.07828-0.48385
  -2  -1  -420940.68 2142.77   1-0.93299 0.71906-0.23827 0.16416 0.26973-0.67527
  -3   2   421062.28 1661.23   1 0.65129-0.82250-0.35485 0.50312 0.67074-0.26524
   1  -3   423345.89 2501.38   1 0.94578-0.98860-0.10998-0.11248 0.30559 0.10007
  -1   3  -382073.69 3614.57   1-0.44219 0.48501-0.55501 0.77751-0.70457 0.40028
   3  -2  -371851.68 2204.35   1-0.34117 0.51247-0.93953 0.79118 0.02958-0.33375
  -2  -1  -385679.57 3202.92   1-0.28576 0.07180-0.93857 0.86446 0.19343-0.49754
  -2  -1  -376168.60 3024.30   1-0.83842 0.62449-0.32999 0.25589 0.43376-0.73792
  -3   2   378801.71 2326.14   1 0.54065-0.71186-0.40414 0.55242 0.73780-0.43368
   1  -3   378090.76 3547.84   1 0.94999-0.99280-0.10309-0.11937 0.29476 0.00948
  -1   3  -2539482.312722.06   1-0.42684 0.46963-0.43367 0.65601-0.79355 0.59083
   3  -2  -2599039.111432.21   1-0.27411 0.44527-0.93513 0.78690 0.22447-0.42722
  -2  -1  -2555134.511289.42   1-0.22560 0.01164-0.91164 0.83752 0.34352-0.54627
  -3   2   2572619.610839.04   1-0.01819-0.15300-0.69389 0.84216 0.71984-0.51705
  -3   2   2530807.610969.08   1 0.29621-0.46742-0.47748 0.62575 0.82720-0.62445
   3  -2  -2572005.611196.84   1 0.72416-0.55295-0.31458 0.16631 0.61369-0.81644
   1  -3   2537482.212120.63   1 0.94548-0.98830-0.11046-0.11200 0.30635-0.10351
  -1   3  -1203419.9 5451.46   1-0.37705 0.41984-0.20119 0.42352-0.90407 0.80271
  -2  -1  -1220757.4 4837.56   1-0.12163-0.09236-0.82302 0.74888 0.55483-0.65622
   3  -2  -1210558.7 4095.47   1-0.04039 0.21160-0.72470 0.57643 0.68787-0.78926
  -3   2   1203796.5 4081.91   1 0.27031-0.44158-0.13283 0.28115 0.95356-0.85203
  -3   2   1204582.0 4373.21   1-0.13138-0.03976-0.52092 0.66915 0.84342-0.74205
   3  -2  -1210375.9 4582.66   1 0.25465-0.08349-0.48549 0.33727 0.83632-0.93769
   1  -3   1207474.8 5179.10   1 0.91877-0.96158-0.14853-0.07392 0.36577-0.26436
  -1   3  -1197300.1 4785.11   1 0.99231-0.94950 0.00390 0.21850 0.12369-0.22514
   1  -3   018433.88 1357.79   1-0.33352 0.29073-0.05109-0.17123-0.94135 0.94135
   3  -2   014773.59  869.38   1-0.44738 0.61866-0.68965 0.54132-0.56940 0.56940
  -2  -1   014408.00  817.84   1 0.07157-0.28557-0.55257 0.47843 0.83038-0.83038
   2   1   014535.96  867.99   1 0.21373 0.00034-0.27092 0.34508 0.93857-0.93857
   1  -3   019533.28 1460.32   1 0.25779-0.30061-0.16497-0.05750 0.95201-0.95201
  -3   2   016850.53 1353.78   1-0.55147 0.38021-0.46374 0.61206 0.69340-0.69340
  -2  -1   015708.21 4531.29   1 0.05802-0.27197-0.51337 0.43926 0.85619-0.85619
   2   1   015394.72 2726.06   1 0.28578-0.07183-0.47911 0.55323 0.82992-0.82992
   1  -3   013872.31  823.68   1 0.79322-0.83603-0.26800 0.04554 0.54677-0.54677
  -1   3   017092.83  990.42   1 0.96727-0.92445-0.07079 0.29326 0.24365-0.24365
  -2  -1   1208095.5 4822.59   1-0.41404 0.20010-0.36209 0.28798-0.83513 0.93649
  -3   2  -1204803.0 5277.72   1-0.44726 0.27598-0.69428 0.84261-0.56385 0.46242
   3  -2   1218480.1 5181.38   1-0.41441 0.58571-0.86963 0.72128-0.26831 0.36970
   1  -3  -1210057.3 4850.43   1 0.08061-0.12341-0.53682 0.31442 0.83983-0.94122
  -2  -1   1188596.5 4015.89   1 0.31234-0.52642-0.01686-0.05729 0.94981-0.84828
  -2  -1   1205747.6 5171.84   1 0.39231-0.60633-0.45358 0.37945 0.80021-0.69883
  -1   3   1206940.0 3979.60   1 0.80365-0.76083-0.26018 0.48264 0.53520-0.43379
   2   1  -2548911.111772.55   1-0.42042 0.63436-0.39607 0.47018-0.81631 0.61359
  -2  -1   2509970.310418.94   1-0.44498 0.23088-0.73567 0.66151-0.51065 0.71350
  -3   2  -2537731.311761.72   1-0.43850 0.26722-0.78731 0.93564-0.43341 0.23056
   1  -3  -2563303.911555.22   1-0.07581 0.03300-0.77039 0.54799 0.63304-0.83582
  -3   2  -2551989.312500.79   1-0.90210 0.73096-0.27421 0.42242 0.33318-0.53595
  -1   3   2553464.310282.03   1-0.17792 0.22071-0.51988 0.74222 0.83550-0.63275
  -2  -1   2614873.312971.97   1 0.59002-0.80404-0.38367 0.30953 0.71039-0.50764
   2   1  -371961.93 3172.45   1-0.44377 0.65786-0.57355 0.64772-0.68854 0.38426
  -3   2  -383132.13 3989.76   1-0.43344 0.26215-0.81295 0.96130-0.38887 0.08470
   1  -3  -380907.92 2943.36   1-0.18416 0.14137-0.88176 0.65941 0.43424-0.73836
  -1   3   382158.49 2055.51   1-0.62230 0.66511-0.44116 0.66364 0.64661-0.34233
  -2  -1   379885.72 3169.88   1 0.69092-0.90493-0.33386 0.25972 0.64121-0.33709
  -1   3   378475.09 2144.62   1 0.99692-0.95411 0.03745 0.18496 0.06886 0.23547
   3  -2   373889.20 3211.01   1 0.95807-0.78686 0.20011-0.34838-0.20505 0.50938
   2   1  -427193.33 5325.31   1-0.44741 0.66151-0.64448 0.71865-0.62004 0.21433
  -3   2  -421857.15 2265.40   1-0.43256 0.26126-0.81663 0.96498-0.38209-0.02346
   1  -3  -425244.24 2192.99   1-0.25629 0.21350-0.92812 0.70577 0.27001-0.67550
  -2  -1   419917.57 2069.85   1 0.73927-0.95333-0.30478 0.23062 0.60048-0.19481
  -1   3   424240.04 1933.16   1 0.98339-0.94059-0.03022 0.25263 0.17893 0.22684
   3  -2   420149.93 2586.91   1 0.98542-0.81420 0.13822-0.28649-0.09918 0.50495
   2   1  -537261.2610526.37   1-0.44765 0.66174-0.67082 0.74498-0.59127 0.08413
  -3   2  -531157.81 8909.34   1-0.43415 0.26286-0.80990 0.95824-0.39441-0.11253
   1  -3  -530441.50 3363.31   1-0.30655 0.26376-0.94220 0.71985 0.13519-0.64205
  -2  -1   534039.76 7258.71   1 0.75905-0.97312-0.29196 0.21780 0.58189-0.07480
  -1   3   538157.54 2977.00   1 0.96289-0.92008-0.07971 0.30218 0.25782 0.24926
   3  -2   532919.27 3395.15   1 0.99645-0.82524 0.08374-0.23201-0.00769 0.51491
   2   1  -685755.0716431.01   1-0.44762 0.66172-0.67525 0.74941-0.58623-0.02232
  -3   2  -674514.1112980.64   1-0.43677 0.26550-0.79670 0.94503-0.41771-0.19084
   1  -3  -668400.8211078.35   1-0.34370 0.30088-0.93883 0.71631 0.02122-0.62956
  -2  -1   686425.28 6551.75   1 0.76190-0.97597-0.29005 0.21590 0.57911 0.02939
  -1   3   680819.98 5690.62   1 0.93766-0.89484-0.12251 0.34497 0.32524 0.28326
   3  -2   674057.24 6633.87   1 0.99664-0.82542 0.03406-0.18234 0.07442 0.53424
   2   1  -7 9739.27 4220.44   1-0.44765 0.66175-0.66680 0.74097-0.59579-0.11419
  -3   2  -7 7606.14 2535.70   1-0.43995 0.26868-0.77848 0.92681-0.44765-0.26233
   1  -3  -7 7967.57 2603.85   1-0.37182 0.32899-0.92497 0.70245-0.07860-0.63112
  -2  -1   710026.83 2586.01   1 0.75334-0.96741-0.29573 0.22158 0.58737 0.12254
  -1   3   7 7380.83 1651.71   1 0.90754-0.86472-0.16243 0.38490 0.38727 0.32264
   3  -2   7 8071.90 2270.14   1 0.98857-0.81735-0.01243-0.13583 0.15022 0.55988
   2   1  -8 3374.85 2557.03   1-0.44750 0.66160-0.64944 0.72361-0.61478-0.19663
  -3   2  -8 5117.29 2071.73   1-0.44299 0.27171-0.75591 0.90425-0.48201-0.32939
   1  -3  -8 3804.39 2802.37   1-0.39382 0.35100-0.90360 0.68108-0.16853-0.64259
  -2  -1   8 4310.29 2252.16   1 0.73600-0.95007-0.30683 0.23267 0.60344 0.20789
   3  -2   8 3271.86 2236.63   1 0.97347-0.80225-0.05684-0.09143 0.22162 0.58993
  -2   3  -8 2444.51 2394.70   1-0.44765 0.40483-0.66625 0.88875-0.59641-0.21500
   3  -1  -8 2106.58 1424.39   1-0.44325 0.65735-0.75358 0.67942-0.48541-0.32599
  -1  -2  -8 3834.59 1701.62   1-0.39837 0.22707-0.89755 0.74920-0.18893-0.62219
  -3   1   8 4652.24 2105.01   1 0.68209-0.89610-0.33871 0.41285 0.64808 0.16291
   2  -3   8 3287.48 2173.01   1 0.92628-0.88346-0.13863-0.08382 0.35040 0.46093
   1   2   8 3627.79 1733.42   1 0.96639-0.79513-0.07264 0.22095 0.24659 0.56474
  -2   3  -7 8259.21 4492.99   1-0.44753 0.40471-0.68236 0.90486-0.57799-0.13198
   3  -1  -7 7911.89 3727.15   1-0.43939 0.65348-0.78205 0.70789-0.44195-0.26803
  -1  -2  -7 7222.26 2863.94   1-0.37921 0.20792-0.91905 0.77070-0.10742-0.60231
  -3   1   7 6964.68 1734.00   1 0.69766-0.91168-0.33008 0.40421 0.63584 0.07377
   2  -3   7 6023.57 2548.64   1 0.94779-0.90497-0.10673-0.11572 0.30050 0.40941
   1   2   7 8493.55 1903.15   1 0.98754-0.81633-0.01630 0.16457 0.15647 0.55363
  -2   3  -678067.29 6228.24   1-0.44735 0.40453-0.69111 0.91360-0.56766-0.04089
   3  -1  -684773.2916015.71   1-0.43500 0.64912-0.80611 0.73193-0.40119-0.20714
  -1  -2  -679157.5415731.25   1-0.35533 0.18403-0.93455 0.78621-0.01843-0.58991
  -3   1   680476.58 5892.61   1 0.70119-0.91521-0.32807 0.40221 0.63299-0.02474
   2  -3   689851.96 8028.44   1 0.96505-0.92224-0.07539-0.14707 0.25096 0.35754
   1   2   679720.67 5950.77   1 0.99744-0.82622 0.04607 0.10219 0.05467 0.55399
  -2   3  -536161.1213547.32   1-0.44738 0.40456-0.68991 0.91240-0.56909 0.06196
   3  -1  -537790.06 6160.77   1-0.43023 0.64434-0.82562 0.75144-0.36503-0.14191
  -1  -2  -533702.94 7671.97   1-0.32463 0.15346-0.94234 0.79411 0.08121-0.58807
  -3   1   530519.86 2805.23   1 0.68792-0.90193-0.33552 0.40965 0.64357-0.13669
   2  -3   534695.12 3922.74   1 0.97835-0.93555-0.04461-0.17780 0.20205 0.30516
   1   2   535356.86 3127.39   1 0.99092-0.81970 0.11782 0.03045-0.06475 0.57197
  -2   3  -422539.47 6223.37   1-0.44763 0.40481-0.67349 0.89599-0.58823 0.18252
   3  -1  -425491.68 5940.90   1-0.42618 0.64030-0.83928 0.76511-0.33759-0.06796
  -1  -2  -424451.75 2685.38   1-0.28441 0.11324-0.93822 0.78999 0.19707-0.60256
  -3   1   418565.86 1753.58   1 0.64788-0.86189-0.35656 0.43070 0.67313-0.26763
   2  -3   420795.39 2613.14   1 0.98798-0.94518-0.01467-0.20774 0.15384 0.25193
   1   2   420744.75 1788.92   1 0.95580-0.78459 0.20397-0.05569-0.21172 0.61750
  -2   3  -372961.96 3362.30   1-0.44702 0.40420-0.63044 0.85294-0.63459 0.33031
   3  -1  -379809.82 2704.24   1-0.42502 0.63914-0.84282 0.76864-0.33016 0.02598
  -1  -2  -374802.27 2653.71   1-0.22829 0.05713-0.91329 0.76506 0.33729-0.64141
  -1  -2  -376315.58 2937.59   1-0.86171 0.69056-0.31166 0.16345 0.40039-0.70455
  -3   1   376992.25 2664.65   1 0.56035-0.77436-0.39624 0.47038 0.72731-0.42319
   2  -3   364363.65 2999.15   1 0.99416-0.95135 0.01417-0.23658 0.10698 0.19735
  -2   3  -2513353.511741.90   1-0.44018 0.39736-0.53459 0.75709-0.72141 0.51856
   3  -1  -2520917.810309.69   1-0.43334 0.64746-0.81341 0.73923-0.38804 0.18526
  -3   1   2551675.610306.82   1-0.23927 0.02532-0.91963 0.99374 0.31148-0.10874
  -1  -2  -2509883.310392.49   1-0.14460-0.02655-0.84616 0.69793 0.51292-0.71567
  -1  -2  -2509004.010920.93   1-0.64253 0.47126-0.43375 0.28543 0.63167-0.83452
   1   2   2502070.410588.62   1-0.25325 0.42452-0.51544 0.66376 0.81864-0.61578
   2  -3   2508151.511424.70   1 0.99718-0.95437 0.04121-0.26363 0.06267 0.14021
  -2   3  -1228063.3 6168.60   1-0.40721 0.36442-0.32848 0.55082-0.85221 0.75085
   1   2   1239549.5 5242.63   1 0.11355 0.05760-0.50761 0.65584 0.85406-0.75269
   3  -1  -1218785.1 5154.35   1 0.36720-0.15319-0.46040 0.38626 0.80820-0.90957
   2  -3   1222362.2 5647.31   1 0.99762-0.95481 0.06455-0.28696 0.02416 0.07727
  -2   3  -1243683.5 5960.81   1 0.94866-0.99147 0.21541 0.00700-0.23157 0.13012
   2  -3   013248.67 1010.86   1-0.37333 0.41612-0.18713-0.03520-0.90862 0.90862
  -3   1   015894.11  652.40   1-0.41819 0.20407-0.86108 0.93525-0.28922 0.28922
   3  -1   014757.77  559.57   1-0.18621 0.40017-0.88343 0.80931 0.42996-0.42996
  -1  -2   014017.74  969.29   1 0.16916-0.34043-0.36837 0.22005 0.91415-0.91415
   1   2   017212.71 1165.25   1 0.26864-0.09738-0.13716 0.28548 0.95342-0.95342
   2  -3   015848.90  968.85   1-0.88981 0.93260-0.28652 0.06420 0.35514-0.35514
  -3   1   017250.91 1113.23   1-0.29707 0.08299-0.51150 0.58566 0.80629-0.80629
   3  -1   015500.51 3950.40   1-0.06042 0.27437-0.52029 0.44618 0.85184-0.85184
   1   2   015009.07  988.28   1 0.50990-0.33869-0.41580 0.56407 0.75306-0.75306
   2  -3   015991.56 1030.19   1 0.99705-0.95425 0.07655-0.29897 0.00425-0.00425
   1   2  -1261775.5 6322.10   1-0.33350 0.50466-0.05103 0.19925-0.94136 0.84000
  -1  -2   1235069.8 5502.63   1-0.40608 0.23493-0.32318 0.17495-0.85477 0.95613
  -3   1  -1224180.8 4960.42   1-0.38900 0.17488-0.90932 0.98350-0.14764 0.04625
   3  -1   1244216.5 5222.43   1-0.27987 0.49383-0.93695 0.86284 0.20923-0.10786
  -2   3   1235765.4 5202.04   1 0.22338-0.26620-0.24860 0.47108 0.94249-0.84096
  -3   1  -1228413.9 5748.67   1-0.60910 0.39502-0.44575 0.51991 0.65596-0.75739
   2  -3  -1253783.9 4635.70   1 0.09733-0.05454-0.50946 0.28712 0.85496-0.95633
  -1  -2   1243520.9 5821.93   1 0.58018-0.75139-0.38793 0.23966 0.71616-0.61478
  -3   1  -2553448.511777.40   1-0.38938 0.17526-0.90889 0.98306-0.14929-0.05348
  -2   3   2561752.510377.89   1-0.89193 0.84915-0.28446 0.50678 0.35146-0.14869
  -1  -2   2545385.911824.14   1 0.72618-0.89739-0.31336 0.16508 0.61193-0.40918
   1   2  -369443.45 4691.96   1-0.43824 0.60952-0.51706 0.66539-0.73524 0.43096
  -3   1  -372446.27 2686.91   1-0.39585 0.18173-0.90098 0.97515-0.17754-0.12663
   2  -3  -371412.85 2457.41   1-0.20443 0.24722-0.89739 0.67505 0.39099-0.69511
  -2   3   373916.69 2000.13   1-0.92476 0.88197-0.24869 0.47101 0.28803 0.01612
  -3   1  -381923.83 4009.50   1-0.90276 0.68883-0.27352 0.34763 0.33196-0.63612
  -1  -2   368068.81 3042.88   1 0.79046-0.96171-0.27003 0.12172 0.54976-0.24551
  -2   3   371719.69 1703.20   1 0.79714-0.83995-0.26509 0.48756 0.54248-0.23822
   1   2  -419159.40 4457.26   1-0.44516 0.61644-0.59306 0.74139-0.67089 0.26518
  -3   1  -418194.85 4927.51   1-0.40401 0.18989-0.88903 0.96320-0.21538-0.19018
   2  -3  -425884.59 2197.24   1-0.27654 0.31933-0.93593 0.71358 0.21806-0.62355
  -1  -2   419739.40 2083.50   1 0.81703-0.98828-0.24973 0.10142 0.51970-0.11403
  -2   3   421593.46 1452.85   1 0.85040-0.89321-0.22141 0.44388 0.47726-0.07159
   3  -1   421793.72 2558.25   1 0.95870-0.74468 0.19902-0.27316-0.20317 0.60895
   1   2  -534066.56 8683.71   1-0.44688 0.61816-0.62667 0.77500-0.63841 0.13127
  -3   1  -541987.6813792.75   1-0.41243 0.19831-0.87375 0.94793-0.25776-0.24919
   2  -3  -530719.22 7312.24   1-0.32437 0.36716-0.94236 0.72001 0.08200-0.58886
  -1  -2   537988.41 7884.66   1 0.82415-0.99540-0.24398 0.09567 0.51112-0.00403
  -2   3   533347.92 2634.47   1 0.85435-0.89716-0.21782 0.44029 0.47184 0.03523
   3  -1   533529.56 3387.04   1 0.98661-0.77260 0.13426-0.20840-0.09248 0.59971
   1   2  -696013.0717897.01   1-0.44723 0.61851-0.63721 0.78554-0.62764 0.01908
  -3   1  -683263.46 6415.80   1-0.42051 0.20639-0.85531 0.92948-0.30265-0.30569
   2  -3  -675211.6314111.07   1-0.35871 0.40153-0.93295 0.71043-0.03037-0.57797
  -1  -2   675982.19 6228.16   1 0.81954-0.99080-0.24772 0.09941 0.51669 0.09180
  -2   3   684217.66 5554.95   1 0.84121-0.88403-0.22957 0.45203 0.48954 0.11896
   3  -1   679268.43 6572.50   1 0.99709-0.78307 0.07602-0.15016 0.00514 0.60352
   1   2  -7 7859.82 2950.35   1-0.44712 0.61840-0.63358 0.78192-0.63138-0.07860
  -3   1  -7 6260.42 3041.96   1-0.42791 0.21379-0.83368 0.90786-0.34907-0.36066
   2  -3  -7 6305.35 2569.03   1-0.38419 0.42701-0.91440 0.69188-0.12753-0.58219
  -1  -2   7 5673.70 1918.24   1 0.80663-0.97789-0.25789 0.10958 0.53181 0.17810
  -2   3   7 4478.11 2010.16   1 0.81809-0.86090-0.24889 0.47135 0.51843 0.19148
   3  -1   7 7205.86 2330.52   1 0.99536-0.78134 0.02240-0.09654 0.09352 0.61658
   1   2  -8 5324.62 2357.25   1-0.44662 0.61790-0.62010 0.76843-0.64497-0.16643
  -3   1  -8 3807.66 2530.26   1-0.43441 0.22029-0.80874 0.88292-0.39649-0.41463
   2  -3  -8 2364.45 1750.44   1-0.40384 0.44666-0.88930 0.66678-0.21457-0.59655
  -1  -2   8 2267.93 1338.51   1 0.78692-0.95817-0.27261 0.12430 0.55356 0.25777
   3  -1   8 5080.17 2601.04   1 0.98411-0.77009-0.02796-0.04616 0.17530 0.63625
   3   0  -8  665.13 1563.18   1-0.44763 0.70455-0.67360 0.67360-0.58811-0.22329
  -3   3  -8  763.08 1556.64   1-0.44730 0.31884-0.69286 0.91536-0.56555-0.24585
   0  -3  -8 2730.73 1409.27   1-0.38593 0.25746-0.91262 0.69010-0.13476-0.67635
  -3   0   8 1605.52 1895.73   1 0.66895-0.92576-0.34574 0.34574 0.65799 0.15300
   3  -3   8 1442.07 1550.76   1 0.95871-0.83027-0.08772-0.13474 0.27050 0.54082
   3   0  -714257.65 5144.97   1-0.44725 0.70417-0.69471 0.69471-0.56332-0.14666
  -3   3  -718690.85 6531.92   1-0.44661 0.31815-0.71079 0.93328-0.54342-0.16656
   0  -3  -717557.47 6351.61   1-0.36247 0.23400-0.93095 0.70843-0.04388-0.66584
  -3   0   716626.10 3425.98   1 0.68205-0.93886-0.33873 0.33873 0.64812 0.06150
   0   3   717547.36 2858.04   1 0.96526-0.83682-0.07497 0.29743 0.25029 0.45962
   3  -3   721315.24 4092.38   1 0.97657-0.84816-0.04924-0.17316 0.20947 0.50063
   3   0  -675068.7012209.70   1-0.44675 0.70367-0.70786 0.70786-0.54712-0.06144
  -3   3  -666315.64 4638.21   1-0.44596 0.31750-0.72237 0.94487-0.52848-0.08007
   0  -3  -666758.25 9829.28   1-0.33295 0.20448-0.94126 0.71874 0.05617-0.66452
  -3   0   677124.75 5815.88   1 0.68356-0.94038-0.33791 0.33791 0.64695-0.03870
   0   3   677439.89 5471.14   1 0.98762-0.85921-0.01601 0.23842 0.15600 0.45266
   3  -3   679967.65 5503.03   1 0.98920-0.86079-0.00994-0.21246 0.14618 0.46248
   3   0  -575669.82 6771.19   1-0.44667 0.70359-0.70959 0.70959-0.54493 0.03779
  -3   3  -572956.03 5833.95   1-0.44574 0.31728-0.72568 0.94817-0.52411 0.01698
   0  -3  -573488.30 4707.31   1-0.29472 0.16635-0.94055 0.71820 0.16879-0.67565
  -3   0   573551.25 4792.34   1 0.66940-0.92622-0.34550 0.34550 0.65766-0.15078
   3  -3   571702.46 5161.81   1 0.99633-0.86791 0.03074-0.25315 0.07987 0.42734
   0   3   580384.78 5042.01   1 0.99766-0.86925 0.05337 0.16904 0.04265 0.46456
   3   0  -4 9485.01 3847.57   1-0.44734 0.70426-0.69125 0.69125-0.56748 0.16178
  -3   3  -410732.33 3448.92   1-0.44630 0.31784-0.71666 0.93915-0.53591 0.13020
   0  -3  -4 7524.96 1788.75   1-0.24442 0.11605-0.92237 0.70002 0.29913-0.70462
  -3   0   4 9742.09 2088.83   1 0.63171-0.88852-0.36451 0.36451 0.68415-0.27865
   3  -3   4 7866.51 1768.55   1 0.99723-0.86882 0.07371-0.29612 0.00898 0.39679
   0   3   4 8936.86 1532.33   1 0.98433-0.85592 0.14163 0.08077-0.10497 0.51075
  -3   3  -3236369.5 7265.51   1-0.44746 0.31900-0.68622 0.90871-0.57347 0.26919
   0  -3  -3243038.4 5009.62   1-0.17519 0.04682-0.87426 0.65192 0.45272-0.75683
   0  -3  -3224442.7 4893.28   1-0.91021 0.78185-0.26554 0.04322 0.31780-0.62196
   0   3   3226081.7 3842.71   1-0.36620 0.49465-0.50294 0.72542 0.78290-0.47862
  -3   0   3234967.5 5175.84   1 0.55576-0.81258-0.39811 0.39811 0.72981-0.42568
   3  -3   3249633.7 6513.57   1 0.99029-0.86188 0.12049-0.34291-0.06925 0.37358
   3   0  -2599638.112224.65   1-0.42467 0.68140-0.42050 0.42050-0.80176 0.59904
  -3   3  -2562126.812985.10   1-0.44625 0.31779-0.61206 0.83456-0.65286 0.45001
  -3   0   2626045.512696.97   1-0.41260 0.15565-0.87342 0.87342-0.25862 0.46140
   0   3   2674198.413018.94   1-0.03239 0.16076-0.51932 0.74166 0.85396-0.65122
  -3   0   2621269.913084.53   1 0.41666-0.67348-0.44658 0.44658 0.79180-0.58905
   3  -3   2573988.512790.93   1 0.97162-0.84321 0.17403-0.39644-0.16017 0.36306
  -3   3  -1401000.8 9423.13   1-0.42727 0.29891-0.43635 0.65868-0.79185 0.69049
  -3   0   1406603.5 7788.53   1-0.43838 0.18146-0.51823 0.51823-0.73433 0.83576
   0  -3  -1381295.0 8163.27   1 0.05762-0.18603-0.57630 0.35390 0.81519-0.91659
  -3   0   1426261.6 8024.69   1 0.22408-0.48098-0.24695 0.24695 0.94276-0.84122
  -3   3  -1401558.1 9136.99   1-0.93091 0.80255-0.24096 0.46329 0.27446-0.37584
   0  -3  -1424503.7 8717.17   1-0.06745-0.06091-0.52047 0.29813 0.85120-0.95257
  -3   0   1410392.0 8903.97   1 0.18612-0.44286-0.49760 0.49760 0.84719-0.74582
   0   3   1396678.3 7804.80   1 0.43983-0.31142-0.43953 0.66194 0.78316-0.68179
  -3   3   020512.08 1290.71   1-0.33088 0.20252-0.04281 0.26514-0.94269 0.94269
   3  -3   023647.70 1431.90   1-0.41939 0.54775-0.39035 0.16802-0.81959 0.81959
  -3   0   019010.17  735.59   1-0.12840-0.12840-0.83014 0.83014 0.54255-0.54255
   3   0   018997.66  763.22   1 0.12844 0.12844-0.45007 0.45007 0.88370-0.88370
   0  -3   021630.92 1503.26   1 0.21345-0.34190-0.27156 0.04907 0.93845-0.93845
  -3   3   019831.36 1221.73   1-0.83397 0.70561-0.33328 0.55560 0.43977-0.43977
   3  -3   023421.82 1266.35   1-0.54802 0.67647-0.46472 0.24224 0.69548-0.69548
  -3   0   019566.57 1302.06   1-0.12836-0.12836-0.52095 0.52095 0.84387-0.84387
   0  -3   021191.84 1165.37   1 0.48107-0.60948-0.42602 0.20361 0.76620-0.76620
   0   3   021351.07 1130.31   1 0.76068-0.63224-0.29087 0.51333 0.58029-0.58029
   0   3  -1416153.210042.29   1-0.33706 0.46543-0.06232 0.28466-0.93941 0.83805
  -3   0  -1442375.6 8923.51   1-0.25563-0.00110-0.92782 0.92782 0.27164-0.37301
   3   0   1433861.0 8642.93   1-0.09139 0.34819-0.78913 0.78913 0.60738-0.50599
   3  -3  -1420483.3 8446.86   1 0.09811 0.03029-0.50554 0.28314 0.85720-0.95859
  -3   3   1407171.3 8019.27   1-0.55262 0.42417-0.46342 0.68590 0.69270-0.59128
  -3   0  -1429735.4 9526.83   1-0.44464 0.18774-0.48945 0.48945 0.75015-0.85157
   3  -3  -1425165.1 8343.53   1 0.08810 0.04026-0.51045 0.28811 0.85537-0.95674
   0  -3   1421772.4 9265.04   1 0.72722-0.85562-0.31273 0.09032 0.61102-0.50964
   0   3  -2586088.713325.87   1-0.40346 0.53183-0.31100 0.53333-0.86051 0.65780
  -3   0  -2553089.911364.75   1-0.30917 0.05242-0.94240 0.94240 0.12758-0.33032
   3  -3  -2546822.410715.26   1-0.11873 0.24713-0.81991 0.59751 0.56003-0.76282
  -3   3   2602056.611945.40   1 0.10888-0.23733-0.48706 0.70954 0.86655-0.66348
  -3   0  -2575746.112733.73   1-0.68224 0.42552-0.41801 0.41801 0.59984-0.80261
  -3   3   2637146.112075.84   1 0.04436-0.17273-0.51455 0.73689 0.85631-0.65357
   3  -3  -2564780.010659.79   1 0.80905-0.68061-0.25601 0.03355 0.52903-0.73187
   0  -3   2557579.112879.52   1 0.82151-0.94995-0.24613 0.02366 0.51433-0.31149
   0   3  -3229121.0 6042.58   1-0.43045 0.55891-0.45841 0.68091-0.77753 0.47325
  -3   0  -3230421.2 5306.17   1-0.34165 0.08471-0.93940 0.93940 0.02799-0.33217
   3  -3  -3237881.7 4415.02   1-0.23951 0.36788-0.91975 0.69741 0.31092-0.61504
  -3   0  -3213162.6 5693.63   1-0.83228 0.57556-0.33451 0.33451 0.44204-0.74620
   0  -3   3227810.5 5776.61   1 0.85830-0.98674-0.21416-0.00830 0.46631-0.16206
   0   3  -4 9316.00 2527.68   1-0.44053 0.56899-0.53794 0.76044-0.71870 0.31299
  -3   0  -410305.51 3101.72   1-0.36496 0.10801-0.92951 0.92951-0.05295-0.35260
   3  -3  -4 8268.91 1558.64   1-0.30640 0.43478-0.94218 0.71984 0.13561-0.54110
  -3   0  -4 7590.43 1751.50   1-0.91991 0.66319-0.25451 0.25451 0.29829-0.70383
  -3   3   4 8722.23 1108.36   1 0.63186-0.76027-0.36443 0.58684 0.68405-0.27855
   0  -3   4 9043.74 1897.51   1 0.87043-0.99887-0.20253-0.01992 0.44868-0.04302
   0   3  -576993.68 6142.18   1-0.44410 0.57256-0.57790 0.80040-0.68468 0.17755
  -3   0  -574989.89 4941.68   1-0.38339 0.12645-0.91518 0.91518-0.12427-0.38268
   3  -3  -575807.62 4623.71   1-0.34870 0.47717-0.93722 0.71470 0.00441-0.51137
  -3   3   581640.75 4591.76   1 0.69241-0.82082-0.33303 0.55544 0.64003-0.13316
   0  -3   578617.53 5535.98   1 0.86972-0.99816-0.20323-0.01923 0.44974 0.05734
   3   0   582669.81 5702.34   1 0.96842-0.71159 0.18075-0.18075-0.17171 0.67893
   0   3  -680818.8714451.76   1-0.44524 0.57370-0.59427 0.81677-0.66977 0.06120
  -3   0  -668690.12 5468.58   1-0.39862 0.14167-0.89720 0.89720-0.19007-0.41827
   3  -3  -672740.82 4870.36   1-0.37774 0.50621-0.92032 0.69780-0.10157-0.50677
  -3   3   680990.47 3470.18   1 0.70929-0.83770-0.32341 0.54582 0.62633-0.01808
   0  -3   670816.64 6142.90   1 0.86082-0.98926-0.21180-0.01066 0.46273 0.14576
   3   0   673682.25 5262.26   1 0.99156-0.73474 0.11492-0.11492-0.05986 0.66853
   0   3  -718709.26 7949.15   1-0.44532 0.57377-0.59546 0.81796-0.66865-0.04132
  -3   0  -716841.82 5658.59   1-0.41142 0.15447-0.87579 0.87579-0.25243-0.45730
   3  -3  -715130.90 5858.49   1-0.39916 0.52763-0.89642 0.67390-0.19258-0.51715
  -3   3   716327.35 2334.00   1 0.70365-0.83205-0.32667 0.54908 0.63099 0.07862
   0  -3   715010.06 3399.86   1 0.84563-0.97407-0.22569 0.00322 0.48370 0.22621
   3   0   717556.24 2905.51   1 0.99768-0.74085 0.05457-0.05457 0.04067 0.66944
   0   3  -8 2363.33 1508.54   1-0.44468 0.57314-0.58592 0.80842-0.67744-0.13396
  -3   0  -8 1720.37  965.04   1-0.42217 0.16523-0.85093 0.85093-0.31252-0.49860
   3  -3  -8 1392.68 1207.63   1-0.41548 0.54395-0.86730 0.64478-0.27413-0.53699
   0  -3   8  822.14 1562.11   1 0.82490-0.95335-0.24336 0.02089 0.51019 0.30114
   3   0   8 1741.44 2205.30   1 0.99114-0.73432-0.00166 0.00166 0.13276 0.67879
  -1   4  -8 6148.78 6046.88   1-0.44145 0.52709-0.54720 0.84386-0.71111-0.10030
   4  -3  -8 6606.90 4006.59   1-0.42783 0.64195-0.83396 0.61145-0.34850-0.46262
  -3  -1  -8 7182.60 2738.77   1-0.40760 0.10783-0.88294 0.80876-0.23297-0.57815
   1  -4   8 7636.45 2468.76   1 0.85265-0.93827-0.21937-0.07724 0.47419 0.33714
   3   1   8 5887.62 2360.82   1 0.99523-0.69561 0.02146 0.05267 0.09507 0.71648
  -1   4  -7 1923.97 2000.22   1-0.44198 0.52762-0.55280 0.84946-0.70643-0.00355
   4  -3  -7 1560.63 1884.02   1-0.41578 0.62990-0.86664 0.64412-0.27577-0.43396
  -3  -1  -7 2389.47 3123.75   1-0.39227 0.09250-0.90551 0.83134-0.16173-0.54800
  -4   3   7  815.91  717.17   1 0.57703-0.79105-0.38928 0.61169 0.71797-0.00834
   1  -4   7 2465.60 2753.63   1 0.87348-0.95911-0.19951-0.09711 0.44408 0.26583
   3   1   7 1114.30 2222.52   1 0.99649-0.69687 0.08333-0.00920-0.00702 0.71713
  -1   4  -620229.02 6355.66   1-0.44142 0.52706-0.54692 0.84358-0.71134 0.10278
   4  -3  -618854.00 4021.74   1-0.39985 0.61397-0.89542 0.67290-0.19576-0.41258
  -3  -1  -620309.58 5079.24   1-0.37369 0.07393-0.92357 0.84940-0.08580-0.52254
  -4   3   618842.35 2027.67   1 0.56411-0.77812-0.39470 0.61711 0.72524-0.11699
   1  -4   620253.89 2997.56   1 0.88956-0.97519-0.18283-0.11379 0.41862 0.18987
   3   1   620203.12 3050.81   1 0.98154-0.68192 0.14980-0.07566-0.11883 0.72750
  -1   4  -5 6598.54 2351.89   1-0.43916 0.52480-0.52515 0.82181-0.72893 0.22179
   4  -3  -5 6770.05 1640.94   1-0.37823 0.59235-0.91990 0.69738-0.10350-0.40344
  -3  -1  -515478.75 5330.63   1-0.35089 0.05112-0.93641 0.86223-0.00303-0.50391
  -4   3   5 7135.97 1345.84   1 0.52056-0.73458-0.41185 0.63426 0.74792-0.24104
   1  -4   5 6271.65 2309.27   1 0.90058-0.98620-0.17057-0.12604 0.39982 0.10726
  -1   4  -485427.42 7042.55   1-0.43352 0.51916-0.47985 0.77652-0.76275 0.35704
   4  -3  -482195.03 4974.69   1-0.34669 0.56081-0.93790 0.71539 0.01120-0.41677
  -3  -1  -482428.39 5281.01   1-0.32181 0.02227-0.94252 0.86841 0.08985-0.49533
  -3  -1  -482203.49 5725.57   1-0.87446 0.57496-0.30071 0.22660 0.38062-0.78616
  -4   3   483773.03 4850.46   1 0.42591-0.63992-0.44381 0.66622 0.78843-0.38293
   1  -4   482826.47 6216.42   1 0.90553-0.99116-0.16481-0.13180 0.39094 0.01472
  -1   4  -328991.23 8740.06   1-0.42079 0.50636-0.39810 0.69455-0.81513 0.51106
   4  -3  -323835.99 1497.58   1-0.29340 0.50735-0.94030 0.71795 0.17246-0.47657
  -3  -1  -325771.20 2789.98   1-0.28358-0.01595-0.93800 0.86388 0.19931-0.50342
  -3  -1  -325981.48 6710.28   1-0.75717 0.45767-0.38176 0.30765 0.53003-0.83419
  -4   3   323154.92 1692.96   1 0.24613-0.46008-0.48714 0.70949 0.83791-0.53380
   1  -4   323725.85 2355.68   1 0.90181-0.98743-0.16916-0.12745 0.39764-0.09339
  -1   4  -2108593.6 4184.50   1-0.39189 0.47746-0.26038 0.55682-0.88239 0.67968
  -3  -1  -2108878.5 3235.90   1-0.22887-0.07066-0.91364 0.83953 0.33595-0.53869
   4  -3  -2106332.1 2745.27   1-0.18299 0.39695-0.88080 0.65846 0.43667-0.63942
  -4   3   296749.74 1974.13   1 0.17130-0.38538-0.36389 0.58637 0.91555-0.71248
  -3  -1  -2107761.7 3627.99   1-0.57430 0.27459-0.45700 0.38284 0.67920-0.88206
   4  -3  -2113587.6 2592.76   1 0.59261-0.37860-0.38253 0.16012 0.70885-0.91160
   1  -4   2107705.7 3938.20   1 0.88235-0.96797-0.19047-0.10614 0.43031-0.22748
  -1   4  -140478.33 2444.41   1-0.33258 0.41815-0.04811 0.34456-0.94184 0.84048
   4  -3  -140869.16 1536.25   1-0.37112 0.58507-0.17893-0.04339-0.91117 0.80982
  -3  -1  -135845.16 1578.00   1-0.14232-0.15720-0.84391 0.76980 0.51724-0.61862
   4  -3  -136441.50 1220.74   1 0.07603 0.13796-0.54483 0.32243 0.83509-0.93648
  -4   3   140049.64 1566.53   1-0.39918 0.18509-0.49778 0.72026 0.76998-0.66855
  -3  -1  -134864.82 2161.30   1-0.32061 0.02090-0.50892 0.43476 0.79887-0.90030
   4  -3  -137771.44 1623.45   1 0.12471 0.08923-0.50625 0.28391 0.85331-0.95468
   1  -4   137387.46 1935.82   1 0.82599-0.91162-0.24246-0.05415 0.50886-0.40744
  -4   3   0283047.0 6285.26   1-0.35738 0.14344-0.12979 0.35212-0.92489 0.92489
   4  -3   0319109.9 7402.13   1-0.44741 0.66151-0.64478 0.42228-0.61973 0.61973
  -3  -1   0326685.7 6913.20   1 0.00450-0.30411-0.66070 0.58656 0.75063-0.75063
   3   1   0285925.3 6094.85   1 0.22158 0.07813-0.25279 0.32695 0.94180-0.94180
   1  -4   0314569.4 7389.27   1 0.23222-0.31786-0.22772-0.06892 0.94562-0.94562
  -4   3   0283488.4 6936.79   1-0.66449 0.45041-0.42517 0.64765 0.61454-0.61454
  -3  -1   0309101.9 7713.22   1-0.03045-0.26907-0.51923 0.44512 0.85408-0.85408
   1  -4   0299479.3 6527.03   1 0.65907-0.74468-0.35088 0.05434 0.66520-0.66520
  -1   4   0289548.8 6402.95   1 0.94452-0.85889-0.11199 0.40861 0.30875-0.30875
  -4   3  -138822.25 2815.21   1-0.43847 0.22437-0.51902 0.74151-0.73372 0.63230
   1  -4  -143560.29 2250.43   1 0.10063-0.18623-0.50093 0.20440 0.85961-0.96100
  -3  -1   138753.82 1437.87   1 0.21021-0.50993-0.27895 0.20478 0.93701-0.83548
  -4   3  -138547.81 2122.54   1-0.82011 0.60618-0.34313 0.56546 0.45789-0.55927
   1  -4  -139870.05 1373.41   1 0.12615-0.21173-0.50607 0.20962 0.85321-0.95458
  -3  -1   138446.82 2092.18   1 0.22975-0.52928-0.49020 0.41608 0.84078-0.73941
  -1   4   139730.25 1348.02   1 0.83750-0.75187-0.23278 0.52940 0.49436-0.39294
   3   1  -2103870.8 4140.85   1-0.36099 0.66051-0.14241 0.21652-0.92162 0.71891
  -4   3  -2114677.5 3787.87   1-0.44765 0.23356-0.66701 0.88951-0.59556 0.39270
  -3  -1   299612.41 3437.22   1-0.44749 0.14775-0.68479 0.61062-0.57515 0.77800
   1  -4  -2107329.6 3886.76   1-0.02685-0.05874-0.70610 0.40957 0.70759-0.91038
  -4   3  -2108340.1 3982.22   1-0.90655 0.69262-0.26951 0.49183 0.32482-0.52760
   1  -4  -2107309.7 2312.53   1-0.73965 0.65408-0.39106 0.09463 0.54770-0.75048
  -3  -1   2107918.4 3924.71   1 0.41823-0.71785-0.44611 0.37198 0.79123-0.58848
  -1   4   2109034.3 1763.49   1 0.46081-0.37520-0.43282 0.72936 0.77480-0.57205
   3   1  -325774.03 6280.12   1-0.41989 0.71941-0.39313 0.46724-0.81800 0.51393
  -4   3  -320914.01 4937.50   1-0.44579 0.23169-0.72487 0.94737-0.52518 0.22090
   1  -4  -321516.07 1731.51   1-0.13055 0.04496-0.83199 0.53553 0.53920-0.84331
  -1   4   323186.55  968.53   1-0.10753 0.19310-0.52101 0.81746 0.84674-0.54263
  -3  -1   322322.86 1943.15   1 0.53751-0.83713-0.40537 0.33123 0.73942-0.43529
   4  -3   325182.68 2475.89   1 0.95525-0.74123 0.20489-0.42731-0.21333 0.51766
   3   1  -476518.21 5195.75   1-0.43786 0.73760-0.51377 0.58794-0.73777 0.33206
  -4   3  -480938.19 5416.47   1-0.44399 0.22989-0.74656 0.96906-0.49548 0.08977
   1  -4  -480230.12 5065.55   1-0.20849 0.12291-0.90029 0.60383 0.38208-0.78757
  -1   4   475255.82 4125.39   1-0.40203 0.48766-0.49729 0.79394 0.76880-0.36309
  -3  -1   479171.15 5304.95   1 0.60707-0.90669-0.37605 0.30191 0.70002-0.29452
  -1   4   478945.44 4505.27   1 0.99530-0.90969 0.02196 0.27458 0.09425 0.31152
   4  -3   475020.64 5695.74   1 0.98206-0.76804 0.14835-0.37076-0.11636 0.52214
   3   1  -5 7263.43 3119.75   1-0.44338 0.74311-0.56872 0.64288-0.69279 0.18566
  -4   3  -5 5791.81 1956.85   1-0.44357 0.22947-0.75066 0.97315-0.48964-0.01748
   1  -4  -5 6146.34 1638.78   1-0.26690 0.18132-0.93254 0.63607 0.24315-0.75001
  -3  -1   5 8323.19 2232.41   1 0.64412-0.94374-0.35843 0.28430 0.67573-0.16886
  -1   4   5 6876.29 1400.67   1 0.97572-0.89011-0.05137 0.34792 0.21288 0.29434
   4  -3   5 6964.43 2394.22   1 0.99484-0.78082 0.09694-0.31936-0.02972 0.53695
   3   1  -616773.49 6732.43   1-0.44497 0.74470-0.59004 0.66420-0.67368 0.06512
  -4   3  -616744.92 6190.62   1-0.44420 0.23010-0.74442 0.96692-0.49851-0.11004
   1  -4  -617897.74 2405.39   1-0.31146 0.22588-0.94254 0.64607 0.12085-0.72908
  -3  -1   618056.16 3148.97   1 0.65976-0.95938-0.35053 0.27639 0.66470-0.05645
  -1   4   617679.97 1888.64   1 0.94734-0.86171-0.10746 0.40409 0.30165 0.30685
   4  -3   619680.47 3126.14   1 0.99755-0.78353 0.04905-0.27147 0.04976 0.55890
   3   1  -7 1258.06 1350.82   1-0.44509 0.74483-0.59199 0.66615-0.67188-0.03810
  -4   3  -7  -70.27 1570.90   1-0.44535 0.23125-0.73105 0.95354-0.51693-0.19304
   1  -4  -7 1581.70 1375.49   1-0.34650 0.26085-0.93797 0.64128 0.01186-0.72160
  -3  -1   7 1591.11 1573.29   1 0.66045-0.96007-0.35017 0.27604 0.66421 0.04541
   4  -3   7 1214.84 1747.47   1 0.99224-0.77823 0.00359-0.22600 0.12421 0.58589
   3   1  -8 5472.39 3102.16   1-0.44435 0.74408-0.58120 0.65537-0.68172-0.12968
  -4   3  -8 5632.28 3891.17   1-0.44655 0.23245-0.71201 0.93450-0.54187-0.26954
   1  -4  -8 5754.53 2087.71   1-0.37404 0.28839-0.92331 0.62661-0.08712-0.72400
  -3  -1   8 8833.12 2435.39   1 0.64979-0.94941-0.35560 0.28146 0.67179 0.13920
   4  -3   8 5753.15 3140.07   1 0.97997-0.76595-0.04022-0.18218 0.19501 0.61653
  -2   4  -812259.26 7058.36   1-0.44486 0.44486-0.58849 0.88516-0.67510-0.13631
   4  -2  -811081.99 4633.46   1-0.44099 0.69791-0.77154 0.62321-0.45852-0.35288
  -2  -2  -813153.35 5564.96   1-0.39411 0.13716-0.90324 0.75489-0.16978-0.64133
   2  -4   814286.33 3340.68   1 0.90162-0.90162-0.16937-0.12724 0.39796 0.41336
   2   2   817131.97 3641.85   1 0.98873-0.73190-0.01182 0.16010 0.14923 0.66232
  -2   4  -7  899.10 1624.27   1-0.44545 0.44545-0.59759 0.89425-0.66667-0.04331
   4  -2  -7  571.86  616.31   1-0.43567 0.69262-0.80294 0.65459-0.40678-0.30295
  -2  -2  -7 1134.24  950.50   1-0.37437 0.11743-0.92305 0.77470-0.08841-0.62132
  -4   2   7  841.74 1166.18   1 0.58993-0.84675-0.38371 0.53198 0.71045-0.00082
   2  -4   7  550.13 1887.92   1 0.92302-0.92302-0.14299-0.15362 0.35717 0.35273
   2   2   7  263.01 1260.88   1 0.99763-0.74080 0.05172 0.09655 0.04537 0.66474
  -2   4  -6 2193.65 1627.13   1-0.44539 0.44539-0.59672 0.89339-0.66748 0.05892
   4  -2  -6 2413.29 1307.67   1-0.42880 0.68574-0.83069 0.68235-0.35506-0.25328
  -2  -2  -6 3011.42 1656.46   1-0.35007 0.09313-0.93672 0.78837-0.00024-0.60810
  -4   2   6 3460.11 1554.88   1 0.58042-0.83724-0.38783 0.53610 0.71602-0.10777
   2  -4   6 2667.76 1480.49   1 0.94038-0.94038-0.11841-0.17820 0.31882 0.28967
   2   2   6 2274.54 1202.44   1 0.99008-0.73325 0.12138 0.02688-0.07075 0.67941
  -2   4  -5  865.01 1018.60   1-0.44442 0.44442-0.58214 0.87880-0.68088 0.17374
   4  -2  -5  138.69 1052.84   1-0.42062 0.67756-0.85504 0.70669-0.30328-0.20367
  -2  -2  -5 1614.56 1545.42   1-0.31935 0.06261-0.94262 0.79439 0.09730-0.60416
  -4   2   5  661.39  819.70   1 0.54663-0.80345-0.40178 0.55005 0.73467-0.22780
   2  -4   5  714.41 1891.17   1 0.95398-0.95398-0.09625-0.20036 0.28399 0.22309
   2   2   5  326.64 1371.50   1 0.95866-0.70183 0.19909-0.05082-0.20329 0.71052
  -2   4  -4226101.213722.70   1-0.44143 0.44143-0.54699 0.84365-0.71129 0.30558
   4  -2  -4232446.012922.12   1-0.41120 0.66815-0.87621 0.72786-0.25132-0.15423
  -2  -2  -4249327.712137.36   1-0.28006 0.02331-0.93701 0.78877 0.20874-0.61423
  -2  -2  -4244720.912385.47   1-0.88895 0.63224-0.28735 0.13913 0.35662-0.76217
  -4   2   4227727.212134.05   1 0.47530-0.73212-0.42799 0.57626 0.76870-0.36320
   2  -4   4261621.813767.42   1 0.96394-0.96394-0.07763-0.21899 0.25451 0.15115
  -2   4  -3  860.93 1571.51   1-0.43337 0.43337-0.47875 0.77541-0.76352 0.45924
   4  -2  -3  346.04  454.57   1-0.40053 0.65747-0.89443 0.74608-0.19890-0.10526
  -2  -2  -3  290.68  988.01   1-0.22712-0.02961-0.91258 0.76435 0.34000-0.64411
  -4   2   3  135.41  327.39   1-0.09371-0.16309-0.79185 0.94011 0.60348-0.29930
  -2  -2  -3  948.99  605.23   1-0.75808 0.50136-0.38127 0.23305 0.52909-0.83325
  -4   2   3  542.66  512.67   1 0.34449-0.60131-0.46620 0.61447 0.81484-0.51071
   2  -4   3  876.28 1695.15   1 0.97014-0.97014-0.06457-0.23204 0.23375 0.07049
  -2   4  -2 5915.12 2023.57   1-0.41280 0.41280-0.35581 0.65225-0.83844 0.63573
   4  -2  -2 5706.00  722.72   1-0.38829 0.64523-0.91011 0.76176-0.14464-0.05813
  -2  -2  -2 4507.97  837.78   1-0.15213-0.10460-0.85343 0.70520 0.49850-0.70124
  -4   2   2 5259.14  422.11   1 0.05516-0.31196-0.58043 0.72869 0.81243-0.60965
  -2  -2  -2 6021.42 1575.81   1-0.53593 0.27903-0.46807 0.31975 0.70262-0.90548
  -4   2   2 6637.72 2186.01   1 0.13042-0.38716-0.50553 0.65376 0.85288-0.65014
   2  -4   2 5825.20 1300.61   1 0.97158-0.97158-0.06134-0.23527 0.22859-0.02576
  -2   4  -1  245.25  719.06   1-0.36285 0.36285-0.14895 0.44540-0.91986 0.81850
  -2  -2  -1 3471.83  733.63   1-0.04209-0.21471-0.72698 0.57872 0.68535-0.78675
  -4   2   1  -14.96  513.36   1-0.16047-0.09626-0.52041 0.66864 0.83870-0.73732
   2  -4   1 1031.78  998.87   1 0.96362-0.96362-0.07827-0.21834 0.25554-0.15412
  -4   2   0704002.513463.67   1-0.42847 0.17156-0.44548 0.59381-0.78609 0.78609
   4  -2   0694621.712976.26   1-0.36525 0.62220-0.92933 0.78099-0.05403 0.05403
  -2  -2   0719154.814120.77   1 0.10939-0.36629-0.48612 0.33780 0.86701-0.86701
   2  -4   0771205.3 9950.44   1 0.26432-0.26432-0.14832-0.14832 0.95295-0.95295
  -4   2   0795604.811104.69   1-0.45288 0.19599-0.48778 0.63610 0.74629-0.74629
  -2  -2   0685127.014356.30   1 0.12136-0.37810-0.50667 0.35844 0.85355-0.85355
   2  -4   0691360.013493.02   1 0.91894-0.91894-0.14831-0.14831 0.36542-0.36542
  -2   4   0718122.013942.60   1 0.98209-0.98209 0.14827 0.14827-0.11623 0.11623
  -4   2  -1  485.91  601.38   1-0.44247 0.18556-0.76026 0.90860-0.47560 0.37418
   4  -2   1  174.59  264.63   1-0.34981 0.60676-0.93681 0.78847 0.00062 0.10076
   2  -4  -1  774.98  725.71   1 0.12024-0.12024-0.46576 0.16912 0.87670-0.97823
  -2  -2   1  487.25  385.91   1 0.26703-0.52393-0.14135-0.00696 0.95326-0.85173
   2  -4  -1  124.84  152.21   1-0.88847 0.88847-0.28781-0.00861 0.35745-0.45883
  -4   2  -1  268.89  493.89   1-0.67406 0.41716-0.42124 0.56956 0.60678-0.70821
  -2  -2   1 2206.91  932.66   1 0.38783-0.64465-0.45483 0.30656 0.80169-0.70031
   2  -4  -1   55.96  118.62   1 0.47324-0.47324-0.42868 0.13214 0.76958-0.87096
   2   2  -2 5979.68 2351.25   1-0.36959 0.62632-0.17328 0.32150-0.91289 0.71017
  -4   2  -2 5827.51 1579.23   1-0.43132 0.17438-0.82152 0.96987-0.37290 0.17012
  -4   2  -2 4697.89 1994.13   1-0.81631 0.55959-0.34574 0.49395 0.46269-0.66547
  -2  -2   2 5381.06 1138.29   1 0.55517-0.81198-0.39836 0.25008 0.73013-0.52738
   2   2  -3  344.75  841.79   1-0.41607 0.67280-0.37262 0.52084-0.82947 0.52540
  -4   2  -3  455.18  849.03   1-0.42713 0.17018-0.83626 0.98461-0.34382 0.03965
   2  -4  -3   29.17  779.58   1-0.13921 0.13921-0.84082 0.54435 0.52310-0.82722
  -4   2  -3 3595.97 1745.90   1-0.90271 0.64599-0.27358 0.42179 0.33206-0.63622
  -2   4   3  378.12  177.63   1-0.34806 0.34806-0.50547 0.80211 0.78952-0.48523
  -2  -2   3  367.92 1112.09   1 0.64969-0.90650-0.35565 0.20738 0.67186-0.36774
   2   2  -4208375.712765.49   1-0.43370 0.69061-0.48111 0.62944-0.76186 0.35615
  -4   2  -4247526.214615.72   1-0.42745 0.17051-0.83520 0.98355-0.34599-0.05957
   2  -4  -4214426.911616.73   1-0.22128 0.22128-0.90891 0.61245 0.35341-0.75890
  -2   4   4236609.910760.72   1-0.64917 0.64917-0.43122 0.72786 0.62659-0.22088
  -2  -2   4203624.611584.94   1 0.69979-0.95661-0.32887 0.18060 0.63413-0.22863
  -2   4   4234852.810562.55   1 0.85615-0.85615-0.21616 0.51278 0.46933-0.06366
   4  -2   4227325.213053.11   1 0.95399-0.69717 0.20696-0.35524-0.21691 0.62269
  -4   2  -5 1056.02  905.14   1-0.43009 0.17314-0.82612 0.97447-0.36405-0.14290
   2  -4  -5  126.37 1371.21   1-0.28035 0.28035-0.93709 0.64063 0.20797-0.71483
  -2  -2   5 1653.88 1759.57   1 0.72327-0.98009-0.31512 0.16684 0.61446-0.10758
  -2   4   5 -162.27  554.46   1 0.85915-0.85915-0.21336 0.50998 0.46510 0.04197
   4  -2   5  455.30 1678.38   1 0.98251-0.72569 0.14706-0.29534-0.11418 0.62140
   2   2  -6 3870.94 1842.28   1-0.44266 0.69958-0.56033 0.70866-0.70004 0.09148
  -4   2  -6 3039.06 2337.99   1-0.43375 0.17680-0.81165 0.96000-0.39124-0.21710
   2  -4  -6 2585.65 1328.01   1-0.32405 0.32405-0.94239 0.64592 0.08297-0.69120
  -2  -2   6 2014.24 1385.59   1 0.72983-0.98664-0.31113 0.16285 0.60872-0.00047
  -2   4   6 2593.28  953.16   1 0.84244-0.84244-0.22850 0.52512 0.48793 0.12056
   4  -2   6 1134.79 1856.42   1 0.99555-0.73873 0.09179-0.24007-0.02112 0.62979
   2   2  -7  793.07 1349.62   1-0.44312 0.70004-0.56562 0.71395-0.69549-0.01449
  -4   2  -7 1296.79 1815.29   1-0.43751 0.18060-0.79281 0.94114-0.42428-0.28570
   2  -4  -7  900.05  884.44   1-0.35767 0.35767-0.93346 0.63677-0.02666-0.68307
  -2  -2   7  672.16  815.07   1 0.72458-0.98140-0.31433 0.16605 0.61332 0.09629
   4  -2   7 1956.09 2601.55   1 0.99710-0.74028 0.03998-0.18825 0.06471 0.64540
   2   2  -811095.33 6077.24   1-0.44246 0.69937-0.55800 0.70633-0.70204-0.10937
  -4   2  -813647.52 7131.05   1-0.44121 0.18429-0.76994 0.91827-0.46098-0.35042
   2  -4  -810868.09 4567.61   1-0.38360 0.38360-0.91497 0.61828-0.12514-0.68598
  -2  -2   814678.71 3431.98   1 0.71020-0.96702-0.32288 0.17460 0.62558 0.18541
   4  -2   816746.32 3530.20   1 0.98936-0.73254-0.00931-0.13895 0.14516 0.66638
  -3   4  -8 7407.34 3138.71   1-0.44665 0.36101-0.62080 0.91746-0.64428-0.16712
   4  -1  -8 6170.83 4030.61   1-0.44732 0.74706-0.69213 0.61796-0.56643-0.24497
  -1  -3  -8 5761.54 3792.75   1-0.38038 0.16626-0.91800 0.69548-0.11209-0.69903
  -4   1   8 9068.13 2418.67   1 0.58251-0.88213-0.38693 0.46107 0.71481 0.09618
   3  -4   8 7220.58 3061.31   1 0.93930-0.85368-0.12004-0.17657 0.32138 0.48995
  -3   4  -7 1438.46 1854.01   1-0.44708 0.36145-0.63250 0.92916-0.63249-0.07749
   4  -1  -7 1697.79 1301.06   1-0.44629 0.74603-0.71685 0.64268-0.53566-0.17431
  -1  -3  -7 1953.09 1468.07   1-0.35626 0.14214-0.93413 0.71161-0.02169-0.68804
  -4   1   7  680.32 1336.45   1 0.58925-0.88887-0.38401 0.45814 0.71085-0.00122
   3  -4   7  331.99 1900.60   1 0.95890-0.87328-0.08735-0.20926 0.26993 0.43998
   1   3   7  682.21  890.63   1 0.99260-0.77858 0.00538 0.21702 0.12129 0.58881
  -3   4  -619723.61 5200.08   1-0.44718 0.36154-0.63545 0.93212-0.62946 0.02089
   4  -1  -619857.49 7857.29   1-0.44508 0.74482-0.73445 0.66028-0.51232-0.09623
  -1  -3  -619124.62 2736.90   1-0.32635 0.11223-0.94211 0.71959 0.07691-0.68526
  -4   1   620483.64 2522.59   1 0.58081-0.88043-0.38766 0.46180 0.71579-0.10754
   3  -4   620152.53 3521.77   1 0.97422-0.88861-0.05504-0.24150 0.21875 0.38991
   1   3   622406.79 2858.87   1 0.99704-0.78302 0.07672 0.14569 0.00398 0.60468
  -3   4  -5 7486.27 2483.26   1-0.44687 0.36124-0.62649 0.92316-0.63859 0.13145
   4  -1  -5 6970.74 2811.62   1-0.44441 0.74415-0.74215 0.66798-0.50170-0.00543
  -1  -3  -5 6543.77 2008.10   1-0.28835 0.07439-0.93921 0.71686 0.18637-0.69323
  -4   1   5 6007.39 1405.06   1 0.55169-0.85131-0.39976 0.47389 0.73199-0.22512
   3  -4   5 6579.16 2420.27   1 0.98557-0.89997-0.02320-0.27335 0.16761 0.33960
   1   3   5 6815.35 1822.98   1 0.97796-0.76394 0.15927 0.06313-0.13495 0.64218
  -3   4  -479224.17 5789.17   1-0.44557 0.35993-0.59962 0.89629-0.66476 0.25905
   4  -1  -472915.89 4621.67   1-0.44526 0.74500-0.73212 0.65796-0.51548 0.10977
  -1  -3  -489317.67 6250.25   1-0.23962 0.02566-0.91981 0.69747 0.31066-0.71615
  -1  -3  -480610.96 5168.05   1-0.91664 0.70271-0.25832 0.03599 0.30501-0.71056
  -4   1   478444.95 5041.91   1 0.49236-0.79198-0.42210 0.49623 0.76119-0.35569
   3  -4   475246.08 5362.74   1 0.99312-0.90752 0.00818-0.30473 0.11674 0.28903
  -3   4  -326512.03 7611.70   1-0.44107 0.35543-0.54328 0.83994-0.71435 0.41007
   4  -1  -322295.84 1592.53   1-0.44761 0.74735-0.67644 0.60228-0.58486 0.28057
  -4   1   323640.79 1190.85   1-0.24856-0.05097-0.92447 0.99858 0.28908 0.01503
  -1  -3  -325548.83 2053.81   1-0.17486-0.03909-0.87398 0.65163 0.45341-0.75752
  -1  -3  -325706.58 1817.58   1-0.77707 0.56314-0.37050 0.14818 0.50880-0.81296
  -4   1   323909.58 1829.11   1 0.38786-0.68748-0.45482 0.52896 0.80168-0.49755
   3  -4   324172.17 2305.09   1 0.99703-0.91143 0.03903-0.33558 0.06626 0.23806
   4  -1  -2109836.0 2166.28   1-0.42181 0.72133-0.40385 0.32974-0.81177 0.60905
  -3   4  -2107830.0 4013.20   1-0.42711 0.34153-0.43533 0.73178-0.79249 0.58978
  -4   1   2100051.1 1570.42   1-0.23252-0.06700-0.91581 0.98993 0.32743-0.12469
  -1  -3  -2120207.1 4036.75   1-0.08685-0.12714-0.78376 0.56136 0.61495-0.81774
  -1  -3  -2104399.2 2994.88   1-0.50597 0.29188-0.47582 0.25334 0.71943-0.92229
  -4   1   2102274.1 3435.35   1 0.22084-0.52037-0.49180 0.56591 0.84223-0.63949
  -3   4  -142076.51 2541.12   1-0.38651 0.30094-0.23830 0.53474-0.89096 0.78960
  -1  -3  -138125.96 2007.95   1 0.02944-0.24345-0.62225 0.39985 0.78226-0.88365
  -1  -3  -137334.19 1728.18   1-0.10634-0.10760-0.52100 0.29866 0.84690-0.94827
  -4   1   143627.74 2068.27   1-0.01504-0.28448-0.51850 0.59262 0.85493-0.75356
   3  -4   137449.03 2097.46   1 0.99465-0.90904 0.09823-0.39479-0.03189 0.13333
  -4   1   0265173.5 5308.79   1-0.38509 0.08532-0.91349 0.98767-0.13125 0.13125
  -1  -3   0271321.0 6307.78   1 0.16632-0.38040-0.37428 0.15180 0.91227-0.91227
   3  -4   0279251.6 6356.86   1-0.76030 0.84587-0.38004 0.08361 0.52678-0.52678
  -4   1   0258738.4 6506.14   1-0.28587-0.01384-0.51262 0.58678 0.80962-0.80962
   3  -4   0276096.8 6384.54   1 0.98919-0.90358 0.12492-0.42147-0.07670 0.07670
  -4   1  -136815.83 1612.61   1-0.37450 0.07473-0.92295 0.99712-0.08891-0.01247
   4  -1   139305.56 1531.25   1-0.18740 0.48694-0.88439 0.81027 0.42746-0.32609
   3  -4  -138019.28 1729.64   1 0.13188-0.04625-0.44342 0.14678 0.88655-0.98808
  -1  -3   141800.58 2021.30   1 0.28971-0.50379-0.08096-0.14151 0.95368-0.85214
  -4   1  -142849.71 2399.21   1-0.53106 0.23135-0.46938 0.54354 0.70544-0.80686
   3  -4  -139535.15 1353.20   1-0.19678 0.28236-0.51912 0.22266 0.83173-0.93310
  -1  -3   138908.52 2154.29   1 0.52986-0.74387-0.40833 0.18592 0.74331-0.64193
   3  -4  -137429.78 1330.71   1 0.98405-0.89845 0.14249-0.43904-0.10641 0.00497
   1   3  -296951.08 4113.01   1-0.36904 0.58298-0.17126 0.39359-0.91349 0.71078
  -4   1  -298310.90 3157.47   1-0.38002 0.08025-0.91833 0.99250-0.11064-0.09213
   3  -4  -298993.32 3061.03   1-0.03429 0.11989-0.71640 0.41987 0.69684-0.89962
  -4   1  -297613.65 3806.80   1-0.71442 0.41492-0.40352 0.47763 0.57163-0.77440
  -1  -3   2102598.2 3544.95   1 0.66677-0.88078-0.34689 0.12448 0.65960-0.45685
   1   3  -322160.14 3165.84   1-0.40978 0.62372-0.34083 0.56316-0.84611 0.54204
  -4   1  -323615.23 5919.88   1-0.38892 0.08915-0.90941 0.98358-0.14731-0.15685
   3  -4  -319695.53 1500.05   1-0.15909 0.24468-0.85995 0.56348 0.48494-0.78905
  -3   4   323015.54 1206.69   1-0.92066 0.83509-0.25362 0.55005 0.29672 0.00743
  -4   1  -323915.89 6486.40   1-0.83729 0.53779-0.33083 0.40494 0.43529-0.73945
  -1  -3   325188.03 2321.15   1 0.73658-0.95065-0.30647 0.08400 0.60292-0.29867
   1   3  -478430.54 5549.65   1-0.42814 0.64208-0.44181 0.66415-0.78834 0.38291
  -4   1  -476017.34 4938.30   1-0.39857 0.09880-0.89727 0.97144-0.18985-0.21571
   3  -4  -489348.79 5428.91   1-0.24307 0.32865-0.92166 0.62520 0.30240-0.70789
  -4   1  -483119.75 6208.54   1-0.91509 0.61559-0.26009 0.33420 0.30814-0.71369
  -3   4   476238.71 4378.28   1-0.90543 0.81986-0.27070 0.56713 0.32695 0.07858
  -3   4   486969.82 4705.75   1 0.55821-0.64381-0.39712 0.69367 0.72848-0.32298
  -1  -3   474896.64 5300.68   1 0.77025-0.98432-0.28437 0.06191 0.57082-0.16515
   1   3  -5 6505.83 2287.72   1-0.43588 0.64998-0.49762 0.72012-0.74991 0.24277
  -4   1  -5 5014.87 1843.10   1-0.40806 0.10829-0.88210 0.95628-0.23530-0.27165
   3  -4  -5 6007.25 1714.40   1-0.30048 0.38606-0.94150 0.64503 0.15259-0.65945
  -3   4   5 8469.65 1255.39   1 0.66110-0.74671-0.34984 0.64638 0.66374-0.15686
  -1  -3   5 4644.89 1637.65   1 0.78326-0.99733-0.27524 0.05277 0.55743-0.05034
   4  -1   5 7501.89 2608.51   1 0.96212-0.66249 0.19291-0.26704-0.19261 0.69984
   1   3  -618846.86 4588.53   1-0.43914 0.65324-0.52499 0.74749-0.72905 0.12049
  -4   1  -621608.37 5270.79   1-0.41698 0.11721-0.86392 0.93809-0.28241-0.32593
   3  -4  -616637.71 4296.35   1-0.34182 0.42747-0.93936 0.64267 0.02745-0.63580
  -3   4   618137.71 1861.81   1 0.68904-0.77465-0.33490 0.63145 0.64269-0.03444
  -1  -3   620467.30 2958.68   1 0.78323-0.99730-0.27527 0.05280 0.55747 0.05103
   4  -1   621360.14 3845.78   1 0.98747-0.68784 0.13131-0.20545-0.08750 0.69617
   1   3  -7 2787.77 2019.44   1-0.44009 0.65419-0.53373 0.75623-0.72211 0.01212
  -4   1  -7 1301.75 1481.43   1-0.42508 0.12532-0.84262 0.91680-0.33056-0.37916
   3  -4  -7  685.70  896.34   1-0.37230 0.45795-0.92461 0.62792-0.08045-0.62927
  -1  -3   7  335.77 1641.85   1 0.77390-0.98796-0.28185 0.05938 0.56712 0.14279
   4  -1   7 2263.67 2607.56   1 0.99724-0.69761 0.07366-0.14780 0.00905 0.70106
   1   3  -8 7425.50 2588.07   1-0.43962 0.65372-0.52935 0.75185-0.72561-0.08580
  -4   1  -8 7208.42 3092.77   1-0.43220 0.13243-0.81806 0.89224-0.37942-0.43170
   3  -4  -8 6326.76 2867.25   1-0.39560 0.48125-0.90131 0.60461-0.17644-0.63468
  -1  -3   8 6783.19 3167.82   1 0.75711-0.97118-0.29325 0.07078 0.58376 0.22757
   4  -1   8 8855.72 2361.12   1 0.99491-0.69528 0.01911-0.09325 0.09890 0.71265
  -4   4  -8 1480.15 1379.45   1-0.44742 0.27614-0.64508 0.94174-0.61942-0.19199
   0  -4  -8 3149.50 1791.17   1-0.36710 0.19581-0.92818 0.63149-0.06087-0.75025
  -4   0   8 2641.26 1416.97   1 0.57355-0.91598-0.39075 0.39075 0.71995 0.09104
   4  -4   8 2505.28 2316.71   1 0.96617-0.79492-0.07309-0.22352 0.24730 0.56403
   4   0  -7 1264.20 1453.17   1-0.44624 0.78880-0.61199 0.61199-0.65293-0.05704
  -4   4  -7 1974.89 2120.37   1-0.44762 0.27634-0.65862 0.95528-0.60484-0.10513
   0  -4  -7 -220.91 1399.32   1-0.33884 0.16754-0.94010 0.64341 0.03722-0.74695
  -4   0   7  248.27 1259.93   1 0.57902-0.92144-0.38843 0.38843 0.71683-0.00720
   4  -4   7  628.88 1927.55   1 0.98186-0.81065-0.03482-0.26172 0.18633 0.52377
   4   0  -636377.69 9885.54   1-0.44629 0.78885-0.61304 0.61304-0.65191 0.04335
  -4   4  -638887.0912417.60   1-0.44765 0.27637-0.66433 0.96099-0.59855-0.01000
   0  -4  -635592.58 3456.40   1-0.30348 0.13231-0.94188 0.64542 0.14404-0.75227
  -4   0   632471.76 3239.94   1 0.57050-0.91292-0.39204 0.39204 0.72168-0.11343
   0   4   634336.12 2619.89   1 0.99303-0.82181 0.00766 0.28889 0.11759 0.49107
   4  -4   636920.80 4052.03   1 0.99233-0.82112 0.00403-0.30059 0.12348 0.48518
   4   0  -5 2200.59 1170.66   1-0.44522 0.78778-0.59402 0.59402-0.67000 0.16286
  -4   4  -5 5994.27 2774.34   1-0.44763 0.27635-0.65951 0.95617-0.60387 0.09674
   0  -4  -5 3987.01 2006.02   1-0.25940 0.08823-0.92948 0.63302 0.26222-0.76908
  -4   0   5 4366.94 1783.07   1 0.54355-0.88597-0.40300 0.40300 0.73629-0.22942
   4  -4   5 5169.26 2046.46   1 0.99733-0.82612 0.04392-0.34047 0.05822 0.44899
   0   4   5 4084.60 1090.69   1 0.99562-0.82440 0.09125 0.20529-0.02023 0.52745
   4   0  -415949.60 4371.06   1-0.44044 0.78300-0.53714 0.53714-0.71936 0.31365
  -4   4  -421543.47 5613.79   1-0.44727 0.27600-0.63894 0.93560-0.62585 0.22014
   0  -4  -419009.14 2250.48   1-0.20310 0.03194-0.89643 0.59996 0.39389-0.79938
  -4   0   419577.36 2422.49   1 0.49088-0.83330-0.42261 0.42261 0.76185-0.35635
   4  -4   423614.00 3283.98   1 0.99628-0.82507 0.08545-0.38200-0.01054 0.41632
   0   4   419501.60 1831.15   1 0.95897-0.78775 0.19855 0.09799-0.20236 0.60814
   4   0  -315082.87 3231.32   1-0.42003 0.76234-0.39390 0.39390-0.81756 0.51348
  -4   4  -314593.75 5278.19   1-0.44510 0.27383-0.59215 0.88881-0.67174 0.36745
  -4   0   312541.78  924.87   1-0.37000 0.02741-0.92625 0.92625-0.07171 0.37589
   0  -4  -315104.75 1706.73   1-0.13037-0.04079-0.83181 0.53534 0.53953-0.84364
   0  -4  -312356.19 3368.14   1-0.82584 0.65469-0.33913 0.04270 0.45052-0.75468
   0   4   313461.62 2347.85   1-0.00943 0.18059-0.51821 0.81467 0.85519-0.55108
  -4   0   315026.29 1766.59   1 0.40165-0.74407-0.45095 0.45095 0.79706-0.49294
   4  -4   315333.16 2510.12   1 0.98794-0.81672 0.12963-0.42619-0.08466 0.38899
  -4   4  -2285928.9 6544.06   1-0.43585 0.26457-0.49740 0.79406-0.75007 0.54722
  -4   0   2266246.7 4145.65   1-0.42440 0.08180-0.84466 0.84466-0.32621 0.52900
   0  -4  -2267428.1 5314.14   1-0.03679-0.13440-0.71982 0.42328 0.69318-0.89596
   0  -4  -2250426.1 5385.03   1-0.49333 0.32207-0.47886 0.18222 0.72615-0.92901
  -4   0   2236641.3 6541.83   1 0.26314-0.60546-0.48381 0.48381 0.83467-0.63193
   0   4   2253954.7 4247.45   1 0.30862-0.13741-0.47472 0.77126 0.82425-0.62150
  -4   4  -113487.20 3176.69   1-0.40371 0.23256-0.31216 0.60860-0.85998 0.75862
  -4   0   114019.18  795.33   1-0.42413 0.08183-0.41731 0.41731-0.80371 0.90507
  -4   0   111657.20  630.40   1 0.05396-0.39636-0.58243 0.58243 0.81108-0.70969
   0  -4  -111079.30 1446.22   1 0.07617-0.24737-0.54459 0.24806 0.83523-0.93662
  -4   4  -112584.72 1773.63   1-0.93551 0.76437-0.23491 0.53134 0.26385-0.36524
   0  -4  -112826.02 1925.75   1 0.01561-0.18677-0.51669 0.22023 0.85602-0.95739
  -4   0   115634.10 6214.57   1 0.06732-0.40964-0.51252 0.51252 0.85602-0.75465
   0   4   113322.86 1070.58   1 0.60863-0.43742-0.37534 0.67189 0.69905-0.59768
  -4   0   023542.57 1057.83   1-0.17116-0.17116-0.87078 0.87078 0.46090-0.46090
   4   0   022574.74  948.82   1 0.17126 0.17126-0.36397 0.36397 0.91552-0.91552
   0  -4   021800.57 1634.19   1 0.19594-0.36721-0.31089 0.01424 0.93002-0.93002
   4  -4   019870.28 1114.75   1 0.31210-0.14084-0.01756-0.27907 0.94988-0.94988
  -4   4   022782.18 1887.17   1-0.86997 0.69882-0.30465 0.60108 0.38772-0.38772
   4  -4   024147.23 1422.30   1-0.48875 0.66001-0.47994 0.18330 0.72854-0.72854
  -4   0   021341.60 1718.21   1-0.17115-0.17115-0.52010 0.52010 0.83677-0.83677
   0  -4   022963.77 1542.51   1 0.42615-0.59737-0.44374 0.14719 0.78834-0.78834
   4  -4  -112536.03 1781.71   1-0.34765 0.51881-0.09681-0.19963-0.93261 0.83125
  -4   0  -113748.35 1229.85   1-0.26193-0.08039-0.93055 0.93055 0.25583-0.35721
   4  -4  -112395.99 1017.00   1 0.13249 0.03877-0.44225 0.14561 0.88704-0.98858
   0  -4   110969.75 1226.27   1 0.29709-0.46836-0.06050-0.23613 0.95292-0.85139
  -4   4   111932.41  906.19   1-0.72854 0.55740-0.39667 0.69310 0.55845-0.45706
  -4   0  -113644.71 3158.30   1-0.41262 0.07008-0.49546 0.49546 0.76436-0.86579
   4  -4  -112224.68  928.42   1-0.01997 0.19113-0.51875 0.22229 0.85468-0.95605
   0  -4   111218.00 1442.83   1 0.64605-0.81726-0.35747 0.06093 0.67440-0.57302
   0   4  -2253119.8 6623.30   1-0.36360 0.53475-0.15164 0.44809-0.91912 0.71641
  -4   0  -2247156.0 4728.55   1-0.30828-0.03403-0.94234 0.94234 0.13015-0.33290
   4  -4  -2261147.5 4360.50   1-0.06067 0.23188-0.75139 0.45486 0.65705-0.85984
  -4   0  -2258144.6 6043.19   1-0.61666 0.27413-0.44314 0.44314 0.65065-0.85350
  -4   4   2265576.1 4126.98   1-0.41620 0.24493-0.49483 0.79147 0.76283-0.55997
   4  -4  -2262652.4 3669.72   1 0.64175-0.47054-0.35961 0.06306 0.67737-0.88012
   0  -4   2241593.8 5761.71   1 0.75087-0.92212-0.29735 0.00073 0.58972-0.38688
   0   4  -320175.51 7167.12   1-0.40141 0.57256-0.30169 0.59813-0.86478 0.56070
  -4   0  -313904.71 4469.16   1-0.33898-0.00361-0.94007 0.94007 0.03677-0.34095
   4  -4  -315040.68 1411.19   1-0.19410 0.36526-0.88966 0.59319 0.41330-0.71742
  -4   0  -318245.38 2903.38   1-0.76756 0.42527-0.37598 0.37598 0.51910-0.82326
  -4   4   315409.83  916.83   1 0.01315-0.18431-0.51685 0.81331 0.85596-0.55185
   0  -4   313415.41 1877.28   1 0.80018-0.97144-0.26281-0.03381 0.53909-0.23484
   4  -4  -314135.62 1088.76   1 0.95279-0.78154-0.09831-0.19830 0.28724-0.59149
   0   4  -424026.82 6913.56   1-0.42068 0.59183-0.39751 0.69396-0.81547 0.41004
  -4   0  -418963.33 5905.65   1-0.36189 0.01930-0.93128 0.93128-0.04177-0.36378
   4  -4  -422426.61 2185.29   1-0.27563 0.44679-0.93563 0.63917 0.22047-0.62596
  -4   0  -421018.64 4459.40   1-0.87025 0.52796-0.30441 0.30441 0.38728-0.79283
  -4   4   418731.29 1587.46   1 0.30752-0.47873-0.47497 0.77151 0.82452-0.41901
   0  -4   418788.33 2715.08   1 0.82154-0.99279-0.24610-0.05051 0.51429-0.10862
   4  -4  -417596.65 1620.26   1 0.99767-0.82645 0.06213-0.35868 0.02817-0.43395
   0   4  -5 4135.95 1959.34   1-0.42984 0.60112-0.45437 0.75104-0.78023 0.27310
  -4   0  -5 3310.05 1177.39   1-0.38040 0.03781-0.91799 0.91799-0.11216-0.39478
   4  -4  -5 2441.76  978.87   1-0.32821 0.49951-0.94192 0.64522 0.07111-0.57807
  -4   0  -5 4870.06 2367.15   1-0.93591 0.59362-0.23437 0.23437 0.26291-0.76985
  -4   4   5 3258.23  886.57   1 0.45510-0.62631-0.43468 0.73122 0.77713-0.27025
   0  -4   5 3002.71 1570.41   1 0.82722-0.99847-0.24145-0.05516 0.50734-0.00026
   0   4  -638891.2311441.81   1-0.43420 0.60548-0.48480 0.78146-0.75923 0.15066
  -4   0  -635772.1610461.33   1-0.39588 0.05329-0.90094 0.90094-0.17769-0.43065
   4  -4  -639163.79 8810.48   1-0.36403 0.53532-0.93006 0.63337-0.04954-0.55880
   0  -4   641246.3612186.52   1 0.82281-0.99406-0.24507-0.05154 0.51275 0.09575
   4   0   640930.42 4164.00   1 0.97485-0.63242 0.16679-0.16679-0.14778 0.75645
   0   4  -7 1837.62 1788.49   1-0.43579 0.60707-0.49695 0.79361-0.75041 0.04042
  -4   0  -7 1401.17 1378.47   1-0.40902 0.06643-0.88036 0.88036-0.24011-0.46961
   4  -4  -7  226.55  687.00   1-0.39003 0.56132-0.90816 0.61146-0.15204-0.55768
   0  -4   7 -148.29 1513.65   1 0.81094-0.98219-0.25454-0.04207 0.52685 0.18306
   4   0   7 1381.24 2679.84   1 0.99370-0.65127 0.10401-0.10401-0.04156 0.75167
   0   4  -8 4656.17 2008.07   1-0.43565 0.60692-0.49581 0.79247-0.75125-0.06016
  -4   0  -8 3118.57 1680.77   1-0.42014 0.07755-0.85627 0.85627-0.30045-0.51066
   4  -4  -8 1652.99 1717.54   1-0.40953 0.58083-0.87941 0.58271-0.24273-0.56839
   0  -4   8 2692.07 1981.70   1 0.79282-0.96407-0.26830-0.02831 0.54721 0.26411
   4   0   8 2766.54 1762.37   1 0.99736-0.65493 0.04455-0.04455 0.05719 0.75436
  -1   5  -8 4795.91 2415.27   1-0.43035 0.55881-0.45778 0.82861-0.77796-0.03345
  -4  -1  -8 4686.05 2109.08   1-0.40629 0.02088-0.88521 0.81104-0.22651-0.58461
   1  -5   8 5982.62 2593.44   1 0.81932-0.94776-0.24790-0.12287 0.51696 0.29436
   4   1   8 2155.25 1691.16   1 0.99756-0.61233 0.06646 0.00766 0.02099 0.79056
  -1   5  -7 2818.39 1976.25   1-0.43005 0.55851-0.45576 0.82659-0.77931 0.06932
   5  -4  -7 2750.17 1680.47   1-0.40986 0.66680-0.87879 0.58209-0.24441-0.46532
  -4  -1  -7 4558.60 2643.86   1-0.39101 0.00559-0.90702 0.83284-0.15626-0.55347
   1  -5   7 4070.80 2529.28   1 0.83803-0.96647-0.23233-0.13844 0.49368 0.21623
   4   1   7 4356.68 2249.64   1 0.98771-0.60248 0.13044-0.05630-0.08603 0.79614
  -1   5  -615398.03 6902.54   1-0.42793 0.55629-0.44045 0.81101-0.78922 0.18107
   5  -4  -610669.21 2843.44   1-0.39020 0.64714-0.90796 0.61127-0.15277-0.45557
  -4  -1  -612415.94 3864.94   1-0.37269-0.01271-0.92432 0.85015-0.08196-0.52638
   1  -5   610174.30 2959.44   1 0.85130-0.97974-0.22060-0.15017 0.47603 0.13246
   4   1   613570.24 3268.35   1 0.95954-0.57431 0.19754-0.12340-0.20061 0.80928
  -1   5  -514544.25 5485.65   1-0.42239 0.55075-0.40715 0.77771-0.80982 0.30303
   5  -4  -514784.71 3598.37   1-0.36262 0.61956-0.93087 0.63418-0.04440-0.46254
  -4  -1  -515245.96 5118.60   1-0.35055-0.03486-0.93654 0.86236-0.00187-0.50507
  -4  -1  -512831.76 4106.19   1-0.90732 0.52225-0.26868 0.19457 0.32336-0.83029
  -5   4   512439.03 3744.53   1 0.28542-0.54216-0.47919 0.77564 0.83000-0.32314
   1  -5   514849.93 2759.38   1 0.85836-0.98680-0.21410-0.15666 0.46622 0.04085
  -1   5  -447655.56 9287.18   1-0.41148 0.53985-0.34923 0.71978-0.84185 0.43642
  -4  -1  -446667.69 3409.54   1-0.32289-0.06222-0.94246 0.86835 0.08653-0.49202
   5  -4  -444461.17 2965.57   1-0.32051 0.57726-0.94258 0.64612 0.09380-0.49929
  -4  -1  -445172.7911343.47   1-0.82431 0.43923-0.34021 0.26610 0.45250-0.85805
  -5   4   448462.92 4367.55   1 0.14380-0.40054-0.50378 0.80024 0.85177-0.44629
   1  -5   448330.58 3982.95   1 0.85740-0.98585-0.21499-0.15577 0.46757-0.06190
  -1   5  -339186.37 9555.37   1-0.39115 0.51952-0.25731 0.62786-0.88362 0.57954
  -4  -1  -334693.66 2808.69   1-0.28767-0.09744-0.93905 0.86493 0.18821-0.49233
   5  -4  -337197.30 2596.15   1-0.24983 0.50658-0.92509 0.62863 0.28596-0.59007
  -4  -1  -334123.22 7981.10   1-0.70161 0.31653-0.40947 0.33536 0.58315-0.88731
  -5   4   341188.46 2853.80   1-0.07316-0.18357-0.52060 0.81706 0.85065-0.54654
   1  -5   333357.10 3238.96   1 0.84443-0.97287-0.22675-0.14402 0.48530-0.18105
  -1   5  -263412.49 3671.02   1-0.35489 0.48325-0.12122 0.49178-0.92701 0.72429
  -4  -1  -261157.14 2529.28   1-0.23960-0.14551-0.91981 0.84569 0.31070-0.51344
   5  -4  -255928.91 1652.30   1-0.11504 0.37184-0.81591 0.51938 0.56661-0.76939
  -5   4   255865.31 1651.26   1 0.29413-0.55103-0.06877 0.36541 0.95328-0.75022
  -4  -1  -271351.0710345.82   1-0.53359 0.14824-0.46870 0.39454 0.70398-0.90683
  -5   4   259358.63 1889.37   1-0.33890 0.08200-0.50667 0.80332 0.79272-0.58987
   1  -5   253624.98 3064.28   1 0.81022-0.93866-0.25511-0.11566 0.52768-0.32485
   5  -4  -175697.55 2408.39   1-0.41024 0.66697-0.34309 0.04664-0.84497 0.74362
  -4  -1  -172537.40 2324.10   1-0.16857-0.21653-0.86851 0.79439 0.46611-0.56748
   5  -4  -171731.89 1935.98   1 0.11486 0.14203-0.47590 0.17926 0.87196-0.97349
   1  -5   164992.64 2741.16   1 0.29614-0.42459-0.06317-0.30762 0.95305-0.85151
  -5   4   177670.20 2540.92   1-0.57881 0.32191-0.45561 0.75225 0.67630-0.57487
  -4  -1  -169673.99 4161.23   1-0.32519-0.06015-0.50837 0.43421 0.79736-0.89879
   1  -5   177597.52 3389.24   1 0.73223-0.86067-0.30917-0.06159 0.60682-0.50540
   5  -4   0146450.4 4042.32   1-0.44746 0.70438-0.64709 0.35043-0.61728 0.61728
  -4  -1   0132694.0 2844.32   1-0.05623-0.32897-0.74566 0.67153 0.66394-0.66394
   1  -5   0136488.8 3968.65   1 0.20963-0.33808-0.28026-0.09053 0.93675-0.93675
  -5   4   0140467.7 3687.20   1-0.74677 0.49005-0.38735 0.68378 0.54063-0.54063
  -4  -1   0132898.7 4389.28   1-0.09942-0.28568-0.52097 0.44685 0.84776-0.84776
   1  -5   0129244.7 3108.77   1 0.55312-0.68153-0.39918 0.02850 0.73123-0.73123
  -4  -1   185600.94 2520.51   1-0.39333 0.00824-0.26645 0.19234-0.87993 0.98129
  -5   4  -168137.90 2676.09   1-0.41505 0.15832-0.36732 0.66376-0.83234 0.73098
  -4  -1   180970.98 2156.00   1 0.10887-0.49421-0.48709 0.41293 0.86653-0.76500
   1  -5  -182875.85 3461.20   1 0.10452-0.23293-0.49379 0.12312 0.86327-0.96466
  -5   4  -174609.49 3367.06   1-0.85211 0.59540-0.31945 0.61588 0.41453-0.51592
  -4  -1   179259.76 4149.78   1 0.10962-0.49473-0.50807 0.43396 0.85430-0.75293
   1  -5  -171319.14 3224.47   1 0.14288-0.27125-0.50390 0.13333 0.85185-0.95322
  -1   5   177256.43 2091.21   1 0.87020-0.74176-0.20276 0.57354 0.44903-0.34761
  -5   4  -263827.36 3305.15   1-0.44095 0.18403-0.54208 0.83874-0.71533 0.51248
  -4  -1   267558.36 2439.95   1-0.44758 0.06221-0.65503 0.58087-0.60875 0.81161
   1  -5  -264755.42 3009.61   1-0.00118-0.12722-0.66917 0.29851 0.74310-0.94588
  -5   4  -266124.25 4059.79   1-0.91718 0.66047-0.25769 0.55412 0.30390-0.50667
   1  -5  -259051.75 2042.37   1-0.52019 0.39175-0.47223 0.10143 0.71160-0.91446
  -4  -1   255498.46 2835.65   1 0.27737-0.66248-0.48089 0.40678 0.83174-0.62900
  -1   5   259809.08 1508.37   1 0.70538-0.57697-0.32567 0.69636 0.62957-0.42682
   4   1  -331514.09 3215.83   1-0.36887 0.75396-0.17065 0.24476-0.91367 0.60960
  -5   4  -335639.71 9597.11   1-0.44687 0.18995-0.62643 0.92309-0.63865 0.33437
   1  -5  -336791.25 3381.78   1-0.09485-0.03354-0.79318 0.42251 0.60155-0.90573
   1  -5  -331264.38 2060.68   1-0.92446 0.79610-0.24905-0.12148 0.28867-0.59283
  -1   5   335795.52 2079.88   1 0.37403-0.24562-0.45858 0.82927 0.80609-0.50197
  -4  -1   333172.85 3048.53   1 0.39757-0.78279-0.45211 0.37797 0.79845-0.49432
   5  -4   338413.94 3881.56   1 0.95744-0.70062 0.20118-0.49774-0.20691 0.51124
   4   1  -441221.82 4939.44   1-0.41029 0.79538-0.34334 0.41745-0.84485 0.43942
  -5   4  -452316.76 4424.70   1-0.44765 0.19074-0.66628 0.96294-0.59638 0.19067
   1  -5  -448413.75 4172.11   1-0.17221 0.04384-0.87170 0.50112 0.45877-0.86426
  -4  -1   450130.60 4048.35   1 0.47731-0.86254-0.42730 0.35317 0.76783-0.36233
  -1   5   449401.79 2834.05   1 0.99728-0.86887 0.07289 0.29779 0.01033 0.39544
   5  -4   454165.73 4788.07   1 0.98149-0.72467 0.14995-0.44650-0.11908 0.52486
   4   1  -5 9425.39 3077.53   1-0.42696 0.81206-0.43440 0.50851-0.79309 0.28630
  -5   4  -513460.97 4429.00   1-0.44753 0.19061-0.68244 0.97910-0.57790 0.07077
   1  -5  -514512.41 2681.40   1-0.23389 0.10551-0.91660 0.54602 0.32423-0.83109
  -4  -1   5 9595.57 1998.60   1 0.52613-0.91135-0.40975 0.33561 0.74517-0.23829
  -1   5   516910.37 1905.65   1 0.98359-0.85518-0.02961 0.40030 0.17794 0.32927
   5  -4   513854.83 3270.26   1 0.99403-0.73721 0.10207-0.39862-0.03831 0.54553
   4   1  -613672.00 4877.08   1-0.43336 0.81874-0.47867 0.55283-0.76358 0.15502
  -5   4  -611958.59 4320.09   1-0.44750 0.19058-0.68445 0.98111-0.57555-0.03300
   1  -5  -616307.82 3084.05   1-0.28309 0.15472-0.93787 0.56729 0.20061-0.80884
  -4  -1   610946.36 2272.80   1 0.55225-0.93748-0.39953 0.32540 0.73169-0.12344
   5  -4   616149.86 3817.88   1 0.99769-0.74087 0.05658-0.35313 0.03735 0.57131
   4   1  -7 3306.10 1356.84   1-0.43558 0.82096-0.49529 0.56946-0.75162 0.04164
  -5   4  -7 2133.90 1736.07   1-0.44760 0.19069-0.67691 0.97357-0.58432-0.12566
   1  -5  -7 3510.20 1799.64   1-0.32262 0.19424-0.94248 0.57190 0.08738-0.79698
  -4  -1   7 3500.23 1864.86   1 0.56147-0.94670-0.39578 0.32165 0.72670-0.01707
   5  -4   7 2727.12 2079.50   1 0.99392-0.73710 0.01276-0.30931 0.10928 0.60083
  -5   4  -8 3976.12 3263.75   1-0.44764 0.19073-0.66215 0.95881-0.60096-0.21044
   1  -5  -8 2993.15 2494.35   1-0.35490 0.22642-0.93475 0.56388-0.01692-0.79420
  -4  -1   8 6514.66 2505.33   1 0.55750-0.94273-0.39741 0.32327 0.72886 0.08213
   5  -4   8 5882.60 3437.44   1 0.98349-0.72667-0.02991-0.26664 0.17843 0.63312
  -2   5  -815335.76 6724.79   1-0.43670 0.47952-0.50418 0.87501-0.74504-0.06637
  -3  -2  -814511.80 7685.57   1-0.39193 0.04934-0.90592 0.75758-0.16025-0.65087
   2  -5   818349.46 3662.03   1 0.87232-0.91513-0.20066-0.17010 0.44584 0.36548
   3   2   818560.89 3444.68   1 0.99715-0.65472 0.04079 0.10748 0.06337 0.74818
  -2   5  -7 1219.22 1392.75   1-0.43692 0.47974-0.50593 0.87676-0.74372 0.03373
   5  -3  -7  714.42  790.86   1-0.43215 0.73192-0.81827 0.59575-0.37903-0.33070
  -3  -2  -7  417.31  841.04   1-0.37221 0.02962-0.92468 0.77633-0.08011-0.62962
   2  -5   7  617.18 1740.70   1 0.89278-0.93559-0.17932-0.19144 0.41325 0.29666
   3   2   7  521.56 1328.77   1 0.99297-0.65054 0.10802 0.04025-0.04828 0.75840
  -2   5  -6 -733.65 1910.99   1-0.43562 0.47844-0.49559 0.86642-0.75141 0.14285
   5  -3  -6 1105.22 1118.73   1-0.42282 0.72259-0.84915 0.62663-0.31647-0.29187
  -3  -2  -6 1504.63 1459.88   1-0.34824 0.00565-0.93738 0.78903 0.00597-0.61431
  -5   3   6  181.84  878.09   1 0.42293-0.72255-0.44471 0.66712 0.78952-0.18127
   2  -5   6  846.47 1626.03   1 0.90892-0.95174-0.16077-0.21000 0.38470 0.22379
   3   2   6 1302.26 1278.87   1 0.96886-0.62643 0.17985-0.03158-0.17016 0.77883
  -2   5  -5  525.78 1208.14   1-0.43199 0.47481-0.46897 0.83979-0.77035 0.26321
   5  -3  -5 1000.77  787.20   1-0.41071 0.71048-0.87716 0.65464-0.24878-0.25817
  -3  -2  -5  571.26  882.70   1-0.31845-0.02387-0.94264 0.79441 0.10004-0.60690
  -3  -2  -5 1217.81 1599.77   1-0.91717 0.57488-0.25771 0.10949 0.30394-0.81087
  -5   3   5 1302.96  806.65   1 0.36507-0.66469-0.46095 0.68336 0.80884-0.30197
   2  -5   5  468.42 1950.71   1 0.92072-0.96353-0.14601-0.22475 0.36187 0.14521
  -2   5  -4285557.518332.69   1-0.42449 0.46728-0.41939 0.78995-0.80244 0.39701
   5  -3  -4240986.111886.09   1-0.39429 0.69406-0.90301 0.68049-0.17059-0.23496
  -3  -2  -4316025.017499.35   1-0.28119-0.06112-0.93734 0.78910 0.20571-0.61120
  -3  -2  -4239178.511985.13   1-0.82788 0.48559-0.33768 0.18947 0.44785-0.85340
  -5   3   4247541.512002.21   1 0.26394-0.56347-0.48365 0.70599 0.83451-0.42902
   2  -5   4263292.815756.66   1 0.92767-0.97048-0.13674-0.23403 0.34745 0.05821
  -2   5  -3 2795.41 1578.32   1-0.40886 0.45165-0.33640 0.70696-0.84832 0.54425
   5  -3  -3 2691.53 1504.66   1-0.36846 0.66823-0.92729 0.70477-0.06595-0.23821
  -3  -2  -3 3773.09 1420.29   1-0.23257-0.10975-0.91583 0.76760 0.32733-0.63145
  -5   3   3 2320.98  538.90   1 0.09046-0.39007-0.51934 0.74174 0.84976-0.54558
  -3  -2  -3 2355.30 1295.52   1-0.68745 0.34516-0.41576 0.26755 0.59543-0.89959
  -5   3   3 3751.52 1653.26   1 0.10339-0.40291-0.50879 0.73113 0.85465-0.55054
   2  -5   3 2816.01 1157.82   1 0.92830-0.97111-0.13587-0.23489 0.34610-0.04185
  -2   5  -218569.60 4339.59   1-0.37848 0.42127-0.20667 0.57722-0.90223 0.69952
   5  -3  -214247.54  706.93   1-0.30613 0.60566-0.94216 0.71981 0.13641-0.33916
  -3  -2  -215023.89 1324.71   1-0.16651-0.17581-0.86668 0.71845 0.47024-0.67299
  -5   3   217193.78  722.46   1 0.29467-0.59439-0.06726 0.28974 0.95322-0.75016
  -3  -2  -217788.50 4636.60   1-0.48736 0.14483-0.48026 0.33194 0.72925-0.93211
  -5   3   215388.14 1519.12   1-0.11520-0.18432-0.52101 0.74336 0.84573-0.64299
   2  -5   214163.94 1940.47   1 0.91845-0.96126-0.14894-0.22182 0.36641-0.16357
  -2   5  -1 2112.52 1124.62   1-0.32342 0.36621-0.01981 0.39036-0.94604 0.84468
   5  -3  -1 2679.50  836.82   1-0.44765 0.74739-0.66869 0.44619-0.59367 0.49225
  -3  -2  -1 3168.07 1105.05   1-0.07400-0.26840-0.76817 0.61990 0.63595-0.73734
   5  -3  -1 2977.00  335.16   1-0.01114 0.31074-0.68376 0.46136 0.72961-0.83101
  -5   3   1 3559.89 1446.65   1-0.35782 0.05811-0.50413 0.72661 0.78600-0.68457
  -3  -2  -1 2977.29 1212.24   1-0.23826-0.10426-0.51653 0.36821 0.82244-0.92387
   2  -5   1 2986.47  958.63   1 0.88520-0.92801-0.18748-0.18328 0.42575-0.32433
  -5   3   0675890.4 9402.07   1-0.37453 0.07501-0.19164 0.41397-0.90719 0.90719
   5  -3   0670842.3 9203.51   1-0.41389 0.71365-0.87075 0.64823-0.26549 0.26549
  -3  -2   0696124.5 8946.70   1 0.05101-0.39342-0.58732 0.43906 0.80774-0.80773
   2  -5   0743763.137460.99   1 0.23741-0.28023-0.21528-0.15551 0.94725-0.94725
  -5   3   0801032.340602.04   1-0.57215 0.27244-0.45765 0.68013 0.68057-0.68057
  -3  -2   0697258.013682.66   1 0.02034-0.36266-0.51637 0.36814 0.85612-0.85612
   2  -5   0693835.1 8714.16   1 0.77957-0.82238-0.27787-0.09289 0.56129-0.56129
  -2   5   0687686.3 8882.94   1 0.99729-0.95449 0.07265 0.29803 0.01073-0.01073
  -5   3  -1 3189.00 1882.68   1-0.44388 0.14414-0.57501 0.79750-0.68726 0.58583
   2  -5  -1 3624.44  999.33   1 0.12469-0.16751-0.45727 0.08647 0.88053-0.98206
  -3  -2   1 2730.19  938.91   1 0.19367-0.53620-0.31589 0.16757 0.92881-0.82728
  -5   3  -1 3425.21 1781.15   1-0.73113 0.43163-0.39538 0.61770 0.55598-0.65736
  -3  -2   1 3841.86 1215.79   1 0.24144-0.58376-0.48803 0.33980 0.83876-0.73739
   2  -5  -1 3085.83  466.85   1 0.35110-0.39391-0.46454 0.09386 0.81296-0.91434
  -2   5   1 2789.25  513.89   1 0.99537-0.95257 0.09317 0.27751-0.02342 0.12486
  -5   3  -218214.71 1705.51   1-0.44700 0.14726-0.70201 0.92451-0.55439 0.35154
   2  -5  -219693.64 2146.25   1 0.00717-0.04997-0.65668 0.28601 0.75413-0.95692
  -3  -2   213683.59 1286.71   1 0.31006-0.65259-0.02353-0.12478 0.95042-0.74736
  -5   3  -217962.97 4234.26   1-0.83887 0.53937-0.32966 0.55198 0.43314-0.63591
  -3  -2   215800.95 1745.90   1 0.40332-0.74575-0.45047 0.30219 0.79649-0.59374
   3   2  -3 2668.60  996.61   1-0.37722 0.71952-0.20181 0.35003-0.90386 0.59979
  -5   3  -3 2972.45 1256.97   1-0.44373 0.14399-0.74915 0.97164-0.49181 0.18752
   2  -5  -3 2837.22 1292.74   1-0.09565 0.05285-0.79411 0.42344 0.60019-0.90437
  -5   3  -3 2971.78 1672.61   1-0.90925 0.60974-0.26660 0.48892 0.31966-0.62382
  -3  -2   3 3154.85 1472.78   1 0.51029-0.85271-0.41565 0.26738 0.75287-0.44875
   3   2  -4234508.112079.79   1-0.41001 0.75232-0.34200 0.49022-0.84552 0.44010
  -5   3  -4273717.516135.90   1-0.44183 0.14209-0.76539 0.98789-0.46792 0.06221
   2  -5  -4256246.814114.07   1-0.17846 0.13567-0.87704 0.50646 0.44603-0.85152
  -2   5   4329219.416894.94   1-0.04009 0.08288-0.51962 0.89019 0.85345-0.44796
  -3  -2   4259100.714871.78   1 0.57615-0.91857-0.38965 0.24138 0.71848-0.31298
   5  -3   4278956.416254.17   1 0.95408-0.65446 0.20682-0.42923-0.21666 0.62244
   3   2  -5 4288.36 2600.29   1-0.42488 0.76719-0.42173 0.56995-0.80100 0.29422
  -5   3  -5  718.35 1491.00   1-0.44168 0.14194-0.76653 0.98902-0.46620-0.04092
   2  -5  -5 1445.26 1314.35   1-0.24262 0.19983-0.92143 0.55085 0.30346-0.81032
  -3  -2   5  999.96 1540.25   1 0.61342-0.95585-0.37314 0.22486 0.69603-0.18916
   5  -3   5   95.88 1828.77   1 0.98086-0.68124 0.15168-0.37410-0.12202 0.62925
   3   2  -6  835.51 1075.04   1-0.43115 0.77370-0.46313 0.61146-0.77434 0.16578
  -5   3  -6  568.32 1711.44   1-0.44268 0.14294-0.75859 0.98109-0.47808-0.13047
   2  -5  -6 1444.98 1097.76   1-0.29253 0.24974-0.94012 0.56954 0.17486-0.78309
  -3  -2   6  435.13 1957.58   1 0.63082-0.97324-0.36494 0.21666 0.68475-0.07649
   5  -3   6 1709.99 1451.83   1 0.99442-0.69479 0.09971-0.32213-0.03436 0.64303
   3   2  -7  977.06 1332.81   1-0.43355 0.77611-0.48006 0.62839-0.76260 0.05261
  -5   3  -7 1687.17 1891.98   1-0.44422 0.14448-0.74421 0.96671-0.49881-0.21117
   2  -5  -7   95.77 1210.70   1-0.33209 0.28927-0.94140 0.57053 0.05890-0.76863
  -3  -2   7  335.31 1419.31   1 0.63376-0.97619-0.36351 0.21524 0.68278 0.02684
   5  -3   7  891.81  946.45   1 0.99759-0.69796 0.05019-0.27260 0.04789 0.66221
   3   2  -816171.58 6658.84   1-0.43359 0.77614-0.48031 0.62864-0.76242-0.04898
  -5   3  -816299.95 5790.16   1-0.44581 0.14607-0.72458 0.94707-0.52557-0.28583
   2  -5  -814969.35 5572.54   1-0.36329 0.32047-0.93049 0.55962-0.04685-0.76427
  -3  -2   819189.79 3373.35   1 0.62550-0.96792-0.36748 0.21920 0.68825 0.12274
   5  -3   816375.12 3729.86   1 0.99202-0.69240 0.00249-0.22491 0.12599 0.68556
  -3   5  -815855.48 8730.30   1-0.44089 0.39807-0.54152 0.91235-0.71579-0.09562
  -2  -3  -814291.79 5852.57   1-0.37721 0.07744-0.92076 0.69825-0.09947-0.71165
   3  -5   817982.47 3774.75   1 0.91500-0.87219-0.15331-0.21746 0.37317 0.43816
  -3   5  -7 2330.85 2270.00   1-0.44137 0.39855-0.54631 0.91714-0.71185 0.00186
  -2  -3  -7  409.34  902.03   1-0.35308 0.05332-0.93552 0.71301-0.01061-0.69912
  -5   2   7  431.49 1016.12   1 0.47173-0.81416-0.42919 0.57746 0.77023-0.06060
   3  -5   7 1237.12 2438.39   1 0.93523-0.89241-0.12608-0.24469 0.33082 0.37909
   2   3   7  686.95 1109.63   1 0.99724-0.69762 0.07352 0.14888 0.00928 0.70082
  -3   5  -6 2075.48 1643.04   1-0.44075 0.39793-0.54016 0.91099-0.71690 0.10834
   5  -2  -6 1351.16 1034.17   1-0.44317 0.78573-0.75430 0.60597-0.48437-0.12418
  -2  -3  -6  592.75  660.09   1-0.32332 0.02378-0.94244 0.72009 0.08523-0.69346
  -5   2   6  532.42  967.35   1 0.45102-0.79344-0.43599 0.58426 0.77877-0.17052
   3  -5   6  964.29 1655.83   1 0.95156-0.90875-0.10043-0.27034 0.29057 0.31792
   2   3   6 1116.23 1507.14   1 0.98146-0.68183 0.15005 0.07236-0.11925 0.72791
  -3   5  -5 1683.28 1101.88   1-0.43849 0.39567-0.51920 0.89003-0.73358 0.22645
   5  -2  -5  679.18  659.69   1-0.44155 0.78410-0.76750 0.61917-0.46472-0.04241
  -2  -3  -5  622.33 1403.11   1-0.28679-0.01274-0.93883 0.71648 0.19062-0.69748
  -2  -3  -5 2071.91 1787.17   1-0.93501 0.63550-0.23559 0.01327 0.26504-0.77197
  -5   2   5   -8.31  937.38   1 0.40489-0.74731-0.45002 0.59829 0.79595-0.28907
   3  -5   5  948.82 1946.55   1 0.96433-0.92151-0.07685-0.29391 0.25328 0.25379
  -3   5  -4283564.618094.48   1-0.43312 0.39030-0.47693 0.84776-0.76480 0.35910
   5  -2  -4234525.311756.20   1-0.44181 0.78437-0.76550 0.61717-0.46775 0.06204
  -2  -3  -4260779.514602.93   1-0.24067-0.05885-0.92039 0.69804 0.30814-0.71363
  -2  -3  -4237351.013170.40   1-0.84310 0.54360-0.32646 0.10414 0.42731-0.83285
  -5   2   4249489.212049.32   1 0.32405-0.66648-0.47115 0.61942 0.82036-0.41486
   3  -5   4284932.616938.23   1 0.97377-0.93097-0.05612-0.31456 0.22047 0.18530
  -3   5  -3 4176.29 2140.46   1-0.42162 0.37884-0.40280 0.77336-0.81238 0.50831
   5  -2  -3 2544.86  961.91   1-0.44617 0.78872-0.71896 0.57063-0.53293 0.22865
  -2  -3  -3 2287.96 1259.06   1-0.18116-0.11837-0.87929 0.65695 0.44046-0.74458
  -5   2   3 2894.72  455.33   1-0.03957-0.30283-0.72358 0.87185 0.68909-0.38491
  -2  -3  -3 2279.17 1142.26   1-0.68441 0.38491-0.41708 0.19475 0.59800-0.90216
  -5   2   3 3147.22 1294.83   1 0.19825-0.54057-0.49565 0.64388 0.84559-0.54147
   3  -5   3 4144.48 1844.13   1 0.98009-0.93728-0.03989-0.33079 0.19449 0.10984
  -3   5  -228439.63 8380.48   1-0.39666 0.35388-0.28072 0.65127-0.87398 0.67126
  -2  -3  -215346.86 1773.74   1-0.10300-0.19660-0.80253 0.58013 0.58765-0.79043
  -2  -3  -219740.01 4182.64   1-0.44535 0.14564-0.48931 0.26682 0.74981-0.95267
  -5   2   216975.70 1526.59   1 0.02015-0.36247-0.51638 0.66461 0.85611-0.65337
   3  -5   217312.74 2263.47   1 0.98310-0.94030-0.03110-0.33958 0.18035 0.02253
  -3   5  -1 2965.77 1284.99   1-0.34672 0.30393-0.09370 0.46425-0.93327 0.83191
  -2  -3  -1 3087.76 1098.82   1-0.00238-0.29722-0.67095 0.44855 0.74149-0.84288
  -5   2   1 3323.80 1787.02   1-0.19674-0.14557-0.51912 0.66735 0.83174-0.73037
  -2  -3  -1 3430.83 1345.84   1-0.14751-0.15201-0.52069 0.29835 0.84090-0.94227
   3  -5   1 4562.45 1224.15   1 0.98125-0.93844-0.03661-0.33407 0.18921-0.08776
  -5   2   0751426.337253.28   1-0.44177 0.09921-0.55051 0.69884-0.70835 0.70835
   5  -2   0691178.1 6929.59   1-0.17538 0.51770-0.87442 0.72619 0.45235-0.45235
   3  -5   0715367.110507.50   1-0.88611 0.92890-0.29005-0.08047 0.36147-0.36147
  -5   2   0723137.137760.20   1-0.41754 0.07501-0.49459 0.64291 0.76225-0.76225
   3  -5   0781149.339051.71   1 0.96451-0.92170-0.07648-0.29428 0.25269-0.25269
  -5   2  -1 2259.77 1179.79   1-0.43727 0.09472-0.79410 0.94243-0.42212 0.32070
   5  -2   1 2621.80  559.53   1-0.26097 0.60330-0.93015 0.78192 0.25825-0.15688
   3  -5  -1 2859.95 1017.51   1 0.13874-0.09593-0.43002 0.05922 0.89209-0.99362
  -2  -3   1 3397.93 1013.54   1 0.23504-0.53476-0.22097-0.00150 0.94653-0.84499
  -5   2  -1 3314.19 1367.66   1-0.60655 0.26402-0.44662 0.59494 0.65774-0.75916
   3  -5  -1 3008.35  985.63   1-0.58692 0.62974-0.45306 0.08226 0.67100-0.77243
  -2  -3   1 3441.39 1216.13   1 0.36604-0.66566-0.46070 0.23829 0.80855-0.70717
   3  -5  -1 4813.52  475.46   1 0.81758-0.77477-0.24929-0.12148 0.51903-0.62045
   2   3  -216231.40 1830.61   1-0.32378 0.62330-0.02091 0.24324-0.94589 0.74318
  -5   2  -217854.06 1785.37   1-0.42631 0.08372-0.83886 0.98720-0.33847 0.13569
   3  -5  -220739.55 1866.46   1 0.00796 0.03483-0.65549 0.28482 0.75515-0.95794
  -5   2  -218898.23 6852.14   1-0.74925 0.40696-0.38603 0.53425 0.53814-0.74091
  -2  -3   215663.76 1966.83   1 0.51452-0.81414-0.41410 0.19169 0.75085-0.54810
   2   3  -3 2148.06 1178.52   1-0.37798 0.67750-0.20475 0.42709-0.90288 0.59881
  -5   2  -3 3518.58 1957.71   1-0.42313 0.08053-0.84830 0.99665-0.31833 0.01416
   3  -5  -3 2262.87  910.07   1-0.10473 0.14753-0.80449 0.43382 0.58465-0.88883
  -5   2  -3 3200.66 1414.00   1-0.84942 0.50713-0.32158 0.46979 0.41840-0.72256
  -2  -3   3 3330.49 1252.68   1 0.60500-0.90462-0.37699 0.15458 0.70131-0.39718
   2   3  -4245505.312694.37   1-0.40666 0.70618-0.32590 0.54823-0.85346 0.44804
  -5   2  -4278075.316319.15   1-0.42425 0.08166-0.84507 0.99342-0.32533-0.08022
   3  -5  -4253875.612043.14   1-0.19229 0.23508-0.88825 0.51767 0.41715-0.82264
  -5   2  -4282164.916410.15   1-0.91666 0.57437-0.25829 0.40651 0.30497-0.71052
  -3   5   4196742.7 8434.19   1-0.24877 0.20598-0.51601 0.88658 0.81965-0.41417
  -2  -3   4260688.415002.29   1 0.65691-0.95653-0.35199 0.12958 0.66675-0.26125
   2   3  -5 1144.58 1010.29   1-0.42096 0.72048-0.39909 0.62142-0.81456 0.30777
  -5   2  -5 2104.68 1314.80   1-0.42751 0.08492-0.83501 0.98336-0.34637-0.16057
   3  -5  -5 1618.54 1981.13   1-0.25767 0.30046-0.92873 0.55815 0.26656-0.77342
  -2  -3   5 1877.53 1692.45   1 0.68380-0.98342-0.33778 0.11537 0.64677-0.13989
   5  -2   5 1778.42 1822.43   1 0.95988-0.61745 0.19694-0.34522-0.19957 0.70680
   2   3  -6  271.55  967.12   1-0.42778 0.72729-0.43950 0.66183-0.78983 0.18169
  -5   2  -6 1377.38 1616.47   1-0.43169 0.08910-0.82010 0.96844-0.37560-0.23274
   3  -5  -6 2292.23 1880.52   1-0.30697 0.34976-0.94224 0.57165 0.13397-0.74220
  -2  -3   6 1092.51 1699.81   1 0.69386-0.99347-0.33222 0.10981 0.63889-0.03064
   5  -2   6 -215.14 1840.71   1 0.98500-0.64257 0.13955-0.28783-0.10143 0.71010
   2   3  -7  691.57  997.73   1-0.43031 0.73005-0.45748 0.67998-0.77816 0.06817
  -5   2  -7 1342.94 1111.29   1-0.43590 0.09334-0.80108 0.94942-0.41017-0.29981
   3  -5  -7  250.69  745.50   1-0.34512 0.38795-0.93841 0.56754 0.01647-0.72621
  -2  -3   7 1088.81 1541.48   1 0.69179-0.99141-0.33337 0.11096 0.64052 0.06909
   5  -2   7  716.43 1653.37   1 0.99634-0.65391 0.08490-0.23317-0.00962 0.71974
   2   3  -816106.12 8096.59   1-0.43063 0.73037-0.45966 0.68216-0.77669-0.03471
  -5   2  -818525.56 7051.35   1-0.44000 0.09744-0.77821 0.92654-0.44808-0.36333
   3  -5  -812835.72 5018.94   1-0.37460 0.41742-0.92287 0.55200-0.08929-0.72183
  -2  -3   821775.26 4123.61   1 0.68025-0.97987-0.33971 0.11730 0.64949 0.16150
   5  -2   814698.82 2963.04   1 0.99649-0.65406 0.03247-0.18075 0.07703 0.73452
  -4   5  -8 3697.53 2096.25   1-0.44353 0.31507-0.57058 0.94141-0.69116-0.12025
  -1  -4  -8 3527.17 1942.09   1-0.36282 0.10587-0.93076 0.63407-0.04513-0.76599
  -5   1   8 4133.13 1804.12   1 0.47922-0.86444-0.42665 0.50079 0.76701 0.04398
   4  -5   8 2273.75 2005.71   1 0.94739-0.81895-0.10737-0.26339 0.30150 0.50983
  -4   5  -7 4206.13 2211.27   1-0.44409 0.31563-0.57771 0.94854-0.68485-0.02513
  -1  -4  -7 1524.53 1695.71   1-0.33455 0.07760-0.94099 0.64429 0.05108-0.76082
  -5   1   7 1915.35 1769.98   1 0.47820-0.86343-0.42700 0.50114 0.76745-0.05782
   4  -5   7 4593.44 2830.99   1 0.96542-0.83698-0.07463-0.29614 0.24975 0.46016
  -4   5  -613036.09 4836.91   1-0.44387 0.31541-0.57484 0.94567-0.68740 0.07884
   5  -1  -6 9617.45 3801.14   1-0.44692 0.83230-0.62774 0.55357-0.63733 0.02877
  -1  -4  -612701.62 3395.64   1-0.29970 0.04295-0.94138 0.64492 0.15480-0.76303
  -5   1   611236.74 2047.32   1 0.46038-0.84560-0.43296 0.50709 0.77497-0.16672
   4  -5   616417.53 3744.11   1 0.97920-0.85079-0.04232-0.32836 0.19839 0.41027
   1   4   610941.92 1862.68   1 0.99402-0.73720 0.10214 0.19440-0.03842 0.64709
  -4   5  -513879.82 4624.92   1-0.44250 0.31404-0.55843 0.92926-0.70167 0.19453
   5  -1  -5 9516.33 3508.07   1-0.44612 0.83150-0.60956 0.53540-0.65528 0.14815
  -1  -4  -513877.08 2665.98   1-0.25705 0.00030-0.92846 0.63199 0.26811-0.77497
  -5   1   511499.89 2017.14   1 0.42090-0.80613-0.44532 0.51945 0.79026-0.28339
   4  -5   516035.82 3341.33   1 0.98904-0.86063-0.01057-0.36011 0.14720 0.36002
   1   4   513945.98 2028.32   1 0.96135-0.70452 0.19431 0.10223-0.19504 0.70227
  -4   5  -449822.9111650.31   1-0.43885 0.31039-0.52233 0.89316-0.73114 0.32543
   5  -1  -438289.50 2688.41   1-0.44134 0.82672-0.54604 0.47188-0.71207 0.30636
  -1  -4  -445014.63 3503.73   1-0.20379-0.05295-0.89693 0.60046 0.39240-0.79789
  -1  -4  -446465.76 3462.45   1-0.87423 0.61751-0.30092 0.00449 0.38099-0.78654
  -5   1   447344.51 3470.11   1 0.35276-0.73798-0.46413 0.53826 0.81249-0.40698
   4  -5   448367.10 4262.32   1 0.99512-0.86671 0.02061-0.39131 0.09644 0.30932
   5  -1  -333997.80 4577.06   1-0.41183 0.79693-0.35097 0.27686-0.84095 0.53688
  -4   5  -331714.32 3113.67   1-0.43007 0.30161-0.45587 0.82670-0.77923 0.47495
  -5   1   330801.12 1860.86   1-0.22736-0.15775-0.91273 0.98684 0.33945-0.03533
  -1  -4  -330938.28 2645.72   1-0.13673-0.12000-0.83832 0.54186 0.52773-0.83185
  -1  -4  -331391.30 5821.76   1-0.69910 0.44239-0.41060 0.11417 0.58536-0.88952
  -5   1   331273.00 3145.88   1 0.24797-0.63308-0.48679 0.56091 0.83757-0.53346
   4  -5   332676.57 3101.87   1 0.99761-0.86920 0.05112-0.42181 0.04635 0.25797
  -4   5  -256699.07 3017.44   1-0.40995 0.28159-0.34168 0.71224-0.84568 0.64297
  -5   1   255419.90  721.48   1-0.13526-0.24994-0.83719 0.91132 0.52991-0.32713
  -1  -4  -259933.48 2867.41   1-0.05265-0.20415-0.74100 0.44447 0.66943-0.87222
  -1  -4  -257202.23 2356.39   1-0.41141 0.15451-0.49568 0.19903 0.76487-0.96773
  -5   1   273218.55 3415.67   1 0.09899-0.48410-0.50928 0.58339 0.85488-0.65214
   4  -5   259901.52 3322.00   1 0.99673-0.86832 0.08071-0.45140-0.00265 0.20554
  -4   5  -177277.91 3570.06   1-0.36484 0.23648-0.15608 0.52663-0.91789 0.81653
  -1  -4  -176501.42 2859.29   1 0.04763-0.30443-0.59291 0.29637 0.80385-0.90525
  -5   1   173739.42 3044.56   1-0.08981-0.29528-0.52088 0.59499 0.84889-0.74752
   4  -5   172310.68 3235.23   1 0.99281-0.86440 0.10885-0.47954-0.04968 0.15112
  -5   1   0125025.4 2291.60   1-0.37706-0.00834-0.92088 0.99506-0.09892 0.09892
   5  -1   0135603.0 2174.24   1 0.10452 0.28082-0.49512 0.42096 0.86251-0.86251
  -1  -4   0132380.1 3708.66   1 0.15629-0.41319-0.39491 0.09827 0.90532-0.90532
   4  -5   0125833.1 3197.16   1-0.64738 0.77583-0.43190 0.06110 0.62797-0.62797
  -5   1   0114980.6 3890.95   1-0.29822-0.08712-0.51138 0.58555 0.80594-0.80594
  -1  -4   0122088.5 3655.13   1 0.25988-0.51662-0.48446 0.18800 0.83531-0.83531
   4  -5   0136708.3 3708.18   1 0.98664-0.85822 0.13419-0.50488-0.09236 0.09236
  -5   1  -172283.22 2306.38   1-0.37120-0.01420-0.92541 0.99958-0.07628-0.02510
   5  -1   171291.25 1881.39   1-0.09734 0.48255-0.79606 0.72193 0.59732-0.49593
   4  -5  -172453.29 2559.15   1 0.14539-0.01694-0.41686 0.04606 0.89726-0.99879
  -5   1  -178007.53 3766.08   1-0.49596 0.11061-0.47824 0.55240 0.72477-0.82620
   4  -5  -172070.16 1792.19   1-0.20288 0.33125-0.51883 0.14826 0.83044-0.93181
  -1  -4   177187.46 3182.27   1 0.47703-0.73385-0.42740 0.13085 0.76795-0.66658
   4  -5  -166536.79 1947.32   1 0.98085-0.85244 0.15172-0.52241-0.12209 0.02064
   1   4  -260679.06 3288.08   1-0.32775 0.58448-0.03309 0.32954-0.94418 0.74146
  -5   1  -256616.57 2472.49   1-0.37747-0.00794-0.92055 0.99472-0.10050-0.10227
   4  -5  -264207.11 2744.36   1-0.00161 0.13002-0.66982 0.29916 0.74251-0.94530
  -5   1  -257843.44 4426.13   1-0.66051 0.27516-0.42677 0.50093 0.61772-0.82057
  -1  -4   260023.78 3035.72   1 0.60715-0.86397-0.37602 0.07947 0.69997-0.49722
   4  -5  -259955.91  899.24   1 0.89630-0.76786-0.17542-0.19535 0.40726-0.61009
   4  -5  -258557.62  986.39   1 0.99388-0.86547 0.10298-0.47367-0.03983-0.16305
   1   4  -333896.41 3669.73   1-0.37439 0.63112-0.19112 0.48756-0.90735 0.60328
  -5   1  -332898.58 5026.96   1-0.38665 0.00123-0.91188 0.98605-0.13774-0.16642
   4  -5  -330744.32 2327.64   1-0.12473 0.25314-0.82630 0.45564 0.54922-0.85341
  -5   1  -335280.47 3720.44   1-0.78505 0.39997-0.36576 0.43987 0.49991-0.80407
  -1  -4   332237.67 3452.56   1 0.68083-0.93764-0.33940 0.04285 0.64905-0.34493
   1   4  -456400.7013680.99   1-0.40101 0.65774-0.29989 0.59633-0.86559 0.46016
  -5   1  -446885.10 4505.91   1-0.39651 0.01110-0.90010 0.97428-0.18050-0.22506
   4  -5  -443339.50 3030.16   1-0.21546 0.34384-0.90509 0.53451 0.36656-0.77205
  -5   1  -448231.37 7318.52   1-0.87358 0.48851-0.30149 0.37560 0.38203-0.78757
  -1  -4   447703.91 4666.17   1 0.72035-0.97716-0.31688 0.02033 0.61699-0.21149
   1   4  -511519.94 4590.36   1-0.41539 0.67211-0.36903 0.66548-0.83142 0.32463
  -5   1  -512114.84 5226.52   1-0.40621 0.02080-0.88535 0.95953-0.22611-0.28083
   4  -5  -516979.11 3367.62   1-0.27997 0.40834-0.93698 0.56640 0.20899-0.71585
  -5   1  -511891.68 2543.07   1-0.93329 0.54822-0.23787 0.31197 0.26903-0.77596
  -1  -4   512570.13 2573.52   1 0.73865-0.99553-0.30517 0.00854 0.60104-0.09395
   1   4  -614179.43 4142.26   1-0.42277 0.67950-0.40933 0.70578-0.80852 0.20037
  -5   1  -613542.45 6628.08   1-0.41535 0.02994-0.86759 0.94176-0.27341-0.33492
   4  -5  -612273.91 2003.86   1-0.32715 0.45563-0.94203 0.57116 0.07441-0.68276
  -1  -4   615360.72 3507.67   1 0.74303-0.99991-0.30239 0.00577 0.59703 0.01146
   5  -1   615151.06 2674.39   1 0.97101-0.58577 0.17535-0.24949-0.16244 0.77111
   1   4  -7 3635.72 2749.60   1-0.42608 0.68280-0.42894 0.72539-0.79652 0.08702
  -5   1  -7 4402.01 2399.63   1-0.42369 0.03827-0.84671 0.92089-0.32179-0.38793
   4  -5  -7 1449.10 1449.49   1-0.36205 0.49052-0.93119 0.56033-0.04234-0.66739
  -1  -4   7 3906.67 2595.04   1 0.73726-0.99414-0.30604 0.00942 0.60230 0.10761
   5  -1   7 1358.87 1802.66   1 0.99126-0.60603 0.11630-0.19044-0.06219 0.77230
   1   4  -8 5480.50 2770.72   1-0.42678 0.68351-0.43329 0.72973-0.79379-0.01706
  -5   1  -8 3210.42 1656.76   1-0.43105 0.04563-0.82256 0.89673-0.37092-0.44020
   4  -5  -8 3960.69 1868.85   1-0.38864 0.51711-0.90972 0.53886-0.14613-0.66499
  -1  -4   8 2472.56 2185.06   1 0.72347-0.98028-0.31500 0.01845 0.61429 0.19670
   5  -1   8 4257.49 2225.75   1 0.99769-0.61246 0.05955-0.13368 0.03244 0.77911
  -5   5  -8 2042.68 1462.44   1-0.44510 0.23100-0.59205 0.96288-0.67182-0.13958
   0  -5  -8 1079.10 1215.17   1-0.34940 0.13528-0.93696 0.56610 0.00202-0.81315
  -5   0   8  286.55 1280.18   1 0.47467-0.90270-0.42820 0.42820 0.76897 0.04202
   5  -5   8  370.81 1937.60   1 0.97028-0.75622-0.06426-0.30651 0.23325 0.57808
  -5   5  -7 6240.64 4665.05   1-0.44564 0.23155-0.60088 0.97171-0.66357-0.04641
   0  -5  -7 7182.51 2880.47   1-0.31711 0.10315-0.94265 0.57207 0.10408-0.81368
  -5   0   710213.87 3163.37   1 0.47347-0.90150-0.42860 0.42860 0.76948-0.05986
   5  -5   7 7553.90 2955.57   1 0.98449-0.77047-0.02677-0.34392 0.17337 0.53673
  -5   5  -628977.0510925.25   1-0.44562 0.23152-0.60041 0.97124-0.66401 0.05545
   0  -5  -636707.20 4884.78   1-0.27817 0.06422-0.93644 0.56586 0.21376-0.82199
  -5   0   630099.58 3587.88   1 0.45703-0.88506-0.43405 0.43405 0.77634-0.16809
   5  -5   630860.90 3810.47   1 0.99362-0.77961 0.01099-0.38168 0.11215 0.49651
   5   0  -524522.87 4309.99   1-0.42666 0.85454-0.43255 0.43255-0.79426 0.28747
  -5   5  -531374.15 8309.74   1-0.44479 0.23069-0.58741 0.95824-0.67609 0.16895
   0  -5  -532998.87 3208.90   1-0.23057 0.01661-0.91466 0.54408 0.33200-0.83886
  -5   0   527922.88 2711.89   1 0.42146-0.84949-0.44515 0.44515 0.79006-0.28318
   5  -5   531713.61 3630.39   1 0.99756-0.78354 0.04931-0.42000 0.04934 0.45787
   0   5   532763.18 2340.47   1 0.98973-0.77571 0.12280 0.24788-0.07314 0.58036
   5   0  -4 1399.64  647.17   1-0.40538 0.83327-0.31989 0.31989-0.85634 0.45091
  -5   5  -4 1330.40 1368.65   1-0.44228 0.22819-0.55607 0.92689-0.70368 0.29797
   0  -5  -4 2685.47 1593.40   1-0.17215-0.04180-0.87164 0.50106 0.45891-0.86440
   0  -5  -4 2038.97  898.19   1-0.92569 0.71176-0.24754-0.12299 0.28601-0.69156
  -5   0   4 2528.43 1594.21   1 0.36126-0.78929-0.46194 0.46194 0.80999-0.40449
   5  -5   4 1402.13 2305.77   1 0.99594-0.78192 0.08856-0.45925-0.01573 0.42151
   5   0  -386825.72 5060.74   1-0.34302 0.77090-0.08154 0.08154-0.93578 0.63170
  -5   5  -390401.90 6854.70   1-0.43565 0.22156-0.49586 0.86669-0.75120 0.44692
  -5   0   379501.43 4418.97   1-0.36815-0.06008-0.92750 0.92750-0.06477 0.36894
   0  -5  -398366.21 6312.67   1-0.10049-0.11350-0.79967 0.42901 0.59195-0.89613
   0  -5  -389707.76 5429.19   1-0.74350 0.52957-0.38906 0.01852 0.54389-0.84805
  -5   0   384175.55 5641.13   1 0.27018-0.69808-0.48238 0.48238 0.83324-0.52913
   5  -5   3101146.8 6975.44   1 0.98802-0.77400 0.12931-0.50000-0.08412 0.38845
  -5   5  -2230020.5 6640.98   1-0.41903 0.20509-0.38841 0.75896-0.82069 0.61798
  -5   0   2231789.8 3863.90   1-0.42814-0.00009-0.83293 0.83293-0.35059 0.55337
  -5   0   2206674.6 3074.86   1 0.17227-0.60044-0.36185 0.36185 0.91617-0.71311
   0  -5  -2203791.4 4722.08   1-0.39236 0.17828-0.49890 0.12810 0.77274-0.97560
  -5   0   2220056.2 6404.11   1 0.14168-0.56958-0.50406 0.50406 0.85196-0.64921
   5  -5   2233809.7 6693.43   1 0.97232-0.75831 0.17249-0.54318-0.15754 0.36043
  -5   5  -1144799.5 5186.50   1-0.37786 0.16391-0.20426 0.57482-0.90304 0.80169
  -5   0   1166369.2 3172.21   1-0.41979-0.00808-0.39256 0.39256-0.81833 0.91968
  -5   0   1159257.8 2521.91   1-0.07619-0.35181-0.77087 0.77087 0.63241-0.53102
   0  -5  -1144223.2 4171.88   1 0.08045-0.29445-0.53711 0.16644 0.83966-0.94105
  -5   0   1182520.9 5725.84   1-0.02352-0.40437-0.51892 0.51892 0.85449-0.75312
   0  -5  -1153252.4 3753.95   1 0.03489-0.24884-0.51530 0.14473 0.85629-0.95766
  -5   0   0 3446.57  637.55   1-0.21395-0.21395-0.90407 0.90407 0.36995-0.36995
   0  -5   0 4107.64 1229.76   1 0.17792-0.39200-0.34992-0.02087 0.91972-0.91972
   5   0   0 3582.88  642.64   1 0.21408 0.21408-0.27012 0.27012 0.93872-0.93872
   5  -5   0 3627.88  832.92   1 0.29019-0.07610-0.07965-0.29114 0.95364-0.95364
  -5   5   0 6609.38 2449.09   1-0.90235 0.68842-0.27395 0.64448 0.33272-0.33272
  -5   0   0 3298.12 1662.28   1-0.21394-0.21394-0.51826 0.51826 0.82802-0.82802
   0  -5   0 4007.30  961.76   1 0.36871-0.58273-0.46000 0.08931 0.80774-0.80774
  -5   0  -1179343.8 3913.36   1-0.27720-0.15070-0.93614 0.93614 0.21632-0.31769
   5  -5  -1154815.5 3632.61   1 0.14170 0.07237-0.42419 0.05339 0.89441-0.99594
   0  -5   1173486.5 5357.38   1 0.26289-0.47697-0.15199-0.21880 0.95277-0.85124
  -5   5   1158567.0 3735.58   1-0.82579 0.61186-0.33916 0.70970 0.45057-0.34919
  -5   0  -1157291.7 4689.41   1-0.40766-0.02050-0.49633 0.49633 0.76646-0.86788
   5  -5  -1173924.3 4070.54   1-0.04413 0.25808-0.51977 0.14920 0.85315-0.95453
   0  -5   1160515.9 4421.82   1 0.56967-0.78368-0.39238 0.02170 0.72215-0.62077
   0   5  -2215633.5 6451.66   1-0.32563 0.53957-0.02654 0.39710-0.94512 0.74240
  -5   0  -2205510.9 4640.76   1-0.31470-0.11320-0.94264 0.94264 0.11127-0.31401
   5  -5  -2224961.0 4563.93   1-0.02628 0.24029-0.70531 0.33465 0.70840-0.91119
  -5   5   2211121.7 4199.18   1-0.67922 0.46514-0.41908 0.78988 0.60251-0.39965
  -5   0  -2210036.1 6878.26   1-0.58167 0.15351-0.45472 0.45472 0.67444-0.87730
   5  -5  -2190510.6 3122.91   1 0.51898-0.30497-0.41244 0.04175 0.74869-0.95144
   0  -5   2216903.0 5972.53   1 0.68002-0.89404-0.33983-0.03084 0.64967-0.44692
   0   5  -388492.60 6504.07   1-0.36776 0.58170-0.16660 0.53715-0.91487 0.61080
  -5   0  -385702.02 5279.54   1-0.34177-0.08646-0.93937 0.93937 0.02763-0.33180
   5  -5  -381323.46 4774.76   1-0.15997 0.37392-0.86075 0.49017 0.48322-0.78734
  -5   0  -386102.10 7395.60   1-0.72285 0.29499-0.39947 0.39947 0.56382-0.86798
  -5   5   389351.23 4837.96   1-0.41768 0.20359-0.49456 0.86536 0.76219-0.45791
   0  -5   391374.50 6298.29   1 0.73860-0.95267-0.30520-0.06557 0.60109-0.29684
   5  -5  -378776.82 4281.34   1 0.91131-0.69725-0.15787-0.21290 0.38022-0.68447
   0   5  -4 3658.26 2446.79   1-0.39339 0.60733-0.26668 0.63724-0.87984 0.47441
  -5   0  -4 2007.59 1406.93   1-0.36295-0.06528-0.93068 0.93068-0.04562-0.35993
   5  -5  -4 1141.89  841.52   1-0.25020 0.46415-0.92527 0.55469 0.28507-0.69055
  -5   0  -4 2240.77 1397.46   1-0.82910 0.40124-0.33681 0.33681 0.44625-0.85179
  -5   5   4 1522.39  728.18   1-0.11051-0.10343-0.52101 0.89158 0.84636-0.44087
   0  -5   4 1356.97 1523.00   1 0.76818-0.98224-0.28580-0.08497 0.57290-0.16723
   0   5  -533496.24 9067.22   1-0.40818 0.62213-0.33314 0.70370-0.84993 0.34315
  -5   0  -528407.19 8375.49   1-0.38057-0.04765-0.91783 0.91783-0.11286-0.39409
   5  -5  -527726.89 2398.89   1-0.31039 0.52435-0.94248 0.57190 0.12399-0.63085
  -5   0  -534565.0811761.68   1-0.90425 0.47639-0.27195 0.27195 0.32917-0.83611
   0  -5   534401.41 3708.77   1 0.78012-0.99419-0.27748-0.09329 0.56072-0.05363
   0   5  -631670.82 8438.96   1-0.41630 0.63024-0.37381 0.74437-0.82882 0.22068
  -5   0  -624553.6611758.18   1-0.39560-0.03263-0.90131 0.90131-0.17641-0.43192
   5  -5  -629315.53 2561.09   1-0.35247 0.56659-0.93578 0.56491-0.00847-0.59986
   0  -5   630766.61 4112.10   1 0.78039-0.99446-0.27729-0.09348 0.56044 0.04806
   5   0   637413.32 4537.89   1 0.95424-0.52620 0.20656-0.20656-0.21621 0.82488
   0   5  -7 6652.95 4615.47   1-0.42025 0.63419-0.39512 0.76568-0.81686 0.10735
  -5   0  -7 7316.33 2710.25   1-0.40851-0.01972-0.88129 0.88129-0.23757-0.47216
   5  -5  -7 4859.44 2575.52   1-0.38254 0.59666-0.91600 0.54513-0.12082-0.58890
   0  -5   7 8009.12 2658.82   1 0.77206-0.98613-0.28312-0.08764 0.56899 0.14092
   5   0   7 9553.68 2848.92   1 0.98358-0.55555 0.14390-0.14390-0.10882 0.81893
   0   5  -8 1367.14 1335.84   1-0.42142 0.63536-0.40165 0.77220-0.81306 0.00220
  -5   0  -8 1650.98 1173.01   1-0.41956-0.00867-0.85772 0.85772-0.29709-0.51403
   0  -5   8  548.55 1338.28   1 0.75671-0.97078-0.29351-0.07725 0.58415 0.22718
   5   0   8  275.05 1722.46   1 0.99650-0.56846 0.08327-0.08327-0.00692 0.81848
  -1   6  -7 1417.96 1080.33   1-0.41299 0.58414-0.35675 0.80142-0.83795 0.12845
  -5  -1  -7  844.80 1033.04   1-0.39193-0.07912-0.90592 0.83175-0.16025-0.54947
   1  -6   7  801.42 1543.52   1 0.79785-0.96910-0.26456-0.18036 0.54169 0.16822
   5   1   7 1654.57 2273.64   1 0.97462-0.50378 0.16731-0.09317-0.14867 0.85878
  -1   6  -615812.92 6803.61   1-0.40830 0.57946-0.33372 0.77839-0.84965 0.24150
  -5  -1  -617242.12 5558.67   1-0.37442-0.09663-0.92301 0.84884-0.08860-0.51973
  -5  -1  -618583.91 3459.60   1-0.93625 0.46560-0.23392 0.15981 0.26212-0.87044
   1  -6   619990.11 3490.03   1 0.80781-0.97907-0.25698-0.18795 0.53046 0.07804
  -1   6  -5 8804.50 6627.68   1-0.39935 0.57050-0.29249 0.73715-0.86888 0.36210
  -5  -1  -5 5372.32 2483.87   1-0.35359-0.11747-0.93531 0.86114-0.01235-0.49459
   6  -5  -5 4385.75 1449.62   1-0.34978 0.64954-0.93683 0.56596 0.00075-0.50770
  -5  -1  -5 4823.64 2770.51   1-0.87536 0.40471-0.29991 0.22581 0.37918-0.88612
   1  -6   5 3681.44 1885.33   1 0.81033-0.98158-0.25502-0.18990 0.52756-0.02047
  -1   6  -4 4459.59 1822.00   1-0.38393 0.55508-0.22794 0.67261-0.89478 0.48935
  -5  -1  -4 1908.40  854.29   1-0.32839-0.14266-0.94190 0.86772 0.07056-0.47612
   6  -5  -4 2675.10 1309.58   1-0.29906 0.59859-0.94129 0.57071 0.15662-0.56211
  -5  -1  -4 4295.88 1816.30   1-0.78717 0.31653-0.36447 0.29036 0.49749-0.90304
  -6   5   4 3167.05 1451.32   1-0.16228-0.13723-0.52036 0.89093 0.83838-0.43289
   1  -6   4 2799.95 1592.46   1 0.80295-0.97420-0.26071-0.18421 0.53599-0.13033
  -1   6  -319963.31 7333.83   1-0.35869 0.52985-0.13436 0.57903-0.92373 0.61966
  -5  -1  -316146.07 1844.59   1-0.29672-0.17397-0.94091 0.86679 0.16320-0.46732
   6  -5  -314909.02 1522.35   1-0.21606 0.51559-0.90549 0.53491 0.36522-0.66934
  -5  -1  -314597.94 4246.38   1-0.66807 0.19709-0.42371 0.34955 0.61166-0.91594
  -6   5   316719.96 1513.90   1-0.35980 0.06009-0.50385 0.87466 0.78527-0.48099
   1  -6   314780.41 2300.25   1 0.78078-0.95204-0.27701-0.16791 0.56003-0.25578
  -5  -1  -2151516.8 8641.95   1-0.25569-0.21500-0.92785 0.85373 0.27150-0.47424
   6  -5  -2131434.7 7043.28   1-0.07512 0.37472-0.76954 0.39888 0.63415-0.83694
  -6   5   2140757.6 8347.07   1-0.55235 0.25264-0.46349 0.83429 0.69287-0.49001
  -5  -1  -2135672.5 8274.15   1-0.51765 0.04667-0.47288 0.39872 0.71302-0.91588
   1  -6   2137238.3 8656.76   1 0.73388-0.90513-0.30815-0.13677 0.60535-0.40252
  -5  -1  -124555.30 1888.93   1-0.19848-0.27222-0.89300 0.81888 0.40392-0.50529
   6  -5  -124774.37 1783.23   1 0.12210 0.17761-0.46223 0.09143 0.87831-0.97984
   1  -6   130901.31 3020.34   1 0.26330-0.43456-0.15095-0.29400 0.95282-0.85129
  -6   5   124438.71 2048.66   1-0.70452 0.40502-0.40813 0.77867 0.58057-0.47918
  -5  -1  -126354.87 4639.12   1-0.34296-0.12801-0.50615 0.43199 0.79131-0.89274
   1  -6   126056.35 2655.59   1 0.64181-0.81302-0.35958-0.08523 0.67732-0.57595
  -5  -1   0 5159.60  791.59   1-0.11310-0.35770-0.81379 0.73966 0.57003-0.57003
   1  -6   0 3836.32 1275.93   1 0.18818-0.35945-0.32787-0.11708 0.92578-0.92578
   6  -5   0 6206.86 1057.50   1 0.29412 0.00558-0.06878-0.30201 0.95328-0.95328
  -6   5   0 5003.31 2363.75   1-0.81107 0.51157-0.34927 0.71980 0.46922-0.46922
  -5  -1   0 4922.93 2560.85   1-0.15923-0.31145-0.52044 0.44632 0.83891-0.83891
   1  -6   0 5026.04 1090.69   1 0.46094-0.63215-0.43277-0.01204 0.77474-0.77474
  -6   5  -127036.34 6613.87   1-0.38586 0.08634-0.23567 0.60623-0.89194 0.79058
  -5  -1   127544.01 1886.93   1 0.01391-0.48472-0.64644 0.57231 0.76283-0.66144
   1  -6  -130900.20 3135.08   1 0.10036-0.27156-0.50142 0.05662 0.85935-0.96075
  -6   5  -128719.05 2971.43   1-0.88289 0.58339-0.29307 0.66360 0.36687-0.46826
  -5  -1   125741.49 2776.90   1 0.01363-0.48432-0.51682 0.44271 0.85598-0.75461
   1  -6  -126928.20 2155.44   1 0.11840-0.28956-0.50703 0.06234 0.85375-0.95512
  -6   5  -2142252.4 9098.50   1-0.42462 0.12510-0.42016 0.79072-0.80197 0.59925
   1  -6  -2143376.5 8556.94   1 0.01060-0.18180-0.65149 0.20669 0.75857-0.96136
  -5  -1   2121209.2 6464.15   1 0.16712-0.63810-0.37262 0.29846 0.91280-0.70974
  -6   5  -2147617.7 9039.84   1-0.93106 0.63156-0.24077 0.61130 0.27411-0.47689
   1  -6  -2118810.1 6453.25   1-0.40236 0.23109-0.49724 0.05228 0.76867-0.97152
  -5  -1   2126191.4 8160.78   1 0.16032-0.63101-0.50148 0.42737 0.85017-0.64743
  -1   6   2132408.2 6964.72   1 0.81703-0.64577-0.24973 0.69466 0.51969-0.31686
  -6   5  -316406.49 6760.70   1-0.43891 0.13918-0.52293 0.89376-0.73067 0.42639
   1  -6  -316824.02 2688.79   1-0.07312-0.09807-0.76708 0.32228 0.63736-0.94154
  -5  -1   317396.25 1506.36   1 0.28970-0.76068-0.08100 0.00684 0.95368-0.64908
   1  -6  -312150.82 2557.75   1-0.84417 0.67302-0.32565-0.11899 0.42582-0.72998
  -5  -1   315035.89 6235.93   1 0.27422-0.74491-0.48155 0.40743 0.83241-0.52829
   6  -5   316761.28 2597.19   1 0.96302-0.66339 0.19124-0.56194-0.18975 0.49409
   5   1  -4 3476.41  977.24   1-0.35871 0.82939-0.13443 0.20854-0.92371 0.51828
  -6   5  -4 3403.53 1270.50   1-0.44417 0.14443-0.57877 0.94960-0.68391 0.27820
   1  -6  -4 3737.95 1567.73   1-0.14655-0.02460-0.84806 0.40337 0.50921-0.91470
  -5  -1   4 2556.74 1456.17   1 0.35601-0.82684-0.46330 0.38916 0.81154-0.40604
   6  -5   4 5118.65 2131.20   1 0.98321-0.68359 0.14501-0.51570-0.11069 0.51647
   5   1  -5 4066.88 1745.49   1-0.39281 0.86348-0.26424 0.33835-0.88083 0.37405
  -6   5  -5 4496.90 2398.63   1-0.44598 0.14624-0.60686 0.97769-0.65788 0.15075
   1  -6  -5 4821.66 1427.85   1-0.20824 0.03707-0.90012 0.45542 0.38264-0.88950
  -5  -1   5 5956.42 1918.15   1 0.41105-0.88188-0.44823 0.37409 0.79380-0.28692
   6  -5   5 5286.27 2656.20   1 0.99425-0.69462 0.10076-0.47145-0.03611 0.54334
  -6   5  -616678.72 6224.06   1-0.44651 0.14677-0.61757 0.98840-0.64747 0.03891
   1  -6  -625215.08 4122.32   1-0.25953 0.08837-0.92954 0.48484 0.26189-0.87012
  -5  -1   619180.21 3139.60   1 0.44433-0.91516-0.43812 0.36398 0.78141-0.17316
   6  -5   622367.36 3393.32   1 0.99770-0.69807 0.05793-0.42862 0.03511 0.57355
  -6   5  -7  910.67 1537.38   1-0.44646 0.14672-0.61644 0.98727-0.64859-0.06139
   1  -6  -7  366.19 1396.95   1-0.30202 0.13085-0.94170 0.49701 0.14821-0.85782
  -5  -1   7 1238.67 1881.24   1 0.46026-0.93109-0.43300 0.35886 0.77502-0.06540
   6  -5   7 1496.85 2329.40   1 0.99446-0.69483 0.01610-0.38679 0.10382 0.60628
  -2   6  -7  700.94 1555.29   1-0.42301 0.50858-0.41072 0.85539-0.80769 0.09819
  -4  -2  -7 1897.14 1256.46   1-0.37258-0.05565-0.92440 0.77606-0.08153-0.62819
   2  -6   7  186.02 1626.30   1 0.85710-0.94272-0.21528-0.22964 0.46800 0.24191
   4   2   7  613.09 1936.57   1 0.98057-0.55254 0.15246-0.00419-0.12336 0.83347
  -2   6  -6 4701.69 2531.89   1-0.41973 0.50530-0.39223 0.83690-0.81852 0.21037
  -4  -2  -6 7144.27 2806.85   1-0.34955-0.07868-0.93691 0.78856 0.00154-0.60989
   2  -6   6 8179.83 3404.91   1 0.87100-0.95663-0.20197-0.24296 0.44782 0.16067
  -2   6  -5 1217.34 1392.28   1-0.41292 0.49849-0.35639 0.80106-0.83813 0.33135
   6  -4  -5   81.04  524.99   1-0.40192 0.74451-0.89232 0.59563-0.20543-0.30151
  -4  -2  -5 1703.39 1417.99   1-0.32136-0.10654-0.94255 0.79431 0.09122-0.59808
  -4  -2  -5 1336.50 1454.47   1-0.87917 0.45131-0.29649 0.14828 0.37302-0.87996
  -6   4   5  127.19  510.49   1 0.15001-0.49233-0.50293 0.79939 0.85120-0.34434
   2  -6   5   82.87 1773.59   1 0.87951-0.96514-0.19340-0.25152 0.43478 0.07229
  -2   6  -449059.9812230.00   1-0.40051 0.48609-0.29765 0.74231-0.86659 0.46116
   6  -4  -438114.00 2717.99   1-0.37784 0.72043-0.92023 0.62354-0.10197-0.30358
  -4  -2  -445714.66 3974.63   1-0.28689-0.14101-0.93886 0.79062 0.19034-0.59583
  -4  -2  -443453.41 9721.93   1-0.78175 0.35389-0.36774 0.21952 0.50360-0.90915
  -6   4   444889.31 3392.73   1 0.02782-0.37013-0.51583 0.81229 0.85623-0.45075
   2  -6   451890.29 5490.55   1 0.88137-0.96699-0.19149-0.25343 0.43187-0.02620
  -2   6  -3  781.77  987.22   1-0.37907 0.46465-0.20894 0.65361-0.90146 0.59739
   6  -4  -3  446.28  510.67   1-0.33442 0.67701-0.94101 0.64432 0.05149-0.35567
  -4  -2  -3 1441.58 1658.70   1-0.24316-0.18474-0.92171 0.77348 0.30217-0.60629
  -6   4   3  118.69  461.15   1 0.24977-0.59230-0.18506 0.48170 0.95045-0.64585
  -4  -2  -3 1335.00 1549.37   1-0.64537 0.21721-0.43267 0.28435 0.62950-0.93378
  -6   4   3  279.22  426.91   1-0.13718-0.20513-0.52086 0.81731 0.84254-0.53843
   2  -6   3 1168.13 1531.16   1 0.87364-0.95927-0.19935-0.24557 0.44384-0.13959
  -2   6  -231126.1210726.57   1-0.34362 0.42920-0.08351 0.52818-0.93538 0.73267
   6  -4  -234002.73 2203.29   1-0.39395 0.73626-0.26908-0.02735-0.87885 0.67614
   6  -4  -227521.83 1685.67   1-0.22462 0.56695-0.91103 0.61457 0.34576-0.54850
  -4  -2  -231670.07 3042.57   1-0.18583-0.24207-0.88312 0.73489 0.43076-0.63350
  -4  -2  -229059.58 8988.44   1-0.46979 0.04163-0.48420 0.33588 0.73812-0.94098
  -6   4   227593.88 2141.04   1-0.32810-0.01443-0.50802 0.80467 0.79640-0.59354
   2  -6   228029.56 3432.59   1 0.84946-0.93509-0.22226-0.22266 0.47854-0.27570
   6  -4  -1  302.09  362.08   1-0.44753 0.79008-0.68274 0.38608-0.57756 0.47613
  -4  -2  -1  477.95  571.28   1-0.10850-0.31950-0.80871 0.66044 0.57811-0.67950
   6  -4  -1  276.02  374.83   1 0.05853 0.28387-0.57479 0.27825 0.81620-0.91759
   2  -6   1  725.12 1215.28   1 0.28989-0.37552-0.08048-0.36447 0.95366-0.85213
  -6   4   1  348.74  555.20   1-0.51337 0.17083-0.47397 0.77061 0.71539-0.61397
  -4  -2  -1  964.92  923.99   1-0.26668-0.16148-0.51435 0.36603 0.81505-0.91648
   2  -6   1 1181.27 1339.61   1 0.79128-0.87691-0.26943-0.17549 0.54888-0.44746
  -6   4   0110144.1 2631.74   1-0.32750-0.01479-0.03231 0.32876-0.94429 0.94429
   6  -4   095325.91 3381.69   1-0.42642 0.76901-0.83853 0.54183-0.33915 0.33915
  -4  -2   0127653.3 3360.54   1-0.00561-0.42239-0.67570 0.52744 0.73714-0.73714
   2  -6   0114213.7 4086.65   1 0.21335-0.29899-0.27178-0.17318 0.93840-0.93840
  -6   4   0110258.8 6062.25   1-0.66703 0.32450-0.42414 0.72078 0.61250-0.61250
  -4  -2   0134049.4 4771.79   1-0.05939-0.36850-0.52026 0.37204 0.85193-0.85193
   2  -6   0111325.5 2989.61   1 0.64966-0.73526-0.35567-0.08914 0.67189-0.67189
  -6   4  -1  783.22  887.90   1-0.42138 0.07907-0.40143 0.69787-0.81319 0.71183
  -4  -2   1  160.96  732.74   1 0.11830-0.54646-0.46944 0.32112 0.87500-0.77346
   2  -6  -1  841.67 1133.61   1 0.12036-0.20599-0.46553 0.02057 0.87680-0.97833
  -6   4  -1  226.45  891.15   1-0.78197 0.43968-0.36761 0.66404 0.50336-0.60475
  -4  -2   1 1352.17 1577.68   1 0.12582-0.55372-0.50611 0.35789 0.85323-0.75186
   2  -6  -1  307.86  513.83   1 0.26534-0.35092-0.48337 0.03868 0.83423-0.93560
  -2   6   1  312.07  502.88   1 0.99655-0.91094 0.03309 0.41173 0.07601 0.02542
  -6   4  -230749.32 2702.62   1-0.44346 0.10090-0.56973 0.86639-0.69191 0.48906
   2  -6  -231087.81 3163.17   1 0.02217-0.10777-0.63367 0.18887 0.77328-0.97606
  -4  -2   231118.25 2433.68   1 0.23652-0.66468-0.21744 0.06912 0.94698-0.74391
  -6   4  -224038.44 3306.27   1-0.86360 0.52131-0.31008 0.60651 0.39753-0.60030
   2  -6  -225306.64 1410.08   1-0.69177 0.60613-0.41366-0.03129 0.59188-0.79474
  -4  -2   226872.41 4677.01   1 0.27366-0.70155-0.48166 0.33344 0.83252-0.62978
  -2   6   229570.00 1661.20   1 0.99314-0.90753 0.10712 0.33770-0.04678 0.24967
  -6   4  -3  532.13 1013.83   1-0.44747 0.10491-0.64737 0.94403-0.61698 0.31270
   2  -6  -3 -200.04 1251.72   1-0.06892-0.01668-0.76184 0.31704 0.64408-0.94826
  -6   4  -3  501.22 1588.62   1-0.91996 0.57768-0.25445 0.55088 0.29818-0.60234
  -4  -2   3  416.60 1404.19   1 0.38150-0.80952-0.45657 0.30830 0.80373-0.49961
   4   2  -439268.18 8486.93   1-0.37069 0.79858-0.17734 0.32556-0.91166 0.50623
  -6   4  -442272.4013496.97   1-0.44752 0.10497-0.68287 0.97954-0.57740 0.17169
   2  -6  -438990.64 3804.58   1-0.14776 0.06218-0.84923 0.40453 0.50691-0.91240
  -4  -2   438813.25 3790.53   1 0.45505-0.88308-0.43469 0.28642 0.77715-0.37164
   6  -4   447094.16 4655.92   1 0.95778-0.61535 0.20060-0.49716-0.20591 0.61169
   4   2  -5 1319.37 1651.31   1-0.39698 0.82487-0.28211 0.43033-0.87339 0.36660
  -6   4  -5  946.38 1064.89   1-0.44720 0.10464-0.69636 0.99303-0.56132 0.05418
   2  -6  -5  360.95 1244.02   1-0.21274 0.12716-0.90325 0.45855 0.37266-0.87952
  -4  -2   5  -59.87 1412.86   1 0.50163-0.92966-0.41880 0.27052 0.75694-0.25006
   6  -4   5  302.94 2154.37   1 0.98150-0.63907 0.14993-0.44649-0.11906 0.62628
   4   2  -6 4263.17 1890.47   1-0.41025 0.83813-0.34315 0.49137-0.84494 0.23680
  -6   4  -6 4806.97 2642.00   1-0.44719 0.10463-0.69670 0.99336-0.56091-0.04765
   2  -6  -6 5650.79 2545.96   1-0.26573 0.18015-0.93208 0.48739 0.24616-0.85439
  -4  -2   6 4847.75 1972.09   1 0.52769-0.95572-0.40915 0.26088 0.74439-0.13614
   6  -4   6 6624.84 2865.11   1 0.99416-0.65173 0.10131-0.39786-0.03704 0.64571
   4   2  -7   48.54  914.35   1-0.41639 0.84427-0.37428 0.52251-0.82856 0.11906
  -6   4  -7 -191.45 1767.65   1-0.44742 0.10486-0.68809 0.98476-0.57125-0.13873
   2  -6  -7  319.38 1722.22   1-0.30885 0.22326-0.94238 0.49769 0.12852-0.83812
  -4  -2   7  984.52 1443.92   1 0.53794-0.96597-0.40520 0.25693 0.73920-0.02957
   6  -4   7  388.08 1625.56   1 0.99767-0.65524 0.05430-0.35085 0.04111 0.66899
  -3   6  -7  314.65  937.77   1-0.42996 0.42996-0.45515 0.90014-0.77972 0.06973
  -3  -3  -7  655.53  843.86   1-0.35276-0.03265-0.93566 0.71314-0.00948-0.70025
   3  -6   7 1679.73 2438.54   1 0.90548-0.90548-0.16488-0.28004 0.39104 0.31887
   3   3   7  442.69 1758.39   1 0.98838-0.60315 0.12800 0.09441-0.08190 0.79201
  -3   6  -6 -280.57 1937.54   1-0.42799 0.42799-0.44083 0.88550-0.78897 0.18083
  -3  -3  -6  947.69  737.14   1-0.32404-0.06107-0.94239 0.72004 0.08300-0.69123
  -6   3   6  722.19  904.48   1 0.29395-0.67918-0.47797 0.70038 0.82772-0.21947
   3  -6   6  544.25 1735.57   1 0.92129-0.92129-0.14526-0.29966 0.36070 0.24780
   3   3   6  262.25 1250.45   1 0.95550-0.57027 0.20446 0.01794-0.21258 0.82125
  -3   6  -5  859.85 1333.29   1-0.42287 0.42287-0.40993 0.85460-0.80816 0.30137
  -3  -3  -5 1790.04 1902.31   1-0.28940-0.09571-0.93945 0.71710 0.18350-0.69036
  -3  -3  -5 1206.08  994.09   1-0.89080 0.50573-0.28556 0.06324 0.35343-0.86036
  -6   3   5  786.25 1126.73   1 0.23291-0.61802-0.48962 0.71196 0.84024-0.33339
   3  -6   5 -380.70 1651.28   1 0.93315-0.93315-0.12907-0.31586 0.33549 0.17159
  -3   6  -4105917.9 6676.22   1-0.41300 0.41300-0.35681 0.80148-0.83791 0.43249
   6  -3  -489681.99 4919.32   1-0.43817 0.82355-0.78920 0.56670-0.43029 0.02458
  -3  -3  -4121222.4 6901.28   1-0.24656-0.13855-0.92346 0.70111 0.29396-0.69945
  -3  -3  -4110491.5 7644.04   1-0.78534 0.40026-0.36559 0.14326 0.49958-0.90513
  -6   3   4118046.7 6523.70   1 0.13588-0.52099-0.50483 0.72717 0.85245-0.44696
   3  -6   4115839.6 7488.52   1 0.94084-0.94084-0.11771-0.32721 0.31772 0.08794
  -3   6  -3 2567.43 2355.24   1-0.39497 0.39497-0.27344 0.71811-0.87705 0.57297
   6  -3  -3  340.87  270.61   1-0.44371 0.82909-0.74929 0.52680-0.49159 0.18731
  -3  -3  -3 -446.59 1126.64   1-0.19264-0.19247-0.88853 0.66618 0.41640-0.72052
  -6   3   3  655.75  233.04   1 0.22216-0.60751-0.25144 0.47392 0.94202-0.63743
  -3  -3  -3  569.55  890.72   1-0.63006 0.24471-0.43837 0.21589 0.64096-0.94525
  -6   3   3  -82.44  699.30   1-0.00007-0.38503-0.51768 0.74002 0.85557-0.55145
   3  -6   3 1043.01 1615.03   1 0.94349-0.94349-0.11361-0.33131 0.31130-0.00705
  -3   6  -2 2108.46 1575.88   1-0.36331 0.36331-0.15060 0.59526-0.91941 0.71670
  -3  -3  -2  960.11  742.65   1-0.12376-0.26144-0.82528 0.60288 0.55098-0.75377
  -3  -3  -2 1190.50  849.53   1-0.42507 0.03972-0.49321 0.27073 0.75897-0.96183
  -6   3   2 2056.63  979.44   1-0.16975-0.21535-0.52015 0.74249 0.83703-0.63429
   3  -6   2 2043.93 1426.29   1 0.93847-0.93847-0.12129-0.32363 0.32334-0.12050
  -3  -3  -1  812.24  924.59   1-0.03689-0.34830-0.71996 0.49756 0.69303-0.79442
   3  -6   1  340.27 1142.16   1 0.31219-0.31219-0.01732-0.42763 0.94986-0.84832
  -6   3   1  691.95  620.54   1-0.35437-0.03097-0.50461 0.72709 0.78726-0.68583
  -3  -3  -1 -358.11 1008.19   1-0.18950-0.19559-0.51944 0.29709 0.83322-0.93459
   3  -6   1  681.99 1440.77   1 0.91755-0.91755-0.15009-0.29483 0.36819-0.26678
  -6   3   0333721.6 5441.09   1-0.38046-0.00463-0.21431 0.43664-0.89962 0.89962
   6  -3   0336418.5 4328.15   1-0.28503 0.67015-0.93838 0.71604 0.19539-0.19539
  -3  -3   0331237.9 6109.30   1 0.06687-0.45208-0.56063 0.33823 0.82535-0.82535
   3  -6   0369473.8 7444.15   1 0.23442-0.23442-0.22248-0.22248 0.94633-0.94633
  -6   3   0344260.8 7232.39   1-0.52831 0.14297-0.47011 0.69259 0.70701-0.70701
  -3  -3   0342102.510369.42   1 0.04051-0.42562-0.51486 0.29251 0.85631-0.85631
   3  -6   0330671.8 5715.80   1 0.84924-0.84924-0.22246-0.22246 0.47884-0.47884
  -6   3  -1  506.20  623.90   1-0.44587 0.06050-0.60492 0.82741-0.65974 0.55831
   3  -6  -1  701.12 1230.29   1 0.13520-0.13520-0.43697-0.00798 0.88925-0.99078
  -3  -3   1  495.93  781.04   1 0.17606-0.56140-0.35387 0.13139 0.91857-0.81704
   3  -6  -1   38.13  169.05   1-0.83191 0.83191-0.33478-0.10985 0.44253-0.54392
  -6   3  -1 -274.11 1072.73   1-0.67344 0.28809-0.42150 0.64398 0.60729-0.70871
  -3  -3   1  796.48  831.60   1 0.23366-0.61877-0.48948 0.26714 0.84012-0.73874
   3  -6  -1  493.34  436.21   1 0.54803-0.54803-0.40122-0.04359 0.73394-0.83531
  -6   3  -2 1231.92  723.85   1-0.44611 0.06073-0.71994 0.94244-0.53165 0.32880
   3  -6  -2 1649.35 1594.87   1 0.02803-0.02803-0.62447 0.17967 0.78053-0.98332
  -3  -3   2 1341.97  748.11   1 0.26969-0.65503-0.13445-0.08802 0.95351-0.75044
  -6   3  -2 1059.53 1218.05   1-0.78477 0.39970-0.36592 0.58825 0.50021-0.70299
  -3  -3   2  802.86 1255.54   1 0.37768-0.76291-0.45760 0.23519 0.80495-0.60220
   3   3  -3  948.65  982.65   1-0.33460 0.71969-0.05449 0.27682-0.94078 0.63670
  -6   3  -3   -3.24  965.86   1-0.44234 0.05697-0.76134 0.98384-0.47400 0.16972
   3  -6  -3  844.04 1209.69   1-0.07107 0.07107-0.76452 0.31972 0.64065-0.94483
  -6   3  -3  807.77  903.85   1-0.86593 0.48085-0.30812 0.53044 0.39398-0.69814
  -3  -3   3  -60.98 1389.14   1 0.47647-0.86170-0.42759 0.20518 0.76820-0.46407
   3   3  -498027.46 6997.59   1-0.37448 0.75957-0.19144 0.41377-0.90725 0.50182
  -6   3  -4123510.3 7610.23   1-0.44051 0.05513-0.77484 0.99733-0.45339 0.04768
   3  -6  -4103199.6 5836.37   1-0.15520 0.15520-0.85633 0.41163 0.49254-0.89803
  -6   3  -4122002.7 8264.01   1-0.92285 0.53777-0.25101 0.47333 0.29212-0.69767
  -3  -3   4110071.4 6828.92   1 0.54013-0.92536-0.40435 0.18194 0.73807-0.33257
   3   3  -5 1426.85 1167.41   1-0.39687 0.78196-0.28161 0.50395-0.87360 0.36681
  -6   3  -5 1002.90  916.37   1-0.44055 0.05517-0.77455 0.99705-0.45384-0.05329
   3  -6  -5  120.19 1133.05   1-0.22285 0.22285-0.90992 0.46522 0.34981-0.85667
  -3  -3   5  158.47 1677.87   1 0.57810-0.96332-0.38882 0.16641 0.71736-0.21048
   6  -3   5 -112.64 1938.31   1 0.96109-0.57585 0.19479-0.41720-0.19586 0.70308
   3   3  -6  794.89  914.16   1-0.40882 0.79391-0.33619 0.55853-0.84843 0.24028
  -6   3  -6 -679.62 1480.72   1-0.44177 0.05639-0.76585 0.98835-0.46722-0.14133
   3  -6  -6 1513.93 2041.43   1-0.27670 0.27670-0.93598 0.49128 0.21764-0.82587
  -3  -3   6  385.95 1650.11   1 0.59736-0.98258-0.38043 0.15802 0.70599-0.09774
   6  -3   6  555.68 2026.15   1 0.98442-0.59919 0.14137-0.36378-0.10451 0.71318
   3   3  -7 1203.70 1368.56   1-0.41462 0.79971-0.36508 0.58741-0.83354 0.12404
  -6   3  -7 1063.48 1157.37   1-0.44352 0.05815-0.75106 0.97355-0.48907-0.22091
   3  -6  -7  -64.46 1149.38   1-0.31960 0.31960-0.94261 0.49792 0.09657-0.80618
  -3  -3   7  115.79 1550.83   1 0.60255-0.98778-0.37810 0.15569 0.70282 0.00680
   6  -3   7 1655.36 2494.41   1 0.99580-0.61057 0.08975-0.31217-0.01772 0.72783
  -4   6  -7 2246.24 2187.08   1-0.43501 0.34937-0.49091 0.93590-0.75482 0.04483
  -2  -4  -7  314.90 1480.49   1-0.33338-0.00920-0.94119 0.64450 0.05480-0.76454
  -6   2   7  536.38 1084.10   1 0.35673-0.78476-0.46311 0.61139 0.81133-0.10170
   4  -6   7  709.22 1856.46   1 0.94251-0.85688-0.11514-0.32978 0.31370 0.39621
  -4   6  -6 7055.86 3498.67   1-0.43351 0.34787-0.47976 0.92476-0.76281 0.15425
  -2  -4  -6 6489.78 2141.58   1-0.29969-0.04263-0.94138 0.64492 0.15482-0.76305
  -6   2   6 4854.23 2067.75   1 0.32920-0.75723-0.46993 0.61820 0.81901-0.21076
   4  -6   6 7612.22 2620.02   1 0.95789-0.87226-0.08923-0.35569 0.27289 0.33560
   2   4   6 5599.29 1760.60   1 0.97213-0.62970 0.17291 0.12363-0.15826 0.76692
  -4   6  -5 -286.75 1611.23   1-0.42965 0.34401-0.45312 0.89811-0.78107 0.27394
  -2  -4  -5 1393.13 1735.16   1-0.25914-0.08318-0.92937 0.63291 0.26288-0.76974
  -2  -4  -5  291.89  759.04   1-0.91203 0.56975-0.26352-0.03290 0.31422-0.82115
  -6   2   5 1093.52 1193.86   1 0.27860-0.70649-0.48063 0.62886 0.83148-0.32463
   4  -6   5 -249.39 1816.05   1 0.96982-0.88419-0.06530-0.37963 0.23490 0.27217
  -4   6  -446949.8211771.40   1-0.42205 0.33647-0.40522 0.84989-0.81096 0.40553
   6  -2  -437291.24 2844.47   1-0.43946 0.86766-0.52791 0.37958-0.72675 0.32104
  -2  -4  -443152.50 3546.09   1-0.20946-0.13286-0.90098 0.60451 0.37994-0.78543
  -2  -4  -439279.21 8384.39   1-0.80152 0.45923-0.35551 0.05908 0.48080-0.88634
  -6   2   440999.22 5077.92   1 0.19788-0.62577-0.49571 0.64394 0.84564-0.44015
   4  -6   452136.60 5460.96   1 0.97859-0.89298-0.04399-0.40083 0.20106 0.20471
  -4   6  -3 -199.59 1619.15   1-0.40690 0.32132-0.32702 0.77169-0.85292 0.54885
  -2  -4  -3  645.03 1122.90   1-0.14825-0.19407-0.84970 0.55324 0.50597-0.81009
  -6   2   3  205.40  166.17   1 0.14372-0.57189-0.42018 0.56850 0.89598-0.59138
  -2  -4  -3  449.85  847.29   1-0.62599 0.28345-0.43984 0.14320 0.64394-0.94823
  -6   2   3 1048.27  892.06   1 0.08336-0.51126-0.51094 0.65917 0.85555-0.55144
   4  -6   3 2206.06 2552.22   1 0.98450-0.89889-0.02672-0.41810 0.17330 0.13103
  -4   6  -230783.27 9558.89   1-0.37865 0.29307-0.20730 0.65197-0.90202 0.69930
  -2  -4  -230075.83 3367.05   1-0.07302-0.26938-0.76695 0.47042 0.63753-0.84031
  -2  -4  -226145.59 6751.99   1-0.38597 0.04344-0.49993 0.20329 0.77529-0.97815
  -6   2   231563.90 3217.79   1-0.06448-0.36341-0.52040 0.66863 0.85148-0.64873
   4  -6   227723.87 2987.55   1 0.98767-0.90206-0.01582-0.42900 0.15570 0.04718
  -4   6  -1  875.24 1236.12   1-0.32878 0.24320-0.03626 0.48093-0.94370 0.84235
  -2  -4  -1  979.62 1193.82   1 0.01591-0.35832-0.64337 0.34684 0.76538-0.86678
  -6   2   1  -12.14  972.60   1-0.23580-0.19235-0.51670 0.66502 0.82305-0.72162
  -2  -4  -1  520.26  471.04   1-0.11382-0.22849-0.52101 0.22456 0.84592-0.94729
   4  -6   1 1058.14 1542.63   1 0.98751-0.90190-0.01643-0.42839 0.15669-0.05525
  -6   2   0109265.5 2217.10   1-0.44515 0.01695-0.59283 0.74116-0.67110 0.67110
   6  -2   0110837.7 1797.72   1 0.01784 0.41016-0.64039 0.49212 0.76783-0.76783
  -2  -4   0113922.8 3682.31   1 0.11393-0.45647-0.47764 0.18100 0.87113-0.87113
  -6   2   0114861.0 3916.06   1-0.41147-0.01668-0.49566 0.64399 0.76485-0.76485
  -2  -4   0116859.3 4166.08   1 0.13748-0.47980-0.50462 0.20816 0.85232-0.85232
   4  -6   0119326.7 3833.80   1 0.97925-0.89365-0.04219-0.40263 0.19817-0.19817
  -6   2  -1  621.33  768.24   1-0.43523 0.00699-0.80501 0.95336-0.40312 0.30173
   4  -6  -1  187.96  976.58   1 0.14428-0.05864-0.41908-0.02588 0.89641-0.99794
  -2  -4   1  363.61  963.62   1 0.20821-0.55074-0.28348-0.01315 0.93609-0.83456
  -6   2  -1 1119.70 1197.85   1-0.57166 0.14350-0.45780 0.60612 0.68088-0.78231
   4  -6  -1  457.32  252.50   1-0.41094 0.49657-0.49576 0.05080 0.76507-0.86650
  -2  -4   1 1763.81 1532.31   1 0.33356-0.67598-0.46888 0.17233 0.81785-0.71647
   4  -6  -1 3134.57  507.87   1 0.91832-0.83269-0.14910-0.29582 0.36666-0.46808
  -6   2  -228543.71 3994.33   1-0.42471-0.00352-0.84375 0.99210-0.32817 0.12539
   4  -6  -227469.89 2608.20   1 0.02657 0.05902-0.62678 0.18198 0.77874-0.98152
  -2  -4   235716.08 3352.14   1 0.28555-0.62808-0.09232-0.20432 0.95390-0.75084
  -6   2  -228902.53 8183.10   1-0.70430 0.27644-0.40823 0.55645 0.58076-0.78353
  -2  -4   232635.93 3235.96   1 0.46938-0.81180-0.42998 0.13343 0.77122-0.56847
   2   4  -3  689.39 1325.82   1-0.33913 0.68144-0.06894 0.36539-0.93820 0.63413
  -6   2  -3 1654.74 1398.18   1-0.42192-0.00631-0.85161 0.99995-0.31102 0.00685
   4  -6  -3  809.79 1681.87   1-0.08130 0.16690-0.77709 0.33229 0.62410-0.92829
  -6   2  -3   -3.14 1393.11   1-0.80687 0.37901-0.35204 0.50025 0.47435-0.77851
  -2  -4   3  133.13 1417.36   1 0.55714-0.89956-0.39755 0.10101 0.72906-0.42493
   2   4  -440765.3110668.74   1-0.37354 0.71584-0.18791 0.48435-0.90838 0.50295
  -6   2  -446295.71 3928.82   1-0.42327-0.00496-0.84790 0.99625-0.31921-0.08635
   4  -6  -445492.61 3915.19   1-0.17032 0.25590-0.87004 0.42535 0.46260-0.86809
  -6   2  -445198.49 8158.06   1-0.88226 0.45440-0.29365 0.44187 0.36792-0.77347
  -2  -4   444588.89 4476.50   1 0.61075-0.95317-0.37437 0.07782 0.69772-0.29222
   2   4  -5  994.79 1015.02   1-0.39388 0.73619-0.26879 0.56523-0.87897 0.37219
  -6   2  -5  938.10  935.83   1-0.42667-0.00156-0.83774 0.98609-0.34077-0.16617
   4  -6  -5 1348.66 1092.53   1-0.23956 0.32514-0.91978 0.47509 0.31079-0.81765
  -6   2  -5  444.55 1679.18   1-0.93513 0.50727-0.23542 0.38363 0.26474-0.77167
  -2  -4   5  601.31 1787.54   1 0.64076-0.98318-0.36009 0.06355 0.67804-0.17116
   2   4  -6 5628.01 2827.00   1-0.40530 0.74760-0.31949 0.61594-0.85653 0.24839
  -6   2  -6 5495.65 2179.46   1-0.43096 0.00272-0.82289 0.97124-0.37028-0.23806
   4  -6  -6 5499.06 1606.35   1-0.29303 0.37861-0.94022 0.49553 0.17349-0.78172
  -2  -4   6 4479.23 1714.30   1 0.65412-0.99654-0.35341 0.05687 0.66874-0.06049
   6  -2   6 6205.86 2630.79   1 0.97002-0.54198 0.17744-0.32572-0.16602 0.77469
   2   4  -7 1766.74 1318.10   1-0.41112 0.75343-0.34743 0.64387-0.84277 0.13327
  -6   2  -7  527.88 1027.66   1-0.43544 0.00721-0.80402 0.95237-0.40488-0.30485
   4  -6  -7  967.37 1114.55   1-0.33488 0.42052-0.94093 0.49589 0.05003-0.75976
  -2  -4   7  484.35 1791.32   1 0.65512-0.99754-0.35291 0.05636 0.66803 0.04159
   6  -2   7  876.77 1883.61   1 0.98994-0.56190 0.12195-0.27023-0.07170 0.78181
  -5   6  -7 2041.06 2176.96   1-0.43839 0.26712-0.51836 0.96335-0.73423 0.02424
  -1  -5  -7 2018.01 1771.99   1-0.31497 0.01544-0.94264 0.57206 0.11045-0.82006
  -6   1   7  163.19 1207.41   1 0.36888-0.83971-0.45995 0.53409 0.80768-0.09806
   5  -6   7 2406.64 2075.08   1 0.96868-0.79742-0.06779-0.37713 0.23887 0.47104
  -5   6  -619104.06 8107.83   1-0.43739 0.26611-0.50983 0.95483-0.74077 0.13221
  -1  -5  -621971.16 4433.21   1-0.27727-0.02226-0.93616 0.56557 0.21616-0.82439
  -6   1   616077.24 2686.36   1 0.34496-0.81580-0.46608 0.54022 0.81471-0.20646
   5  -6   624360.26 4017.21   1 0.98141-0.81019-0.03615-0.40867 0.18847 0.42019
  -5   6  -5 6689.58 3936.31   1-0.43444 0.26316-0.48658 0.93157-0.75795 0.25082
  -1  -5  -5 4512.97 2010.19   1-0.23188-0.06764-0.91543 0.54485 0.32893-0.83579
  -6   1   5 4149.84 1670.45   1 0.30035-0.77118-0.47657 0.55070 0.82623-0.31935
   5  -6   5 4887.74 1878.31   1 0.99032-0.81911-0.00528-0.43954 0.13863 0.36858
  -5   6  -4 3718.60 1982.41   1-0.42831 0.25716-0.44290 0.88756-0.78764 0.38221
  -1  -5  -4 3285.23 2080.76   1-0.17716-0.12236-0.87594 0.50536 0.44869-0.85418
  -1  -5  -4 3234.86 1057.25   1-0.83539 0.53589-0.33224-0.03829 0.43787-0.84341
  -6   1   4 3641.28 1341.86   1 0.23112-0.70181-0.48995 0.56406 0.84055-0.43506
   5  -6   4 3501.83 1931.63   1 0.99565-0.82443 0.02469-0.46952 0.08978 0.31598
  -5   6  -314111.91 4585.33   1-0.41541 0.24425-0.36915 0.81382-0.83135 0.52728
  -1  -5  -317166.87 2455.38   1-0.11125-0.18835-0.81176 0.44109 0.57329-0.87747
  -1  -5  -314629.52 3247.64   1-0.63932 0.33960-0.43496 0.06416 0.63409-0.93837
  -6   1   317333.42 5782.30   1 0.13198-0.60267-0.50533 0.57945 0.85276-0.54865
   5  -6   316336.33 2977.57   1 0.99766-0.82645 0.05353-0.49836 0.04238 0.26194
  -5   6  -2135986.0 8676.22   1-0.38995 0.21880-0.25233 0.69700-0.88558 0.68287
  -1  -5  -2131201.2 7784.81   1-0.03396-0.26564-0.71594 0.34527 0.69733-0.90012
  -1  -5  -2116521.3 7384.22   1-0.35627 0.05655-0.50435 0.13355 0.78657-0.98942
  -6   1   2132122.5 8128.55   1 0.00222-0.47291-0.51754 0.59166 0.85565-0.65290
   5  -6   2131628.5 8271.79   1 0.99672-0.82551 0.08076-0.52558-0.00273 0.20562
  -5   6  -127044.61 6844.16   1-0.34201 0.17086-0.07826 0.52293-0.93642 0.83507
  -1  -5  -124112.58 2569.29   1 0.05276-0.35236-0.58442 0.21376 0.80972-0.91112
  -6   1   124077.05 7475.47   1-0.15316-0.31752-0.52058 0.59469 0.83995-0.73858
  -1  -5  -140554.06 6923.60   1-0.04197-0.25754-0.51970 0.14912 0.85331-0.95468
   5  -6   130652.37 3280.73   1 0.99345-0.82224 0.10542-0.55025-0.04393 0.14537
  -6   1   0 5065.56 1394.15   1-0.38519-0.08586-0.91339 0.98756-0.13167 0.13167
  -1  -5   0 5832.73 1602.45   1 0.14282-0.44254-0.42197 0.05117 0.89528-0.89528
   6  -1   0 3952.18  466.25   1 0.19049 0.28048-0.32285 0.24869 0.92707-0.92707
   5  -6   0 6600.70 1504.91   1 0.26185-0.09059-0.15465-0.29030 0.95263-0.95263
  -6   1   0 4726.65 1751.80   1-0.32144-0.14953-0.50882 0.58298 0.79860-0.79860
  -1  -5   0 5459.40 1666.21   1 0.22789-0.52742-0.49054 0.11997 0.84109-0.84109
   5  -6   0 5451.49 1279.30   1 0.98909-0.81787 0.12533-0.57016-0.07740 0.07740
  -6   1  -124911.23 1989.59   1-0.37652-0.09453-0.92133 0.99551-0.09678-0.00460
   5  -6  -125527.12 2179.33   1 0.14599 0.02527-0.41567-0.02928 0.89771-0.99925
  -1  -5   129208.16 2778.51   1 0.22524-0.52496-0.24423-0.12656 0.94319-0.84166
  -6   1  -127927.61 5956.34   1-0.48523 0.01425-0.48075 0.55491 0.73035-0.83178
   5  -6  -121816.96 1554.34   1-0.16214 0.33329-0.52036 0.07568 0.83840-0.93977
  -1  -5   125210.90 2407.62   1 0.42168-0.72130-0.44508 0.07440 0.78998-0.68861
   5  -6  -127493.92 2142.36   1 0.98676-0.81554 0.13377-0.57860-0.09165-0.00978
  -6   1  -2121863.7 6951.05   1-0.38070-0.09035-0.91771 0.99188-0.11338-0.08939
   5  -6  -2139118.5 7942.40   1 0.01532 0.15587-0.64427 0.19947 0.76463-0.96742
  -1  -5   2120082.0 7239.07   1 0.29163-0.59135-0.07567-0.29512 0.95353-0.75046
  -6   1  -2131290.4 8148.68   1-0.63009 0.15911-0.43836 0.51252 0.64094-0.84380
  -1  -5   2119066.1 7329.78   1 0.54657-0.84619-0.40180 0.03112 0.73471-0.53196
   5  -6  -2124405.7 6278.82   1 0.66010-0.48889-0.35035-0.09446 0.66446-0.86721
   5  -6  -2118148.5 6072.97   1 0.99581-0.82460 0.08967-0.53450-0.01759-0.18529
   1   5  -317836.44 2875.91   1-0.33818 0.63770-0.06589 0.43645-0.93876 0.63469
  -6   1  -315568.68 6646.90   1-0.38859-0.08246-0.90977 0.98395-0.14593-0.15824
   5  -6  -317496.51 2054.91   1-0.10214 0.27334-0.80155 0.35675 0.58913-0.89331
  -6   1  -315988.61 4950.22   1-0.74853 0.27788-0.38641 0.46052 0.53886-0.84302
  -1  -5   315351.08 2332.77   1 0.62296-0.92258-0.36868-0.00199 0.68991-0.38579
   1   5  -4 4340.44 2115.06   1-0.36935 0.66887-0.17241 0.54297-0.91315 0.50772
  -6   1  -4 2449.45 1007.83   1-0.39764-0.07341-0.89857 0.97274-0.18560-0.21995
   5  -6  -4 2912.45 1170.59   1-0.19498 0.36615-0.89034 0.44565 0.41141-0.81690
  -6   1  -4 3273.23 1257.91   1-0.83980 0.36916-0.32895 0.40306 0.43186-0.83741
  -1  -5   4 4157.58 1602.29   1 0.66737-0.96699-0.34657-0.02410 0.65916-0.25366
   1   5  -5 5759.07 2277.88   1-0.38865 0.68817-0.24697 0.61753-0.88766 0.38087
  -6   1  -5 5414.03 1816.97   1-0.40682-0.06423-0.88430 0.95847-0.22912-0.27783
   5  -6  -5 6408.66 1590.65   1-0.26399 0.43515-0.93139 0.48670 0.25060-0.75746
  -6   1  -5 5357.29 3362.62   1-0.90653 0.43588-0.26953 0.34364 0.32487-0.83181
  -1  -5   5 6267.10 2058.27   1 0.69060-0.99022-0.33404-0.03664 0.64147-0.13459
   1   5  -620296.06 8369.97   1-0.39998 0.69950-0.29528 0.66584-0.86764 0.25950
  -6   1  -617210.74 6952.12   1-0.41563-0.05542-0.86698 0.94115-0.27494-0.33340
   5  -6  -616133.45 3376.35   1-0.31522 0.48638-0.94265 0.49795 0.10972-0.71796
  -1  -5   619390.86 3600.51   1 0.69917-0.99879-0.32923-0.04145 0.63463-0.02638
   6  -1   620717.89 3876.72   1 0.95270-0.48186 0.20906-0.28320-0.22054 0.82921
   1   5  -7 1545.17 1046.76   1-0.40605 0.70557-0.32301 0.69357-0.85485 0.14535
  -6   1  -7 1509.19 1443.65   1-0.42376-0.04729-0.84649 0.92067-0.32227-0.38746
   5  -6  -7  424.70  669.16   1-0.35411 0.52541-0.93509 0.49005-0.01418-0.69554
  -1  -5   7 1347.38 2293.19   1 0.69689-0.99651-0.33052-0.04016 0.63647 0.07315
   6  -1   7 1319.90 2403.07   1 0.98131-0.51047 0.15045-0.22458-0.11993 0.83004
  -6   6  -7 1260.41 1420.30   1-0.44053 0.18361-0.53796 0.98295-0.71869 0.00870
   0  -6  -7   74.86 1404.21   1-0.29879 0.04204-0.94125 0.49655 0.15738-0.86698
  -6   0   7 -318.85 1222.68   1 0.36887-0.88250-0.45996 0.45996 0.80769-0.09806
   6  -6   7 1351.75 2933.80   1 0.98526-0.72844-0.02424-0.42058 0.16930 0.54081
  -6   6  -6 9551.66 6033.61   1-0.43983 0.18292-0.53132 0.97632-0.72403 0.11547
   0  -6  -613908.58 3260.59   1-0.25756 0.00081-0.92868 0.48398 0.26684-0.87507
  -6   0   612276.13 2452.06   1 0.34711-0.86074-0.46555 0.46555 0.81410-0.20585
   6  -6   6 9834.08 2661.99   1 0.99380-0.73698 0.01200-0.45683 0.11051 0.49815
  -6   6  -5 5340.79 2106.93   1-0.43748 0.18056-0.51054 0.95554-0.74023 0.23310
   0  -6  -5 3972.30 1425.16   1-0.20853-0.04821-0.90032 0.45562 0.38200-0.88886
  -6   0   5 3959.89 1674.88   1 0.30690-0.82053-0.47510 0.47510 0.82467-0.31779
   6  -6   5 3826.91 1815.01   1 0.99752-0.74070 0.04832-0.49315 0.05098 0.45624
  -6   6  -4 7931.05 3774.29   1-0.43210 0.17519-0.46973 0.91472-0.76982 0.36411
   0  -6  -4 7670.55 2294.73   1-0.15050-0.10624-0.85187 0.40717 0.50166-0.90714
  -6   0   4 7975.34 2534.06   1 0.24500-0.75848-0.48736 0.48736 0.83812-0.43263
   6  -6   4 8150.34 2803.89   1 0.99634-0.73952 0.08487-0.52970-0.00957 0.41535
  -6   6  -311147.91 6146.26   1-0.42104 0.16431-0.39952 0.84418-0.81431 0.51024
   0  -6  -310558.20 2458.27   1-0.08243-0.17436-0.77847 0.33367 0.62224-0.92642
  -6   0   3 8959.93  830.13   1 0.20759-0.72138-0.28489 0.28489 0.93580-0.63121
   0  -6  -3 7518.56 2290.35   1-0.68125 0.42435-0.41821-0.02674 0.60081-0.90509
  -6   0   3 9920.98 4134.39   1 0.15693-0.67041-0.50197 0.50197 0.85052-0.54641
   6  -6   311205.69 2488.05   1 0.98995-0.73313 0.12189-0.56672-0.07161 0.37594
  -6   6  -285958.93 7262.51   1-0.39755 0.14082-0.28455 0.72922-0.87234 0.66962
  -6   0   253285.00 2727.77   1-0.42352-0.09036-0.84719 0.84720-0.32075 0.52353
  -6   0   257693.01 2785.97   1-0.00600-0.50761-0.67627 0.67627 0.73662-0.53383
   0  -6  -268697.50 4871.84   1-0.00556-0.25123-0.67564 0.23084 0.73720-0.93999
   0  -6  -248330.71 3050.98   1-0.34209 0.08519-0.50626 0.06130 0.79162-0.99447
  -6   0   257923.50 4860.50   1 0.04134-0.55482-0.51479 0.51479 0.85631-0.65357
   6  -6   260695.56 4532.73   1 0.97777-0.72094 0.15976-0.60459-0.13578 0.33867
  -6   6  -120175.37 6064.14   1-0.35055 0.09382-0.10648 0.55115-0.93047 0.82911
  -6   0   119260.57 3183.76   1-0.42488-0.08895-0.42324 0.42324-0.80020 0.90163
  -6   0   118402.16 1284.80   1-0.17885-0.33463-0.87737 0.87737 0.44523-0.34386
   0  -6  -118232.86 2196.93   1 0.07700-0.33381-0.54314 0.09834 0.83610-0.93749
  -6   0   118518.76 5277.82   1-0.09937-0.41409-0.52097 0.52097 0.84776-0.74639
   0  -6  -117523.19 3549.78   1 0.02257-0.27931-0.51621 0.07153 0.85616-0.95753
   6  -6   118973.43 2452.50   1 0.95869-0.70187 0.19904-0.64387-0.20320 0.30464
  -6   0   016369.95 1284.76   1-0.25674-0.25674-0.92832 0.92832 0.26888-0.26888
   0  -6   014909.44 2302.58   1 0.15936-0.41626-0.38865-0.05631 0.90749-0.90749
   6   0   016389.28 1394.29   1 0.25689 0.25689-0.16723 0.16723 0.95185-0.95185
   6  -6   017435.25 1902.53   1 0.26647-0.00957-0.14279-0.30217 0.95320-0.95320
  -6   6   019910.39 2404.39   1-0.93088 0.67416-0.24101 0.68565 0.27454-0.27454
  -6   0   012933.00 3774.94   1-0.25689-0.25689-0.51516 0.51516 0.81768-0.81768
   0  -6   014339.53 1770.47   1 0.30861-0.56542-0.47472 0.02990 0.82425-0.82425
  -6   0  -117634.66 1637.87   1-0.29816-0.21532-0.94115 0.94115 0.15914-0.26051
   6  -6  -115494.89 1632.64   1 0.13769 0.11920-0.43209-0.01286 0.89125-0.99278
   0  -6   119869.53 2350.67   1 0.23264-0.48954-0.22673-0.21822 0.94576-0.84423
  -6   6   122567.16 2150.70   1-0.88964 0.63292-0.28669 0.73133 0.35545-0.25406
  -6   0  -119955.09 5357.09   1-0.41739-0.09639-0.49461 0.49461 0.76232-0.86374
   0  -6   117706.61 2080.60   1 0.49546-0.75228-0.42100-0.02381 0.75978-0.65840
  -6   0  -250155.58 3096.96   1-0.32652-0.18696-0.94218 0.94218 0.07535-0.27809
   6  -6  -258813.35 3509.91   1-0.00984 0.26665-0.68188 0.23708 0.73138-0.93417
   0  -6   259678.57 4354.04   1 0.29148-0.54838-0.07610-0.36885 0.95354-0.75047
  -6   6   254985.46 3100.72   1-0.82518 0.56847-0.33959 0.78424 0.45137-0.24859
  -6   0  -260509.28 4737.64   1-0.56694 0.05314-0.45923 0.45923 0.68387-0.88672
   0  -6   257412.61 4288.62   1 0.60850-0.86532-0.37540-0.06941 0.69913-0.49638
   0   6  -311656.09 2546.31   1-0.33344 0.59017-0.05082 0.49549-0.94140 0.63732
  -6   0  -3 8209.59 3443.86   1-0.34899-0.16489-0.93711 0.93711 0.00343-0.30760
   6  -6  -3 9730.18 1507.30   1-0.13789 0.39464-0.83949 0.39479 0.52557-0.82969
  -6   6   3 7830.69 2129.05   1-0.71555 0.45884-0.40298 0.84762 0.57059-0.26643
  -6   0  -3 9565.04 4893.59   1-0.69546 0.18203-0.41223 0.41223 0.58854-0.89270
   0  -6   3 7721.94 2208.22   1 0.67445-0.93126-0.34283-0.10198 0.65389-0.34977
   0   6  -4 9138.52 4636.45   1-0.36264 0.61937-0.14822 0.59289-0.92006 0.51463
  -6   0  -4 7379.68 2885.66   1-0.36757-0.14631-0.92788 0.92788-0.06260-0.34295
   6  -6  -4 7035.12 1456.22   1-0.23175 0.48849-0.91535 0.47066 0.32925-0.73474
  -6   0  -4 9701.60 5001.92   1-0.79900 0.28557-0.35712 0.35712 0.48378-0.88933
   0  -6   4 7357.35 2390.10   1 0.71111-0.96793-0.32234-0.12247 0.62482-0.21932
   0   6  -5 4326.07 2394.91   1-0.38147 0.63820-0.21824 0.66291-0.89824 0.39146
  -6   0  -5 1731.49 1279.99   1-0.38359-0.13029-0.91498 0.91498-0.12509-0.38186
   6  -6  -5 3517.59 1185.74   1-0.29734 0.55409-0.94101 0.49632 0.16145-0.66831
  -6   0  -5 4217.74 1919.08   1-0.87767 0.36424-0.29784 0.29784 0.37545-0.88239
   0  -6   5 2756.05 1937.59   1 0.72895-0.98576-0.31167-0.13314 0.60949-0.10262
   0   6  -611031.28 4420.03   1-0.39299 0.64972-0.26502 0.70969-0.88051 0.27237
  -6   0  -6 9081.51 4970.81   1-0.39758-0.11629-0.89864 0.89864-0.18536-0.42298
  -6   0  -6 9184.89 2939.39   1-0.93397 0.42054-0.23697 0.23697 0.26745-0.87577
   0  -6   613934.09 3594.03   1 0.73372-0.99061-0.30825-0.13667 0.60549 0.00300
   0   6  -7 3884.31 2749.30   1-0.39945 0.65618-0.29294 0.73761-0.86868 0.15918
  -6   0  -7  693.58  945.89   1-0.40981-0.10406-0.87887 0.87887-0.24417-0.46555
   0  -6   7  -65.40 1754.21   1 0.72917-0.98598-0.31153-0.13328 0.60930 0.10032
   6   0   7 1574.88 2302.11   1 0.97121-0.45757 0.17491-0.17491-0.16168 0.87179
  -1   7  -7 -619.02 1846.50   1-0.39132 0.60526-0.25802 0.77680-0.88333 0.17383
  -6  -1  -7  545.52 1041.15   1-0.39485-0.16185-0.90229 0.82812-0.17306-0.53666
   1  -7   7  843.20  920.17   1 0.75302-0.96709-0.29594-0.22314 0.58768 0.12223
   6   1   7 1055.49 2320.58   1 0.96091-0.40446 0.19510-0.12096-0.19640 0.90651
  -1   7  -6 4497.62 2591.40   1-0.38437 0.59831-0.22970 0.74848-0.89414 0.28600
  -6  -1  -6 2986.15 1832.85   1-0.37857-0.17813-0.91961 0.84543-0.10485-0.50348
  -6  -1  -6 3820.94 2262.05   1-0.91606 0.35984-0.25898 0.18487 0.30619-0.91451
   1  -7   6 4858.07 2488.12   1 0.75937-0.97344-0.29174-0.22733 0.58157 0.02692
  -1   7  -5 1098.50 1076.92   1-0.37248 0.58642-0.18394 0.70272-0.90962 0.40284
  -6  -1  -5 1827.25 1362.34   1-0.35953-0.19717-0.93253 0.85836-0.03331-0.47364
  -6  -1  -5 3045.41 1987.63   1-0.85084 0.29462-0.32046 0.24636 0.41637-0.92331
   1  -7   5 2068.37 2555.00   1 0.75707-0.97114-0.29327-0.22581 0.58379-0.07671
  -1   7  -410752.63 4908.17   1-0.35376 0.56770-0.11737 0.63615-0.92794 0.52251
  -6  -1  -4 7717.91 4240.80   1-0.33705-0.21965-0.94050 0.86632 0.04302-0.44858
  -6  -1  -410265.07 3508.01   1-0.76269 0.20647-0.37872 0.30461 0.52427-0.92982
   1  -7   4 9557.45 2740.30   1 0.74324-0.95730-0.30226-0.21681 0.59684-0.19117
  -1   7  -3 4941.79 2197.49   1-0.32576 0.53970-0.02696 0.54574-0.94506 0.64099
  -6  -1  -3 3984.85 1544.50   1-0.30964-0.24664-0.94243 0.86832 0.12621-0.43032
   7  -6  -3 3975.17 1101.57   1-0.19444 0.53677-0.88993 0.44523 0.41257-0.71668
  -6  -1  -3 5218.31 1871.16   1-0.65087 0.09425-0.43056 0.35640 0.62528-0.92956
  -7   6   3 3587.24 1639.88   1-0.58809 0.24556-0.45268 0.89765 0.67023-0.36595
   1  -7   3 3280.40 1661.11   1 0.71281-0.92683-0.32135-0.19760 0.62339-0.31927
  -6  -1  -229197.48 2678.68   1-0.27567-0.28060-0.93565 0.86153 0.22036-0.42310
   7  -6  -221447.87 1660.81   1-0.05683 0.39924-0.74644 0.30164 0.66301-0.86580
   1  -7   229985.82 3752.36   1 0.28691-0.50099-0.08862-0.43049 0.95384-0.75078
  -7   6   223449.13 1938.12   1-0.70615 0.36386-0.40739 0.85203 0.57912-0.37634
  -6  -1  -225398.13 6507.69   1-0.51715-0.03946-0.47301 0.39885 0.71330-0.91616
   1  -7   225492.42 2922.93   1 0.65555-0.86957-0.35268-0.16626 0.66772-0.46497
  -6  -1  -1 8102.29 1238.10   1-0.23082-0.32545-0.91481 0.84069 0.33141-0.43279
   7  -6  -1 8086.86 1341.52   1 0.11445 0.22807-0.47667 0.03171 0.87159-0.97312
   1  -7   1 9582.05 2159.55   1 0.23342-0.44750-0.22487-0.29425 0.94601-0.84448
  -7   6   1 7527.25 3395.06   1-0.79668 0.45439-0.35859 0.80323 0.48652-0.38513
  -6  -1  -1 8462.27 2355.32   1-0.36805-0.18856-0.50266 0.42850 0.78221-0.88364
   1  -7   1 8289.16 1475.59   1 0.55357-0.76759-0.39900-0.11995 0.73098-0.62961
  -6  -1   019969.76 1685.31   1-0.16749-0.38879-0.86755 0.79343 0.46829-0.46829
   1  -7   020654.30 2618.51   1 0.16712-0.38120-0.37262-0.14649 0.91280-0.91280
   7  -6   024491.57 2236.86   1 0.26292 0.07960-0.15192-0.29303 0.95278-0.95278
  -7   6   019060.56 2704.68   1-0.86320 0.52091-0.31042 0.75506 0.39814-0.39814
  -6  -1   022194.66 7794.11   1-0.21402-0.34224-0.51826 0.44414 0.82801-0.82800
   1  -7   023015.24 2240.59   1 0.37511-0.58912-0.45830-0.06065 0.80576-0.80576
  -7   6  -1 7959.03 4304.10   1-0.35406 0.01175-0.11837 0.56304-0.92770 0.82634
  -6  -1   1 7759.56  896.93   1-0.07416-0.48224-0.76837 0.69424 0.63568-0.53429
   1  -7  -1 7842.21 2072.85   1 0.09150-0.30551-0.51747-0.00146 0.85079-0.95218
  -7   6  -1 7112.24 1819.74   1-0.91148 0.56920-0.26414 0.70878 0.31530-0.41669
  -6  -1   1 9285.65 2975.58   1-0.06784-0.48841-0.52048 0.44637 0.85116-0.74979
   1  -7  -1 8175.32 1957.07   1 0.07542-0.28937-0.51174-0.00705 0.85581-0.95719
  -7   6  -228222.18 3968.07   1-0.40168 0.05937-0.30290 0.74757-0.86423 0.66151
   1  -7  -229202.52 3466.58   1 0.01366-0.22766-0.64682 0.12789 0.76251-0.96530
  -6  -1   223445.36 1605.80   1 0.05290-0.60931-0.58419 0.51006 0.80988-0.60710
   1  -7  -219939.62 2335.29   1-0.35488 0.14080-0.50454-0.01457 0.78707-0.98993
  -6  -1   224113.46 7908.27   1 0.06039-0.61666-0.51316 0.43905 0.85616-0.65341
  -7   6  -3 5097.27 2454.07   1-0.42423 0.08193-0.41788 0.86254-0.80336 0.49929
   1  -7  -3 2855.71 1530.57   1-0.06124-0.15276-0.75211 0.23318 0.65617-0.96035
  -6  -1   3 3822.89  693.78   1 0.18358-0.74020-0.33781 0.26365 0.92313-0.61853
  -6  -1   3 4273.42 2018.78   1 0.16504-0.72131-0.50080 0.42669 0.84967-0.54556
   7  -6   3 4204.82 1564.19   1 0.97051-0.62808 0.17640-0.62123-0.16424 0.46858
  -7   6  -4 8715.75 6361.51   1-0.43440 0.09184-0.48632 0.93131-0.75814 0.35243
   1  -7  -4 8928.79 2192.32   1-0.12970-0.08424-0.83112 0.31231 0.54074-0.94623
  -6  -1   4 8983.71 3311.33   1 0.24501-0.80128-0.48736 0.41324 0.83812-0.43263
   7  -6   410547.08 2772.86   1 0.98645-0.64402 0.13483-0.57966-0.09344 0.49922
  -7   6  -5 2037.87 1687.85   1-0.43918 0.09662-0.52532 0.97032-0.72879 0.22166
   1  -7  -5 2630.01 2240.35   1-0.18956-0.02438-0.88611 0.36730 0.42292-0.92978
  -6  -1   5 1759.34 1464.27   1 0.30177-0.85820-0.47625 0.40212 0.82590-0.31902
   7  -6   5 1092.69 1926.97   1 0.99524-0.65281 0.09415-0.53898-0.02506 0.53228
  -7   6  -6 4073.88 1603.51   1-0.44120 0.09864-0.54460 0.98959-0.71326 0.10470
   1  -7  -6 4476.68 2302.85   1-0.24112 0.02716-0.92063 0.40181 0.30708-0.91531
  -6  -1   6 3588.20 1476.98   1 0.33906-0.89550-0.46754 0.39341 0.81635-0.20810
   7  -6   6 4410.72 2970.33   1 0.99767-0.65524 0.05409-0.49892 0.04145 0.56721
  -7   6  -7  605.93 1262.30   1-0.44173 0.09917-0.55007 0.99506-0.70872-0.00126
   1  -7  -7  471.56 1437.39   1-0.28506 0.07110-0.93839 0.41958 0.19532-0.90492
  -6  -1   7  -88.47 1396.52   1 0.35958-0.91601-0.46238 0.38824 0.81049-0.10086
   7  -6   7  921.40 1718.78   1 0.99420-0.65177 0.01442-0.45925 0.10656 0.60355
  -2   7  -7 2318.17 1681.52   1-0.40418 0.53254-0.31431 0.83309-0.85897 0.14947
  -5  -2  -7  758.63  925.55   1-0.37527-0.13861-0.92234 0.77399-0.09190-0.61782
   2  -7   7 1199.08 1733.22   1 0.81607-0.94451-0.25050-0.26858 0.52083 0.18908
   5   2   7  684.13 1483.14   1 0.96567-0.45203 0.18621-0.03793-0.18108 0.89119
  -2   7  -620871.06 9716.79   1-0.39871 0.52707-0.28964 0.80842-0.87013 0.26199
  -5  -2  -610473.03 4381.27   1-0.35363-0.16025-0.93530 0.78695-0.01250-0.59583
  -5  -2  -612088.30 2828.55   1-0.91943 0.40600-0.25507 0.10685 0.29928-0.90760
   2  -7   615885.33 3766.81   1 0.82699-0.95543-0.24164-0.27744 0.50763 0.10087
  -2   7  -5 8368.07 3997.31   1-0.38885 0.51722-0.24780 0.76658-0.88734 0.38055
  -5  -2  -5 4669.35 1653.36   1-0.32783-0.18605-0.94196 0.79361 0.07231-0.57927
  -5  -2  -5 6455.19 3286.89   1-0.84906 0.33563-0.32186 0.17364 0.41891-0.92584
   2  -7   5 7039.35 2679.03   1 0.83125-0.95969-0.23809-0.28099 0.50231 0.00476
  -2   7  -4 2505.73 1717.44   1-0.37270 0.50106-0.18476 0.70354-0.90937 0.50394
  -5  -2  -4 1864.04 1479.85   1-0.29634-0.21714-0.94084 0.79261 0.16425-0.56974
  -5  -2  -4 3252.66 1792.85   1-0.75085 0.23742-0.38518 0.23696 0.53651-0.94205
  -7   5   4 1637.65  974.56   1-0.21056-0.17454-0.51844 0.88901 0.82877-0.42329
   2  -7   4 2357.28 1551.78   1 0.82688-0.95532-0.24173-0.27735 0.50776-0.10209
  -2   7  -318496.72 6757.65   1-0.34751 0.47587-0.09632 0.61510-0.93271 0.62864
  -5  -2  -320548.65 2705.45   1-0.25778-0.25570-0.92878 0.78055 0.26628-0.57039
  -5  -2  -316899.05 4566.36   1-0.62358 0.10978-0.44070 0.29238 0.64569-0.94997
  -7   5   317207.30 5736.60   1-0.35527-0.03007-0.50449 0.87529 0.78693-0.48265
   2  -7   315273.49 3034.60   1 0.80982-0.93827-0.25541-0.26366 0.52814-0.22389
  -5  -2  -264953.96 4030.64   1-0.20880-0.30468-0.90051 0.75228 0.38140-0.58415
   7  -5  -261701.94 3037.47   1-0.17129 0.55641-0.87089 0.50031 0.46064-0.66339
   2  -7   250114.01 3665.12   1 0.31111-0.43956-0.02048-0.49864 0.95015-0.74708
  -7   5   277097.32 4332.78   1-0.50348 0.11813-0.47643 0.84723 0.72077-0.51791
  -5  -2  -270472.42 8565.14   1-0.46997-0.04382-0.48417 0.33585 0.73804-0.94089
   2  -7   267298.86 4553.30   1 0.77158-0.90002-0.28345-0.23562 0.56947-0.36664
  -5  -2  -126399.01 2144.31   1-0.14493-0.36856-0.84647 0.69824 0.51231-0.61368
   7  -5  -126995.54 1828.85   1 0.07202 0.31318-0.55178 0.18112 0.83086-0.93226
   2  -7   135759.36 3490.61   1 0.25852-0.38697-0.16312-0.35599 0.95213-0.85059
  -7   5   129244.99 3158.79   1-0.63651 0.25117-0.43600 0.80680 0.63619-0.53476
  -5  -2  -128480.15 9382.78   1-0.29974-0.21405-0.51123 0.36291 0.80547-0.90690
   2  -7   127636.67 2657.21   1 0.69393-0.82234-0.33217-0.18677 0.63883-0.53745
  -5  -2   0 4553.27  973.73   1-0.06112-0.45248-0.75197 0.60370 0.65635-0.65635
   2  -7   0 3473.82 1237.84   1 0.19060-0.31905-0.32261-0.19650 0.92714-0.92714
   7  -5   0 5059.05 1130.07   1 0.28759 0.09775-0.08675-0.28404 0.95381-0.95381
  -7   5   0 4781.43 2705.95   1-0.74462 0.35955-0.38847 0.75901 0.54278-0.54278
  -5  -2   0 3683.90 1718.08   1-0.12774-0.38573-0.52095 0.37273 0.84396-0.84396
   2  -7   0 4066.91 1107.54   1 0.53280-0.66121-0.40719-0.11175 0.74182-0.74182
  -7   5  -133606.21 2912.48   1-0.38879 0.00369-0.24754 0.61810-0.88744 0.78609
  -5  -2   130083.56 2299.33   1 0.04280-0.55641-0.60080 0.45253 0.79825-0.69685
   2  -7  -130853.30 3320.77   1 0.11118-0.23963-0.48278-0.03633 0.86865-0.97018
  -7   5  -129226.22 4929.97   1-0.82745 0.44238-0.33799 0.70852 0.44841-0.54980
  -5  -2   132184.44 3357.58   1 0.02977-0.54324-0.51569 0.36746 0.85625-0.75488
   2  -7  -128777.87 2122.45   1 0.18829-0.31666-0.49726-0.02153 0.84692-0.94829
  -7   5  -273700.04 5748.34   1-0.42728 0.04219-0.43639 0.80694-0.79182 0.58911
   2  -7  -272344.97 4735.22   1 0.02697-0.15537-0.62615 0.10722 0.77923-0.98201
  -5  -2   270778.78 3974.37   1 0.15404-0.66784-0.39947 0.25115 0.90370-0.70064
  -7   5  -279084.63 7283.69   1-0.88879 0.50372-0.28750 0.65804 0.35690-0.55968
   2  -7  -267599.05 3475.91   1-0.48370 0.35525-0.48110-0.03801 0.73114-0.93399
  -5  -2   269008.96 5056.14   1 0.16214-0.67562-0.50122 0.35299 0.84998-0.64724
  -7   5  -318197.75 7937.12   1-0.44047 0.05509-0.53737 0.90819-0.71917 0.41489
   2  -7  -321221.74 3000.98   1-0.05382-0.07457-0.74253 0.22360 0.66764-0.97182
  -5  -2   329547.32 2944.10   1 0.24883-0.76263-0.18738 0.03906 0.95024-0.64564
  -7   5  -318654.17 2870.25   1-0.93305 0.54798-0.23818 0.60871 0.26957-0.57373
  -5  -2   316209.40 7648.45   1 0.26541-0.77889-0.48335 0.33512 0.83421-0.53010
  -7   5  -4 1892.58 1009.16   1-0.44503 0.05965-0.59099 0.96181-0.67281 0.26710
   2  -7  -4 2127.50 1320.69   1-0.12691-0.00148-0.82859 0.30966 0.54527-0.95084
  -5  -2   4 2272.77 1371.77   1 0.34070-0.85433-0.46714 0.31887 0.81590-0.41040
   7  -5   4 2538.82 1842.13   1 0.96392-0.57868 0.18957-0.56026-0.18686 0.59264
   5   2  -5 5297.08 2365.40   1-0.35376 0.86722-0.11738 0.26560-0.92793 0.42115
  -7   5  -5 6846.69 2181.94   1-0.44650 0.06112-0.61735 0.98818-0.64769 0.14056
   2  -7  -5 6158.46 2267.52   1-0.19054 0.06217-0.88688 0.36807 0.42085-0.92771
  -5  -2   5 6465.85 2388.93   1 0.39230-0.90594-0.45359 0.30531 0.80021-0.29334
   7  -5   5 6694.74 2646.43   1 0.98387-0.59864 0.14304-0.51373-0.10735 0.61457
  -7   5  -614172.17 4743.53   1-0.44689 0.06151-0.62683 0.99766-0.63825 0.02968
   2  -7  -616046.66 3239.17   1-0.24433 0.11595-0.92232 0.40351 0.29936-0.90759
  -5  -2   611469.54 2765.62   1 0.42427-0.93791-0.44430 0.29603 0.78903-0.18078
   7  -5   617600.46 4307.47   1 0.99473-0.60950 0.09768-0.46837-0.03096 0.63963
  -7   5  -7 1376.94 2318.25   1-0.44681 0.06144-0.62484 0.99567-0.64025-0.06973
   2  -7  -7  633.88 1419.24   1-0.28951 0.16114-0.93948 0.42066 0.18318-0.89278
  -5  -2   7  134.77 1255.73   1 0.44022-0.95386-0.43941 0.29113 0.78301-0.07339
   7  -5   7 2472.97 1870.82   1 0.99766-0.61242 0.05324-0.42393 0.04286 0.66724
  -3   7  -7 1341.38 1437.80   1-0.41399 0.45678-0.36186 0.88064-0.83526 0.12576
  -4  -3  -7 1940.33 1608.90   1-0.35503-0.11602-0.93469 0.71217-0.01738-0.69234
   3  -7   7 1688.41 1859.19   1 0.86966-0.91248-0.20328-0.31579 0.44983 0.26008
   4   3   7  601.88 1315.99   1 0.97359-0.50275 0.16966 0.05274-0.15270 0.86281
  -3   7  -611660.80 5025.99   1-0.40973 0.45252-0.34060 0.85938-0.84623 0.23808
  -4  -3  -611479.63 2675.23   1-0.32813-0.14292-0.94193 0.71941 0.07137-0.67971
  -4  -3  -610503.03 2949.65   1-0.92816 0.45752-0.24446 0.02214 0.28060-0.88892
   3  -7   614874.66 3820.87   1 0.88374-0.92655-0.18902-0.33006 0.42809 0.18040
  -3   7  -5 4684.18 2684.37   1-0.40161 0.44440-0.30258 0.82136-0.86437 0.35759
  -4  -3  -5 1591.53 1320.26   1-0.29558-0.17512-0.94071 0.71836 0.16640-0.67326
  -4  -3  -5 2292.96 1177.02   1-0.85409 0.38344-0.31788 0.09555 0.41167-0.91860
  -7   4   5 2422.76 1013.83   1 0.04079-0.46869-0.51483 0.81129 0.85631-0.34946
   3  -7   5 2384.81 1950.97   1 0.89292-0.93573-0.17916-0.33991 0.41301 0.09406
  -3   7  -4 3707.30 2032.48   1-0.38774 0.43053-0.24326 0.76204-0.88908 0.48365
  -4  -3  -4 5094.31 1685.40   1-0.25641-0.21428-0.92817 0.70582 0.26970-0.67519
  -4  -3  -4 4848.66 1800.19   1-0.74594 0.27530-0.38778 0.16546 0.54146-0.94701
  -7   4   4 4860.28 1995.15   1-0.06219-0.36570-0.52034 0.81680 0.85168-0.44620
   3  -7   4 5345.71 2141.20   1 0.89628-0.93909-0.17544-0.34364 0.40729-0.00163
  -3   7  -3 7516.70 2645.89   1-0.36521 0.40800-0.15739 0.67617-0.91752 0.61344
  -4  -3  -3 5469.10 1956.50   1-0.20820-0.26249-0.90009 0.67774 0.38272-0.68684
  -4  -3  -3 6560.03 2539.00   1-0.60168 0.13070-0.44825 0.22577 0.66108-0.96537
  -7   4   3 6744.12 3227.30   1-0.19278-0.23511-0.51930 0.81575 0.83256-0.52844
   3  -7   3 7624.30 2570.04   1 0.89159-0.93441-0.18062-0.33846 0.41524-0.11099
  -3   7  -271327.89 5785.78   1-0.33014 0.37293-0.04051 0.55929-0.94305 0.74034
  -4  -3  -263550.63 4003.02   1-0.14817-0.32252-0.84963 0.62729 0.50611-0.70886
  -4  -3  -277004.19 4993.08   1-0.42558-0.04539-0.49312 0.27063 0.75875-0.96161
  -7   4   274663.66 4481.81   1-0.34047-0.08769-0.50647 0.80311 0.79218-0.58933
   3  -7   276218.13 5181.77   1 0.87352-0.91633-0.19947-0.31960 0.44403-0.24120
  -4  -3  -111245.14 2132.63   1-0.07345-0.39735-0.76749 0.54509 0.63683-0.73823
   3  -7   118762.48 3136.10   1 0.27981-0.32263-0.10775-0.41137 0.95398-0.85245
  -7   4   110612.12 4956.99   1-0.48878 0.06061-0.47993 0.77657 0.72852-0.62710
  -4  -3  -1 8498.75 3066.46   1-0.23220-0.23877-0.51694 0.29446 0.82392-0.92535
   3  -7   1 9367.30 1933.89   1 0.82820-0.87102-0.24064-0.27844 0.50612-0.40471
   7  -4   0 5235.77 1318.02   1-0.33498 0.76322-0.94091 0.64421 0.04969-0.04969
  -4  -3   0 7315.07 1283.26   1 0.01595-0.48676-0.64331 0.42091 0.76543-0.76543
   3  -7   0 7413.90 1845.33   1 0.21033-0.25315-0.27867-0.24044 0.93706-0.93706
  -7   4   0 7639.14 3013.64   1-0.62245 0.19428-0.44111 0.73775 0.64650-0.64650
  -4  -3   023772.72 7417.10   1-0.04235-0.42833-0.51971 0.29737 0.85328-0.85328
   3  -7   0 8212.09 1421.22   1 0.71477-0.75758-0.32019-0.19875 0.62174-0.62174
  -7   4  -110794.12 4843.01   1-0.42330-0.00457-0.41244 0.70889-0.80665 0.70529
  -4  -3   1 9810.80 1462.39   1 0.11423-0.58521-0.47709 0.25461 0.87139-0.76986
   3  -7  -1 8330.94 1876.16   1 0.12632-0.16914-0.45416-0.06495 0.88191-0.98344
   3  -7  -1 6396.96  794.55   1-0.92141 0.87862-0.25273-0.26601 0.29516-0.39654
  -7   4  -110265.17 3842.36   1-0.73314 0.30528-0.39437 0.69080 0.55404-0.65543
  -4  -3   1 9392.33 2729.41   1 0.12418-0.59487-0.50632 0.28398 0.85335-0.75198
   3  -7  -1 8913.71 1001.16   1 0.37100-0.41381-0.45939-0.05956 0.80703-0.90841
  -7   4  -284636.42 4990.23   1-0.44433 0.01613-0.58094 0.87760-0.68196 0.47910
   3  -7  -270707.07 4799.81   1 0.03562-0.07842-0.61240 0.09347 0.78974-0.99252
  -4  -3   269098.07 3952.70   1 0.20686-0.67784-0.28653 0.06405 0.93547-0.73240
  -7   4  -271930.04 5009.16   1-0.81977 0.39191-0.34337 0.63980 0.45832-0.66110
  -4  -3   270155.41 7305.26   1 0.25754-0.72823-0.48493 0.26258 0.83577-0.63302
  -7   4  -3 6109.75 2989.31   1-0.44759 0.01940-0.65598 0.95265-0.60772 0.30344
   3  -7  -3 5944.40 1837.16   1-0.05153 0.00873-0.73953 0.22060 0.67114-0.97532
  -4  -3   310965.49 2679.59   1 0.28048-0.75147-0.10595-0.11652 0.95399-0.64939
  -7   4  -3 6084.02 4521.85   1-0.88490 0.45704-0.29120 0.58763 0.36352-0.66768
  -4  -3   3 5539.23 1847.34   1 0.35668-0.82751-0.46313 0.24072 0.81134-0.50722
   4   3  -4 4631.54 1324.23   1-0.33035 0.80102-0.04114 0.26347-0.94296 0.53753
  -7   4  -4 4045.73 2734.28   1-0.44738 0.01919-0.68966 0.98632-0.56939 0.16368
   3  -7  -4 4091.79 1817.22   1-0.12987 0.08708-0.83130 0.31248 0.54043-0.94592
  -7   4  -4 4856.31 2400.23   1-0.93214 0.50428-0.23937 0.53580 0.27166-0.67720
  -4  -3   4 2743.87 1262.70   1 0.42605-0.89688-0.44377 0.22136 0.78838-0.38287
   4   3  -5 1347.02 1212.32   1-0.36191 0.83258-0.14566 0.36799-0.92075 0.41397
  -7   4  -5 2391.43 1609.90   1-0.44700 0.01880-0.70204 0.99870-0.55436 0.04723
   3  -7  -5 2783.68 2016.63   1-0.19644 0.15365-0.89145 0.37264 0.40830-0.91516
  -4  -3   5 1328.56 1414.28   1 0.47137-0.94220-0.42931 0.20690 0.77038-0.26350
   7  -4   5 2454.67 1940.09   1 0.96491-0.53687 0.18769-0.48424-0.18362 0.69085
   4   3  -6 8121.62 4710.48   1-0.38045 0.85112-0.21426 0.43660-0.89963 0.29149
  -7   4  -610541.54 5652.26   1-0.44701 0.01881-0.70171 0.99837-0.55477-0.05378
   3  -7  -613809.65 3932.69   1-0.25194 0.20915-0.92611 0.40729 0.28079-0.88902
  -4  -3   6 8818.38 2701.13   1 0.49780-0.96863-0.42017 0.19776 0.75871-0.15046
   7  -4   6 9754.21 2662.59   1 0.98550-0.55746 0.13796-0.43451-0.09874 0.70740
  -7   4  -7 1119.05 1284.56   1-0.44731 0.01911-0.69269 0.98935-0.56575-0.14422
   3  -7  -7  647.93 1281.97   1-0.29777 0.25497-0.94108 0.42227 0.16026-0.86986
  -4  -3   7  460.28 1429.63   1 0.50926-0.98010-0.41603 0.19362 0.75336-0.04373
   7  -4   7 1057.28 2750.57   1 0.99585-0.56782 0.08931-0.38587-0.01699 0.72710
  -4   7  -7 1072.99 2011.70   1-0.42130 0.37851-0.40095 0.91973-0.81347 0.10397
  -3  -4  -7  521.08  977.08   1-0.33507-0.09316-0.94089 0.64420 0.04942-0.75915
   4  -7   7  681.01 1758.38   1 0.91299-0.87018-0.15580-0.36327 0.37703 0.33287
  -4   7  -613197.09 4864.29   1-0.41797 0.37519-0.38270 0.90148-0.82391 0.21576
  -3  -4  -612655.41 3331.83   1-0.30302-0.12488-0.94183 0.64536 0.14536-0.75359
  -7   3   610227.70 4008.82   1 0.17944-0.65013-0.49864 0.72098 0.84802-0.23980
   4  -7   613234.05 3529.98   1 0.92835-0.88554-0.13580-0.38328 0.34599 0.26250
  -4   7  -5 2493.05 1692.86   1-0.41127 0.36848-0.34815 0.86693-0.84240 0.33561
  -3  -4  -5 2723.17 2022.10   1-0.26501-0.16289-0.93180 0.63534 0.24799-0.75485
  -3  -4  -5 1277.67  868.17   1-0.86786 0.44000-0.30647 0.01004 0.39100-0.89793
  -7   3   5 2073.23  869.74   1 0.11907-0.58976-0.50695 0.72929 0.85371-0.34685
   4  -7   5 1852.87 1824.46   1 0.93997-0.89715-0.11904-0.40004 0.31981 0.18727
  -4   7  -4 6022.86 3763.76   1-0.39934 0.35655-0.29242 0.81120-0.86891 0.46348
  -3  -4  -4 3753.70 1229.95   1-0.21924-0.20866-0.90760 0.61113 0.35803-0.76352
  -3  -4  -4 3005.07 1428.14   1-0.75062 0.32276-0.38530 0.08887 0.53675-0.94229
  -7   3   4 4749.84 2295.47   1 0.03160-0.50229-0.51555 0.73789 0.85627-0.45078
   4  -7   4 5073.11 2139.64   1 0.94777-0.90495-0.10677-0.41231 0.30055 0.10511
  -4   7  -3 6631.25 3017.09   1-0.37917 0.33638-0.20930 0.72808-0.90134 0.59727
  -3  -4  -3 5158.49 1827.45   1-0.16386-0.26404-0.86430 0.56784 0.47552-0.77963
  -3  -4  -3 5461.32 2617.15   1-0.58773 0.15957-0.45280 0.15616 0.67047-0.97475
  -7   3   3 6337.86 2558.69   1-0.08316-0.38752-0.52078 0.74313 0.84962-0.54551
   4  -7   3 7372.51 2217.99   1 0.95117-0.90836-0.10109-0.41799 0.29162 0.01263
  -4   7  -276170.82 6123.13   1-0.34638 0.30359-0.09258 0.61136-0.93351 0.73079
  -3  -4  -281080.62 5278.73   1-0.09692-0.33108-0.79557 0.49904 0.59804-0.80083
  -3  -4  -270522.29 4945.45   1-0.38586-0.04230-0.49995 0.20330 0.77534-0.97820
  -7   3   280599.83 5123.20   1-0.22011-0.25057-0.51791 0.74025 0.82662-0.62388
   4  -7   269499.72 4961.70   1 0.94833-0.90551-0.10584-0.41323 0.29909-0.09626
  -3  -4  -112517.07 2019.92   1-0.01833-0.40967-0.69409 0.39756 0.71964-0.82104
   4  -7   1 8727.56 1753.80   1 0.29714-0.25433-0.06037-0.45875 0.95292-0.85138
  -7   3   110622.62 3159.24   1-0.36795-0.10302-0.50268 0.72516 0.78225-0.68082
  -3  -4  -1 8950.58 2569.08   1-0.16664-0.26125-0.52024 0.22378 0.83760-0.93897
   4  -7   1 8403.69 1832.54   1 0.93336-0.89055-0.12877-0.39031 0.33503-0.23361
   7  -3   0 7136.09  641.49   1-0.07622 0.54703-0.77090 0.54850 0.63236-0.63236
  -3  -4   0 7364.64 1439.13   1 0.06907-0.49708-0.55686 0.26033 0.82772-0.82772
   4  -7   0 8154.44 1769.31   1 0.22590-0.18308-0.24269-0.27642 0.94343-0.94343
  -7   3   0 8322.57 2471.21   1-0.51208 0.04110-0.47430 0.69678 0.71610-0.71610
  -3  -4   0 9997.58 3361.81   1 0.04008-0.46798-0.51489 0.21844 0.85631-0.85631
   4  -7   0 8717.85 1398.18   1 0.88436-0.84155-0.18836-0.33071 0.42709-0.42709
  -7   3  -110522.27 2130.83   1-0.44615-0.02486-0.61005 0.83255-0.65481 0.55338
   4  -7  -1 9718.74 2029.54   1 0.13665-0.09383-0.43413-0.08498 0.89042-0.99195
  -3  -4   1 8477.02 1661.57   1 0.15768-0.58584-0.39208 0.09544 0.90631-0.80478
  -7   3  -1 9288.77 2949.94   1-0.64056 0.16957-0.43449 0.65697 0.63316-0.73458
   4  -7  -1 6428.14 1938.40   1-0.59534 0.63816-0.45034-0.06877 0.66539-0.76682
  -3  -4   1 8645.48 2967.76   1 0.21286-0.64076-0.49319 0.19673 0.84347-0.74210
   4  -7  -1 8761.28  850.69   1 0.67307-0.63026-0.34356-0.17538 0.65493-0.75630
  -7   3  -275824.62 4411.11   1-0.44592-0.02508-0.72290 0.94540-0.52777 0.32492
   4  -7  -273093.78 4686.24   1 0.03857 0.00422-0.60766 0.08872 0.79325-0.99604
  -3  -4   276906.04 4679.61   1 0.23582-0.66399-0.21910-0.07753 0.94677-0.74370
  -7   3  -270591.97 5715.35   1-0.74715 0.27651-0.38714 0.60947 0.54025-0.74302
  -3  -4   268939.18 5009.74   1 0.34428-0.77231-0.46625 0.16971 0.81490-0.61215
  -7   3  -3 5031.61 3867.82   1-0.44214-0.02887-0.76299 0.98548-0.47154 0.16726
   4  -7  -3 5224.44 1564.87   1-0.05554 0.09834-0.74476 0.22583 0.66500-0.96918
  -3  -4   3 4192.67 1171.87   1 0.29628-0.72445-0.06277-0.23386 0.95303-0.64843
  -7   3  -3 5919.11 3181.07   1-0.83116 0.36051-0.33533 0.55765 0.44353-0.74769
  -3  -4   3 4482.57 1468.68   1 0.43739-0.86542-0.44029 0.14374 0.78410-0.47998
   3   4  -4 5422.66 2161.87   1-0.33737 0.76525-0.06331 0.35975-0.93923 0.53380
  -7   3  -4 4098.10 1646.70   1-0.44034-0.03067-0.77597 0.99847-0.45161 0.04590
   4  -7  -4 3566.81 1381.28   1-0.13885 0.18164-0.84045 0.32164 0.52378-0.92927
  -7   3  -4 5828.53 3215.61   1-0.89456 0.42392-0.28187 0.50419 0.34683-0.75238
  -3  -4   4 3798.35 1925.84   1 0.49974-0.92777-0.41948 0.12293 0.75782-0.35232
   3   4  -5  675.78 1045.02   1-0.36429 0.79217-0.15410 0.45054-0.91844 0.41165
  -7   3  -5 2241.42 1472.43   1-0.44041-0.03060-0.77553 0.99802-0.45231-0.05481
   4  -7  -5 2377.12 1699.21   1-0.20811 0.25090-0.90003 0.38121 0.38292-0.88978
  -7   3  -5 2059.74 1854.58   1-0.94035 0.46971-0.22826 0.45059 0.25223-0.75917
  -3  -4   5 1495.13 1941.44   1 0.53863-0.96666-0.40493 0.10839 0.73884-0.23197
   3   4  -6 8403.42 4484.00   1-0.38061 0.80850-0.21491 0.51136-0.89941 0.29126
  -7   3  -6 9758.57 4406.07   1-0.44164-0.02937-0.76681 0.98931-0.46576-0.14279
   4  -7  -613043.58 2897.62   1-0.26456 0.30735-0.93162 0.41281 0.24915-0.85739
  -3  -4   612012.06 2861.54   1 0.55977-0.98780-0.39648 0.09993 0.72763-0.11938
   7  -3   613341.81 3643.54   1 0.97148-0.50064 0.17434-0.39675-0.16070 0.76937
   3   4  -7  491.79 1224.61   1-0.38977 0.81765-0.25157 0.54802-0.88588 0.17638
  -7   3  -7   61.37 1187.94   1-0.44342-0.02759-0.75207 0.97457-0.48761-0.22237
   4  -7  -7  689.14 1540.98   1-0.31018 0.35297-0.94247 0.42365 0.12461-0.83421
  -3  -4   7   88.90 1596.92   1 0.56716-0.99519-0.39343 0.09688 0.72355-0.01392
   7  -3   7   -8.46 2080.24   1 0.98988-0.51904 0.12218-0.34459-0.07209 0.78220
  -5   7  -7 1974.71 1685.63   1-0.42656 0.29819-0.43191 0.95069-0.79466 0.08516
  -2  -5  -7  634.31 1442.26   1-0.31591-0.06920-0.94265 0.57207 0.10767-0.81727
  -7   2   7  -56.67  932.75   1 0.24842-0.76190-0.48670 0.63493 0.83749-0.12789
   5  -7   7 2285.72 2543.23   1 0.94600-0.81756-0.10962-0.40945 0.30504 0.40487
  -5   7  -616574.01 5626.89   1-0.42394 0.29557-0.41615 0.93493-0.80441 0.19627
  -2  -5  -617010.48 3214.93   1-0.27990-0.10521-0.93696 0.56638 0.20916-0.81739
  -7   2   6 9589.45 4337.13   1 0.21773-0.73121-0.49234 0.64057 0.84272-0.23449
   5  -7   615118.14 3636.23   1 0.96065-0.83221-0.08407-0.43501 0.26472 0.34377
  -5   7  -5 7707.96 3780.11   1-0.41832 0.28995-0.38455 0.90333-0.82287 0.31608
  -2  -5  -5 6995.66 2643.28   1-0.23716-0.14795-0.91846 0.54788 0.31650-0.82336
  -2  -5  -5 5183.35 2151.83   1-0.89257 0.50750-0.28383-0.08670 0.35034-0.85727
  -7   2   5 5768.09 2052.64   1 0.16580-0.67928-0.50069 0.64892 0.84959-0.34274
   5  -7   5 8489.43 2783.15   1 0.97193-0.84349-0.06054-0.45853 0.22733 0.27975
  -5   7  -4 2243.62 1364.94   1-0.40793 0.27957-0.33193 0.85071-0.85053 0.44510
  -2  -5  -4 3196.55 1609.79   1-0.18639-0.19872-0.88358 0.51300 0.42958-0.83506
  -2  -5  -4 2589.14 1466.29   1-0.76865 0.38357-0.37537 0.00483 0.51794-0.92349
  -7   2   4 3233.12 1569.64   1 0.08988-0.60335-0.51026 0.65849 0.85530-0.44982
   5  -7   4 2280.59 2019.63   1 0.98017-0.85175-0.03968-0.47928 0.19414 0.21163
  -5   7  -321526.49 7162.74   1-0.38971 0.26135-0.25134 0.77012-0.88597 0.58190
  -2  -5  -318479.43 2693.34   1-0.12615-0.25905-0.82780 0.45713 0.54665-0.85083
  -2  -5  -316651.48 4027.31   1-0.58542 0.20007-0.45353 0.08273 0.67199-0.97628
  -7   2   321568.74 5613.12   1-0.01136-0.50211-0.51831 0.66654 0.85511-0.55099
   5  -7   322959.85 3537.30   1 0.98569-0.85728-0.02279-0.49617 0.16696 0.13737
  -5   7  -275087.59 5315.94   1-0.35882 0.23046-0.13481 0.65359-0.92361 0.72090
  -2  -5  -269693.63 4843.93   1-0.05626-0.32894-0.74570 0.37503 0.66389-0.86668
  -2  -5  -265141.13 4803.34   1-0.35338-0.03196-0.50475 0.13395 0.78761-0.99047
  -7   2   262154.28 4619.11   1-0.13576-0.37771-0.52087 0.66910 0.84276-0.64002
   5  -7   270975.82 5156.88   1 0.98869-0.86028-0.01196-0.50700 0.14945 0.05343
  -2  -5  -130294.05 2758.31   1 0.02208-0.40729-0.63381 0.26314 0.77317-0.87456
   5  -7   126252.09 2523.47   1 0.31034-0.18189-0.02271-0.49640 0.95035-0.84882
  -7   2   127137.63 5119.80   1-0.27618-0.23761-0.51352 0.66184 0.81241-0.71098
  -2  -5  -127419.13 4334.00   1-0.10579-0.27931-0.52100 0.15043 0.84697-0.94834
   5  -7   131372.44 3219.30   1 0.98880-0.86039-0.01153-0.50742 0.14876-0.04732
  -2  -5   0 5048.11 1542.64   1 0.10441-0.48962-0.49400 0.12333 0.86316-0.86316
   7  -2   0 3588.24  433.50   1 0.17629 0.33749-0.35336 0.20504 0.91872-0.91872
   5  -7   0 6024.32 1759.67   1 0.23675-0.10830-0.21687-0.30225 0.94705-0.94705
  -7   2   0 4291.84 1494.28   1-0.42090-0.09289-0.49398 0.64230 0.76080-0.76080
  -2  -5   0 4053.19 2490.07   1 0.11718-0.50229-0.50717 0.13660 0.85383-0.85383
   5  -7   0 5312.87 1221.73   1 0.98274-0.85433-0.03220-0.48676 0.18212-0.18212
  -7   2  -128002.58 2650.86   1-0.43670-0.07718-0.79789 0.94623-0.41551 0.31412
   5  -7  -131000.46 2810.00   1 0.14114-0.01269-0.42530-0.09381 0.89397-0.99550
  -2  -5   128631.68 2566.41   1 0.18367-0.56902-0.33762-0.03317 0.92318-0.82165
  -7   2  -134096.49 3860.76   1-0.55779 0.04399-0.46193 0.61025 0.68955-0.79098
  -2  -5   130332.58 3069.36   1 0.29329-0.67840-0.47749 0.10692 0.82823-0.72686
   5  -7  -128475.76 1977.82   1 0.94456-0.81612-0.11192-0.40716 0.30864-0.41006
  -7   2  -279340.89 4674.01   1-0.42646-0.08742-0.83841 0.98675-0.33940 0.13662
   5  -7  -265487.51 4169.70   1 0.03432 0.09407-0.61448 0.09555 0.78818-0.99096
  -2  -5   2106763.6 6934.09   1 0.25116-0.63651-0.18159-0.18920 0.95075-0.74769
  -7   2  -264086.89 4961.55   1-0.67783 0.16403-0.41966 0.56798 0.60366-0.80652
  -2  -5   266686.72 4731.22   1 0.42038-0.80560-0.44547 0.07479 0.79046-0.58771
  -7   2  -317904.13 6009.39   1-0.42344-0.09044-0.84742 0.99577-0.32025 0.01608
   5  -7  -317590.79 2325.26   1-0.06750 0.19590-0.76006 0.24113 0.64633-0.95051
  -2  -5   315929.06 2186.95   1 0.30305-0.68840-0.04368-0.32711 0.95197-0.64737
  -7   2  -316334.72 7421.28   1-0.77680 0.26336-0.37066 0.51888 0.50910-0.81326
  -2  -5   317936.83 2768.83   1 0.50626-0.89148-0.41713 0.04644 0.75478-0.45066
   2   5  -4 1065.65 1410.23   1-0.33871 0.72380-0.06759 0.43815-0.93845 0.53302
  -7   2  -4 1719.36 1091.56   1-0.42445-0.08943-0.84450 0.99285-0.32656-0.07900
   5  -7  -4  983.83  785.97   1-0.15555 0.28393-0.85666 0.33785 0.49186-0.89735
  -7   2  -4 1714.59 1376.16   1-0.85456 0.34112-0.31750 0.46572 0.41099-0.81653
  -2  -5   4 3080.27 1524.65   1 0.56144-0.94667-0.39580 0.02511 0.72671-0.32121
   2   5  -5 5223.06 4279.36   1-0.36286 0.74795-0.14899 0.51955-0.91985 0.41306
  -7   2  -5 7983.24 3332.73   1-0.42754-0.08634-0.83492 0.98327-0.34656-0.16039
   5  -7  -5 5944.00 1438.11   1-0.22661 0.35499-0.91227 0.39345 0.34117-0.84803
  -7   2  -5 5406.90 2313.63   1-0.91284 0.39941-0.26262 0.41084 0.31262-0.81955
  -2  -5   5 7979.67 2581.52   1 0.59431-0.97953-0.38178 0.01110 0.70783-0.20096
   2   5  -612240.68 6624.09   1-0.37795 0.76305-0.20464 0.57519-0.90292 0.29477
  -7   2  -614169.48 6627.32   1-0.43158-0.08230-0.82051 0.96886-0.37481-0.23352
   5  -7  -614386.68 2743.93   1-0.28284 0.41121-0.93780 0.41899 0.20130-0.80953
  -2  -5   611377.46 2742.00   1 0.61075-0.99598-0.37437 0.00368 0.69772-0.08947
   7  -2   615522.16 3520.15   1 0.95433-0.44069 0.20640-0.35468-0.21594 0.82461
   2   5  -7 1557.29 1470.19   1-0.38668 0.77177-0.23896 0.60952-0.89071 0.18121
  -7   2  -7 1229.22 1689.70   1-0.43571-0.07811-0.80197 0.95030-0.40863-0.30135
   5  -7  -7 1079.26 1462.00   1-0.32747 0.45594-0.94200 0.42279 0.07343-0.78317
  -2  -5   7 1629.88 1722.23   1 0.61466-0.99989-0.37256 0.00188 0.69525 0.01437
   7  -2   7 1461.52 2515.93   1 0.98095-0.46730 0.15144-0.29972-0.12162 0.83173
  -6   7  -7 1780.60 1536.74   1-0.42990 0.21580-0.45476 0.97392-0.77998 0.06999
  -1  -6  -7  363.26 1378.81   1-0.29881-0.04350-0.94125 0.49655 0.15730-0.86691
  -7   1   7  265.61  662.76   1 0.26434-0.82060-0.48357 0.55768 0.83443-0.12483
   6  -7   7 1315.26 2590.38   1 0.96942-0.75535-0.06617-0.45290 0.23630 0.47361
  -6   7  -6 6252.33 2985.69   1-0.42804 0.21410-0.44118 0.95996-0.78875 0.18060
  -1  -6  -6 5717.40 2863.08   1-0.25930-0.08302-0.92944 0.48474 0.26247-0.87070
  -7   1   6 4826.11 2601.25   1 0.23720-0.79347-0.48883 0.56294 0.83950-0.23128
   6  -7   6 3608.94 2959.84   1 0.98158-0.76756-0.03564-0.48331 0.18766 0.42100
  -6   7  -5 2120.54 1942.24   1-0.42320 0.20926-0.41184 0.93062-0.80701 0.30023
  -1  -6  -5 1641.99 2018.56   1-0.21291-0.12941-0.90337 0.45867 0.37227-0.87913
  -7   1   5 2149.88 1672.66   1 0.19117-0.74743-0.49680 0.57091 0.84654-0.33969
   6  -7   5 3677.82 2446.40   1 0.99011-0.77609-0.00620-0.51275 0.14013 0.36709
  -6   7  -4 9282.58 3142.27   1-0.41395 0.20001-0.36163 0.88041-0.83538 0.42995
  -1  -6  -4 7257.44 1864.26   1-0.15873-0.18359-0.85961 0.41492 0.48565-0.89114
  -1  -6  -4 7158.77 2975.18   1-0.80563 0.46334-0.35285-0.09178 0.47586-0.88141
  -7   1   411122.35 4406.06   1 0.12374-0.68000-0.50637 0.58049 0.85338-0.44790
   6  -7   410020.16 2844.34   1 0.99530-0.78128 0.02193-0.54090 0.09429 0.31148
  -6   7  -3 8453.67 2538.41   1-0.39716 0.18322-0.28289 0.80167-0.87305 0.56898
  -1  -6  -3 4832.61 2085.66   1-0.09595-0.24645-0.79445 0.34965 0.59970-0.90388
  -1  -6  -3 3654.76 1646.87   1-0.60059 0.25805-0.44861 0.00365 0.66183-0.96612
  -7   1   3 4738.58 2058.05   1 0.03326-0.58952-0.51542 0.58954 0.85628-0.55217
   6  -7   3 6450.61 2304.07   1 0.99753-0.78351 0.04837-0.56734 0.05089 0.25343
  -6   7  -222997.37 2763.14   1-0.36760 0.15366-0.16604 0.68482-0.91503 0.71232
  -1  -6  -226426.63 2853.05   1-0.02551-0.31688-0.70424 0.25944 0.70950-0.91228
  -1  -6  -220262.38 2868.03   1-0.33189-0.01063-0.50756 0.06260 0.79512-0.99798
  -7   1   225457.52 6451.63   1-0.07959-0.47667-0.52072 0.59484 0.85000-0.64726
   6  -7   226373.23 3097.44   1 0.99731-0.78329 0.07238-0.59135 0.01118 0.19170
  -1  -6  -1 8950.07 2129.50   1 0.05033-0.39274-0.58844 0.14364 0.80696-0.90835
  -7   1   1 8648.55 4318.26   1-0.21034-0.34592-0.51845 0.59257 0.82882-0.72745
  -1  -6  -1 9554.23 3091.58   1-0.05191-0.29040-0.52004 0.07535 0.85256-0.95393
   6  -7   1 8041.85 1710.06   1 0.99545-0.78143 0.09259-0.61156-0.02246 0.12390
  -7   1   018558.67 1216.83   1-0.40214-0.15456-0.89199 0.96616-0.20645 0.20645
  -1  -6   021818.44 2780.06   1 0.12728-0.46982-0.45230 0.00734 0.88273-0.88273
   6  -7   027366.24 3271.40   1 0.24213-0.02804-0.20385-0.31527 0.94858-0.94858
  -7   1   021317.33 7343.34   1-0.35054-0.20606-0.50514 0.57930 0.78863-0.78863
  -1  -6   023592.02 5448.77   1 0.18636-0.52868-0.49756 0.05288 0.84716-0.84716
   6  -7   025001.79 2655.67   1 0.99334-0.77932 0.10603-0.62500-0.04494 0.04494
  -7   1  -1 7171.30  978.80   1-0.38785-0.16886-0.91059 0.98477-0.14277 0.04138
   6  -7  -1 6915.22 1581.63   1 0.13824 0.07584-0.43102-0.08809 0.89168-0.99322
  -1  -6   1 6602.31 1420.63   1 0.19817-0.54070-0.30597-0.13898 0.93118-0.82965
  -7   1  -1 9833.70 3243.72   1-0.48914-0.06747-0.47985 0.55401 0.72834-0.82977
  -1  -6   1 8490.32 2181.52   1 0.36371-0.70613-0.46131 0.01649 0.80926-0.70788
   6  -7  -1 9158.97 1325.16   1 0.99361-0.77959 0.10452-0.62349-0.04241-0.05903
  -7   1  -222137.20 2294.35   1-0.38848-0.16822-0.90990 0.98407-0.14544-0.05734
   6  -7  -224559.13 2659.16   1 0.02059 0.19340-0.63613 0.11719 0.77130-0.97409
  -1  -6   228742.72 3215.69   1 0.25789-0.60042-0.16471-0.28024 0.95202-0.74896
  -7   1  -223236.03 9834.61   1-0.61644 0.05983-0.44322 0.51738 0.65080-0.85365
  -1  -6   222902.84 2813.41   1 0.48451-0.82693-0.42484-0.01997 0.76469-0.56194
  -7   1  -3 3503.60 1281.67   1-0.39407-0.16263-0.90329 0.97746-0.16960-0.13456
   6  -7  -3 4538.30 1646.29   1-0.08986 0.30386-0.78733 0.26839 0.60994-0.91412
  -1  -6   3 3449.94 1180.95   1 0.30398-0.64651-0.04104-0.40392 0.95179-0.64719
  -7   1  -3 4504.08 2560.41   1-0.72595 0.16973-0.39795 0.47206 0.56091-0.86507
  -1  -6   3 5750.09 2463.63   1 0.56291-0.90533-0.39519-0.04962 0.72591-0.42178
   1   6  -410915.19 2446.70   1-0.33612 0.67843-0.05933 0.50400-0.93994 0.53451
  -7   1  -4 9289.19 3419.00   1-0.40156-0.15514-0.89288 0.96705-0.20373-0.20182
   6  -7  -412006.40 2303.38   1-0.18197 0.39593-0.87997 0.36115 0.43878-0.84427
  -7   1  -412032.14 3801.50   1-0.81531 0.25909-0.34642 0.42052 0.46394-0.86949
  -1  -6   411003.19 2572.38   1 0.61143-0.95385-0.37406-0.07075 0.69729-0.29179
   1   6  -5 2066.57 2547.04   1-0.35858 0.70089-0.13397 0.57863-0.92383 0.41704
  -7   1  -5 1984.22 1772.40   1-0.40965-0.14705-0.87918 0.95335-0.24334-0.26360
   6  -7  -5 2763.22 1536.08   1-0.25324 0.46720-0.92672 0.40791 0.27756-0.78442
  -7   1  -5 2077.02 1761.98   1-0.88462 0.32840-0.29146 0.36556 0.36399-0.87092
  -1  -6   5 1429.37 1819.08   1 0.63903-0.98145-0.36095-0.08386 0.67922-0.17234
   1   6  -6 3417.71 2411.42   1-0.37303 0.71534-0.18603 0.63069-0.90897 0.30083
  -7   1  -6 4890.83 2518.30   1-0.41768-0.13902-0.86229 0.93647-0.28632-0.32201
   6  -7  -6 4505.64 1489.61   1-0.30745 0.52141-0.94228 0.42346 0.13258-0.74081
  -7   1  -6 3447.77 1664.57   1-0.93553 0.37931-0.23489 0.30900 0.26382-0.87214
  -1  -6   6 3743.50 2621.03   1 0.65155-0.99398-0.35471-0.09010 0.67055-0.06230
   1   6  -7  634.87 1699.67   1-0.38164 0.72395-0.21892 0.66359-0.89800 0.18850
  -7   1  -7 -315.17 1460.10   1-0.42524-0.13146-0.84216 0.91634-0.33154-0.37819
  -1  -6   7 -739.64 1774.68   1 0.65266-0.99508-0.35416-0.09065 0.66977 0.03984
   7  -1   7  360.52 1695.13   1 0.97032-0.41387 0.17681-0.25095-0.16494 0.87505
  -7   7  -6 1177.32 1601.91   1-0.43034 0.13060-0.45768 0.97684-0.77802 0.16946
   0  -7  -6  654.94 1587.85   1-0.24177-0.05775-0.92098 0.40216 0.30550-0.91374
  -7   0   6  -11.43  733.63   1 0.24301-0.84207-0.48774 0.48774 0.83848-0.23025
   7  -7   6  147.23 1609.49   1 0.99307-0.69345 0.00789-0.52686 0.11720 0.49146
  -7   7  -5 1328.09 1043.87   1-0.42627 0.12675-0.43011 0.94889-0.79579 0.28900
   0  -7  -5 1886.40 2361.13   1-0.19279-0.10673-0.88865 0.36983 0.41608-0.92294
  -7   0   5  380.26  951.85   1 0.20115-0.80020-0.49517 0.49517 0.84518-0.33833
   7  -7   5 1114.37 1964.49   1 0.99722-0.69760 0.04196-0.56092 0.06145 0.44577
  -7   7  -425209.44 8341.51   1-0.41773 0.11821-0.38137 0.90015-0.82465 0.41922
   0  -7  -428434.95 2912.79   1-0.13658-0.16295-0.83816 0.31935 0.52803-0.93351
  -7   0   428460.84 6222.33   1 0.14000-0.73906-0.50429 0.50429 0.85210-0.44662
   7  -7   434497.61 4728.49   1 0.99711-0.69749 0.07561-0.59458 0.00581 0.39996
  -7   7  -3  889.57 1577.53   1-0.40180 0.10228-0.30342 0.82220-0.86399 0.55992
   0  -7  -3  792.59 1691.81   1-0.07291-0.22669-0.76681 0.24788 0.63771-0.94189
  -7   0   3  711.39 1402.55   1 0.05793-0.65698-0.51338 0.51338 0.85619-0.55208
   7  -7   3 1713.87 2544.55   1 0.99281-0.69318 0.10885-0.62782-0.04967 0.35401
  -7   7  -2 -247.62 1173.25   1-0.37278 0.07326-0.18506 0.70384-0.90927 0.70656
   0  -7  -2  204.32 1697.62   1-0.00354-0.29605-0.67267 0.15374 0.73992-0.94271
   0  -7  -2  172.72  427.72   1-0.32718 0.02747-0.50813-0.01098 0.79670-0.99956
  -7   0   2 1359.80 2222.39   1-0.04512-0.55393-0.51981 0.51981 0.85308-0.65034
   7  -7   2  693.66 1848.20   1 0.98433-0.68471 0.14163-0.66060-0.10496 0.30785
  -7   0   1  565.29  338.22   1-0.26701-0.33205-0.93258 0.93258 0.24288-0.14151
   0  -7  -1  -95.14 1558.38   1 0.06883-0.36844-0.55728 0.03834 0.82746-0.92885
  -7   0   1 1173.11 1021.89   1-0.16635-0.43269-0.52025 0.52025 0.83765-0.73628
   0  -7  -1  701.94  722.50   1-0.00820-0.29132-0.51814-0.00065 0.85525-0.95662
   7  -7   1 2018.47 1349.30   1 0.97170-0.67207 0.17386-0.69283-0.15988 0.26133
  -7   0   071721.24 3669.04   1-0.29953-0.29953-0.94136 0.94136 0.15527-0.15527
   0  -7   081292.15 5391.05   1 0.14025-0.43997-0.42705-0.09206 0.89328-0.89328
   7  -7   0105904.7 6144.36   1 0.24082 0.05889-0.20704-0.31207 0.94822-0.94822
  -7   0   077847.75 8003.30   1-0.29971-0.29971-0.51123 0.51123 0.80548-0.80548
   0  -7   070603.90 4870.79   1 0.24506-0.54459-0.48735-0.03144 0.83811-0.83811
   7  -7   093600.73 5878.86   1 0.95496-0.65534 0.20537-0.72433-0.21415 0.21415
  -7   0  -1  736.50  788.88   1-0.32280-0.27626-0.94247 0.94247 0.08682-0.18819
   7  -7  -1  274.55  670.89   1 0.12539 0.17432-0.45595-0.06317 0.88112-0.98266
   0  -7   1 1206.84 1714.50   1 0.20469-0.50440-0.29142-0.22769 0.93443-0.83290
  -7   7   1 1533.14  907.31   1-0.93481 0.63530-0.23586 0.75461 0.26551-0.16412
  -7   0  -1 1848.31 1144.73   1-0.43590-0.16352-0.49116 0.49116 0.75415-0.85557
   0  -7   1 1329.10 1139.91   1 0.42176-0.72138-0.44506-0.07389 0.78995-0.68858
  -7   0  -2  225.30  598.05   1-0.34254-0.25699-0.93916 0.93916 0.02507-0.22786
   7  -7  -2  660.81  707.67   1-0.00643 0.30604-0.67691 0.15798 0.73602-0.93881
   0  -7   2  673.50 1479.11   1 0.25869-0.55840-0.16270-0.35642 0.95215-0.74909
  -7   7   2  245.51  351.91   1-0.91160 0.61210-0.26400 0.78276 0.31507-0.11230
  -7   0  -2  619.09  712.17   1-0.56572-0.03370-0.45959 0.45959 0.68463-0.88748
   0  -7   2   81.83 1198.64   1 0.53609-0.83571-0.40592-0.11303 0.74015-0.53740
  -7   0  -3  109.27 1043.26   1-0.35971-0.23982-0.93244 0.93244-0.03393-0.27024
   7  -7  -3  237.18  796.99   1-0.12652 0.42613-0.82819 0.30925 0.54597-0.85015
   0  -7   3  659.44 1654.83   1 0.30073-0.60045-0.05026-0.46885 0.95238-0.64778
  -7   0  -3  968.19 1484.38   1-0.68158 0.08258-0.41829 0.41829 0.60038-0.90454
   0  -7   3 -244.79 1563.36   1 0.60758-0.90720-0.37582-0.14313 0.69970-0.39558
   0   7  -428440.02 4514.38   1-0.33054 0.63006-0.04174 0.56052-0.94286 0.53743
  -7   0  -425512.72 7953.67   1-0.37513-0.22439-0.92245 0.92245-0.09136-0.31419
   7  -7  -427799.89 1968.88   1-0.22095 0.52048-0.90870 0.38989 0.35416-0.75965
  -7   0  -428083.58 8156.88   1-0.77947 0.18046-0.36909 0.36909 0.50615-0.91170
   0  -7   432041.35 3717.95   1 0.65039-0.95001-0.35530-0.16365 0.67137-0.26587
   0   7  -5 2743.08 2450.98   1-0.35197 0.65149-0.11128 0.63006-0.92937 0.42258
  -7   0  -5 1372.00 1195.04   1-0.38905-0.21047-0.90926 0.90926-0.14788-0.35907
  -7   0  -5 1004.06 1132.50   1-0.85780 0.25879-0.31488 0.31488 0.40623-0.91316
   0  -7   5  649.52 1870.69   1 0.67369-0.97331-0.34323-0.17571 0.65446-0.14758
   0   7  -6 1010.36  759.37   1-0.36614 0.66566-0.16075 0.67953-0.91656 0.30842
  -7   0  -6  376.76  655.88   1-0.40158-0.19795-0.89285 0.89285-0.20383-0.40451
  -7   0  -6 1631.59 2198.19   1-0.91713 0.31813-0.25775 0.25775 0.30401-0.91233
   0  -7   6  505.08 1645.68   1 0.68312-0.98274-0.33815-0.18080 0.64729-0.03904
  -1   8  -6  832.04 1125.86   1-0.35742 0.61415-0.12995 0.72284-0.92485 0.31671
  -7  -1  -6  609.21  590.43   1-0.38481-0.25754-0.91378 0.83960-0.13009-0.47825
  -7  -1  -6 1142.24 1135.36   1-0.90039 0.25860-0.27598 0.20187 0.33633-0.94465
   1  -8   6 2127.79 2220.64   1 0.70638-0.96320-0.32510-0.26799 0.62875-0.02050
  -1   8  -5  697.09 1530.40   1-0.34329 0.60002-0.08244 0.67533-0.93560 0.42881
  -7  -1  -5  636.14  668.09   1-0.36793-0.27442-0.92765 0.85347-0.06393-0.44301
  -7  -1  -5  459.63 1372.52   1-0.83412 0.19233-0.33317 0.25906 0.43958-0.94651
   1  -8   5 1599.19 1670.89   1 0.69924-0.95605-0.32919-0.26390 0.63458-0.12770
  -1   8  -417100.64 3273.01   1-0.32246 0.57919-0.01690 0.60979-0.94642 0.54100
  -7  -1  -413862.76 6811.02   1-0.34849-0.29385-0.93729 0.86312 0.00512-0.41069
  -7  -1  -415484.77 6398.92   1-0.74895 0.10716-0.38619 0.31208 0.53844-0.94398
   1  -8   419121.26 3185.26   1 0.67921-0.93603-0.34027-0.25281 0.65028-0.24478
  -7  -1  -3  708.41  446.10   1-0.32556-0.31630-0.94227 0.86815 0.07832-0.38244
   1  -8   3 1666.84 1513.26   1 0.29425-0.55114-0.06844-0.52483 0.95327-0.64867
  -7  -1  -3 1919.30 2094.21   1-0.64567 0.00342-0.43256 0.35840 0.62927-0.93356
   1  -8   3 1449.58 1584.29   1 0.64092-0.89774-0.36002-0.23307 0.67793-0.37381
  -7  -1  -2  724.26  466.31   1-0.29851-0.34335-0.94120 0.86709 0.15817-0.36091
   1  -8   2  478.71 1728.71   1 0.25509-0.51198-0.17178-0.42149 0.95153-0.74847
  -8   7   2  350.24  479.18   1-0.81723 0.43215-0.34512 0.86387 0.46154-0.25877
  -7  -1  -2 1614.65 1114.75   1-0.52671-0.11553-0.47053 0.39637 0.70793-0.91078
   1  -8   2 1789.64 1456.01   1 0.57519-0.83200-0.39006-0.20302 0.71903-0.51627
  -7  -1  -1  941.41  772.68   1-0.26485-0.37700-0.93174 0.85762 0.24840-0.34977
   8  -7  -1 1322.82  889.46   1 0.09695 0.28825-0.50764-0.01128 0.85609-0.95748
   1  -8   1  524.55 1651.14   1 0.20536-0.46226-0.28990-0.30337 0.93476-0.83322
  -8   7   1 -181.18  680.08   1-0.86634 0.48127-0.30776 0.82652 0.39334-0.29195
  -7  -1  -1  -72.05 1518.68   1-0.39760-0.24464-0.49804 0.42388 0.77062-0.87205
   1  -8   1  838.57 1172.48   1 0.46669-0.72350-0.43088-0.16221 0.77235-0.67098
  -7  -1   045264.67 3113.17   1-0.22032-0.42153-0.90830 0.83418 0.35558-0.35558
   1  -8   049585.69 4466.11   1 0.14607-0.40297-0.41551-0.17776 0.89778-0.89778
   8  -7   048584.33 3660.78   1 0.23071 0.15463-0.23132-0.28779 0.94512-0.94512
  -8   7   055616.10 4396.69   1-0.90593 0.52085-0.27018 0.78893 0.32602-0.32602
  -7  -1   046184.4213678.40   1-0.26600-0.37624-0.51441 0.44025 0.81524-0.81524
   1  -8   043465.33 3525.04   1 0.29171-0.54852-0.47846-0.11462 0.82823-0.82823
   1  -8  -1 -147.55 1574.93   1 0.07957-0.33637-0.53865-0.05441 0.83876-0.94015
  -8   7  -1 1215.80 1213.62   1-0.93717 0.55210-0.23266 0.75142 0.25992-0.36131
  -7  -1   1 1185.36  896.20   1-0.14007-0.50177-0.52082 0.44670 0.84209-0.74072
   1  -8  -1  380.76  546.96   1 0.02129-0.27803-0.51630-0.07660 0.85613-0.95751
  -8   7  -2  897.27 1342.63   1-0.37423-0.01086-0.19050 0.70928-0.90755 0.70484
   1  -8  -2  417.24 1749.23   1 0.01090-0.26770-0.65103 0.05797 0.75896-0.96175
  -7  -1   2   47.26 1302.68   1-0.02744-0.61440-0.51910 0.44499 0.85427-0.65152
   8  -7   2    7.70 1489.95   1 0.96110-0.57587 0.19476-0.71372-0.19581 0.39870
  -8   7  -3  830.04 1132.45   1-0.40374 0.01865-0.31229 0.83107-0.85991 0.55584
   1  -8  -3  713.53 1529.31   1-0.05649-0.20031-0.74600 0.15293 0.66354-0.96772
  -7  -1   3 2279.59 2080.40   1 0.06752-0.70936-0.51250 0.43839 0.85602-0.55191
   8  -7   3 1167.66 2143.38   1 0.97868-0.59344 0.15745-0.67642-0.13185 0.43619
  -8   7  -423138.79 6294.69   1-0.41949 0.03439-0.39091 0.90969-0.81927 0.41384
   1  -8  -419987.36 2946.10   1-0.11963-0.13716-0.82088 0.22782 0.55841-0.96399
  -7  -1   420674.29 6344.72   1 0.14304-0.78489-0.50388 0.42977 0.85184-0.44635
   8  -7   427830.29 4537.36   1 0.99035-0.60512 0.12023-0.63920-0.06881 0.47459
  -8   7  -5 1485.82 1203.37   1-0.42775 0.04266-0.43934 0.95812-0.78993 0.28315
   1  -8  -5  332.32 1508.16   1-0.17703-0.07971-0.87583 0.28290 0.44897-0.95583
  -7  -1   5  692.72 1471.28   1 0.19949-0.84133-0.49544 0.42133 0.84541-0.33856
   8  -7   5 -495.65 1840.33   1 0.99652-0.61129 0.08302-0.60199-0.00650 0.51373
  -8   7  -6  345.77  887.65   1-0.43161 0.04623-0.46627 0.98543-0.77220 0.16364
   1  -8  -6   51.97 1399.97   1-0.22767-0.02907-0.91291 0.31998 0.33874-0.94697
  -7  -1   6  376.66  543.49   1 0.23837-0.88022-0.48861 0.41450 0.83930-0.23107
   8  -7   6 1304.77 1689.79   1 0.99742-0.61219 0.04575-0.56472 0.05521 0.55345
  -2   8  -6 3378.14 2082.67   1-0.37410 0.54525-0.19002 0.78291-0.90770 0.29956
  -6  -2  -6 3922.01 2215.76   1-0.36013-0.23939-0.93222 0.78388-0.03544-0.57290
  -6  -2  -6 3362.68 1876.16   1-0.90024 0.30124-0.27613 0.12792 0.33660-0.94492
   2  -8   6 5429.99 2550.77   1 0.77721-0.94846-0.27954-0.31370 0.56373 0.04476
  -2   8  -5 2665.07 2027.48   1-0.36173 0.53289-0.14501 0.73791-0.92093 0.41414
  -6  -2  -5 3365.11 1540.46   1-0.33680-0.26273-0.94055 0.79220 0.04384-0.55079
  -6  -2  -5 6029.89 2399.57   1-0.82784 0.22884-0.33771 0.18949 0.44790-0.95484
  -2   8  -4 2676.41 1798.57   1-0.34291 0.51406-0.08119 0.67408-0.93585 0.53042
  -6  -2  -4 3806.19 1706.98   1-0.30887-0.29020-0.94238 0.79415 0.12845-0.53394
  -6  -2  -4 1978.40 1827.42   1-0.73282 0.13381-0.39453 0.24632 0.55435-0.95990
   2  -8   4 3242.06 1794.02   1 0.76561-0.93686-0.28755-0.30569 0.57545-0.16978
  -6  -2  -3 9272.82 1791.94   1-0.27557-0.32350-0.93561 0.78738 0.22064-0.52475
  -6  -2  -3 7525.19 3040.70   1-0.61608 0.01665-0.44334 0.29502 0.65106-0.95534
  -8   6   3 5381.88 2694.97   1-0.54121 0.11304-0.46662 0.91159 0.69953-0.39525
   2  -8   3 9335.40 2281.63   1 0.73925-0.91051-0.30479-0.28845 0.60049-0.29624
  -6  -2  -219123.35 2390.35   1-0.23452-0.36455-0.91696 0.76873 0.32275-0.52549
   2  -8   237887.61 5185.83   1 0.27893-0.45019-0.11011-0.48316 0.95397-0.75091
  -8   6   222937.58 2287.98   1-0.64477 0.21660-0.43290 0.87786 0.62996-0.42711
  -6  -2  -221218.03 6450.66   1-0.48107-0.11835-0.48170 0.33338 0.73247-0.93533
   2  -8   223289.85 2813.36   1 0.68885-0.86006-0.33501-0.25808 0.64284-0.44009
  -6  -2  -115145.74 1960.82   1-0.18261-0.41646-0.88049 0.73226 0.43747-0.53884
   2  -8   113844.69 2991.32   1 0.22933-0.40060-0.23459-0.35869 0.94465-0.84312
  -8   6   111543.21 4692.75   1-0.73499 0.30713-0.39343 0.83808 0.55225-0.45086
  -6  -2  -113557.86 4178.23   1-0.33550-0.26392-0.50711 0.35879 0.79389-0.89532
   2  -8   113338.42 1918.16   1 0.59585-0.76706-0.38110-0.21199 0.70690-0.60553
  -6  -2   0 7415.79 1086.40   1-0.11584-0.48336-0.81679 0.66852 0.56518-0.56518
   2  -8   0 7634.36 1824.02   1 0.16839-0.33966-0.36997-0.22330 0.91365-0.91365
   8  -6   013740.56 1937.90   1 0.24773 0.18042-0.19009-0.25486 0.94999-0.94999
  -8   6   0 7678.07 3635.25   1-0.80922 0.38136-0.35049 0.79514 0.47149-0.47149
  -6  -2   010152.12 3490.67   1-0.18933-0.40972-0.51944 0.37122 0.83326-0.83326
   2  -8   0 8322.54 1551.62   1 0.42524-0.59645-0.44401-0.14907 0.78867-0.78867
  -8   6  -112436.07 4699.29   1-0.35177-0.07610-0.11062 0.55529-0.92952 0.82816
  -6  -2   111660.86 1431.48   1-0.03160-0.56760-0.71270 0.56443 0.70075-0.59936
   2  -8  -116743.75 3455.36   1 0.09844-0.26964-0.50493-0.08813 0.85752-0.95891
  -8   6  -111446.64 5190.67   1-0.86798 0.44012-0.30636 0.75101 0.39081-0.49220
  -6  -2   122589.54 8667.86   1-0.05350-0.54554-0.52009 0.37186 0.85243-0.75106
   2  -8  -110454.70 2877.07   1 0.11099-0.28215-0.50791-0.08499 0.85422-0.95559
  -8   6  -227221.0911201.78   1-0.40239-0.02548-0.30611 0.75078-0.86277 0.66005
   2  -8  -222160.93 2949.09   1 0.02522-0.19643-0.62890 0.03583 0.77707-0.97986
  -6  -2   219169.19 1740.56   1 0.06583-0.66504-0.56241 0.41414 0.82422-0.62144
  -8   6  -220328.49 3045.89   1-0.91325 0.48539-0.26216 0.70681 0.31181-0.51459
  -6  -2   224081.86 8949.99   1 0.06444-0.66349-0.51279 0.36456 0.85608-0.65334
  -8   6  -3 7670.25 3622.63   1-0.42524-0.00264-0.42386 0.86853-0.79969 0.49561
   2  -8  -3 6758.40 1909.39   1-0.04695-0.12425-0.73348 0.14041 0.67808-0.98226
  -6  -2   3 9727.73 5148.04   1 0.16059-0.75965-0.50144 0.35322 0.85015-0.54603
  -8   6  -4 4479.21 2000.97   1-0.43522 0.00702-0.49248 0.93747-0.75368 0.34798
   2  -8  -4 3105.97 1763.90   1-0.11437-0.05682-0.81519 0.22212 0.56778-0.97336
  -6  -2   4 5201.60 1953.79   1 0.23453-0.83358-0.48932 0.34109 0.83997-0.43448
   8  -6   4 4279.42 1964.75   1 0.97141-0.54337 0.17448-0.61931-0.16095 0.56673
  -8   6  -5 3282.30 2065.86   1-0.43981 0.01161-0.53108 0.97608-0.72423 0.21709
   2  -8  -5 2325.88 2427.99   1-0.17518 0.00402-0.87426 0.28133 0.45274-0.95960
  -6  -2   5 1628.06 1434.56   1 0.28793-0.88699-0.47865 0.33042 0.82944-0.32259
   8  -6   5 3279.20 2108.50   1 0.98733-0.55929 0.13180-0.57663-0.08832 0.59555
  -8   6  -6 2544.91 1332.25   1-0.44171 0.01351-0.54986 0.99486-0.70889 0.10033
   2  -8  -6 2132.18 1610.70   1-0.22827 0.05711-0.91328 0.32035 0.33734-0.94557
  -6  -2   6 3006.62 1597.76   1 0.32297-0.92220-0.47141 0.32313 0.82064-0.21239
   8  -6   6 3429.99 3150.78   1 0.99582-0.56778 0.08958-0.53441-0.01744 0.62610
  -3   8  -6 7379.08 2689.85   1-0.38743 0.47301-0.24201 0.83490-0.88956 0.28142
  -5  -3  -6 5435.35 3008.45   1-0.33463-0.22207-0.94097 0.71845 0.05082-0.65916
  -5  -3  -6 5634.20 2217.65   1-0.90510 0.34889-0.27105 0.04873 0.32757-0.93589
   3  -8   6 8087.44 2467.94   1 0.83926-0.92489-0.23126-0.36197 0.49208 0.11641
  -3   8  -5 5560.09 3475.07   1-0.37664 0.46222-0.19963 0.79252-0.90458 0.39780
  -5  -3  -5 6067.90 1759.02   1-0.30478-0.25149-0.94203 0.71968 0.14029-0.64715
  -5  -3  -5 2997.63 1230.54   1-0.82728 0.27107-0.33811 0.11578 0.44863-0.95557
   3  -8   5 7062.48 2339.38   1 0.84451-0.93013-0.22668-0.36655 0.48519 0.02188
  -3   8  -4  828.94 1663.91   1-0.35970 0.44528-0.13788 0.73077-0.92282 0.51739
  -5  -3  -4  468.57 1237.58   1-0.26953-0.28674-0.93352 0.71117 0.23638-0.64187
  -5  -3  -4 1926.90 1333.15   1-0.72215 0.16593-0.39981 0.17749 0.56448-0.97003
  -8   5   4  909.52  513.12   1-0.25751-0.21346-0.51511 0.88591 0.81752-0.41181
   3  -8   4 1520.72 1704.34   1 0.84195-0.92757-0.22893-0.36431 0.48857-0.08290
  -3   8  -317611.46 3561.71   1-0.33435 0.41993-0.05370 0.64659-0.94091 0.63684
  -5  -3  -314384.73 2414.50   1-0.22700-0.32927-0.91250 0.69016 0.34028-0.64440
  -5  -3  -315309.73 6857.25   1-0.59076 0.03415-0.45183 0.22935 0.66846-0.97274
  -8   5   313439.53 4254.99   1-0.37044-0.10053-0.50231 0.87311 0.78131-0.47702
   3  -8   315830.71 2884.83   1 0.82811-0.91374-0.24071-0.35252 0.50624-0.20199
  -5  -3  -246569.18 3654.90   1-0.17513-0.38114-0.87421 0.65187 0.45284-0.65558
   3  -8   246572.14 4593.99   1 0.29916-0.38480-0.05469-0.53858 0.95263-0.74956
  -8   5   254808.23 4059.02   1-0.48922 0.01824-0.47983 0.85063 0.72829-0.52544
  -5  -3  -249244.14 5790.54   1-0.43806-0.11854-0.49074 0.26826 0.75316-0.95602
   3  -8   242850.79 3792.31   1 0.79559-0.88122-0.26625-0.32699 0.54418-0.34134
  -5  -3  -129648.97 2756.23   1-0.11161-0.44479-0.81216 0.58976 0.57265-0.67404
   3  -8   146238.05 5354.63   1 0.24983-0.33546-0.18491-0.40837 0.95046-0.84893
  -8   5   131668.53 2743.61   1-0.60279 0.13180-0.44788 0.81868 0.66033-0.55890
  -5  -3  -125376.23 7522.70   1-0.27481-0.28180-0.51364 0.29116 0.81279-0.91422
   3  -8   130357.93 2817.68   1 0.72812-0.81372-0.31217-0.28091 0.61023-0.50885
  -5  -3   0 1056.84 1190.30   1-0.03559-0.52081-0.71817 0.49577 0.69494-0.69494
   3  -8   0  329.07 1209.42   1 0.18727-0.27290-0.32985-0.26343 0.92527-0.92527
   8  -5   0  613.08  444.46   1 0.26398 0.20700-0.14921-0.22158 0.95291-0.95291
  -8   5   0  176.17 1219.36   1-0.70304 0.23239-0.40881 0.77935 0.58188-0.58188
  -5  -3   0  611.50  781.77   1-0.11431-0.44195-0.52101 0.29867 0.84585-0.84585
   3  -8   0  534.65  810.95   1 0.58274-0.66835-0.38683-0.20625 0.71467-0.71467
  -8   5  -130246.08 2951.98   1-0.38597-0.08469-0.23612 0.60668-0.89177 0.79041
  -5  -3   129444.84 2429.67   1 0.05035-0.60676-0.58841 0.36601 0.80698-0.70559
   3  -8  -128541.23 3318.82   1 0.11422-0.19985-0.47712-0.11616 0.87138-0.97291
  -8   5  -126535.9910126.59   1-0.78662 0.31598-0.36481 0.73534 0.49812-0.59951
  -5  -3   132341.31 7605.62   1 0.03034-0.58660-0.51565 0.29330 0.85626-0.75489
   3  -8  -123988.15 1815.82   1 0.23642-0.32200-0.48897-0.10393 0.83964-0.94101
  -8   5  -254707.25 6640.39   1-0.42726-0.04340-0.43627 0.80682-0.79190 0.58918
   3  -8  -247758.32 3996.92   1 0.03555-0.12115-0.61251 0.01945 0.78965-0.99244
  -5  -3   249576.57 3489.29   1 0.13792-0.69454-0.43163 0.20915 0.89144-0.68837
  -8   5  -251618.05 5497.28   1-0.85338 0.38274-0.31844 0.68898 0.41270-0.61547
  -5  -3   254405.84 4810.96   1 0.15160-0.70787-0.50271 0.28037 0.85105-0.64830
  -8   5  -313289.47 8356.62   1-0.44066-0.03035-0.53921 0.91004-0.71767 0.41339
   3  -8  -317075.87 2698.12   1-0.04172-0.04387-0.72649 0.13342 0.68590-0.99008
  -5  -3   315204.06 1989.51   1 0.21495-0.77157-0.26811 0.04563 0.93909-0.63450
  -8   5  -315829.72 8880.54   1-0.90493 0.43428-0.27124 0.64178 0.32790-0.63206
  -5  -3   312874.71 4252.50   1 0.24696-0.80322-0.48699 0.26464 0.83776-0.53365
  -8   5  -4 1007.18  689.37   1-0.44516-0.02585-0.59300 0.96383-0.67094 0.26523
   3  -8  -4 2521.60 2115.71   1-0.11354 0.02794-0.81428 0.22121 0.56924-0.97482
  -5  -3   4   36.88 1145.33   1 0.27411-0.83073-0.12286-0.09961 0.95381-0.54768
  -5  -3   4 1132.51 1144.46   1 0.31756-0.87399-0.47267 0.25026 0.82203-0.41653
  -8   5  -5 5400.25 4446.78   1-0.44658-0.02443-0.61919 0.99002-0.64587 0.13874
   3  -8  -5 3847.69 1411.84   1-0.17765 0.09207-0.87635 0.28342 0.44770-0.95456
  -5  -3   5 6577.49 2831.82   1 0.36684-0.92328-0.46049 0.23808 0.80831-0.30143
   8  -5   5 6391.88 2785.47   1 0.97049-0.49965 0.17645-0.54714-0.16432 0.67154
  -8   5  -6 5843.47 2160.99   1-0.44695-0.02406-0.62848 0.99931-0.63658 0.02801
   3  -8  -6 7230.45 3169.18   1-0.23288 0.14730-0.91602 0.32309 0.32660-0.93483
  -5  -3   6 5932.79 2299.30   1 0.39813-0.95457-0.45195 0.22954 0.79826-0.19001
   8  -5   610474.12 3801.36   1 0.98779-0.51695 0.13015-0.50084-0.08553 0.69419
  -4   8  -614914.00 7380.58   1-0.39784 0.39784-0.28586 0.87875-0.87177 0.26363
  -4  -4  -6 7211.48 2441.07   1-0.30926-0.20422-0.94241 0.64595 0.12732-0.73555
  -4  -4  -6 7205.45 2451.29   1-0.91600 0.40257-0.25905-0.03737 0.30630-0.91462
   4  -8   6 8436.65 2518.81   1 0.89083-0.89083-0.18145-0.41178 0.41652 0.19197
  -4   8  -5 -882.78 2060.79   1-0.38842 0.38842-0.24602 0.83891-0.88803 0.38124
  -4  -4  -5  420.74 1386.82   1-0.27412-0.23936-0.93513 0.63867 0.22444-0.73130
  -4  -4  -5  124.57  913.79   1-0.83416 0.32073-0.33314 0.03671 0.43952-0.94645
  -8   4   5  529.62  604.43   1-0.05107-0.46239-0.52001 0.81647 0.85262-0.34577
   4  -8   5 -203.69 1690.50   1 0.90020-0.90020-0.17101-0.42222 0.40049 0.10659
  -4   8  -4  999.09 1749.18   1-0.37314 0.37314-0.18642 0.77931-0.90885 0.50342
  -4  -4  -4 1459.66 1724.84   1-0.23244-0.28105-0.91576 0.61929 0.32764-0.73313
  -4  -4  -4  741.81 1234.93   1-0.71895 0.20552-0.40136 0.10493 0.56746-0.97301
  -8   4   4  705.34  477.75   1-0.13787-0.37560-0.52085 0.81730 0.84243-0.43695
   4  -8   4  340.50 1540.17   1 0.90422-0.90422-0.16635-0.42688 0.39332 0.01234
  -4   8  -3  694.00  950.66   1-0.34956 0.34956-0.10316 0.69605-0.93121 0.62714
  -4  -4  -3 1024.98 1709.66   1-0.18280-0.33069-0.88065 0.58418 0.43707-0.74119
  -4  -4  -3  -22.71 1359.51   1-0.57157 0.05777-0.45783 0.16119 0.68094-0.98523
  -8   4   3  817.42  995.63   1-0.24444-0.26934-0.51610 0.81274 0.82090-0.51662
   4  -8   3  973.30 1562.24   1 0.90106-0.90106-0.17002-0.42321 0.39896-0.09471
  -4  -4  -241810.17 3584.82   1-0.12365-0.38995-0.82516 0.52863 0.55118-0.75397
  -4  -4  -240600.88 9724.79   1-0.39918-0.11461-0.49777 0.20113 0.76997-0.97283
  -8   4   247955.56 3821.56   1-0.36368-0.15011-0.50330 0.79994 0.78384-0.58099
   4  -8   248526.93 4579.93   1 0.88629-0.88629-0.18633-0.40690 0.42398-0.22115
  -4  -4  -1  314.20 1247.85   1-0.05464-0.45896-0.74360 0.44707 0.66638-0.76777
   4  -8   1 1748.91 2266.39   1 0.26670-0.26670-0.14219-0.45108 0.95323-0.85169
  -8   4   1  184.37  730.40   1-0.48590-0.02788-0.48060 0.77724 0.73001-0.62858
  -4  -4  -1  332.60  841.53   1-0.21654-0.29693-0.51812 0.22166 0.82744-0.92881
   4  -8   1  902.31 1649.52   1 0.84839-0.84839-0.22323-0.37001 0.48000-0.37858
  -4  -4   0 1389.53  776.97   1 0.02284-0.53645-0.63263 0.33610 0.77411-0.77411
   4  -8   0 1222.07 1061.78   1 0.20236-0.20236-0.29664-0.29664 0.93330-0.93330
  -8   4   0 1624.84 1087.66   1-0.60138 0.08759-0.44835 0.74499 0.66129-0.66129
  -4  -4   0 3366.69 1600.40   1-0.04226-0.47121-0.51971 0.22325 0.85329-0.85329
   4  -8   0 1665.05  859.25   1 0.75199-0.75199-0.29662-0.29662 0.58866-0.58866
  -8   4  -1  571.95  910.24   1-0.42063-0.09282-0.39721 0.69366-0.81565 0.71429
  -4  -4   1  475.26  915.19   1 0.10376-0.61737-0.49519 0.19866 0.86256-0.76116
   4  -8  -1  216.26 1293.77   1 0.12530-0.12530-0.45611-0.13717 0.88105-0.98258
  -8   4  -1  451.32  783.51   1-0.70317 0.18974-0.40875 0.70518 0.58177-0.68315
  -4  -4   1  587.88 1316.60   1 0.10966-0.62314-0.50806 0.21161 0.85430-0.75293
  -8   4  -251531.12 4450.74   1-0.44394-0.06989-0.57574 0.87240-0.68661 0.48375
   4  -8  -244439.41 3795.45   1 0.04115-0.04115-0.60348 0.01041 0.79631-0.99909
  -4  -4   240797.16 3255.47   1 0.18040-0.69420-0.34462 0.04798 0.92124-0.71817
  -8   4  -244292.85 4225.26   1-0.78832 0.27489-0.36377 0.66020 0.49619-0.69896
  -4  -4   247597.2311295.29   1 0.23222-0.74570-0.48975 0.19329 0.84036-0.63762
  -8   4  -3 -177.98 1543.30   1-0.44755-0.06627-0.65275 0.94941-0.61123 0.30695
   4  -8  -3  559.40 1310.62   1-0.04165 0.04165-0.72639 0.13332 0.68601-0.99019
  -4  -4   3  456.73 1401.00   1 0.24439-0.75818-0.19833-0.09830 0.94917-0.64458
  -8   4  -3  -84.06 1541.55   1-0.85653 0.34310-0.31591 0.61234 0.40810-0.71226
  -4  -4   3 1001.12 1027.38   1 0.32502-0.83865-0.47092 0.17438 0.82011-0.51598
  -8   4  -4  678.67  863.25   1-0.44744-0.06638-0.68710 0.98376-0.57243 0.16672
   4  -8  -4  942.76 1179.44   1-0.11798 0.11798-0.81911 0.22604 0.56137-0.96694
  -4  -4   4  953.10  929.86   1 0.29265-0.80645-0.07285-0.22378 0.95343-0.54730
  -8   4  -4 1953.63 2006.39   1-0.90913 0.39569-0.26673 0.56316 0.31989-0.72544
  -4  -4   4  787.15 1406.85   1 0.39149-0.90512-0.45382 0.15727 0.80048-0.39498
   4   4  -5  869.98 1068.38   1-0.32546 0.83892-0.02604 0.32249-0.94519 0.43840
  -8   4  -5  406.25  624.07   1-0.44708-0.06675-0.69985 0.99651-0.55706 0.04992
   4  -8  -5  806.88 1837.08   1-0.18514 0.18514-0.88256 0.28963 0.43219-0.93905
  -4  -4   5  198.02 1501.44   1 0.43615-0.94979-0.44067 0.14413 0.78458-0.27770
   8  -4   5  258.22 1977.31   1 0.94805-0.43441 0.21634-0.51289-0.23319 0.74041
   4   4  -6 6228.14 3282.45   1-0.34728 0.86074-0.09556 0.39200-0.93287 0.32473
  -8   4  -6 7129.07 2984.81   1-0.44708-0.06674-0.69978 0.99644-0.55715-0.05140
   4  -8  -613656.13 3326.55   1-0.24205 0.24205-0.92113 0.32820 0.30483-0.91306
  -4  -4   6 6344.30 2265.54   1 0.46321-0.97684-0.43203 0.13548 0.77380-0.16555
   8  -4   611002.05 3453.12   1 0.97480-0.46115 0.16691-0.46346-0.14799 0.75665
  -5   8  -6 8783.50 5729.42   1-0.40575 0.32017-0.32159 0.91448-0.85553 0.24739
  -3  -5  -6 6152.09 2454.06   1-0.28564-0.18505-0.93854 0.56796 0.19374-0.80197
  -8   3   6 7231.01 3677.32   1 0.07612-0.63239-0.51167 0.73402 0.85579-0.24757
   5  -8   6 8729.77 3370.68   1 0.93118-0.84555-0.13187-0.46137 0.33986 0.26864
  -5   8  -511380.46 5185.43   1-0.39742 0.31184-0.28400 0.87689-0.87257 0.36579
  -3  -5  -5 6067.68 2463.02   1-0.24583-0.22487-0.92309 0.55251 0.29573-0.80259
  -3  -5  -5 4209.61 2609.39   1-0.85059 0.37995-0.32066-0.04987 0.41672-0.92366
  -8   3   5 5527.61 1932.50   1 0.02018-0.57645-0.51638 0.73872 0.85611-0.34926
   5  -8   5 4155.16 2288.42   1 0.94245-0.85683-0.11523-0.47801 0.31383 0.19324
  -5   8  -4  335.33  993.94   1-0.38353 0.29795-0.22637 0.81926-0.89535 0.48992
  -3  -5  -4 -538.52 1316.94   1-0.19914-0.27155-0.89350 0.52292 0.40247-0.80796
  -3  -5  -4 -132.36  960.61   1-0.72593 0.25529-0.39796 0.02742 0.56092-0.96647
  -8   3   4 1019.12 1084.97   1-0.05713-0.49913-0.52020 0.74254 0.85212-0.44664
   5  -8   4 1007.41 1617.02   1 0.95007-0.86444-0.10295-0.49028 0.29454 0.11112
  -5   8  -315360.85 4991.28   1-0.36145 0.27587-0.14402 0.73691-0.92119 0.61712
  -3  -5  -313338.94 2080.10   1-0.14463-0.32606-0.84619 0.47560 0.51287-0.81699
  -3  -5  -316237.64 7579.82   1-0.56102 0.09004-0.46098 0.09018 0.68756-0.99184
  -8   3   315542.24 5107.18   1-0.15469-0.40156-0.52055 0.74289 0.83969-0.53558
   5  -8   316194.51 2842.37   1 0.95357-0.86795-0.09696-0.49627 0.28510 0.01914
  -5   8  -248979.56 4391.38   1-0.32768 0.24210-0.03285 0.62574-0.94421 0.74150
  -3  -5  -254370.17 4811.98   1-0.08156-0.38924-0.77741 0.40674 0.62367-0.82646
  -3  -5  -242996.67 9610.03   1-0.36637-0.10460-0.50291 0.13211 0.78284-0.98569
  -8   3   248258.40 4785.18   1-0.26839-0.28821-0.51421 0.73669 0.81458-0.61172
   5  -8   251679.29 4716.49   1 0.95142-0.86579-0.10067-0.49257 0.29095-0.08811
  -3  -5  -133571.91 3760.57   1-0.01109-0.45971-0.68370 0.31303 0.72967-0.83106
   5  -8   151694.14 5580.46   1 0.27977-0.19414-0.10786-0.48541 0.95398-0.85245
  -8   3   128834.6010074.30   1-0.39059-0.16601-0.49919 0.72167 0.77345-0.67203
  -3  -5  -131589.76 5186.38   1-0.16300-0.30768-0.52034 0.14977 0.83825-0.93962
   5  -8   125727.58 2847.62   1 0.93879-0.85316-0.12081-0.47242 0.32259-0.22117
  -3  -5   0  878.63 1743.52   1 0.06397-0.53478-0.56559 0.19492 0.82220-0.82220
   5  -8   0  370.31 1212.64   1 0.21324-0.12761-0.27204-0.32124 0.93835-0.93835
  -8   3   0 1148.58 1424.98   1-0.51232-0.04428-0.47424 0.69672 0.71597-0.71597
  -3  -5   0  396.17 1012.21   1 0.02505-0.49574-0.51603 0.14546 0.85619-0.85619
   5  -8   0 1422.43  847.47   1 0.89833-0.81270-0.17313-0.42010 0.40375-0.40375
  -8   3  -129893.74 2144.78   1-0.44494-0.11170-0.58973 0.81222-0.67397 0.57254
   5  -8  -130134.10 2941.01   1 0.13149-0.04585-0.44419-0.14908 0.88622-0.98776
  -3  -5   127711.58 2635.21   1 0.13863-0.60961-0.43025 0.05945 0.89199-0.79046
  -8   3  -126514.76 8884.90   1-0.62534 0.06872-0.44008 0.66256 0.64442-0.74584
  -3  -5   129611.04 7627.23   1 0.18261-0.65330-0.49815 0.12758 0.84764-0.74626
  -8   3  -260745.66 4782.42   1-0.44657-0.11007-0.71165 0.93415-0.54232 0.33947
   5  -8  -250429.48 4025.28   1 0.04103 0.04457-0.60369 0.01062 0.79616-0.99894
  -3  -5   248282.73 3707.03   1 0.20562-0.67661-0.28932-0.08147 0.93488-0.73181
  -8   3  -247090.2811683.84   1-0.72406 0.16785-0.39888 0.62120 0.56268-0.76546
  -3  -5   246357.76 4133.45   1 0.30478-0.77561-0.47558 0.10490 0.82518-0.62243
  -8   3  -314779.44 4244.43   1-0.44313-0.11352-0.75468 0.97717-0.48382 0.17954
   5  -8  -315213.28 2374.89   1-0.04787 0.13347-0.73470 0.14163 0.67669-0.98087
  -3  -5   315254.23 2530.85   1 0.26049-0.73148-0.15811-0.21268 0.95243-0.64784
  -8   3  -316138.24 4416.50   1-0.80632 0.25010-0.35240 0.57472 0.47502-0.77918
  -3  -5   317438.16 3375.20   1 0.39379-0.86462-0.45317 0.08249 0.79972-0.49559
  -8   3  -4 1179.80 1200.30   1-0.44131-0.11533-0.76922 0.99172-0.46209 0.05638
   5  -8  -4 -427.66  988.93   1-0.12878 0.21438-0.83053 0.23747 0.54186-0.94744
  -3  -5   4  320.90 1057.05   1 0.30177-0.77276-0.04731-0.32348 0.95220-0.54607
  -8   3  -4  471.52  709.94   1-0.87193 0.31571-0.30295 0.52527 0.38465-0.79019
  -3  -5   4  597.40 1333.26   1 0.45539-0.92622-0.43458 0.06390 0.77701-0.37151
   3   5  -5 5143.15 1988.92   1-0.32998 0.80065-0.03999 0.41054-0.94313 0.43635
  -8   3  -5 5095.27 2891.72   1-0.44124-0.11541-0.76976 0.99225-0.46127-0.04586
   5  -8  -5 6445.49 2073.78   1-0.19857 0.28415-0.89306 0.30013 0.40372-0.91058
  -8   3  -5 5336.09 2901.95   1-0.92205 0.36583-0.25197 0.47430 0.29382-0.80075
  -3  -5   5 5696.39 2358.95   1 0.49533-0.96616-0.42105 0.05036 0.75984-0.25296
   3   5  -6 4909.78 3514.53   1-0.34919 0.81986-0.10195 0.47250-0.93148 0.32334
  -8   3  -6 6178.85 3052.01   1-0.44230-0.11435-0.76171 0.98421-0.47345-0.13510
   5  -8  -6 8310.91 2185.91   1-0.25645 0.34203-0.92819 0.33526 0.26961-0.87784
  -3  -5   6 7090.78 2960.64   1 0.51832-0.98915-0.41269 0.04200 0.74901-0.14076
   8  -3   6 8774.93 3773.52   1 0.95843-0.40198 0.19949-0.42190-0.20398 0.81265
  -6   8  -6 3447.17 2260.52   1-0.41149 0.24033-0.34924 0.94213-0.84184 0.23370
  -2  -6  -6 3965.13 1868.94   1-0.26430-0.16360-0.93152 0.48682 0.24980-0.85804
  -8   2   6 2963.29 1571.59   1 0.11485-0.71391-0.50745 0.65568 0.85398-0.24576
   6  -8   6 4152.53 2669.42   1 0.96054-0.78929-0.08427-0.50897 0.26504 0.34346
  -6   8  -5 3348.52 1845.82   1-0.40399 0.23284-0.31345 0.90634-0.85937 0.35259
  -2  -6  -5 2524.99 1639.60   1-0.22081-0.20709-0.90861 0.46392 0.35446-0.86132
  -8   2   5 3871.17 3131.01   1 0.06515-0.66421-0.51272 0.66095 0.85607-0.34921
   6  -8   5 3654.07 2322.02   1 0.97142-0.80016-0.06172-0.53152 0.22920 0.27788
  -6   8  -4 4316.29 2052.85   1-0.39117 0.22001-0.25737 0.85026-0.88359 0.47816
  -2  -6  -4 3709.51 1767.60   1-0.17058-0.25732-0.87028 0.42558 0.46207-0.86756
  -2  -6  -4 3182.60 1407.57   1-0.74698 0.31912-0.38724-0.05740 0.54042-0.94597
  -8   2   4 3162.98 1243.51   1-0.00424-0.59481-0.51792 0.66615 0.85541-0.44993
   6  -8   4 4423.46 2557.74   1 0.97932-0.80811-0.04199-0.55110 0.19786 0.20791
  -6   8  -3 9016.33 3650.34   1-0.37021 0.19906-0.17558 0.76847-0.91219 0.60812
  -2  -6  -3 7806.74 2100.94   1-0.11295-0.31505-0.81363 0.36883 0.57029-0.87447
  -2  -6  -3 7752.47 2849.31   1-0.56274 0.13457-0.46048 0.01551 0.68649-0.99078
  -8   2   3 8339.62 3068.08   1-0.09320-0.50584-0.52091 0.66914 0.84850-0.54438
   6  -8   3 9109.88 2522.78   1 0.98459-0.81338-0.02643-0.56667 0.17283 0.13150
  -6   8  -224744.48 3807.89   1-0.33718 0.16603-0.06270 0.65559-0.93934 0.73663
  -2  -6  -222890.88 3004.96   1-0.04864-0.37936-0.73572 0.29092 0.67553-0.87831
  -2  -6  -216434.81 3801.75   1-0.34226-0.08589-0.50624 0.06128 0.79156-0.99441
  -8   2   220884.06 5000.85   1-0.19928-0.39977-0.51901 0.66723 0.83121-0.62847
   6  -8   228225.48 3633.68   1 0.98735-0.81613-0.01702-0.57608 0.15763 0.04525
  -2  -6  -114326.92 2481.77   1 0.02081-0.44882-0.63579 0.19099 0.77157-0.87297
   6  -8   117906.64 2706.24   1 0.28880-0.11753-0.08345-0.50982 0.95374-0.85221
  -8   2   112114.51 4644.54   1-0.31730-0.28212-0.50930 0.65762 0.79995-0.69852
  -2  -6  -112255.84 3583.87   1-0.11590-0.31199-0.52101 0.07633 0.84564-0.94701
   6  -8   117553.93 2518.02   1 0.98713-0.81591-0.01780-0.57530 0.15889-0.05745
  -2  -6   0 9052.46 2411.73   1 0.09190-0.51991-0.51676 0.07196 0.85118-0.85118
   6  -8   0 9586.48 2099.34   1 0.21932-0.04805-0.25804-0.33523 0.94090-0.94090
  -8   2   0 8617.55 4180.99   1-0.43942-0.16000-0.49048 0.63880 0.75254-0.75254
  -2  -6   011110.81 2977.95   1 0.08572-0.51362-0.51070 0.06602 0.85547-0.85547
   6  -8   010793.49 1774.36   1 0.98071-0.80949-0.03815-0.55494 0.19169-0.19169
  -8   2  -113312.73 1471.58   1-0.44077-0.15870-0.77306 0.92139-0.45616 0.35473
   6  -8  -112434.92 1873.41   1 0.13173 0.03952-0.44372-0.14956 0.88642-0.98796
  -2  -6   111089.45 1866.49   1 0.16017-0.58833-0.38698-0.05797 0.90806-0.80653
  -8   2  -116491.50 4179.09   1-0.55764-0.04178-0.46197 0.61029 0.68964-0.79107
  -2  -6   112942.48 3282.31   1 0.24743-0.67532-0.48690 0.04221 0.83767-0.73630
  -8   2  -223346.60 2349.55   1-0.43092-0.16861-0.82305 0.97139-0.36999 0.16721
   6  -8  -220955.38 2378.37   1 0.03373 0.13746-0.61543 0.02236 0.78746-0.99025
  -2  -6   220664.79 2671.11   1 0.21983-0.64800-0.25686-0.18809 0.94111-0.73804
  -8   2  -220299.23 6870.15   1-0.66527 0.06584-0.42485 0.57317 0.61392-0.81678
  -2  -6   219834.50 2700.65   1 0.36785-0.79588-0.46022 0.01540 0.80800-0.60525
  -8   2  -3 7812.74 3486.23   1-0.42725-0.17227-0.83587 0.98421-0.34463 0.04046
   6  -8  -3 9164.50 1698.13   1-0.06200 0.23320-0.75309 0.16002 0.65498-0.95917
  -2  -6   3 9418.23 2456.56   1 0.26824-0.69640-0.13822-0.30674 0.95338-0.64878
  -8   2  -3 7644.87 2339.66   1-0.75807 0.15906-0.38127 0.52949 0.52910-0.83326
  -2  -6   3 4814.73 1977.51   1 0.45239-0.88042-0.43555-0.00926 0.77822-0.47409
  -8   2  -4 4605.94 2231.28   1-0.42752-0.17200-0.83497 0.98332-0.34646-0.05910
   6  -8  -4 3074.80 1354.17   1-0.14771 0.31887-0.84919 0.25626 0.50700-0.91249
  -2  -6   4 1198.14 1093.94   1 0.30484-0.73300-0.03859-0.40637 0.95162-0.54549
  -8   2  -4 3600.59 2305.18   1-0.83462 0.23562-0.33280 0.48102 0.43890-0.84445
  -2  -6   4 3099.84 1804.04   1 0.50903-0.93706-0.41611-0.02870 0.75347-0.34797
   2   6  -5 1340.79 1550.61   1-0.33006 0.75794-0.04024 0.48491-0.94309 0.43631
  -8   2  -5 3501.15 1991.37   1-0.42995-0.16957-0.82661 0.97496-0.36310-0.14385
   6  -8  -5 3146.84 1313.34   1-0.21905 0.39022-0.90747 0.31454 0.35846-0.86532
  -8   2  -5 4639.66 2743.77   1-0.89494 0.29594-0.28149 0.42970 0.34615-0.85309
  -2  -6   5 3688.36 2063.01   1 0.54450-0.97252-0.40263-0.04218 0.73580-0.22892
   2   6  -6 3378.55 1833.47   1-0.34767 0.77555-0.09685 0.54152-0.93260 0.32445
  -8   2  -6 3120.13 1448.96   1-0.43343-0.16609-0.81300 0.96135-0.38878-0.21956
   6  -8  -6 3569.21 2048.16   1-0.27681 0.44797-0.93601 0.34308 0.21736-0.82559
  -8   2  -6 3039.85 2539.57   1-0.94009 0.34109-0.22862 0.37684 0.25286-0.86118
  -2  -6   6 4621.45 2436.27   1 0.56382-0.99185-0.39482-0.04999 0.72540-0.11715
  -7   8  -6 -131.14 1581.92   1-0.41535 0.15862-0.36884 0.96173-0.83152 0.22338
  -1  -7  -6  689.22 1691.17   1-0.24583-0.13928-0.92309 0.40428 0.29573-0.90396
  -8   1   6  954.43 1107.87   1 0.13610-0.77795-0.50480 0.57892 0.85243-0.24420
   7  -8   6  -48.98 1849.48   1 0.98000-0.72318-0.04013-0.55297 0.19487 0.41379
  -7   8  -5 1215.84 1019.87   1-0.40842 0.15169-0.33426 0.92715-0.84938 0.34260
  -1  -7  -5  172.06 1319.25   1-0.19965-0.18546-0.89387 0.37506 0.40139-0.90825
  -8   1   5 1139.98 1461.67   1 0.09114-0.73298-0.51013 0.58425 0.85525-0.34839
   7  -8   5  235.26 1889.08   1 0.98856-0.73174-0.01246-0.58063 0.15027 0.35694
  -7   8  -430471.7711895.63   1-0.39628 0.13955-0.27907 0.87196-0.87468 0.46925
  -1  -7  -416382.31 2770.41   1-0.14716-0.23795-0.84865 0.32984 0.50806-0.91355
  -8   1   418172.87 6163.97   1 0.02807-0.66992-0.51581 0.58993 0.85623-0.45075
   7  -8   422899.63 3696.96   1 0.99404-0.73722 0.01345-0.60656 0.10814 0.29763
  -7   8  -3  677.06 1012.74   1-0.37599 0.11926-0.19715 0.79004-0.90540 0.60133
  -1  -7  -3 1990.64 1798.47   1-0.08816-0.29703-0.78532 0.26639 0.61277-0.91695
  -8   1   3  682.40 1093.63   1-0.05340-0.58843-0.52009 0.59420 0.85243-0.54832
   7  -8   3  553.13 1627.57   1 0.99689-0.74007 0.03708-0.63018 0.06947 0.23485
  -7   8  -2 -895.69 1157.55   1-0.34310 0.08637-0.08181 0.67470-0.93572 0.73301
  -1  -7  -2  636.19 1397.74   1-0.02408-0.36112-0.70223 0.18330 0.71153-0.91432
  -1  -7  -2  624.40  579.81   1-0.33055-0.05479-0.50772-0.01139 0.79557-0.99843
  -8   1   2  280.30 1055.82   1-0.15195-0.48989-0.52061 0.59472 0.84016-0.63742
   7  -8   2 -101.16 1801.28   1 0.99770-0.74087 0.05744-0.65055 0.03592 0.16696
  -1  -7  -1 1441.39 1225.93   1 0.04308-0.42829-0.60035 0.08142 0.79857-0.89996
   7  -8   1 1153.32 1224.53   1 0.29342-0.03652-0.07073-0.52254 0.95336-0.85182
  -8   1   1  929.71  965.46   1-0.26399-0.37824-0.51458 0.58874 0.81578-0.71435
   7  -8   1 1849.95 1893.21   1 0.99729-0.74046 0.07280-0.66590 0.01049 0.09095
  -1  -7   053931.55 4586.27   1 0.11029-0.49564-0.48445-0.03466 0.86783-0.86783
   7  -8   056841.87 4418.36   1 0.21972 0.03717-0.25711-0.33616 0.94106-0.94106
  -8   1   047019.6513086.16   1-0.38318-0.25906-0.50037 0.57453 0.77640-0.77640
  -1  -7   046787.12 6413.99   1 0.13775-0.52286-0.50459-0.01420 0.85229-0.85229
   7  -8   052396.33 4062.98   1 0.99683-0.74001 0.07948-0.67259-0.00061 0.00061
  -8   1  -1  883.97  671.44   1-0.40303-0.23931-0.89059 0.96476-0.21072 0.10933
   7  -8  -1 1121.01 1443.62   1 0.12447 0.13242-0.45771-0.13557 0.88034-0.98187
  -1  -7   1 1078.64 1221.17   1 0.17251-0.55786-0.36135-0.15776 0.91633-0.81479
  -8   1  -1  739.41 1109.86   1-0.50238-0.13986-0.47670 0.55086 0.72136-0.82279
  -1  -7   1  392.91 1194.76   1 0.30298-0.68821-0.47598-0.04296 0.82561-0.72423
  -8   1  -2  883.03  720.07   1-0.39955-0.24280-0.89586 0.97003-0.19437-0.00841
   7  -8  -2  218.91  821.47   1 0.01705 0.23975-0.64162 0.04855 0.76683-0.96961
  -1  -7   2  631.77 1235.20   1 0.22649-0.61184-0.24130-0.27781 0.94364-0.74058
  -8   1  -2  -41.69 1473.84   1-0.61465-0.02759-0.44384 0.51800 0.65207-0.85493
  -1  -7   2 1012.44 1276.30   1 0.42054-0.80576-0.44543-0.07352 0.79040-0.58765
  -8   1  -3  869.62  883.21   1-0.40230-0.24004-0.89173 0.96591-0.20725-0.09692
   7  -8  -3 1222.84 1294.86   1-0.08647 0.34328-0.78331 0.19024 0.61558-0.91976
  -1  -7   3 1661.53 2016.29   1 0.27023-0.65558-0.13304-0.38608 0.95355-0.64896
  -8   1  -3 1590.49 2071.16   1-0.71464 0.07285-0.40341 0.47752 0.57143-0.87559
  -1  -7   3  967.74 1465.74   1 0.50051-0.88573-0.41920-0.09975 0.75746-0.45333
  -8   1  -415431.02 6795.87   1-0.40777-0.23458-0.88263 0.95680-0.23383-0.17172
   7  -8  -417883.16 2247.36   1-0.17624 0.43298-0.87516 0.28223 0.45058-0.85607
  -1  -7   416235.47 2362.85   1 0.30360-0.68895-0.04213-0.47698 0.95186-0.54573
  -8   1  -417351.25 8165.52   1-0.79968 0.15789-0.35668 0.43079 0.48298-0.88852
  -1  -7   416816.24 3083.27   1 0.55254-0.93776-0.39942-0.11953 0.73154-0.32604
   1   7  -5  506.06 1603.49   1-0.32684 0.71193-0.03028 0.54906-0.94459 0.43780
  -8   1  -5  360.03  850.55   1-0.41437-0.22798-0.86973 0.94390-0.26807-0.23888
  -8   1  -5  737.76 1381.27   1-0.86861 0.22682-0.30582 0.37993 0.38983-0.89677
  -1  -7   5 1578.76 2488.07   1 0.58406-0.96929-0.38626-0.13269 0.71390-0.20702
   1   7  -6  753.51  874.82   1-0.34344 0.72854-0.08293 0.60171-0.93550 0.32735
  -8   1  -6  429.11  666.88   1-0.42126-0.22109-0.85337 0.92754-0.30706-0.30128
  -8   1  -6 1693.58 2314.86   1-0.92173 0.27994-0.25235 0.32646 0.29448-0.90280
  -1  -7   6  288.69 1573.41   1 0.60028-0.98551-0.37912-0.13983 0.70421-0.09596
  -8   8  -6  296.48 1561.69   1-0.41754 0.07523-0.38035 0.97325-0.82521 0.21707
   0  -8  -6 -246.57 1394.55   1-0.23058-0.11174-0.91466 0.32174 0.33197-0.94021
  -8   0   6  582.39  706.81   1 0.14418-0.82882-0.50373 0.50373 0.85174-0.24351
   8  -8   6 1353.99 2166.66   1 0.99135-0.64892-0.00071-0.59239 0.13120 0.47745
  -8   8  -5 1744.25 1583.18   1-0.41088 0.06858-0.34626 0.93915-0.84337 0.33658
   0  -8  -5 1020.84 1504.43   1-0.18260-0.15972-0.88048 0.28755 0.43749-0.94435
  -8   0   5  447.20  733.46   1 0.10281-0.78744-0.50885 0.50885 0.85469-0.34783
   8  -8   5  132.72 1454.69   1 0.99635-0.65392 0.03095-0.62406 0.07952 0.42770
  -8   8  -426060.3711117.65   1-0.39903 0.05673-0.29108 0.88397-0.86950 0.46407
   0  -8  -418682.34 2967.64   1-0.12891-0.21341-0.83030 0.23737 0.54219-0.94768
  -8   0   413668.95 6059.07   1 0.04476-0.72940-0.51451 0.51451 0.85631-0.45082
   8  -8   424238.84 4264.83   1 0.99767-0.65524 0.06163-0.65474 0.02899 0.37678
  -8   8  -3  240.32  700.87   1-0.37882 0.03652-0.20797 0.80087-0.90179 0.59772
   0  -8  -3 1053.92 1635.05   1-0.06971-0.27269-0.76283 0.16976 0.64282-0.94700
  -8   0   3  532.33 1808.90   1-0.03047-0.65415-0.51923 0.51923 0.85408-0.54997
   8  -8   3 1132.63 1515.84   1 0.99564-0.65321 0.09110-0.68420-0.01996 0.32430
  -8   8  -2  888.59 1001.17   1-0.34525 0.00294-0.08885 0.68175-0.93429 0.73157
   0  -8  -2 1304.29 2367.06   1-0.00687-0.33553-0.67755 0.08448 0.73544-0.93823
  -8   0   2  867.98 1223.90   1-0.12217-0.56246-0.52099 0.52099 0.84477-0.64202
   8  -8   2 1835.55 1802.35   1 0.99064-0.64821 0.11901-0.71211-0.06674 0.26963
   0  -8  -1 1117.14 1352.57   1 0.05747-0.39987-0.57656-0.01649 0.81502-0.91641
   8  -8   1 1123.37 1540.56   1 0.29301 0.04951-0.07187-0.52140 0.95340-0.85187
  -8   0   1  307.45 1041.63   1-0.22790-0.45716-0.51721 0.51721 0.82495-0.72352
   0  -8  -1  133.12  494.29   1-0.05141-0.29090-0.52002-0.07288 0.85260-0.95397
   8  -8   1 1670.57 1747.67   1 0.98330-0.64087 0.14476-0.73787-0.11027 0.21172
   0  -8   040417.15 3547.37   1 0.12057-0.46310-0.46513-0.12814 0.87698-0.87698
   8  -8   043131.64 2703.85   1 0.21303 0.12949-0.27252-0.32075 0.93826-0.93826
  -8   0   037676.7311691.43   1-0.34253-0.34253-0.50620 0.50620 0.79146-0.79146
   0  -8   033614.55 8589.71   1 0.17912-0.52144-0.49869-0.09421 0.84806-0.84806
   8  -8   046045.29 3332.67   1 0.97463-0.63220 0.16730-0.76040-0.14865 0.14865
   8  -8  -1 -118.54  754.23   1 0.10708 0.23544-0.49039-0.10288 0.86489-0.96642
   0  -8   1  830.01 1347.30   1 0.17807-0.52060-0.34960-0.24367 0.91981-0.81828
  -8   0  -1  312.89 1033.27   1-0.46002-0.22503-0.48630 0.48630 0.74288-0.84431
   0  -8   1  707.08 1654.61   1 0.34738-0.68981-0.46548-0.12760 0.81402-0.71265
  -8   0  -2  455.97  615.28   1-0.36109-0.32409-0.93171 0.93171-0.03887-0.16390
   8  -8  -2  353.97  715.90   1-0.01277 0.35518-0.68613 0.09306 0.72736-0.93015
   0  -8   2  246.42 1496.54   1 0.22764-0.57018-0.23858-0.35470 0.94406-0.74099
  -8   0  -2  901.92 1042.26   1-0.57378-0.11127-0.45716 0.45716 0.67953-0.88239
   0  -8   2 1699.57 1693.33   1 0.46232-0.80475-0.43232-0.16077 0.77417-0.57142
  -8   0  -3  324.58  711.04   1-0.37307-0.31210-0.92404 0.92404-0.08341-0.22075
   0  -8   3  224.55 1718.32   1 0.26795-0.61048-0.13895-0.45432 0.95335-0.64876
  -8   0  -3 1412.70  993.12   1-0.67795-0.00661-0.41983 0.41983 0.60341-0.90757
   0  -8   3  318.94 1396.92   1 0.53819-0.88061-0.40511-0.18798 0.73907-0.43495
  -8   0  -411745.27 6862.89   1-0.38504-0.30013-0.91354 0.91354-0.13105-0.27450
   0  -8   416491.56 3193.26   1 0.29904-0.64157-0.05505-0.53823 0.95265-0.54652
  -8   0  -417916.69 6587.60   1-0.76901 0.08444-0.37516 0.37516 0.51755-0.92310
   0  -8   419364.10 3865.24   1 0.58629-0.92871-0.38530-0.20779 0.71260-0.30710
  -8   0  -5  790.56 1017.57   1-0.39653-0.28865-0.90008 0.90008-0.18057-0.32638
  -8   0  -5  887.47 1503.96   1-0.84472 0.16015-0.32522 0.32522 0.42504-0.93197
   0  -8   5  664.28 1566.08   1 0.61459-0.95701-0.37260-0.22049 0.69529-0.18842
   0   8  -6  642.83 1954.55   1-0.33695 0.67925-0.06195 0.65484-0.93948 0.33133
  -8   0  -6 -176.77 1147.30   1-0.40726-0.27791-0.88352 0.88352-0.23132-0.37702
  -8   0  -6  548.04 1019.72   1-0.90456 0.21998-0.27163 0.27163 0.32860-0.93692
   0  -8   6  -37.52 1395.56   1 0.62834-0.97076-0.36613-0.22696 0.68639-0.07814
  -8  -1  -5 1108.45 1365.18   1-0.37830-0.34970-0.91984 0.84567-0.10378-0.40316
   1  -9   5  520.21 1668.16   1 0.31372-0.61344-0.01282-0.65462 0.94942-0.44176
  -8  -1  -5 1929.17 1228.40   1-0.82458 0.09722-0.34001 0.26591 0.45214-0.95908
   1  -9   5 1113.44 2171.53   1 0.63667-0.93629-0.36210-0.30512 0.68082-0.17395
  -8  -1  -4 3254.79 1397.55   1-0.36213-0.36587-0.93115 0.85697-0.04262-0.36293
   1  -9   4 2854.80 1520.65   1 0.29174-0.59146-0.07538-0.59206 0.95352-0.54739
  -8  -1  -4 1856.55 1670.64   1-0.74392 0.01655-0.38884 0.31473 0.54348-0.94903
   1  -9   4 2934.78 2006.12   1 0.61078-0.91040-0.37435-0.29287 0.69770-0.29220
  -8  -1  -3  470.49  490.70   1-0.34405-0.38394-0.93873 0.86456 0.02004-0.32422
   1  -9   3 1962.13 2661.77   1 0.26229-0.56201-0.15352-0.51391 0.95269-0.64809
  -8  -1  -3  639.73  926.74   1-0.64929-0.07858-0.43117 0.35701 0.62650-0.93078
  -8  -1  -2 1550.38  580.81   1-0.32341-0.40403-0.94243 0.86832 0.08496-0.28770
   1  -9   2  477.01 1734.03   1 0.22455-0.52426-0.24586-0.42158 0.94293-0.73987
  -8  -1  -2 2119.20 1644.10   1-0.54313-0.18474-0.46609 0.39193 0.69839-0.90125
   1  -9   2 1436.65 1354.52   1 0.49301-0.79263-0.42186-0.24536 0.76089-0.55814
   1  -9   1  617.45 1453.28   1 0.17840-0.47812-0.34889-0.31854 0.92002-0.81849
  -8  -1  -1 1469.29 1077.30   1-0.43008-0.29779-0.49227 0.41811 0.75676-0.85819
   1  -9   1  864.55  961.59   1 0.37992-0.67954-0.45700-0.21022 0.80424-0.70286
   1  -9   0 7385.82 2019.79   1 0.12481-0.42452-0.45706-0.21038 0.88063-0.88063
  -8  -1   0 7863.83 3494.54   1-0.31580-0.41207-0.50947 0.43531 0.80043-0.80043
   1  -9   0 6700.10 2761.24   1 0.20777-0.50730-0.49406-0.17296 0.84423-0.84423
   1  -9  -1 1396.36 1491.81   1 0.06541-0.36502-0.56313-0.10406 0.82377-0.92516
   9  -8   1 1004.90 1086.45   1 0.28645 0.14170-0.08985-0.50342 0.95386-0.85233
  -8  -1   1 1249.28  784.75   1-0.20607-0.52135-0.51868 0.44456 0.82976-0.72839
   9  -8   1 1315.33 1205.49   1 0.95922-0.53119 0.19810-0.79120-0.20158 0.30302
  -9   8  -2 1816.70 1299.08   1-0.34318-0.08469-0.08209 0.67498-0.93567 0.73295
   1  -9  -2 1410.75 1785.62   1 0.00401-0.30362-0.66143-0.00576 0.74998-0.95277
  -8  -1   2 1944.20 1614.78   1-0.10662-0.62079-0.52100 0.44689 0.84686-0.64412
   9  -8   2 1701.71 1266.49   1 0.97474-0.54670 0.16704-0.76015-0.14822 0.35111
  -9   8  -3 1689.88 1241.35   1-0.37858-0.04929-0.20706 0.79995-0.90210 0.59803
   1  -9  -3 2169.21 2305.15   1-0.05704-0.24256-0.74671 0.07951 0.66269-0.96687
  -8  -1   3 1079.48  930.97   1-0.02090-0.70652-0.51880 0.44468 0.85463-0.55052
   9  -8   3 1524.62 2265.37   1 0.98644-0.55840 0.13485-0.72795-0.09347 0.39781
   1  -9  -4 3082.40 2209.60   1-0.11541-0.18418-0.81632 0.14912 0.56593-0.97151
  -8  -1   4 4511.39 2662.55   1 0.04919-0.77662-0.51414 0.44003 0.85629-0.45080
   9  -8   4 5238.98 2814.40   1 0.99409-0.56605 0.10175-0.69486-0.03778 0.44356
  -9   8  -5  709.04  688.31   1-0.41147-0.01641-0.34914 0.94203-0.84189 0.33511
   1  -9  -5  377.55 1354.72   1-0.16973-0.12979-0.86953 0.20249 0.46378-0.97064
  -8  -1   5  478.00 1062.10   1 0.10328-0.83070-0.50880 0.43468 0.85466-0.34781
   9  -8   5  254.24 1646.61   1 0.99751-0.56948 0.06791-0.66101 0.01860 0.48861
  -2   9  -5  481.40 1800.97   1-0.33270 0.54664-0.04850 0.71551-0.94178 0.43499
  -7  -2  -5  370.08  655.54   1-0.34807-0.33710-0.93744 0.78909 0.00655-0.51350
  -7  -2  -5 1094.99 1254.04   1-0.81490 0.13032-0.34670 0.19848 0.46446-0.97140
   2  -9   5 1823.32 2125.06   1 0.71656-0.93058-0.31913-0.34809 0.62022-0.11334
  -7  -2  -4 2926.25 1717.40   1-0.32387-0.36077-0.94240 0.79417 0.08352-0.48901
   2  -9   4 1711.84 1260.46   1 0.31322-0.52731-0.01428-0.65315 0.94957-0.54344
  -7  -2  -4 2496.74 1599.99   1-0.72501 0.04043-0.39841 0.25020 0.56180-0.96734
   2  -9   4 2822.17 1855.52   1 0.69881-0.91282-0.32943-0.33779 0.63492-0.22942
  -7  -2  -3  417.69 1238.94   1-0.29583-0.38882-0.94075 0.79252 0.16569-0.46980
   2  -9   3  546.47 1850.00   1 0.28505-0.49914-0.09365-0.57378 0.95392-0.64932
  -7  -2  -3 1370.85  928.04   1-0.61872-0.06634-0.44242 0.29410 0.64918-0.95346
   2  -9   3  411.40 1369.30   1 0.66373-0.87775-0.34847-0.31875 0.66182-0.35770
  -7  -2  -2 5127.11 1254.19   1-0.26234-0.42231-0.93072 0.78249 0.25480-0.45755
   2  -9   2 6579.38 2443.50   1 0.24800-0.46208-0.18944-0.47799 0.95005-0.74699
  -7  -2  -2 6448.91 3320.41   1-0.49933-0.18572-0.47743 0.32911 0.72298-0.92584
   2  -9   2 3632.02 1548.38   1 0.60220-0.81621-0.37826-0.28896 0.70304-0.50029
  -7  -2  -1 1517.81 1289.09   1-0.22137-0.46327-0.90897 0.76074 0.35320-0.45457
   2  -9   1 1024.67 1430.74   1 0.20153-0.41561-0.29850-0.36893 0.93288-0.83135
  -9   7   1  947.90  832.47   1-0.81443 0.34379-0.34701 0.86576 0.46505-0.36366
  -7  -2  -1 1018.70  906.80   1-0.37295-0.31210-0.50194 0.35362 0.78035-0.88178
   2  -9   1  868.88 1178.43   1 0.49798-0.71200-0.42010-0.24712 0.75862-0.65725
  -7  -2   0 6040.27 1234.87   1-0.17005-0.51460-0.86981 0.72158 0.46314-0.46314
   2  -9   0 6179.41 2205.71   1 0.14633-0.36041-0.41499-0.25245 0.89797-0.89797
  -9   7   0 4902.09 2251.15   1-0.86328 0.39263-0.31035 0.82910 0.39801-0.39801
  -7  -2   0 6235.35 4294.62   1-0.24688-0.43817-0.51592 0.36760 0.82028-0.82028
   2  -9   0 4912.26 2203.10   1 0.32275-0.53676-0.47146-0.19576 0.82070-0.82070
   2  -9  -1 1209.99 1498.20   1 0.08405-0.29806-0.53075-0.13644 0.84334-0.94474
  -9   7  -1 1640.18 1148.83   1-0.90368 0.43304-0.27255 0.79130 0.33024-0.43162
  -7  -2   1 1656.80 1147.81   1-0.12812-0.55651-0.52095 0.37272 0.84391-0.74254
  -9   7  -2 5178.27 3419.67   1-0.37153-0.09913-0.18043 0.69921-0.91071 0.70800
   2  -9  -2 5462.24 2686.34   1 0.01898-0.23298-0.63863-0.02856 0.76927-0.97206
  -9   7  -2 4515.70 1996.31   1-0.93608 0.46543-0.23415 0.75290 0.26252-0.46529
  -7  -2   2 6184.95 3192.88   1-0.02298-0.66164-0.51890 0.37067 0.85452-0.65178
  -9   7  -3  769.05  997.01   1-0.40293-0.06773-0.30858 0.82736-0.86163 0.55756
  -7  -2   3  839.42 1393.70   1 0.06536-0.74999-0.51271 0.36448 0.85607-0.55195
   9  -7   3  583.44 2063.97   1 0.96108-0.49024 0.19479-0.71376-0.19586 0.50020
  -9   7  -4 2179.99 2134.68   1-0.41929-0.05137-0.38983 0.90861-0.81988 0.41446
   2  -9  -4 3232.79 1897.51   1-0.10813-0.10586-0.80830 0.14110 0.57874-0.98431
  -7  -2   4 2874.19 1464.41   1 0.13574-0.82038-0.50485 0.35662 0.85246-0.44698
   9  -7   4 3043.77 1932.23   1 0.97930-0.50846 0.15583-0.67480-0.12909 0.53487
  -9   7  -5 -130.32  899.79   1-0.42775-0.04291-0.43933 0.95811-0.78994 0.28315
   2  -9  -5  156.84 1401.39   1-0.16564-0.04830-0.86590 0.19886 0.47197-0.97883
  -7  -2   5 -160.91 1236.37   1 0.18863-0.87326-0.49720 0.34897 0.84687-0.34002
   9  -7   5 1433.91 1916.41   1 0.99116-0.52032 0.11676-0.63573-0.06296 0.57018
  -3   9  -6 2016.70 2301.57   1-0.36215 0.49052-0.14650 0.81351-0.92053 0.31238
  -6  -3  -6 1645.63 1197.83   1-0.34344-0.29890-0.93891 0.71639 0.02207-0.63042
  -6  -3  -6  523.30 1417.86   1-0.88774 0.24595-0.28850 0.06618 0.35869-0.96701
   3  -9   6 3059.73 2129.41   1 0.78820-0.91664-0.27168-0.39571 0.55219 0.05630
  -3   9  -5 1607.27 1491.42   1-0.34924 0.47761-0.10211 0.76912-0.93144 0.42466
  -6  -3  -5   -0.50 1147.09   1-0.31654-0.32531-0.94266 0.72031 0.10577-0.61263
  -6  -3  -5  -45.43 1086.45   1-0.81002 0.16823-0.34997 0.12764 0.47051-0.97744
   3  -9   5  330.42 1554.67   1 0.78869-0.91713-0.27132-0.39606 0.55166-0.04458
  -3   9  -4 3158.07 1896.34   1-0.33017 0.45854-0.04060 0.70760-0.94304 0.53761
  -6  -3  -4 3169.11 1627.04   1-0.28534-0.35652-0.93846 0.71612 0.19456-0.60005
  -6  -3  -4 2996.04 1350.38   1-0.71055 0.06876-0.40534 0.18302 0.57515-0.98070
   3  -9   4 4223.34 2009.58   1 0.77935-0.90780-0.27802-0.38937 0.56151-0.15584
  -6  -3  -3  510.56 1199.13   1-0.24841-0.39345-0.92439 0.70204 0.28945-0.59356
   3  -9   3 1237.25 1242.33   1 0.30440-0.43285-0.03984-0.62760 0.95170-0.64711
  -6  -3  -3  567.26 1614.87   1-0.59172-0.05052-0.45152 0.22904 0.66782-0.97210
  -9   6   3  633.38  584.65   1-0.52806 0.01426-0.47018 0.91514 0.70716-0.40287
   3  -9   3  777.21  847.50   1 0.75576-0.88421-0.29414-0.37325 0.58505-0.28080
  -6  -3  -2 4030.39 1386.62   1-0.20426-0.43760-0.89727 0.67492 0.39137-0.59412
   3  -9   2 6226.02 1968.80   1 0.26812-0.39657-0.13851-0.52892 0.95337-0.75030
  -9   6   2 4789.93 2655.80   1-0.61651 0.10271-0.44320 0.88816 0.65075-0.44790
  -6  -3  -2 6738.71 3454.78   1-0.45803-0.18421-0.48672 0.26423 0.74384-0.94670
   3  -9   2 5371.78 1791.45   1 0.70974-0.83815-0.32315-0.34407 0.62597-0.42321
  -6  -3  -1  244.48  902.04   1-0.15116-0.49070-0.85250 0.63015 0.50038-0.60175
   3  -9   1   83.46 1557.42   1 0.22142-0.34987-0.25316-0.41428 0.94174-0.84021
  -9   6   1  754.91  719.23   1-0.69923 0.18580-0.41054 0.85519 0.58524-0.48386
  -6  -3  -1 -297.81 1371.99   1-0.31756-0.32467-0.50927 0.28679 0.79986-0.90129
   3  -9   1  881.83 1180.09   1 0.62289-0.75130-0.36871-0.29851 0.68996-0.58858
  -6  -3   010225.33 1805.14   1-0.08768-0.55433-0.78474 0.56234 0.61358-0.61358
   3  -9   0 8312.24 2196.67   1 0.16464-0.29309-0.37776-0.28967 0.91114-0.91114
  -9   6   0 9162.71 3630.64   1-0.77244 0.25901-0.37319 0.81784 0.51385-0.51385
  -6  -3   0 8377.98 3820.56   1-0.17935-0.46248-0.51983 0.29749 0.83522-0.83522
   3  -9   0 6721.94 1167.83   1 0.45727-0.58568-0.43397-0.23325 0.77624-0.77624
  -6  -3   1  630.42  826.63   1-0.01449-0.62751-0.68860 0.46620 0.72499-0.62359
   3  -9  -1 1405.99 2330.28   1 0.09937-0.22777-0.50323-0.16396 0.85841-0.95980
  -9   6  -1 1050.64  775.84   1-0.83437 0.32094-0.33299 0.77763 0.43924-0.54062
  -6  -3   1  846.52  909.05   1-0.05264-0.58920-0.52006 0.29772 0.85250-0.75113
  -9   6  -2 8771.10 6984.76   1-0.39929-0.11416-0.29224 0.73690-0.86899 0.66628
   3  -9  -2 4780.93 2055.87   1 0.03040-0.15880-0.62073-0.04646 0.78342-0.98621
  -6  -3   2 4746.67  928.95   1 0.06405-0.70606-0.56545 0.34305 0.82229-0.61950
  -9   6  -2 6125.02 2898.82   1-0.88496 0.37153-0.29114 0.73578 0.36342-0.56619
  -6  -3   2 5195.14 2171.99   1 0.05687-0.69872-0.51348 0.29113 0.85621-0.65347
  -9   6  -3  266.76  915.33   1-0.42404-0.08941-0.41673 0.86139-0.80406 0.49999
   3  -9  -3  127.32 1546.54   1-0.03878-0.08961-0.72252 0.05532 0.69025-0.99443
  -9   6  -3  112.81 1530.45   1-0.92494 0.41150-0.24847 0.69312 0.28765-0.59181
  -6  -3   3  -12.31 1370.60   1 0.14638-0.78823-0.50343 0.28109 0.85154-0.54742
  -9   6  -4 2978.76 1685.13   1-0.43461-0.07921-0.48791 0.93290-0.75699 0.35128
  -6  -3   4 4435.10 2459.12   1 0.21574-0.85758-0.49269 0.27035 0.84303-0.43754
   9  -6   4 3831.96 2676.74   1 0.95534-0.44170 0.20473-0.64956-0.21305 0.61883
  -9   6  -5  194.32 1490.14   1-0.43944-0.07438-0.52771 0.97270-0.72691 0.21977
   3  -9  -5  606.51 1357.65   1-0.16537 0.03700-0.86566 0.19862 0.47251-0.97937
  -6  -3   5  792.18  793.38   1 0.26641-0.90826-0.48315 0.26081 0.83401-0.32716
   9  -6   5 1109.41 1706.01   1 0.97702-0.46338 0.16160-0.60643-0.13892 0.64615
  -9   6  -6 1614.58 1189.32   1-0.44144-0.07239-0.54708 0.99207-0.71121 0.10265
   3  -9  -6 1771.98 1546.13   1-0.21919 0.09082-0.90756 0.24052 0.35815-0.96638
  -6  -3   6  497.42  659.00   1 0.30021-0.94226-0.47660 0.25419 0.82626-0.21801
   9  -6   6  155.45 1901.20   1 0.99076-0.47712 0.11849-0.56332-0.06588 0.67455
  -4   9  -6 3998.76 2926.04   1-0.37440 0.41719-0.19114 0.85815-0.90734 0.29920
  -5  -4  -6 1025.04 1042.51   1-0.31803-0.28104-0.94265 0.64618 0.10131-0.70954
  -5  -4  -6 1112.92 1208.58   1-0.89452 0.29552-0.28191-0.01451 0.34690-0.95522
   4  -9   6  827.31 1564.21   1 0.84562-0.88844-0.22569-0.44170 0.48371 0.12479
  -4   9  -5 1378.96 1666.67   1-0.36268 0.40547-0.14836 0.81536-0.92002 0.41324
  -5  -4  -5  859.97 1366.88   1-0.28597-0.31309-0.93863 0.64216 0.19284-0.69970
  -5  -4  -5 1133.36  926.12   1-0.81138 0.21238-0.34906 0.05263 0.46883-0.97576
   4  -9   5  363.91 1658.39   1 0.85129-0.89410-0.22061-0.44678 0.47605 0.03102
  -4   9  -4 7448.39 3536.54   1-0.34493 0.38772-0.08781 0.75481-0.93450 0.52908
  -5  -4  -4 6833.60 2316.12   1-0.24847-0.35060-0.92442 0.62796 0.28930-0.69479
  -5  -4  -4 4477.29 1864.66   1-0.70212 0.10312-0.40923 0.11280 0.58270-0.98825
  -9   5   4 5738.58 2269.83   1-0.30375-0.25285-0.51080 0.88161 0.80424-0.39853
   4  -9   4 5336.38 1731.73   1 0.84962-0.89244-0.22212-0.44527 0.47832-0.07265
  -5  -4  -3  316.20 1152.63   1-0.20445-0.39462-0.89741 0.60094 0.39096-0.69508
  -5  -4  -3 1220.04 1204.44   1-0.56975-0.02967-0.45838 0.16174 0.68210-0.98638
  -9   5   3  456.59  648.65   1-0.39522-0.16138-0.49843 0.86923 0.77159-0.46731
   4  -9   3  853.33 1174.73   1 0.83750-0.88032-0.23278-0.43461 0.49435-0.19010
  -5  -4  -2 3721.10 1194.74   1-0.15281-0.44626-0.85407 0.55760 0.49720-0.69994
   4  -9   2 3275.98 1613.04   1 0.28491-0.32773-0.09403-0.57340 0.95392-0.75086
  -9   5   2 3702.89 1416.61   1-0.49313-0.06347-0.47891 0.84971 0.72626-0.52340
  -5  -4  -2 4249.05 1552.15   1-0.42047-0.17895-0.49406 0.19741 0.76099-0.96384
   4  -9   2 4244.95 1661.02   1 0.80822-0.85103-0.25666-0.41073 0.52999-0.32716
  -5  -4  -1  740.40 1433.32   1-0.09269-0.50652-0.79065 0.49412 0.60520-0.70659
   4  -9   1   -4.99 1489.13   1 0.23796-0.28078-0.21396-0.45348 0.94741-0.84588
  -9   5   1  879.17  597.08   1-0.59029 0.03367-0.45198 0.82278 0.66877-0.56735
  -5  -4  -1  385.50  822.48   1-0.26507-0.33435-0.51449 0.21785 0.81549-0.91692
   4  -9   1  174.28  887.92   1 0.74620-0.78902-0.30036-0.36702 0.59409-0.49268
  -5  -4   015547.38 2005.35   1-0.02489-0.57431-0.70337 0.40684 0.71038-0.71038
   4  -9   012671.87 2094.51   1 0.17947-0.22229-0.34660-0.32083 0.92067-0.92067
  -9   5   012451.36 5228.16   1-0.68049 0.12427-0.41876 0.78929 0.60130-0.60130
  -5  -4   015526.15 4682.08   1-0.11504-0.48401-0.52101 0.22456 0.84575-0.84575
  -5  -4   1 1448.49 1504.03   1 0.04778-0.64699-0.59265 0.29612 0.80403-0.70264
   4  -9  -1 1274.12 1448.80   1 0.11152-0.15434-0.48215-0.18528 0.86895-0.97048
  -9   5  -1  -95.58 1122.82   1-0.76008 0.20387-0.38016 0.75070 0.52700-0.62839
  -5  -4   1 1668.93 1222.51   1 0.01899-0.61804-0.51646 0.22000 0.85609-0.75472
  -9   5  -2 3605.09 1667.84   1-0.42426-0.13197-0.41807 0.78863-0.80324 0.60053
   4  -9  -2 3154.34 1812.00   1 0.03773-0.08054-0.60901-0.05818 0.79226-0.99505
  -5  -4   2 4395.64 1259.12   1 0.12008-0.71951-0.46607 0.16943 0.87655-0.67349
  -9   5  -2 3884.21 2028.47   1-0.82728 0.27106-0.33811 0.70864 0.44863-0.65141
  -5  -4   2 4283.74 2214.63   1 0.13153-0.73059-0.50539 0.20894 0.85280-0.65006
  -9   5  -3 -148.15  972.20   1-0.43947-0.11718-0.52795 0.89878-0.72672 0.42244
   4  -9  -3 1305.73 1588.26   1-0.03591-0.00688-0.71862 0.05142 0.69447-0.99865
  -5  -4   3  435.01  766.71   1 0.18481-0.78424-0.33517 0.03853 0.92385-0.61925
  -9   5  -3 1530.16 1533.16   1-0.88196 0.32575-0.29393 0.66446 0.36842-0.67258
  -5  -4   3  837.87 1123.55   1 0.22086-0.81992-0.49179 0.19534 0.84223-0.53811
  -9   5  -4 5092.64 2406.26   1-0.44460-0.11205-0.58466 0.95549-0.67859 0.27288
   4  -9  -4 5228.93 1652.59   1-0.10581 0.06301-0.80571 0.13851 0.58277-0.98835
  -5  -4   4 6001.24 1376.18   1 0.23752-0.83695-0.21503-0.08161 0.94728-0.54115
  -9   5  -4 8002.67 3126.20   1-0.92485 0.36863-0.24858 0.61912 0.28784-0.69339
  -5  -4   4 7237.78 3106.11   1 0.28813-0.88719-0.47861 0.18215 0.82940-0.42391
  -9   5  -5  680.80 1217.64   1-0.44626-0.11038-0.61236 0.98318-0.65258 0.14544
   4  -9  -5 1128.24 1300.66   1-0.16951 0.12672-0.86934 0.20229 0.46423-0.97109
  -5  -4   5  120.45  723.47   1 0.33571-0.93495-0.46836 0.17181 0.81727-0.31039
   9  -5   5 1657.76 1942.34   1 0.95704-0.40059 0.20187-0.57256-0.20810 0.71532
  -9   5  -6 1469.06 1272.21   1-0.44672-0.10993-0.62252 0.99335-0.64256 0.03400
   4  -9  -6  211.80 1360.88   1-0.22535 0.18256-0.91149 0.24444 0.34408-0.95232
  -5  -4   6 1009.13 1593.88   1 0.36671-0.96595-0.46052 0.16398 0.80835-0.20010
   9  -5   6 1882.57 1941.63   1 0.97935-0.42290 0.15573-0.52642-0.12891 0.73758
  -5   9  -6 1217.77 2341.20   1-0.38400 0.34121-0.22824 0.89524-0.89467 0.28653
  -4  -5  -6  772.10 1389.45   1-0.29408-0.26219-0.94043 0.56985 0.17056-0.77879
   5  -9   6  274.77 1642.19   1 0.89313-0.85032-0.17893-0.48846 0.41265 0.19584
  -5   9  -5  819.37 1098.83   1-0.37328 0.33049-0.18695 0.85396-0.90868 0.40189
  -4  -5  -5  -47.12 1373.99   1-0.25739-0.29888-0.92861 0.55803 0.26726-0.77412
  -4  -5  -5 -368.37  974.92   1-0.82079 0.26457-0.34267-0.02786 0.45702-0.96396
  -9   4   5  -97.68  674.67   1-0.13149-0.46756-0.52092 0.81738 0.84341-0.33655
   5  -9   5  585.28 1617.64   1 0.90239-0.85958-0.16848-0.49891 0.39660 0.11048
  -5   9  -4 7439.51 3057.60   1-0.35667 0.31388-0.12734 0.79435-0.92550 0.52007
  -4  -5  -4 4172.77 1308.17   1-0.21486-0.34141-0.90469 0.53411 0.36791-0.77340
  -4  -5  -4 5934.26 2965.67   1-0.70174 0.14552-0.40941 0.03887 0.58304-0.98859
  -9   4   4 6493.96 2508.70   1-0.20502-0.39403-0.51873 0.81518 0.82998-0.42450
   5  -9   4 6167.61 2272.02   1 0.90651-0.86369-0.16366-0.50373 0.38916 0.01650
  -5   9  -3  471.20 1555.06   1-0.33209 0.28930-0.04659 0.71360-0.94209 0.63802
  -4  -5  -3  231.72 1069.86   1-0.16573-0.39054-0.86598 0.49540 0.47180-0.77591
  -4  -5  -3  467.54  954.78   1-0.55466-0.00195-0.46283 0.09203 0.69147-0.99575
  -9   4   3  710.51 1040.13   1-0.29385-0.30557-0.51183 0.80847 0.80726-0.50297
   5  -9   3  262.86 1218.61   1 0.90383-0.86102-0.16681-0.50058 0.39402-0.08977
  -4  -5  -2 4406.95 1781.29   1-0.10937-0.44703-0.80968 0.43901 0.57658-0.77937
   5  -9   2 2098.34 1038.94   1 0.29835-0.25554-0.05697-0.61046 0.95275-0.74968
  -4  -5  -2 4188.08 1957.17   1-0.38820-0.16840-0.49957 0.12877 0.77441-0.97726
  -9   4   2 4588.31 1766.52   1-0.39285-0.20657-0.49882 0.79546 0.77255-0.56969
   5  -9   2 5764.70 1941.38   1 0.89037-0.84755-0.18195-0.48544 0.41728-0.21445
  -4  -5  -1 2519.51 1708.52   1-0.04644-0.50997-0.73280 0.36213 0.67885-0.78024
   5  -9   1 1089.20 2203.74   1 0.25096-0.20815-0.18209-0.48534 0.95071-0.84918
  -9   4   1  487.63  803.81   1-0.49573-0.10369-0.47829 0.77494 0.72489-0.62346
  -4  -5  -1 1007.62  745.58   1-0.21643-0.33983-0.51812 0.14755 0.82746-0.92883
   5  -9   1  416.70  896.30   1 0.85580-0.81299-0.21648-0.45091 0.46982-0.36840
  -4  -5   018744.45 3073.54   1 0.02133-0.57774-0.63498 0.26431 0.77223-0.77223
   5  -9   013118.78 2172.98   1 0.19048-0.14766-0.32287-0.34456 0.92707-0.92707
  -9   4   014407.79 7698.92   1-0.59589-0.00354-0.45016 0.74680 0.66502-0.66502
  -4  -5   019287.82 9084.00   1-0.05506-0.50120-0.52014 0.14957 0.85230-0.85230
  -4  -5   1  553.19  960.16   1 0.09019-0.64660-0.51983 0.14916 0.84949-0.74809
   5  -9  -1  709.96 1878.87   1 0.11886-0.07604-0.46837-0.19906 0.87549-0.97702
  -9   4  -1  788.20 1069.96   1-0.68782 0.08882-0.41560 0.71203 0.59511-0.69650
  -4  -5   1 -114.53 1569.15   1 0.08534-0.64160-0.51074 0.14017 0.85548-0.75411
  -9   4  -2 3101.34 2195.70   1-0.44198-0.15748-0.55281 0.84947-0.70643 0.50357
   5  -9  -2 3951.02 1820.36   1 0.04027 0.00252-0.60491-0.06228 0.79526-0.99805
  -4  -5   2 3335.71 1221.48   1 0.15543-0.71205-0.39665 0.02585 0.90471-0.70164
  -9   4  -2 4645.10 2223.86   1-0.76841 0.16941-0.37550 0.67193 0.51820-0.72097
  -4  -5   2 3220.93 2022.05   1 0.19964-0.75591-0.49542 0.12485 0.84539-0.64265
  -9   4  -3  290.71  770.09   1-0.44723-0.15223-0.63732 0.93398-0.62753 0.32325
   5  -9  -3   48.14 1104.81   1-0.03826 0.08106-0.72181 0.05461 0.69103-0.99521
  -4  -5   3  498.63  978.21   1 0.21163-0.76824-0.27572-0.09507 0.93764-0.63305
  -9   4  -3  705.18  797.91   1-0.83609 0.23709-0.33172 0.62815 0.43692-0.74108
  -4  -5   3  107.88 1107.56   1 0.28769-0.84396-0.47870 0.10813 0.82950-0.52538
  -9   4  -4 7239.85 3945.61   1-0.44762-0.15184-0.67507 0.97174-0.58643 0.18072
   5  -9  -4 5490.92 1924.06   1-0.11225 0.15505-0.81286 0.14566 0.57153-0.97710
  -4  -5   4 6796.76 2125.52   1 0.25652-0.81313-0.16818-0.20262 0.95179-0.54566
  -9   4  -4 6682.51 3989.63   1-0.89078 0.29177-0.28558 0.58202 0.35347-0.75902
  -4  -5   4 4401.85 2120.56   1 0.35210-0.90853-0.46429 0.09361 0.81268-0.40718
  -9   4  -5  634.88  799.93   1-0.44738-0.15208-0.68974 0.98641-0.56929 0.06215
   5  -9  -5  177.90 1156.25   1-0.17880 0.22159-0.87732 0.21028 0.44533-0.95219
  -4  -5   5  355.14 1021.21   1 0.28995-0.84657-0.08029-0.29050 0.95366-0.44600
  -9   4  -5  959.28 2047.36   1-0.93314 0.33413-0.23806 0.53449 0.26937-0.77631
  -4  -5   5 1226.67 1679.05   1 0.39650-0.95293-0.45241 0.08173 0.79881-0.29194
  -9   4  -6  580.18  923.68   1-0.44735-0.15211-0.69086 0.98752-0.56795-0.04060
   5  -9  -6  740.81 1355.85   1-0.23624 0.27903-0.91794 0.25090 0.31869-0.92692
  -4  -5   6  125.47 1460.46   1 0.42433-0.98076-0.44429 0.07361 0.78901-0.18076
   9  -4   6 1659.79 1943.37   1 0.96426-0.36501 0.18891-0.48547-0.18573 0.79440
  -6   9  -6 1342.27 1321.09   1-0.39125 0.26288-0.25770 0.92471-0.88346 0.27532
  -3  -6  -6 1766.44 2187.22   1-0.27216-0.24132-0.93446 0.48977 0.22955-0.83778
   6  -9   6 1204.18 1653.40   1 0.93040-0.80195-0.13297-0.53442 0.34157 0.26692
  -6   9  -5  524.35  899.18   1-0.38131 0.25295-0.21764 0.88465-0.89845 0.39167
  -3  -6  -5   92.56 1420.82   1-0.23174-0.28174-0.91535 0.47066 0.32926-0.83612
  -9   3   5 1385.16 1287.95   1-0.06769-0.57414-0.52048 0.74282 0.85118-0.34432
   6  -9   5 1138.48 2167.84   1 0.94131-0.81287-0.11699-0.55040 0.31659 0.19048
  -6   9  -4 4238.39 2483.17   1-0.36559 0.23722-0.15875 0.82575-0.91713 0.51170
  -3  -6  -4 2915.02 1922.61   1-0.18551-0.32797-0.88286 0.43816 0.43143-0.83692
  -3  -6  -4 2485.79  974.05   1-0.71217 0.19874-0.40458-0.04006 0.57368-0.97923
  -9   3   4 2958.61 1639.41   1-0.13551-0.50632-0.52088 0.74322 0.84280-0.43731
   6  -9   4 4342.28 2495.81   1 0.94860-0.82015-0.10540-0.56199 0.29840 0.10726
  -6   9  -3  888.92 1051.43   1-0.34180 0.21343-0.07757 0.74457-0.93656 0.63249
  -3  -6  -3  659.17 1134.44   1-0.13310-0.38038-0.83462 0.38993 0.53448-0.83860
  -3  -6  -3  939.21  759.76   1-0.54898 0.03518-0.46445 0.01949 0.69490-0.99919
  -9   3   3  380.36  844.08   1-0.21914-0.42270-0.51797 0.74031 0.82685-0.52273
   6  -9   3 -131.61 1289.35   1 0.95179-0.82335-0.10004-0.56735 0.28996 0.01428
  -3  -6  -2 6052.74 2128.01   1-0.07447-0.43913-0.76875 0.32395 0.63519-0.83798
   6  -9   2 4226.92 1785.27   1 0.30840-0.17995-0.02833-0.63910 0.95083-0.74776
  -3  -6  -2 3944.94 2455.93   1-0.36322-0.15056-0.50337 0.05840 0.78401-0.98687
  -9   3   2 6659.64 3246.07   1-0.31533-0.32691-0.50953 0.73201 0.80058-0.59773
   6  -9   2 7463.99 2484.07   1 0.94938-0.82094-0.10410-0.56329 0.29635-0.09352
  -3  -6  -1  617.75 1277.82   1-0.01120-0.50240-0.68385 0.23905 0.72953-0.83092
   6  -9   1 1726.35 1968.87   1 0.26021-0.13176-0.15884-0.50859 0.95239-0.85086
  -9   3   1  379.95  815.20   1-0.41862-0.22362-0.49439 0.71687 0.76179-0.66036
  -3  -6  -1  694.59  883.07   1-0.17404-0.33943-0.52001 0.07533 0.83623-0.93760
   6  -9   1  924.03 1441.11   1 0.93682-0.80838-0.12375-0.54364 0.32718-0.22576
  -3  -6   0 8354.99 1923.94   1 0.05438-0.56799-0.58173 0.13693 0.81156-0.81156
   6  -9   0 6110.53 1695.55   1 0.19719-0.06874-0.30813-0.35931 0.93068-0.93068
  -9   3   0 8911.70 2988.28   1-0.52299-0.11925-0.47151 0.69399 0.71003-0.71003
  -3  -6   0 7416.72 2706.01   1-0.00092-0.51255-0.51773 0.07305 0.85554-0.85554
   6  -9  -1  331.64 1071.97   1 0.12118 0.00726-0.46397-0.20347 0.87752-0.97905
  -3  -6   1 1230.46 1302.07   1 0.11893-0.63272-0.46825 0.02328 0.87555-0.77402
  -9   3  -1  664.14  850.62   1-0.62255-0.01969-0.44107 0.66355 0.64643-0.74786
  -3  -6   1  214.36  818.82   1 0.14499-0.65846-0.50362 0.05894 0.85166-0.75029
   6  -9  -2 6739.55 1897.37   1 0.03701 0.09139-0.61018-0.05701 0.79139-0.99418
  -3  -6   2 4708.87 1514.24   1 0.17750-0.69130-0.35081-0.09415 0.91946-0.71640
  -9   3  -2 6053.61 1967.23   1-0.71263 0.07084-0.40436 0.62669 0.57326-0.77604
  -3  -6   2 4802.47 1956.47   1 0.26002-0.77350-0.48443 0.03975 0.83528-0.63254
  -9   3  -3  -65.36  890.63   1-0.44496-0.19733-0.73595 0.95844-0.51027 0.20599
   6  -9  -3  781.41 1197.89   1-0.04694 0.17534-0.73347 0.06627 0.67809-0.98227
  -3  -6   3 1398.29 1277.12   1 0.22721-0.74101-0.23960-0.20536 0.94390-0.63931
  -9   3  -3 1364.68 1776.28   1-0.79078 0.14899-0.36226 0.58458 0.49337-0.79753
  -3  -6   3  306.49 1392.39   1 0.34613-0.85976-0.46579 0.02097 0.81438-0.51026
  -9   3  -4 1374.55  990.16   1-0.44317-0.19911-0.75431 0.97681-0.48435 0.07865
   6  -9  -4 3207.56 1302.23   1-0.12513 0.25354-0.82673 0.15953 0.54850-0.95407
  -3  -6   4 3469.88 1560.22   1 0.26665-0.78045-0.14233-0.30262 0.95322-0.54709
  -9   3  -4 3603.31 2260.38   1-0.85577 0.21398-0.31653 0.53885 0.40922-0.81476
  -3  -6   4 3232.77 1685.27   1 0.40733-0.92097-0.44931 0.00449 0.79510-0.38960
  -9   3  -5  188.56  632.68   1-0.44286-0.19943-0.75704 0.97954-0.48036-0.02677
   6  -9  -5  438.08 1242.32   1-0.19418 0.32256-0.88973 0.22268 0.41312-0.91998
  -3  -6   5  306.77 1106.88   1 0.29610-0.80990-0.06328-0.38167 0.95305-0.44539
  -9   3  -5   19.14 1049.74   1-0.90759 0.26580-0.26839 0.49071 0.32285-0.82978
  -3  -6   5  160.92 1550.32   1 0.44835-0.96199-0.43684-0.00797 0.77983-0.27295
  -9   3  -6 1720.35 1156.58   1-0.44360-0.19869-0.75037 0.97287-0.49005-0.11850
   6  -9  -6 1779.46 1836.13   1-0.25257 0.38094-0.92640 0.25936 0.27924-0.88747
  -3  -6   6 1816.96 1776.29   1 0.47312-0.98675-0.42872-0.01609 0.76963-0.16138
  -7   9  -5  829.56 1568.03   1-0.38698 0.17304-0.24019 0.90719-0.89025 0.38346
  -2  -7  -5  838.32 1294.08   1-0.20964-0.26105-0.90111 0.38229 0.37953-0.88639
  -9   2   5 -231.88 1314.00   1-0.02584-0.65878-0.51903 0.66726 0.85436-0.34750
   7  -9   5 1828.71 1770.03   1 0.96852-0.75446-0.06812-0.59927 0.23939 0.26768
  -7   9  -4 1397.29 1659.75   1-0.37184 0.15790-0.18159 0.84859-0.91035 0.50493
  -2  -7  -4 2604.55 1617.05   1-0.16091-0.30978-0.86162 0.34280 0.48136-0.88685
  -9   2   4 4214.94 1983.34   1-0.08834-0.59628-0.52086 0.66909 0.84905-0.44357
   7  -9   4 2635.66 1786.59   1 0.97626-0.76224-0.05003-0.61720 0.21074 0.19503
  -7   9  -3 1145.89 1262.74   1-0.34847 0.13453-0.09953 0.76654-0.93201 0.62794
  -2  -7  -3 1484.49 1624.72   1-0.10650-0.36430-0.80647 0.28754 0.58159-0.88577
  -9   2   3  245.84  699.17   1-0.16647-0.51816-0.52024 0.66847 0.83763-0.53351
   7  -9   3  296.18 1495.21   1 0.98131-0.76729-0.03642-0.63081 0.18891 0.11541
  -2  -7  -2 4966.08 1914.50   1-0.04750-0.42330-0.73421 0.21528 0.67725-0.88003
   7  -9   2 3163.78 1511.48   1 0.31496-0.10087-0.00917-0.65826 0.94905-0.74599
  -2  -7  -2 3740.35 1452.66   1-0.34817-0.12280-0.50546-0.01366 0.78948-0.99233
  -9   2   2 5329.17 2336.27   1-0.25810-0.42695-0.51506 0.66338 0.81736-0.61451
   7  -9   2 5816.44 2230.03   1 0.98369-0.76967-0.02931-0.63793 0.17746 0.02542
  -2  -7  -1 1262.42 1462.20   1 0.01459-0.48540-0.64540 0.12647 0.76370-0.86509
   7  -9   1  968.49 1869.58   1 0.26535-0.05127-0.14568-0.52176 0.95308-0.85154
  -9   2   1 1215.38 1024.19   1-0.35889-0.32616-0.50398 0.65230 0.78561-0.68418
  -2  -7  -1  971.73  790.17   1-0.13948-0.33119-0.52082 0.00203 0.84218-0.94355
   7  -9   1 1085.61 1761.35   1 0.98258-0.76856-0.03268-0.63455 0.18289-0.08145
  -2  -7   0 3441.46 1192.83   1 0.07709-0.54790-0.54298 0.02405 0.83619-0.83619
   7  -9   0 5987.95 1679.18   1 0.19895 0.01512-0.30424-0.36320 0.93158-0.93158
  -9   2   0 6113.69 2174.59   1-0.46370-0.22135-0.48552 0.63384 0.74110-0.74111
  -2  -7   0 5985.88 2798.57   1 0.04575-0.51644-0.51443-0.00436 0.85630-0.85630
   7  -9  -1  984.39 1158.88   1 0.11742 0.09666-0.47110-0.19634 0.87422-0.97575
  -2  -7   1 1655.67 1271.76   1 0.13708-0.60806-0.43329-0.08582 0.89076-0.78923
  -9   2  -1  551.04 1405.31   1-0.56679-0.11826-0.45927 0.60759 0.68396-0.78539
  -2  -7   1 1520.08 1345.07   1 0.19660-0.66729-0.49592-0.02287 0.84581-0.74444
   7  -9  -2 4338.86 1561.97   1 0.02650 0.18750-0.62689-0.04030 0.77864-0.98143
  -2  -7   2 3390.39 1353.74   1 0.19040-0.66138-0.32305-0.19607 0.92702-0.72396
  -9   2  -2 4857.75 2095.50   1-0.66310-0.02196-0.42573 0.57405 0.61566-0.81852
  -2  -7   2 2993.50 2456.73   1 0.31193-0.78276-0.47396-0.04498 0.82343-0.62068
  -9   2  -3 1032.51 1121.57   1-0.43271-0.25246-0.81602 0.96436-0.38323 0.07905
   7  -9  -3 1155.60 1467.48   1-0.06360 0.27760-0.75513 0.08793 0.65248-0.95666
  -2  -7   3 1107.52 1275.16   1 0.23521-0.70620-0.22057-0.29855 0.94658-0.64198
  -9   2  -3 1872.32 1721.89   1-0.74882 0.06424-0.38626 0.53448 0.53857-0.84273
  -2  -7   3 1328.51 2200.29   1 0.39551-0.86635-0.45269-0.06626 0.79914-0.49502
  -9   2  -4 2191.11 1218.41   1-0.43204-0.25313-0.81869 0.96704-0.37824-0.02732
   7  -9  -4 2483.73 1446.29   1-0.14631 0.36027-0.84783 0.18079 0.50967-0.91515
  -2  -7   4 2466.94 1569.59   1 0.27075-0.74173-0.13168-0.38743 0.95359-0.54747
  -9   2  -4 3502.43 1991.71   1-0.82215 0.13757-0.34172 0.48993 0.45528-0.86083
  -2  -7   4 2729.52 1850.35   1 0.45350-0.92433-0.43519-0.08375 0.77777-0.37227
  -9   2  -5  481.54  664.15   1-0.43358-0.25159-0.81238 0.96072-0.38992-0.11703
  -2  -7   5  285.10 1172.20   1 0.29746-0.76844-0.05948-0.45964 0.95287-0.44521
  -9   2  -5  852.81 1522.96   1-0.88218 0.19760-0.29373 0.44195 0.36807-0.87500
  -2  -7   5  521.35 1601.46   1 0.49134-0.96217-0.42245-0.09649 0.76164-0.25477
  -8   9  -5 1260.81  919.78   1-0.39043 0.09091-0.25431 0.92132-0.88480 0.37801
  -1  -8  -5  932.02 1940.98   1-0.19141-0.23649-0.88757 0.29464 0.41902-0.92588
  -9   1   5  727.02  827.52   1-0.00069-0.72673-0.51772 0.59183 0.85554-0.34869
   8  -9   5 1085.82 1727.72   1 0.98550-0.68588-0.02343-0.64380 0.16799 0.33922
  -8   9  -4 3248.59 1942.20   1-0.37552 0.07600-0.19535 0.86235-0.90599 0.50056
  -1  -8  -4 2393.14 1836.87   1-0.14120-0.28670-0.84280 0.24987 0.51937-0.92485
  -9   1   4 3686.21 2750.98   1-0.05858-0.66884-0.52024 0.59435 0.85200-0.44652
   8  -9   4 2734.77 2307.34   1 0.99151-0.69188 0.00002-0.66726 0.13001 0.27576
  -8   9  -3  743.16  907.68   1-0.35209 0.05257-0.11168 0.77868-0.92927 0.62520
  -1  -8  -3  403.48 1782.41   1-0.08611-0.34189-0.78287 0.18981 0.61618-0.92036
  -9   1   3  824.62  946.48   1-0.13153-0.59589-0.52092 0.59503 0.84340-0.53929
   8  -9   3 3104.48 1786.25   1 0.99511-0.69549 0.02057-0.68782 0.09651 0.20781
  -1  -8  -2 2015.11 1613.71   1-0.02766-0.40034-0.70723 0.11416 0.70643-0.90922
  -9   1   2 2718.57 1464.62   1-0.21799-0.50942-0.51803 0.59215 0.82711-0.62436
   8  -9   2 2226.89 1594.66   1 0.99689-0.69726 0.03705-0.70429 0.06952 0.13336
  -1  -8  -1 1492.84 2023.59   1 0.03247-0.46048-0.61744 0.02438 0.78594-0.88733
   8  -9   1 1260.26 1405.95   1 0.26586 0.03384-0.14435-0.52308 0.95313-0.85160
  -9   1   1 2101.92 1520.80   1-0.31513-0.41274-0.50955 0.58371 0.80065-0.69922
  -1  -8  -1 1457.39  930.66   1-0.11515-0.31274-0.52101-0.07189 0.84574-0.94711
   8  -9   1  532.28 1438.56   1 0.99749-0.69786 0.04731-0.71456 0.05263 0.04881
  -1  -8   0 7947.49 2418.02   1 0.09168-0.51969-0.51714-0.07591 0.85097-0.85097
   8  -9   0 9152.45 2186.10   1 0.19473 0.10498-0.31357-0.35387 0.92938-0.92938
  -9   1   010744.09 3502.13   1-0.41809-0.30978-0.49449 0.56865 0.76201-0.76201
  -1  -8   0 8587.98 4666.43   1 0.08327-0.51117-0.51095-0.08195 0.85556-0.85556
   8  -9  -1 1224.87 1328.72   1 0.10590 0.19381-0.49258-0.17486 0.86379-0.96532
  -1  -8   1 1130.94 1431.05   1 0.14758-0.57574-0.41250-0.18078 0.89892-0.79739
  -9   1  -1 1333.44 1024.66   1-0.52188-0.20599-0.47180 0.54596 0.71066-0.81209
  -1  -8   1 1891.61 1165.85   1 0.23896-0.66686-0.48850-0.10440 0.83920-0.73783
   8  -9  -2 2518.79 1486.58   1 0.00649 0.29310-0.65770-0.00949 0.75324-0.95603
  -1  -8   2  586.90 1188.44   1 0.19664-0.62480-0.30936-0.28392 0.93039-0.72732
  -9   1  -2  547.41  789.69   1-0.62136-0.10651-0.44149 0.51565 0.64729-0.85014
  -1  -8   2 2167.01 1839.60   1 0.35429-0.78232-0.46374-0.12935 0.81204-0.60929
  -1  -8   3 1391.69 1438.93   1 0.23773-0.66589-0.21452-0.37875 0.94734-0.64274
  -9   1  -3 1284.47 1630.32   1-0.71217-0.01519-0.40458 0.47869 0.57369-0.87785
  -1  -8   3 1284.42 1924.10   1 0.43554-0.86357-0.44086-0.15222 0.78481-0.48068
  -9   1  -4 2448.77 1199.17   1-0.41570-0.31230-0.86683 0.94100-0.27530-0.13026
  -1  -8   4 1764.96 2339.62   1 0.27042-0.69858-0.13254-0.46073 0.95357-0.54744
  -9   1  -4 4019.15 2112.10   1-0.79179 0.06443-0.36164 0.43575 0.49221-0.89775
  -1  -8   4 3070.60 1547.93   1 0.49060-0.91863-0.42271-0.17037 0.76198-0.35647
  -9   1  -5  575.71  596.63   1-0.42054-0.30745-0.85523 0.92941-0.30283-0.20412
  -1  -8   5   95.66 1185.06   1 0.29520-0.72337-0.06578-0.52749 0.95316-0.44550
  -9   1  -5 1680.93 1286.39   1-0.85851 0.13115-0.31430 0.38840 0.40517-0.91210
  -1  -8   5  328.16 1370.41   1 0.52567-0.95370-0.40992-0.18316 0.74540-0.23852
  -9   9  -5  403.91  862.72   1-0.39171 0.00661-0.25962 0.92663-0.88269 0.37591
   0  -9  -5 -204.81 1400.41   1-0.17716-0.20795-0.87594 0.20889 0.44871-0.95557
  -9   0   5  850.01  680.77   1 0.01137-0.78159-0.51697 0.51697 0.85592-0.34906
   9  -9   5  -48.24 1312.37   1 0.99441-0.60918 0.01580-0.68304 0.10431 0.40291
  -9   9  -4  906.07  855.98   1-0.37659-0.00850-0.19942 0.86642-0.90465 0.49922
   0  -9  -4 1386.66 1992.23   1-0.12605-0.25915-0.82769 0.16049 0.54683-0.95240
  -9   0   4 1246.08 1448.80   1-0.04263-0.72758-0.51972 0.51972 0.85326-0.44778
   9  -9   4 1026.41 1166.08   1 0.99731-0.61207 0.04345-0.71070 0.05899 0.34678
  -9   9  -3  676.60  725.20   1-0.35248-0.03260-0.11302 0.78002-0.92896 0.62489
   0  -9  -3  935.69 1529.18   1-0.07132-0.31388-0.76485 0.09765 0.64024-0.94442
  -9   0   3 1146.04 1029.20   1-0.11099-0.65922-0.52101 0.52101 0.84629-0.54218
   9  -9   3  -12.94 1232.53   1 0.99746-0.61223 0.06918-0.73642 0.01650 0.28783
   0  -9  -2 3290.75 1992.66   1-0.01408-0.37112-0.68801 0.02081 0.72556-0.92834
  -9   0   2 3201.02 1889.16   1-0.19263-0.57758-0.51930 0.51930 0.83259-0.62985
   9  -9   2 4427.52 1744.88   1 0.99548-0.61024 0.09235-0.75960-0.02206 0.22495
   0  -9  -1 2453.17 2143.88   1 0.04376-0.42896-0.59924-0.06795 0.79936-0.90075
   9  -9   1  517.21 1219.61   1 0.26086 0.12448-0.15718-0.51026 0.95249-0.85096
  -9   0   1   92.45  788.77   1-0.28545-0.48524-0.51266 0.51266 0.80974-0.70832
   9  -9   1  921.32 1178.08   1 0.99219-0.60696 0.11195-0.77920-0.05488 0.15633
   0  -9   0 1569.23 1323.61   1 0.09981-0.48502-0.50243-0.16477 0.85883-0.85883
  -9   0   0 3266.46 1941.91   1-0.38534-0.38534-0.50003 0.50003 0.77554-0.77554
   0  -9   0 2078.29 1059.25   1 0.10976-0.49487-0.50805-0.15896 0.85429-0.85429
   0  -9   1 -622.79 1523.31   1 0.15217-0.53751-0.40327-0.26416 0.90233-0.80080
  -9   0  -1  682.98  817.81   1-0.48795-0.28274-0.48012 0.48012 0.72895-0.83038
   0  -9   1  226.11  330.66   1 0.27097-0.65607-0.48222-0.18480 0.83308-0.73171
   0  -9   2 2071.96 1421.17   1 0.19779-0.58314-0.30680-0.36063 0.93099-0.72792
  -9   0  -2 2020.95 1327.07   1-0.58840-0.18229-0.45259 0.45259 0.67003-0.87288
   0  -9   2 3877.08 1554.52   1 0.38668-0.77190-0.45515-0.21207 0.80206-0.59931
   0  -9   3  267.77 1395.07   1 0.23602-0.62137-0.21863-0.44880 0.94683-0.64223
  -9   0  -3  174.60  826.43   1-0.68208-0.08806-0.41808 0.41808 0.59997-0.90413
   0  -9   3  564.73 1324.41   1 0.46610-0.85132-0.43107-0.23615 0.77260-0.46848
   0  -9   4 -436.51 1525.13   1 0.26661-0.65196-0.14243-0.52500 0.95322-0.54709
  -9   0  -4 1335.60 1201.88   1-0.76605-0.00409-0.37684 0.37684 0.52072-0.92626
   0  -9   4 1380.64 1986.99   1 0.51880-0.90403-0.41250-0.25472 0.74878-0.34328
  -9   0  -5  122.24  417.74   1-0.40555-0.36527-0.88648 0.88648-0.22285-0.28409
   0  -9   5  -54.17 1335.69   1 0.29002-0.67537-0.08011-0.58732 0.95365-0.44599
  -9   0  -5  855.18 1056.59   1-0.83789 0.06774-0.33038 0.33038 0.43447-0.94141
   0  -9   5 1015.51 1947.48   1 0.55167-0.93690-0.39977-0.26745 0.73200-0.22513
   1 -10   4  639.06 1591.39   1 0.25990-0.60243-0.15961-0.58198 0.95234-0.54622
  -9  -1  -4 1190.35  942.66   1-0.74582-0.06710-0.38784 0.31374 0.54158-0.94713
   1 -10   4  441.67 1288.96   1 0.53829-0.88072-0.40506-0.33629 0.73902-0.33352
   1 -10   3  652.40 1677.39   1 0.23089-0.57342-0.23089-0.51071 0.94518-0.64058
  -9  -1  -3  529.98  886.09   1-0.65946-0.15405-0.42719 0.35303 0.61855-0.92284
   1 -10   3  725.46 1109.14   1 0.48714-0.82956-0.42392-0.31743 0.76352-0.45940
   1 -10   2 3710.82 1633.32   1 0.19489-0.53742-0.31322-0.42838 0.92946-0.72640
  -9  -1  -2 3736.62 2917.25   1-0.56441-0.24909-0.45998 0.38582 0.68545-0.88830
   1 -10   2 5398.98 2061.11   1 0.40867-0.75109-0.44892-0.29243 0.79463-0.59188
   1 -10   1 -134.56 1508.47   1 0.15203-0.49456-0.40355-0.33805 0.90223-0.80070
  -9  -1  -1  975.80  765.66   1-0.46456-0.34894-0.48533 0.41117 0.74069-0.84212
   1 -10   1  935.05 1127.00   1 0.29211-0.63454-0.47837-0.26299 0.82814-0.72676
   1 -10   0  925.57 1549.90   1 0.10269-0.44509-0.49717-0.24416 0.86155-0.86155
  -9  -1   0  893.87  855.40   1-0.36426-0.44925-0.50322 0.42906 0.78363-0.78363
   1 -10  -1  687.65 1425.20   1 0.04952-0.39193-0.58979-0.15154 0.80603-0.90742
  -9  -1   1  304.61 1230.36   1-0.26800-0.54550-0.51424 0.44008 0.81469-0.71326
  10  -9   1  379.66 1047.34   1 0.97722-0.50638 0.16112-0.82836-0.13810 0.23954
   1 -10  -2 5393.89 2604.61   1-0.00596-0.33643-0.67623-0.06510 0.73666-0.93945
  -9  -1   2 4433.73 2034.37   1-0.17949-0.63351-0.51982 0.44571 0.83520-0.63245
  10  -9   2 6353.06 2261.80   1 0.98606-0.51522 0.13613-0.80338-0.09565 0.29854
 -10   9  -3  150.48  509.13   1-0.34927-0.12139-0.10220 0.76921-0.93142 0.62735
   1 -10  -3   -2.53 1514.99   1-0.06165-0.28075-0.75264 0.01131 0.65553-0.95971
  -9  -1   3  637.55  732.47   1-0.10228-0.71072-0.52099 0.44687 0.84741-0.54329
  10  -9   3  269.50 1419.39   1 0.99282-0.52198 0.10881-0.77605-0.04960 0.35393
 -10   9  -4  567.78 1487.68   1-0.37487-0.09579-0.19292 0.85992-0.90677 0.50135
   1 -10  -4 -112.48 1346.69   1-0.11568-0.22672-0.81661 0.07528 0.56547-0.97104
  -9  -1   4  563.64 1391.84   1-0.03790-0.77510-0.51954 0.44543 0.85360-0.44811
  10  -9   4 -601.08 1481.48   1 0.99681-0.52597 0.07969-0.74693-0.00095 0.40673
  -8  -2  -4  370.06  542.79   1-0.34116-0.42966-0.93953 0.79119 0.02963-0.43520
   2 -10   4 1404.16 2544.84   1 0.28204-0.53894-0.10177-0.63983 0.95398-0.54785
  -8  -2  -4  731.53 1194.75   1-0.72519-0.04495-0.39832 0.25011 0.56162-0.96717
   2 -10   4  -12.37 1196.11   1 0.62651-0.88333-0.36700-0.37436 0.68759-0.28209
  -8  -2  -3  907.33 1072.80   1-0.31802-0.45221-0.94265 0.79441 0.10134-0.40546
   2 -10   3 1491.46 1851.29   1 0.25379-0.51069-0.17504-0.56655 0.95128-0.64669
  -8  -2  -3 1656.94 1641.08   1-0.62869-0.14200-0.43887 0.29055 0.64197-0.94626
   2 -10   3 2348.18 1650.62   1 0.58333-0.84015-0.38658-0.35478 0.71433-0.41020
   2 -10   2 6472.99 2514.65   1 0.21799-0.47489-0.26112-0.48047 0.94036-0.73730
  -8  -2  -2 5169.07 3433.72   1-0.52251-0.24818-0.47163 0.32331 0.71031-0.91316
   2 -10   2 4017.39 1359.29   1 0.51254-0.76935-0.41483-0.32653 0.75180-0.54905
   2 -10   1 2768.34 2165.74   1 0.17454-0.43144-0.35708-0.38452 0.91762-0.81608
  -8  -2  -1 3262.91 1918.18   1-0.41155-0.35913-0.49565 0.34733 0.76481-0.86624
   2 -10   0 2239.26 2143.07   1 0.12415-0.38105-0.45830-0.28329 0.88007-0.88007
 -10   8   0  370.03  514.65   1-0.90818 0.39475-0.26775 0.86061 0.32172-0.32172
  -8  -2   0 1151.60  752.00   1-0.30126-0.46943-0.51107 0.36275 0.80501-0.80501
   2 -10  -1 1859.60 1731.84   1 0.06801-0.32481-0.55869-0.18263 0.82658-0.92797
 -10   8  -1 2356.18 1362.34   1-0.93447 0.42104-0.23631 0.82917 0.26630-0.36769
  -8  -2   1 4346.93 1687.98   1-0.19666-0.57355-0.51913 0.37090 0.83176-0.73038
   2 -10  -2 5890.33 2291.65   1 0.00944-0.26625-0.65325-0.08808 0.75708-0.95987
  -8  -2   2 4416.61 2757.35   1-0.10274-0.66747-0.52099 0.37276 0.84735-0.64461
  10  -8   2 7370.78 2273.51   1 0.95646-0.44281 0.20287-0.79597-0.20982 0.41271
   2 -10  -3 2219.84 2183.64   1-0.04958-0.20721-0.73697-0.00436 0.67410-0.97828
  -8  -2   3 2743.01 1952.07   1-0.02213-0.74808-0.51885 0.37063 0.85457-0.55045
  10  -8   3  478.00 1485.05   1 0.97397-0.46032 0.16882-0.76192-0.15125 0.45559
 -10   8  -4 1196.60 2405.63   1-0.39731-0.11614-0.28351 0.87640-0.87279 0.46736
   2 -10  -4  308.93 1528.42   1-0.10687-0.14993-0.80689 0.06556 0.58094-0.98652
  -8  -2   4  639.40 1220.51   1 0.04373-0.81395-0.51460 0.36637 0.85631-0.45082
  10  -8   4  185.05 1531.78   1 0.98672-0.47308 0.13390-0.72700-0.09186 0.49764
  -7  -3  -5  575.76  632.13   1-0.33073-0.39727-0.94160 0.71908 0.06321-0.57016
  -7  -3  -5 1467.51 1343.76   1-0.80104 0.07368-0.35582 0.13350 0.48137-0.98830
   3 -10   5 1326.00 1711.38   1 0.72639-0.89760-0.31323-0.42813 0.61174-0.10486
  -7  -3  -4 1228.37 1042.19   1-0.30334-0.42410-0.94187 0.71952 0.14444-0.54993
   3 -10   4 1310.06 1834.28   1 0.30092-0.47219-0.04973-0.69186 0.95234-0.54622
  -7  -3  -4  838.21  915.84   1-0.70831-0.01904-0.40639 0.18406 0.57718-0.98272
   3 -10   4 1962.10 1748.68   1 0.70996-0.88117-0.32302-0.41834 0.62578-0.22028
  -7  -3  -3 2379.35 1540.84   1-0.27191-0.45553-0.93437 0.71203 0.23020-0.53432
   3 -10   3 3862.60 2161.51   1 0.27347-0.44474-0.12454-0.61705 0.95378-0.64918
  -7  -3  -3 2317.16 1564.02   1-0.60101-0.12686-0.44847 0.22599 0.66154-0.96583
   3 -10   3 2030.46 1873.45   1 0.67676-0.84797-0.34159-0.39977 0.65215-0.34802
  -7  -3  -2 2664.25 1145.18   1-0.23512-0.49231-0.91731 0.69496 0.32132-0.52406
   3 -10   2 2222.29 1325.37   1 0.23798-0.40924-0.21391-0.52768 0.94741-0.74435
  -7  -3  -2 4102.60 1960.79   1-0.48297-0.24490-0.48127 0.25879 0.73151-0.93436
   3 -10   2 3100.30 1129.00   1 0.61763-0.78884-0.37119-0.37017 0.69336-0.49061
  -7  -3  -1 3520.02 1285.53   1-0.19170-0.53573-0.88780 0.66545 0.41839-0.51976
   3 -10   1 2714.37 1481.90   1 0.19401-0.36528-0.31514-0.42645 0.92899-0.82746
 -10   7   1 4159.35 1578.81   1-0.78077 0.22455-0.36832 0.88707 0.50470-0.40332
  -7  -3  -1 4132.01 1906.49   1-0.36042-0.36745-0.50377 0.28129 0.78505-0.88648
  -7  -3   0 1495.19  741.99   1-0.14035-0.58709-0.84195 0.61960 0.52096-0.52096
   3 -10   0 1657.86 1761.91   1 0.14210-0.31337-0.42339-0.31820 0.89472-0.89472
  -7  -3   0 1745.80 1166.25   1-0.24009-0.48778-0.51641 0.29393 0.82199-0.82199
   3 -10  -1 3714.80 1484.01   1 0.08341-0.25461-0.53189-0.20944 0.84269-0.94408
 -10   7  -1 4657.80 2551.43   1-0.87664 0.32042-0.29877 0.81752 0.37712-0.47851
  -7  -3   1 4787.89 1821.22   1-0.12791-0.59951-0.52095 0.29861 0.84394-0.74257
   3 -10  -2 4646.00 2150.32   1 0.02163-0.19284-0.63451-0.10682 0.77261-0.97539
 -10   7  -2 3002.41 1613.29   1-0.91394 0.35772-0.26139 0.78014 0.31045-0.51322
  -7  -3   2 4840.05 2536.39   1-0.02918-0.69823-0.51918 0.29683 0.85416-0.65142
   3 -10  -3 2113.18 2260.95   1-0.04087-0.13032-0.72535-0.01597 0.68716-0.99134
  -7  -3   3 1947.14 1623.41   1 0.05374-0.78116-0.51375 0.29141 0.85625-0.55213
 -10   7  -4 1227.23  828.85   1-0.41696-0.13928-0.37729 0.89607-0.82691 0.42148
   3 -10  -4 1296.11 1567.57   1-0.10150-0.06969-0.80083 0.05950 0.59021-0.99579
  -7  -3   4 1395.40 1268.09   1 0.12005-0.84747-0.50683 0.28449 0.85364-0.44816
  10  -7   4 2587.15 2069.49   1 0.96723-0.41078 0.18316-0.70212-0.17583 0.58161
 -10   7  -5  802.84  937.93   1-0.42618-0.13006-0.42956 0.94834-0.79614 0.28935
   3 -10  -5 1609.47 1356.94   1-0.15853-0.01262-0.85943 0.11827 0.48604-0.99290
  -7  -3   5 2098.14  966.42   1 0.17020-0.89763-0.50004 0.27770 0.84910-0.34225
  10  -7   5 -263.84 1505.03   1 0.98373-0.42728 0.14347-0.66244-0.10808 0.61530
  -4  10  -5 -327.38 2136.76   1-0.33499 0.42056-0.05572 0.79683-0.94057 0.43378
  -6  -4  -5  630.87  517.03   1-0.30014-0.38450-0.94145 0.64498 0.15355-0.66041
  -6  -4  -5  338.13  498.51   1-0.79823 0.11365-0.35761 0.06118 0.48470-0.99163
   4 -10   5 1453.20 1502.71   1 0.79398-0.87961-0.26744-0.47410 0.54595-0.03886
  -6  -4  -4 4334.07 1642.98   1-0.26686-0.41778-0.93252 0.63606 0.24326-0.64875
  -6  -4  -4 4974.10 2062.92   1-0.69643 0.01185-0.41180 0.11537 0.58770-0.99325
   4 -10   4 4830.48 2121.97   1 0.78544-0.87106-0.27368-0.46786 0.55513-0.14947
  -6  -4  -3 1296.97 1648.21   1-0.22834-0.45630-0.91332 0.61686 0.33718-0.64129
   4 -10   3  891.38 1509.97   1 0.29003-0.37566-0.08009-0.66150 0.95365-0.64906
  -6  -4  -3 1559.21 1372.92   1-0.57762-0.10744-0.45598 0.15934 0.67707-0.98135
   4 -10   3  738.09 1325.36   1 0.76320-0.84882-0.28918-0.45237 0.57783-0.27358
  -6  -4  -2  -32.19 1228.80   1-0.18372-0.50092-0.88141 0.58494 0.43515-0.63789
   4 -10   2 1238.08 1996.08   1 0.25483-0.34046-0.17243-0.56916 0.95148-0.74842
 -10   6   2  245.04  663.82   1-0.60810 0.00867-0.44609 0.89105 0.65666-0.45380
  -6  -4  -2 1126.83  748.85   1-0.44686-0.23819-0.48900 0.19236 0.74912-0.95197
   4 -10   2  698.58 1080.22   1 0.71939-0.80499-0.31745-0.42390 0.61781-0.41506
  -6  -4  -1  952.18  863.48   1-0.13231-0.55233-0.83382 0.53735 0.53594-0.63731
   4 -10   1  429.41 1523.94   1 0.21032-0.29596-0.27869-0.46291 0.93706-0.83553
 -10   6   1 1431.43  993.93   1-0.68193 0.08293-0.41814 0.86279 0.60009-0.49871
  -6  -4  -1  723.89  971.02   1-0.31215-0.37290-0.50989 0.21324 0.80160-0.90303
  -6  -4   013235.51 2356.51   1-0.07398-0.61082-0.76815 0.47161 0.63597-0.63597
   4 -10   013897.95 2760.03   1 0.15681-0.24244-0.39385-0.34775 0.90569-0.90569
 -10   6   011151.37 5265.68   1-0.75057 0.15156-0.38533 0.82998 0.53680-0.53680
  -6  -4   013302.10 4242.51   1-0.18144-0.50319-0.51975 0.22330 0.83482-0.83482
  -6  -4   1  322.23  869.06   1-0.01034-0.67446-0.68261 0.38608 0.73070-0.62931
   4 -10  -1 1169.33 1899.04   1 0.09540-0.18100-0.51044-0.23088 0.85460-0.95599
 -10   6  -1  732.62  757.23   1-0.81150 0.21249-0.34898 0.79363 0.46869-0.57008
  -6  -4   1  775.29 1516.86   1-0.06258-0.62204-0.52035 0.22389 0.85165-0.75028
   4 -10  -2  660.46 2221.57   1 0.03019-0.11579-0.62106-0.12026 0.78317-0.98596
  -6  -4   2  392.41  944.87   1 0.05524-0.74006-0.58029 0.28375 0.81253-0.60974
 -10   6  -2  725.38  748.59   1-0.86360 0.26460-0.31008 0.75472 0.39753-0.60030
  -6  -4   2 1163.47 1256.14   1 0.04001-0.72465-0.51490 0.21844 0.85631-0.65357
   4 -10  -3 1948.66 2240.74   1-0.03601-0.04958-0.71875-0.02258 0.69433-0.99851
 -10   6  -3 1781.91 1635.74   1-0.90663 0.30762-0.26943 0.71407 0.32469-0.62885
  -6  -4   3 1027.97 1182.71   1 0.12425-0.80888-0.50631 0.20985 0.85335-0.54923
   4 -10  -4 5063.57 2016.47   1-0.10009 0.01449-0.79922 0.05788 0.59264-0.99821
 -10   6  -4 4846.46 2424.01   1-0.94080 0.34180-0.22763 0.67227 0.25112-0.65666
  -6  -4   4 5260.87 2811.42   1 0.19007-0.87471-0.49697 0.20052 0.84668-0.44120
 -10   6  -5  313.28  675.72   1-0.43797-0.16149-0.51472 0.95971-0.73704 0.22991
   4 -10  -5  992.93 1839.47   1-0.16000 0.07441-0.86078 0.11962 0.48316-0.99002
  -6  -4   5  874.02  896.86   1 0.23873-0.92337-0.48854 0.19209 0.83924-0.33238
  10  -6   5 -164.34 1499.56   1 0.96666-0.36740 0.18428-0.62911-0.17777 0.68499
  -5  10  -5  272.49  801.04   1-0.34689 0.34689-0.09427 0.83538-0.93315 0.42636
  -5  -5  -5  582.68 1477.34   1-0.27143-0.37042-0.93421 0.56363 0.23145-0.73831
  -5  -5  -5  416.38  643.23   1-0.80219 0.16040-0.35508-0.01545 0.47999-0.98693
   5 -10   5 -367.35 1453.32   1 0.85237-0.85237-0.21963-0.52192 0.47457 0.03251
  -5  10  -410232.58 3202.00   1-0.32834 0.32834-0.03491 0.77603-0.94391 0.53848
  -5  -5  -4 9579.05 2979.41   1-0.23308-0.40877-0.91613 0.54555 0.32613-0.73161
  -5  -5  -4 7856.24 2614.30   1-0.69114 0.04935-0.41415 0.04361 0.59228-0.99782
   5 -10   410510.73 3047.18   1 0.85087-0.85087-0.22099-0.52055 0.47663-0.07096
  -5  -5  -3  -66.10 1124.05   1-0.18922-0.45263-0.88584 0.51526 0.42363-0.72775
   5 -10   3  676.81 1436.19   1 0.30351-0.30351-0.04239-0.69921 0.95188-0.64728
  -5  -5  -3  167.88  880.57   1-0.55997-0.08226-0.46129 0.09049 0.68821-0.99249
 -10   5   3  291.57  457.95   1-0.42545-0.21679-0.49314 0.86394 0.75881-0.45453
   5 -10   3  233.46 1214.28   1 0.83924-0.83924-0.23128-0.51026 0.49211-0.18785
  -5  -5  -2 1532.45 1558.56   1-0.13944-0.50241-0.84104 0.47046 0.52267-0.72542
   5 -10   2 1305.52 1884.24   1 0.26850-0.26850-0.13754-0.60406 0.95340-0.75034
  -5  -5  -2  795.13 1028.11   1-0.41547-0.22677-0.49496 0.12415 0.76314-0.96600
   5 -10   2  505.17  986.87   1 0.81107-0.81107-0.25444-0.48710 0.52670-0.32387
  -5  -5  -1 1328.86 1356.46   1-0.08366-0.55834-0.77994 0.40928 0.62022-0.72162
   5 -10   1  219.19 1726.33   1 0.22333-0.22333-0.24871-0.49288 0.94247-0.84094
 -10   5   1  206.07  914.90   1-0.59141-0.05082-0.45162 0.82242 0.66802-0.56660
  -5  -5  -1  357.87 1079.97   1-0.26793-0.37431-0.51425 0.14345 0.81471-0.91613
  -5  -5   023136.40 2362.35   1-0.02325-0.61876-0.70105 0.33039 0.71272-0.71272
   5 -10   025272.12 3438.86   1 0.16800-0.16800-0.37080-0.37080 0.91338-0.91338
 -10   5   021040.95 8513.00   1-0.67189 0.02964-0.42214 0.79295 0.60856-0.60856
  -5  -5   019194.02 7526.55   1-0.12711-0.51472-0.52096 0.15039 0.84405-0.84405
  -5  -5   1  183.17  887.05   1 0.03944-0.68146-0.60625 0.23558 0.79429-0.69289
   5 -10  -1  771.50 1741.41   1 0.10357-0.10357-0.49555-0.24578 0.86238-0.96377
 -10   5  -1  676.33  624.77   1-0.74550 0.10371-0.38802 0.75855 0.54191-0.64329
  -5  -5   1 1241.01 1519.88   1-0.00184-0.64000-0.51778 0.14721 0.85550-0.75413
   5 -10  -2 1282.69 1901.88   1 0.03457-0.03457-0.61408-0.12724 0.78848-0.99126
  -5  -5   2  748.64 1058.58   1 0.10067-0.74268-0.50087 0.13020 0.85964-0.65686
 -10   5  -2  937.44 1238.64   1-0.81035 0.16856-0.34975 0.72028 0.47010-0.67288
  -5  -5   2  186.33 1724.79   1 0.10376-0.74561-0.50874 0.13817 0.85463-0.65189
   5 -10  -3  730.92 1317.83   1-0.03561 0.03561-0.71820-0.02312 0.69491-0.99909
  -5  -5   3  452.57  829.16   1 0.15666-0.79891-0.39416 0.02336 0.90558-0.60099
 -10   5  -3 1170.23  881.56   1-0.86530 0.22351-0.30865 0.67918 0.39494-0.69910
  -5  -5   3  -64.06 1438.17   1 0.18841-0.83025-0.49724 0.12667 0.84690-0.54279
   5 -10  -412568.89 3041.10   1-0.10327 0.10327-0.80284 0.06151 0.58717-0.99274
 -10   5  -4 9619.23 2494.07   1-0.91018 0.26839-0.26558 0.63611 0.31786-0.72340
  -5  -5   412184.44 4380.26   1 0.25304-0.89489-0.48581 0.11524 0.83663-0.43114
 -10   5  -5  585.73 1147.91   1-0.44537-0.19691-0.59632 0.96715-0.66785 0.16072
   5 -10  -5  706.54 1243.10   1-0.16598 0.16598-0.86620 0.12504 0.47130-0.97816
  -5  -5   5 2604.19 2341.76   1 0.29957-0.94161-0.47674 0.10606 0.82641-0.31954
  -6  10  -5  336.65  925.61   1-0.35614 0.27057-0.12553 0.86665-0.92595 0.41917
  -4  -6  -5  168.66 1457.78   1-0.24529-0.35377-0.92282 0.47812 0.29702-0.80388
   6 -10   5 1247.18 2201.48   1 0.90007-0.81445-0.17115-0.57039 0.40070 0.10637
  -6  10  -4 6238.64 3034.05   1-0.33827 0.25270-0.06619 0.80730-0.93871 0.53328
  -4  -6  -4 3670.92 1814.40   1-0.20307-0.39600-0.89640 0.45171 0.39397-0.79946
  -4  -6  -4 3537.51 1925.49   1-0.69451 0.09551-0.41266-0.03198 0.58936-0.99491
 -10   4   4 4912.35 2606.95   1-0.26695-0.41810-0.51433 0.81097 0.81498-0.40927
   6 -10   4 5828.56 2354.35   1 0.90385-0.81823-0.16678-0.57476 0.39398 0.01168
  -4  -6  -3  826.81 1539.47   1-0.15556-0.44351-0.85666 0.41196 0.49186-0.79597
   6 -10   3 1536.41 1364.41   1 0.31396-0.22833-0.01212-0.72948 0.94935-0.64476
  -4  -6  -3 1434.83  947.88   1-0.54997-0.04945-0.46417 0.01921 0.69430-0.99859
 -10   4   3  657.40  677.26   1-0.34192-0.34314-0.50628 0.80293 0.79168-0.48739
   6 -10   3 1458.48 1539.23   1 0.90085-0.81522-0.17026-0.57128 0.39934-0.09509
  -4  -6  -2  670.11 1242.36   1-0.10265-0.49655-0.80213 0.35733 0.58824-0.79103
   6 -10   2 1090.76 2770.51   1 0.27892-0.19329-0.11012-0.63148 0.95397-0.75091
 -10   4   2  994.19 1312.94   1-0.42564-0.25941-0.49310 0.78975 0.75872-0.55587
  -4  -6  -2  629.63  866.24   1-0.39038-0.20904-0.49922 0.05426 0.77354-0.97639
   6 -10   2  740.02 1213.82   1 0.88714-0.80151-0.18542-0.55612 0.42260-0.21976
  -4  -6  -1 2706.53 1887.34   1-0.04543-0.55378-0.73146 0.28666 0.68036-0.78176
   6 -10   1 1553.84 1459.08   1 0.23281-0.14718-0.22632-0.51528 0.94581-0.84428
 -10   4   1  542.74  950.50   1-0.51357-0.17148-0.47392 0.77056 0.71528-0.61385
  -4  -6  -1 1196.62 1371.80   1-0.22910-0.37032-0.51714 0.07218 0.82466-0.92609
  -4  -6   010730.25 2341.36   1 0.01449-0.61371-0.64554 0.20074 0.76358-0.76358
   6 -10   013857.66 2354.59   1 0.17528-0.08965-0.35550-0.38609 0.91809-0.91809
 -10   4   010654.12 4473.01   1-0.60096-0.08410-0.44849 0.74513 0.66158-0.66158
  -4  -6   012112.35 4789.75   1-0.07805-0.52100-0.52070 0.07601 0.85016-0.85016
  -4  -6   1 1274.82 1268.93   1 0.07434-0.67356-0.54777 0.10297 0.83331-0.73192
   6 -10  -1  800.52 1860.37   1 0.10797-0.02234-0.48875-0.25285 0.86571-0.96724
 -10   4  -1  484.16  987.89   1-0.68344-0.00113-0.41750 0.71393 0.59882-0.70021
  -4  -6   1  886.36  909.99   1 0.05314-0.65220-0.51380 0.06912 0.85625-0.75488
   6 -10  -2  268.44 1102.42   1 0.03405 0.05154-0.61492-0.12640 0.78785-0.99063
  -4  -6   2   39.30 1204.86   1 0.13111-0.73055-0.44491-0.00004 0.88592-0.68285
 -10   4  -2  579.48  935.59   1-0.75823 0.07365-0.38118 0.67761 0.52894-0.73171
  -4  -6   2 1285.28 1030.87   1 0.16100-0.76006-0.50138 0.05670 0.85010-0.64736
   6 -10  -3  241.46 1161.81   1-0.04051 0.12611-0.72486-0.01646 0.68769-0.99187
  -4  -6   3 1136.93  963.95   1 0.18096-0.78039-0.34342-0.10153 0.92157-0.61698
 -10   4  -3  949.94 1146.98   1-0.82329 0.13872-0.34092 0.63735 0.45381-0.75797
  -4  -6   3 1836.06 1870.14   1 0.24539-0.84444-0.48729 0.04260 0.83805-0.53393
   6 -10  -4 5168.80 2122.82   1-0.11190 0.19751-0.81248 0.07115 0.57214-0.97771
  -4  -6   4 6930.06 2103.97   1 0.22228-0.82171-0.25117-0.19378 0.94207-0.53594
 -10   4  -4 3859.09 1888.74   1-0.87780 0.19323-0.29772 0.59415 0.37524-0.78079
  -4  -6   4 4270.84 2408.28   1 0.30833-0.90757-0.47478 0.02996 0.82432-0.41882
   6 -10  -5  574.17 1110.14   1-0.17726 0.26284-0.87602 0.13486 0.44850-0.95536
  -4  -6   5 -102.30 1247.67   1 0.25451-0.85394-0.17322-0.27173 0.95142-0.44376
 -10   4  -5   20.12 1606.53   1-0.92165 0.23708-0.25244 0.54887 0.29464-0.80157
  -4  -6   5 1322.41 1476.08   1 0.35271-0.95195-0.46414 0.01932 0.81250-0.30562
  -7  10  -5 2506.56 2348.46   1-0.36291 0.19176-0.14919 0.89030-0.91980 0.41301
  -3  -7  -5 1366.89 1491.94   1-0.22237-0.33390-0.90961 0.39080 0.35091-0.85777
 -10   3   5 1223.00 1001.33   1-0.14750-0.57991-0.52069 0.74304 0.84090-0.33404
   7 -10   5 2398.58 2449.29   1 0.93678-0.76553-0.12380-0.61775 0.32725 0.17982
  -7  10  -4 2228.35 1634.35   1-0.34547 0.17432-0.08959 0.83070-0.93414 0.52871
  -3  -7  -4 1764.60 2120.77   1-0.17741-0.37886-0.87615 0.35734 0.44818-0.85367
 -10   3   4 1088.96 1250.96   1-0.20679-0.52063-0.51864 0.74098 0.82960-0.42412
   7 -10   4  889.58 1562.49   1 0.94360-0.77234-0.11344-0.62810 0.31103 0.09463
  -3  -7  -3 2625.88 1346.73   1-0.12749-0.42891-0.82920 0.31027 0.54420-0.84839
 -10   3   3 2235.75 1407.47   1-0.27915-0.44872-0.51325 0.73573 0.81156-0.50728
   7 -10   3 3456.75 2116.73   1 0.94612-0.77487-0.10943-0.63211 0.30474-0.00049
  -3  -7  -2 3083.43 1683.90   1-0.07345-0.48295-0.76749 0.24855 0.63683-0.83962
   7 -10   2 5845.22 2177.87   1 0.28598-0.11471-0.09114-0.65046 0.95388-0.75082
  -3  -7  -2 3928.48 1305.59   1-0.37361-0.18299-0.50184-0.01727 0.78010-0.98296
 -10   3   2 3433.32 2164.06   1-0.36146-0.36641-0.50362 0.72610 0.78467-0.58181
   7 -10   2 3892.31 1731.07   1 0.94267-0.77142-0.11489-0.62666 0.31330-0.11047
  -3  -7  -1 3737.30 2105.50   1-0.01636-0.54005-0.69127 0.17234 0.72240-0.82379
   7 -10   1 4788.82 2012.98   1 0.23847-0.06721-0.21272-0.52887 0.94756-0.84603
 -10   3   1 5557.04 3444.80   1-0.45010-0.27777-0.48835 0.71083 0.74760-0.64618
  -3  -7  -1 4330.31 2042.78   1-0.19670-0.35955-0.51912 0.00033 0.83175-0.93312
  -3  -7   0 1851.86 1570.06   1 0.04174-0.59815-0.60252 0.08359 0.79700-0.79700
   7 -10   0 1413.79 1263.28   1 0.17815-0.00688-0.34943-0.39216 0.91986-0.91986
 -10   3   0 2673.84 1951.69   1-0.54061-0.18726-0.46679 0.68927 0.69988-0.69988
  -3  -7   0 1432.25  769.70   1-0.03559-0.52067-0.51945 0.00065 0.85375-0.85375
  -3  -7   1 5519.62 2269.07   1 0.09817-0.65458-0.50543-0.01350 0.85726-0.75586
   7 -10  -1 2936.75 1319.57   1 0.10662 0.06464-0.49125-0.25034 0.86446-0.96599
 -10   3  -1 3439.21 1730.62   1-0.62862-0.09925-0.43889 0.66137 0.64202-0.74345
  -3  -7   1 4592.08 3312.37   1 0.10121-0.65748-0.50903-0.00976 0.85477-0.75340
   7 -10  -2 6889.58 2269.28   1 0.02760 0.14359-0.62516-0.11617 0.78000-0.98279
  -3  -7   2 4024.56 1480.63   1 0.15052-0.70714-0.40659-0.11253 0.90112-0.69805
 -10   3  -2 2737.42 1194.73   1-0.71027-0.01708-0.40547 0.62779 0.57541-0.77818
  -3  -7   2 3243.38 1672.22   1 0.21082-0.76709-0.49354-0.02525 0.84378-0.64103
   7 -10  -3 2430.11 1432.42   1-0.05187 0.22308-0.73998-0.00134 0.67061-0.97479
  -3  -7   3 2397.30 1474.90   1 0.19566-0.75227-0.31151-0.20760 0.92987-0.62528
 -10   3  -3 1529.34 1943.95   1-0.78326 0.05590-0.36683 0.58916 0.50191-0.80607
  -3  -7   3 2103.10 1342.56   1 0.29453-0.85079-0.47721-0.04157 0.82795-0.52384
   7 -10  -4  547.11 1087.20   1-0.12713 0.29834-0.82882 0.08749 0.54486-0.95043
  -3  -7   4  828.53 1371.44   1 0.23275-0.78937-0.22646-0.29265 0.94580-0.53967
 -10   3  -4 1249.56 1263.99   1-0.84590 0.11854-0.32431 0.54663 0.42338-0.82893
  -3  -7   4 1771.63 1700.81   1 0.35568-0.91211-0.46338-0.05556 0.81164-0.40614
  -3  -7   5 1250.31 1312.11   1 0.26165-0.81826-0.15517-0.36395 0.95260-0.44494
 -10   3  -5 1188.89 1241.03   1-0.89755 0.17019-0.27887 0.50120 0.34149-0.84842
  -3  -7   5 1796.70 2227.83   1 0.39778-0.95422-0.45205-0.06690 0.79838-0.29150
  -8  10  -4  814.25  962.94   1-0.34998 0.09325-0.10457 0.84568-0.93090 0.52547
  -2  -8  -4  742.84 1832.63   1-0.15634-0.35714-0.85739 0.26446 0.49033-0.89582
 -10   2   4  -62.28 1056.75   1-0.16513-0.60508-0.52028 0.66851 0.83787-0.43238
   8 -10   4 -153.34 1462.16   1 0.97074-0.71386-0.06324-0.67831 0.23162 0.17404
  -8  10  -3 2729.86 2106.73   1-0.32446 0.06773-0.02297 0.76408-0.94561 0.64154
  -2  -8  -3 2801.89 1556.37   1-0.10529-0.40831-0.80512 0.21205 0.58368-0.88786
 -10   2   3 1364.93 1281.50   1-0.23402-0.53666-0.51682 0.66514 0.82348-0.51920
   8 -10   3 1932.93 1610.35   1 0.97549-0.71867-0.05195-0.68943 0.21380 0.09052
  -2  -8  -2 5051.09 1838.38   1-0.05113-0.46247-0.73901 0.14594 0.67175-0.87453
   8 -10   2 5242.46 1837.22   1 0.28945-0.03255-0.08169-0.65991 0.95370-0.75063
 -10   2   2 4464.24 2547.40   1-0.31354-0.45715-0.50973 0.65805 0.80116-0.59830
   8 -10   2 5450.26 2491.78   1 0.97715-0.72032-0.04776-0.69361 0.20710-0.00421
  -2  -8  -1 4764.21 2744.11   1 0.00484-0.51845-0.66020 0.06713 0.75107-0.85246
   8 -10   1 3158.28 1758.32   1 0.23986 0.01703-0.20937-0.53222 0.94796-0.84642
 -10   2   1 3415.10 1601.02   1-0.40079-0.36990-0.49750 0.64582 0.76931-0.66788
  -2  -8  -1 2488.84 1356.84   1-0.17369-0.33978-0.52002-0.07288 0.83630-0.93767
  -2  -8   0 1427.00 1305.76   1 0.06055-0.57416-0.57137-0.02169 0.81845-0.81845
   8 -10   0 -115.01 1144.18   1 0.17581 0.08108-0.35439-0.38720 0.91841-0.91841
 -10   2   0  434.92  842.13   1-0.49184-0.27885-0.47921 0.62753 0.72693-0.72693
  -2  -8   0  606.58  716.79   1-0.00120-0.51226-0.51775-0.07516 0.85553-0.85553
   8 -10  -1 3657.07 1707.02   1 0.09823 0.15856-0.50530-0.23602 0.85732-0.95872
  -2  -8   1 3361.23 1477.04   1 0.11403-0.62783-0.47747-0.11581 0.87121-0.76968
 -10   2  -1 2382.95 1712.09   1-0.58245-0.18824-0.45447 0.60279 0.67394-0.77537
  -2  -8   1 4005.40 2112.78   1 0.14125-0.65473-0.50412-0.08878 0.85199-0.75062
   8 -10  -2 9865.16 2808.96   1 0.01372 0.24308-0.64673-0.09460 0.76259-0.96538
  -2  -8   2 3114.32 1494.27   1 0.16211-0.67591-0.38300-0.21028 0.90941-0.70634
 -10   2  -2 4394.13 2522.23   1-0.66868-0.10201-0.42347 0.57179 0.61117-0.81403
  -2  -8   2 4536.50 2026.75   1 0.25241-0.76589-0.48593-0.10697 0.83675-0.63400
  -2  -8   3 1503.41 1271.38   1 0.20350-0.71729-0.29410-0.29918 0.93385-0.62926
 -10   2  -3 2327.52 2606.88   1-0.74723-0.02291-0.38710 0.53532 0.54017-0.84433
  -2  -8   3  537.89 1254.34   1 0.33553-0.84916-0.46840-0.12468 0.81731-0.51319
  -2  -8   4  776.07 1252.44   1 0.23741-0.75120-0.21529-0.37798 0.94724-0.54112
 -10   2  -4 1218.55 1541.68   1-0.81630 0.04615-0.34574 0.49396 0.46270-0.86825
  -2  -8   4  268.53 1421.88   1 0.39476-0.90840-0.45290-0.14018 0.79939-0.39389
  -9  10  -4 1725.83 1636.45   1-0.35173 0.00942-0.11047 0.85158-0.92955 0.52412
  -1  -9  -4  693.09 1377.81   1-0.13983-0.33086-0.84144 0.17439 0.52193-0.92742
 -10   1   4  342.65  426.24   1-0.13835-0.67465-0.52084 0.59495 0.84236-0.43688
   9 -10   4 -363.65 1557.63   1 0.98711-0.64468-0.01786-0.72351 0.15899 0.24677
  -9  10  -3  593.19 1659.97   1-0.32550-0.01680-0.02615 0.76726-0.94517 0.64110
  -1  -9  -3  751.71 1618.73   1-0.08849-0.38231-0.78571 0.11851 0.61222-0.91640
 -10   1   3  629.86  992.45   1-0.20346-0.60954-0.51881 0.59292 0.83032-0.52621
   9 -10   3 1248.55 2001.99   1 0.99138-0.64895-0.00056-0.74081 0.13097 0.17335
  -1  -9  -2 5145.71 2482.44   1-0.03498-0.43582-0.71734 0.05014 0.69584-0.89863
   9 -10   2 4402.49 2135.84   1 0.28893 0.05359-0.08310-0.65849 0.95373-0.75067
 -10   1   2 1975.33 1145.18   1-0.27989-0.53361-0.51318 0.58734 0.81135-0.60850
   9 -10   2 3034.59 1513.40   1 0.99376-0.65133 0.01180-0.75318 0.11084 0.09204
  -1  -9  -1  801.03 1553.01   1 0.01935-0.49016-0.63805-0.02914 0.76974-0.87114
   9 -10   1 1165.67 1258.46   1 0.23624 0.10628-0.21810-0.52350 0.94689-0.84536
 -10   1   1  771.75  791.53   1-0.36464-0.44886-0.50316 0.57732 0.78349-0.68206
  -1  -9   0  543.72 1383.91   1 0.07253-0.54335-0.55090-0.11629 0.83141-0.83141
   9 -10   0  495.18 1340.60   1 0.16707 0.17546-0.37274-0.36886 0.91277-0.91277
 -10   1   0  -23.93 1580.59   1-0.45457-0.35894-0.48743 0.56159 0.74549-0.74549
  -1  -9   0  295.56  446.47   1 0.02347-0.49416-0.51615-0.15087 0.85617-0.85617
  -1  -9   1 -189.99 1321.38   1 0.12293-0.59391-0.46064-0.20679 0.87902-0.77749
 -10   1  -1  924.24 1311.64   1-0.54576-0.26775-0.46536 0.53952 0.69683-0.79826
  -1  -9   1  479.17  803.83   1 0.17214-0.64283-0.49975-0.16727 0.84888-0.74751
  -1  -9   2 2726.75 2058.29   1 0.16775-0.63873-0.37132-0.29612 0.91322-0.71016
 -10   1  -2 4167.06 2597.73   1-0.63430-0.17921-0.43682 0.51098 0.63784-0.84069
  -1  -9   2 2860.74 1856.37   1 0.28508-0.75577-0.47926-0.18776 0.83007-0.62733
  -1  -9   3  632.90 1310.48   1 0.20616-0.67714-0.28811-0.37932 0.93513-0.63054
 -10   1  -3  135.71 1056.65   1-0.71657-0.09635-0.40249 0.47660 0.56965-0.87381
  -1  -9   3 1376.16 1831.12   1 0.36776-0.83859-0.46025-0.20697 0.80803-0.50390
  -1  -9   4  937.56 1439.83   1 0.23764-0.70863-0.21472-0.45271 0.94732-0.54119
 -10   1  -4  581.37  963.01   1-0.79039-0.02253-0.36250 0.43661 0.49382-0.89936
  -1  -9   4  666.20 1303.18   1 0.42548-0.89631-0.44394-0.22328 0.78858-0.38308
 -10  10  -3  -49.24 1130.92   1-0.32290-0.10498-0.01821 0.75932-0.94625 0.64218
   0 -10  -3  669.88 1456.19   1-0.07670-0.35130-0.77149 0.03016 0.63159-0.93577
 -10   0   3 1136.95 1380.31   1-0.18555-0.67023-0.51960 0.51960 0.83401-0.52990
  10 -10   3  230.85 1287.49   1 0.99730-0.56926 0.04335-0.78474 0.05915 0.24517
   0 -10  -2 3208.79 1803.03   1-0.02427-0.40373-0.70250-0.03883 0.71126-0.91405
 -10   0   2 1880.44 1576.23   1-0.25859-0.59773-0.51502 0.51502 0.81723-0.61438
   0 -10  -1 1817.94 2111.24   1 0.02820-0.45621-0.62422-0.11711 0.78073-0.88213
 -10   0   1  868.31  882.97   1-0.34033-0.51599-0.50649 0.50649 0.79223-0.69080
   0 -10   0  868.72 2011.55   1 0.07892-0.50693-0.53978-0.20154 0.83809-0.83809
 -10   0   0 -213.38 1532.04   1-0.42816-0.42816-0.49263 0.49263 0.75761-0.75761
   0 -10   1  489.18 1386.13   1 0.12658-0.55474-0.45366-0.28793 0.88213-0.78060
 -10   0  -1 1496.78 1511.18   1-0.51856-0.33776-0.47265 0.47265 0.71252-0.81394
   0 -10   2 1982.08 1761.01   1 0.16868-0.59685-0.36937-0.37223 0.91384-0.71077
 -10   0  -2 1971.25 1614.53   1-0.60779-0.24853-0.44619 0.44619 0.65687-0.85973
   0 -10   2 2283.39 1209.50   1 0.30860-0.73663-0.47472-0.26664 0.82425-0.62150
   0 -10   3  349.90 1302.58   1 0.20472-0.63289-0.29135-0.45025 0.93445-0.62985
 -10   0  -3  856.92  735.21   1-0.69213-0.16358-0.41371 0.41371 0.59142-0.89558
   0 -10   3  212.28 1228.56   1 0.39103-0.81906-0.45394-0.28741 0.80063-0.49651
   1 -11   1  386.53 1521.84   1 0.12590-0.51125-0.45496-0.36079 0.88156-0.78002
 -10  -1  -1 1225.30 1215.61   1-0.50048-0.39866-0.47716 0.40300 0.72238-0.82380
   1 -11   0  394.67 1464.73   1 0.08062-0.46583-0.53680-0.27866 0.83984-0.83984
 -10  -1   0  633.00 1056.38   1-0.41175-0.48739-0.49562 0.42146 0.76473-0.76473
   1 -11  -1   55.54 1308.64   1 0.03218-0.41739-0.61790-0.19756 0.78559-0.88698
 -10  -1   1 -281.31 1285.66   1-0.32653-0.57260-0.50821 0.43405 0.79692-0.69549
   2 -11   3  709.15 1636.24   1 0.22285-0.52256-0.24984-0.56592 0.94229-0.63769
  -9  -2  -3 -257.06 1309.44   1-0.64407-0.21224-0.43317 0.28484 0.63049-0.93477
   2 -11   3  376.62 1425.10   1 0.49861-0.79823-0.41988-0.39561 0.75834-0.45421
   2 -11   2  987.60 1381.84   1 0.18859-0.48830-0.32699-0.48876 0.92601-0.72295
  -9  -2  -2 2037.57 1203.31   1-0.54918-0.30714-0.46439 0.31607 0.69478-0.89764
   2 -11   1   66.94 1508.60   1 0.14797-0.44769-0.41170-0.40405 0.89922-0.79768
  -9  -2  -1  277.50 1067.37   1-0.45096-0.40536-0.48818 0.33985 0.74720-0.84863
   2 -11   0 1249.36 1707.67   1 0.10117-0.40078-0.49994-0.31552 0.86012-0.86012
  -9  -2   0  483.11 1665.13   1-0.35358-0.50274-0.50472 0.35640 0.78754-0.78754
   2 -11  -1 1309.89 1517.53   1 0.05058-0.35019-0.58803-0.22743 0.80725-0.90864
  -9  -2   1 -160.16 1399.77   1-0.26112-0.59520-0.51482 0.36650 0.81656-0.71513
   2 -11  -2 1333.52 1682.68   1-0.00263-0.29697-0.67132-0.14414 0.74115-0.94394
  -9  -2   2 1148.80 1054.64   1-0.17670-0.67908-0.51992 0.37169 0.83573-0.63299
  11  -9   2 1278.69 1293.60   1 0.97375-0.41730 0.16931-0.83656-0.15210 0.35499
  -9  -2   3 -115.03 1486.42   1-0.10344-0.75234-0.52099 0.37276 0.84726-0.54315
  11  -9   3  740.51 1506.85   1 0.98491-0.42846 0.13983-0.80707-0.10191 0.40624
   3 -11   3 1835.32 2649.37   1 0.24276-0.45685-0.20229-0.61346 0.94875-0.64416
  -8  -3  -3 1106.81 1123.68   1-0.61631-0.19719-0.44326 0.22078 0.65089-0.95517
   3 -11   3  636.20 1037.14   1 0.59134-0.80535-0.38309-0.43240 0.70961-0.40548
   3 -11   2 2537.81 1699.52   1 0.20847-0.42255-0.28290-0.53285 0.93621-0.73315
  -8  -3  -2 2302.43 1472.25   1-0.51137-0.30214-0.47448 0.25199 0.71649-0.91935
   3 -11   1  -72.51 1290.36   1 0.16716-0.38124-0.37254-0.44321 0.91283-0.81130
  -8  -3  -1 1198.24  850.00   1-0.40334-0.41016-0.49707 0.27459 0.76826-0.86968
   3 -11   0 1212.19 2118.68   1 0.11942-0.33350-0.46731-0.34845 0.87598-0.87598
 -11   8   0  280.53  822.22   1-0.88292 0.28392-0.29304 0.88590 0.36682-0.36682
  -8  -3   0 -383.91 1369.79   1-0.29729-0.51621-0.51148 0.28900 0.80622-0.80622
   3 -11  -1  942.31 1542.31   1 0.06609-0.28009-0.56198-0.25348 0.82450-0.92589
 -11   8  -1  413.67 1092.26   1-0.91344 0.31444-0.26195 0.85481 0.31143-0.41281
  -8  -3   1 1145.74 1379.83   1-0.19757-0.61542-0.51908 0.29674 0.83157-0.73019
   3 -11  -2 2882.71 1819.25   1 0.01014-0.22415-0.65218-0.16328 0.75799-0.96077
 -11   8  -2 2392.94 1550.87   1-0.93978 0.34078-0.22906 0.82192 0.25362-0.45640
  -8  -3   2 3483.14 1732.26   1-0.10857-0.70443-0.52101 0.29867 0.84661-0.64387
   3 -11  -3  425.86 1287.42   1-0.04680-0.16720-0.73328-0.08218 0.67831-0.98249
  -8  -3   3  784.68 1226.33   1-0.03232-0.78068-0.51931 0.29697 0.85397-0.54985
  11  -8   3 1096.36 2084.53   1 0.96145-0.36220 0.19413-0.78723-0.19472 0.49906
  -7  -4  -4 1391.52 1525.34   1-0.28723-0.48300-0.93894 0.64247 0.18943-0.59491
   4 -11   4 -343.56 1762.69   1 0.28664-0.41509-0.08934-0.72641 0.95386-0.54773
  -7  -4  -4 1066.30  795.77   1-0.69910-0.07104-0.41060 0.11417 0.58537-0.99091
   4 -11   4  578.10 1557.05   1 0.71317-0.84158-0.32114-0.49435 0.62309-0.21759
  -7  -4  -3  418.54 1101.12   1-0.25411-0.51612-0.92712 0.63066 0.27543-0.57955
   4 -11   3  350.58 1716.82   1 0.25969-0.38813-0.16016-0.65559 0.95231-0.64772
  -7  -4  -3  -87.49 1264.56   1-0.59230-0.17839-0.45133 0.15469 0.66743-0.97172
   4 -11   3  882.98 1011.00   1 0.68050-0.80891-0.33957-0.47592 0.64930-0.34517
  -7  -4  -2 1139.53 1210.99   1-0.21628-0.55395-0.90564 0.60917 0.36473-0.56747
   4 -11   2 1350.46 1742.01   1 0.22536-0.35381-0.24396-0.57180 0.94323-0.74017
  -7  -4  -2 1376.98 1143.51   1-0.47672-0.29397-0.48268 0.18604 0.73467-0.93753
  -7  -4  -1  793.10 1117.04   1-0.17314-0.59708-0.87250 0.57604 0.45689-0.55826
   4 -11   1  691.07 1452.62   1 0.18335-0.31180-0.33830-0.47745 0.92300-0.82146
 -11   7   1  959.58  690.89   1-0.76203 0.12024-0.37908 0.89784 0.52496-0.42358
  -7  -4  -1  164.96  726.61   1-0.35851-0.41218-0.50404 0.20739 0.78575-0.88718
   4 -11   0  830.94 1485.78   1 0.13410-0.26255-0.43911-0.37665 0.88836-0.88836
 -11   7   0 1767.87  984.68   1-0.81223 0.17044-0.34849 0.86725 0.46778-0.46778
  -7  -4   0 1081.60  970.04   1-0.24376-0.52692-0.51615 0.21951 0.82107-0.82107
   4 -11  -1  531.37 1492.68   1 0.07843-0.20684-0.54064-0.27482 0.83758-0.93898
 -11   7  -1 1059.07 1106.62   1-0.85750 0.21571-0.31512 0.83387 0.40666-0.50805
  -7  -4   1 1095.54 1026.57   1-0.13746-0.63274-0.52085 0.22440 0.84250-0.74113
   4 -11  -2  766.24 1587.07   1 0.01962-0.14802-0.63764-0.17782 0.77007-0.97286
 -11   7  -2 1438.24 1438.65   1-0.89685 0.25506-0.27958 0.79833 0.34275-0.54552
  -7  -4   2 1524.74 1876.51   1-0.04420-0.72600-0.51978 0.22332 0.85315-0.65041
   4 -11  -3 1488.37 1548.51   1-0.04044-0.08795-0.72476-0.09069 0.68780-0.99198
 -11   7  -3  484.53 1521.05   1-0.92980 0.28801-0.24239 0.76114 0.27696-0.58112
  -7  -4   3  405.28  957.14   1 0.03425-0.80447-0.51535 0.21889 0.85629-0.55217
   4 -11  -4 -226.30 1612.15   1-0.09938-0.02901-0.79840-0.01705 0.59385-0.99943
  -7  -4   4 2148.68 1436.25   1 0.09730-0.86751-0.50946 0.21301 0.85497-0.44948
  11  -7   4  191.81 1555.10   1 0.95625-0.31419 0.20322-0.72219-0.21043 0.61621
  -6  -5  -4 2574.03 2091.91   1-0.25344-0.47400-0.92681 0.55623 0.27709-0.68258
   5 -11   4 2138.18 1825.42   1 0.30023-0.34305-0.05167-0.76408 0.95246-0.54633
  -6  -5  -4 2647.94 1659.68   1-0.69052-0.03683-0.41442 0.04388 0.59281-0.99835
   5 -11   4 2139.40 1681.94   1 0.78443-0.82724-0.27441-0.54129 0.55620-0.15053
  -6  -5  -3  559.49  999.85   1-0.21475-0.51268-0.90462 0.53404 0.36815-0.67227
   5 -11   3 -135.56 1918.83   1 0.27364-0.31646-0.12410-0.69166 0.95378-0.64919
  -6  -5  -3  829.83  581.46   1-0.57323-0.15464-0.45733 0.08652 0.67989-0.98417
   5 -11   3  184.19 1021.42   1 0.76222-0.80503-0.28984-0.52586 0.57879-0.27454
  -6  -5  -2 1692.08 1698.94   1-0.17119-0.55625-0.87081 0.50023 0.46084-0.66359
   5 -11   2  566.00 1981.72   1 0.23922-0.28204-0.21091-0.60485 0.94778-0.74471
 -11   6   2  537.62  693.38   1-0.61230-0.07275-0.44465 0.88961 0.65372-0.45087
  -6  -5  -2  369.94  752.21   1-0.44633-0.28154-0.48911 0.11831 0.74936-0.95222
  -6  -5  -1 -209.37  913.11   1-0.12258-0.60503-0.82402 0.45336 0.55312-0.65452
   5 -11   1   56.09 1455.97   1 0.19642-0.23923-0.30984-0.50591 0.93027-0.82874
 -11   6   1  210.86  619.20   1-0.67776-0.00730-0.41969 0.86466 0.60372-0.50230
  -6  -5  -1  580.56  626.48   1-0.31747-0.41040-0.50928 0.13848 0.79989-0.90132
  -6  -5   0 3824.46 1279.26   1-0.06965-0.65796-0.76275 0.39209 0.64292-0.64292
   5 -11   0 2751.02 1417.65   1 0.14550-0.18832-0.41664-0.39912 0.89734-0.89734
 -11   6   0 4419.19 3513.74   1-0.74043 0.05585-0.39065 0.83530 0.54694-0.54694
  -6  -5   0 4884.48 2687.70   1-0.19357-0.53385-0.51926 0.14869 0.83239-0.83239
  -6  -5   1  359.07  938.03   1-0.01382-0.71378-0.68764 0.31697 0.72591-0.62452
   5 -11  -1 1396.72 1681.35   1 0.08729-0.13009-0.52500-0.29045 0.84660-0.94800
 -11   6  -1  644.39  700.60   1-0.79825 0.11367-0.35760 0.80224 0.48468-0.58606
  -6  -5   1  522.22 1077.54   1-0.08145-0.64597-0.52076 0.15019 0.84980-0.74843
   5 -11  -2  275.76 1368.19   1 0.02536-0.06816-0.62868-0.18678 0.77724-0.98003
 -11   6  -2  660.47  799.42   1-0.84947 0.16490-0.32154 0.76618 0.41832-0.62110
  -6  -5   2  626.82  744.95   1 0.01545-0.74287-0.51670 0.14613 0.85602-0.65328
   5 -11  -3 -411.51 1358.07   1-0.03802-0.00477-0.72148-0.09397 0.69138-0.99556
 -11   6  -3  364.44 1658.80   1-0.89328 0.20870-0.28314 0.72779 0.34911-0.65327
  -6  -5   3  965.38  968.02   1 0.09544-0.82286-0.50967 0.13910 0.85505-0.55094
   5 -11  -4 1681.21 1458.41   1-0.10008 0.05728-0.79921-0.01625 0.59265-0.99822
 -11   6  -4 1649.23 2159.72   1-0.92933 0.24476-0.24298 0.68763 0.27801-0.68355
  -6  -5   4 1456.08 1005.91   1 0.15850-0.88592-0.50174 0.13117 0.85036-0.44488
  -5  -6  -4 1669.90 1580.31   1-0.22290-0.46174-0.90995 0.46525 0.34970-0.75519
   6 -11   4 1478.41 1037.86   1 0.31102-0.26820-0.02073-0.79503 0.95017-0.54404
   6 -11   4 2573.61 1451.24   1 0.84615-0.80333-0.22522-0.59047 0.48300-0.07734
  -5  -6  -3  720.88 1188.77   1-0.18021-0.50444-0.87850 0.43380 0.44244-0.74655
   6 -11   3  921.89 1925.40   1 0.28465-0.24184-0.09474-0.72102 0.95393-0.64933
  -5  -6  -3  391.29  706.99   1-0.56062-0.12444-0.46110 0.01614 0.68781-0.99209
 -11   5   3  587.94  623.59   1-0.45907-0.26880-0.48650 0.85730 0.74334-0.43906
   6 -11   3  571.03 1139.73   1 0.83392-0.79110-0.23584-0.57986 0.49895-0.19470
  -5  -6  -2  594.18 1443.45   1-0.13302-0.55162-0.83454 0.38985 0.53463-0.73737
   6 -11   2  100.39 2169.49   1 0.24997-0.20716-0.18455-0.63120 0.95050-0.74743
 -11   5   2 1089.03  727.35   1-0.52912-0.19875-0.46990 0.84070 0.70655-0.50370
  -5  -6  -2 -297.82  989.67   1-0.42149-0.26356-0.49387 0.04891 0.76054-0.96340
  -5  -6  -1 1216.76 1255.12   1-0.08166-0.60315-0.77753 0.33273 0.62351-0.72491
   6 -11   1  994.37 1553.62   1 0.20616-0.16334-0.28811-0.52765 0.93513-0.83360
 -11   5   1  307.78  626.63   1-0.60168-0.12619-0.44825 0.81905 0.66109-0.55966
  -5  -6  -1  199.11  643.42   1-0.28137-0.40369-0.51304 0.06808 0.81093-0.91235
  -5  -6   0 3717.38 1437.24   1-0.02757-0.65723-0.70711 0.26231 0.70656-0.70656
   6 -11   0 2726.98 1670.16   1 0.15331-0.11050-0.40095-0.41480 0.90317-0.90317
 -11   5   0 5617.96 2449.07   1-0.67317-0.05470-0.42161 0.79242 0.60751-0.60751
  -5  -6   0 3739.60 1710.11   1-0.14854-0.53609-0.52067 0.07599 0.84073-0.84073
  -5  -6   1  553.73  964.42   1 0.02737-0.71218-0.62553 0.18073 0.77971-0.67832
   6 -11  -1  633.58 1305.03   1 0.09222-0.04941-0.51619-0.29927 0.85149-0.95288
 -11   5  -1  635.72  889.97   1-0.74039 0.01303-0.39067 0.76121 0.54697-0.64836
  -5  -6   1  677.11 1448.67   1-0.03052-0.65411-0.51924 0.07455 0.85408-0.75271
   6 -11  -2  -15.76 1273.21   1 0.02682 0.01597-0.62639-0.18907 0.77904-0.98183
  -5  -6   2  392.07  927.39   1 0.08054-0.76535-0.53694 0.09214 0.83976-0.63697
 -11   5  -2 1822.11 1149.47   1-0.80149 0.07413-0.35553 0.72607 0.48083-0.68360
  -5  -6   2  540.05  839.45   1 0.06949-0.75412-0.51232 0.06763 0.85597-0.65323
   6 -11  -3   73.01 1174.12   1-0.04017 0.08297-0.72440-0.09106 0.68820-0.99238
  -5  -6   3 -251.23  792.71   1 0.12953-0.81460-0.44797 0.00301 0.88460-0.58001
 -11   5  -3  462.76  850.31   1-0.85491 0.12754-0.31722 0.68776 0.41048-0.71464
  -5  -6   3  649.21 1077.53   1 0.15043-0.83507-0.50288 0.05819 0.85116-0.54705
   6 -11  -4  693.63 1365.97   1-0.10550 0.14831-0.80536-0.01010 0.58331-0.98888
 -11   5  -4 1477.37 1171.65   1-0.89994 0.17257-0.27644 0.64698 0.33716-0.74271
  -5  -6   4 2392.85 1674.75   1 0.21304-0.89768-0.49316 0.04847 0.84344-0.43796
  -4  -7  -4 1117.65 1735.25   1-0.19631-0.44554-0.89136 0.37255 0.40857-0.81406
 -11   4   4  264.13  591.99   1-0.32514-0.44555-0.50838 0.80502 0.79738-0.39167
   7 -11   4 1139.20 1276.26   1 0.89644-0.76800-0.17526-0.64044 0.40702-0.00135
  -4  -7  -3  874.48 1203.39   1-0.15097-0.49088-0.85232 0.33351 0.50074-0.80485
   7 -11   3  276.14 1401.39   1 0.29268-0.16423-0.07277-0.74299 0.95343-0.64883
 -11   4   3  348.53  493.18   1-0.38912-0.38156-0.49942 0.79607 0.77404-0.46976
  -4  -7  -2 1074.79 1819.73   1-0.10165-0.54035-0.80100 0.28207 0.58996-0.79274
   7 -11   2 2207.57 1765.48   1 0.25748-0.12903-0.16575-0.65000 0.95195-0.74889
 -11   4   2 1749.13 1419.16   1-0.46081-0.30988-0.48613 0.78277 0.74251-0.53965
  -4  -7  -2 1604.04 1125.93   1-0.40383-0.23840-0.49699-0.02212 0.76805-0.97091
  -4  -7  -1 1601.02 1643.18   1-0.04955-0.59245-0.73692 0.21799 0.67415-0.77554
   7 -11   1 1153.97 1380.95   1 0.21232-0.08387-0.27414-0.54162 0.93795-0.83642
 -11   4   1 1049.94 1138.53   1-0.53677-0.23391-0.46784 0.76448 0.70213-0.60070
  -4  -7  -1 1038.94  805.99   1-0.25155-0.39069-0.51557-0.00354 0.81908-0.92051
  -4  -7   0 1051.58 1040.42   1 0.00396-0.64597-0.66151 0.14258 0.74992-0.74992
   7 -11   0  611.79 1232.76   1 0.15710-0.02865-0.39325-0.42250 0.90590-0.90590
 -11   4   0 1280.36  794.08   1-0.61343-0.15726-0.44426 0.74090 0.65293-0.65293
  -4  -7   0  392.72  913.05   1-0.10946-0.53238-0.52101 0.00221 0.84649-0.84649
  -4  -7   1  907.59 1173.81   1 0.05680-0.69881-0.57768 0.05875 0.81427-0.71288
   7 -11  -1  667.22 1160.39   1 0.09261 0.03578-0.51548-0.29998 0.85187-0.95327
 -11   4  -1  848.75  935.06   1-0.68726-0.08288-0.41585 0.71228 0.59559-0.69698
  -4  -7   1  944.61  993.67   1 0.01430-0.65615-0.51678-0.00201 0.85599-0.75462
   7 -11  -2 1923.56 1965.35   1 0.02323 0.10516-0.63202-0.18344 0.77460-0.97738
  -4  -7   2  477.12 1174.47   1 0.10696-0.74921-0.49062-0.02849 0.86478-0.66171
 -11   4  -2  849.70 1460.11   1-0.75591-0.01422-0.38245 0.67888 0.53133-0.73410
  -4  -7   2 1981.21 1324.48   1 0.11705-0.75890-0.50719-0.01160 0.85384-0.65110
   7 -11  -3  542.14 1111.65   1-0.04777 0.17617-0.73457-0.08089 0.67684-0.98102
  -4  -7   3  152.76 1086.03   1 0.15155-0.79379-0.40452-0.11459 0.90188-0.59728
 -11   4  -3 1736.56 1468.22   1-0.81727 0.04712-0.34509 0.64152 0.46149-0.76565
  -4  -7   3 1320.53  916.27   1 0.19857-0.84042-0.49560-0.02319 0.84554-0.54143
   7 -11  -4 1183.94 1127.37   1-0.11653 0.24493-0.81753 0.00206 0.56396-0.96953
  -4  -7   4  589.85  915.46   1 0.18940-0.83165-0.32522-0.19389 0.92647-0.52034
 -11   4  -4 1189.02 1538.00   1-0.87013 0.09999-0.30451 0.60094 0.38746-0.79301
  -4  -7   4 1068.69 1120.66   1 0.26045-0.90230-0.48435-0.03444 0.83520-0.42971
  -3  -8  -3  275.48 1281.03   1-0.12694-0.47226-0.82862 0.23556 0.54521-0.84939
   8 -11   3  496.18 1332.01   1 0.29765-0.08357-0.05894-0.75682 0.95285-0.64825
 -11   3   3  850.51  679.86   1-0.33585-0.47765-0.50706 0.72954 0.79377-0.48949
  -3  -8  -2 1967.30 2070.33   1-0.07702-0.52219-0.77188 0.17881 0.63108-0.83387
   8 -11   2 3656.67 2276.82   1 0.26152-0.04744-0.15549-0.66027 0.95258-0.74952
 -11   3   2 1778.24 1065.99   1-0.40705-0.40646-0.49644 0.71892 0.76671-0.56386
  -3  -8  -1 1105.70 1918.42   1-0.02521-0.57400-0.70381 0.11074 0.70993-0.81133
   8 -11   1   55.03 1241.55   1 0.21451-0.00043-0.26913-0.54662 0.93890-0.83737
 -11   3   1  601.77  710.72   1-0.48391-0.32959-0.48105 0.70353 0.73103-0.62960
  -3  -8  -1  799.75  728.15   1-0.22960-0.36982-0.51711-0.07617 0.82454-0.92597
  -3  -8   0  -40.43 1280.58   1 0.02684-0.62605-0.62636 0.03329 0.77906-0.77906
   8 -11   0 1275.02 1850.61   1 0.15627 0.05781-0.39496-0.42080 0.90530-0.90530
 -11   3   0  202.05  926.16   1-0.56308-0.25042-0.46037 0.68285 0.68628-0.68628
  -3  -8   0  424.99  498.30   1-0.07759-0.52146-0.52069-0.07221 0.85021-0.85021
  -3  -8   1  318.01 1207.36   1 0.07715-0.67636-0.54289-0.05017 0.83625-0.73485
   8 -11  -1 1644.06 1368.59   1 0.08761 0.12638-0.52443-0.29103 0.84693-0.94832
 -11   3  -1  808.62 1239.12   1-0.64115-0.17235-0.43427 0.65675 0.63271-0.73414
  -3  -8   1  519.14  746.44   1 0.05201-0.65106-0.51390-0.07900 0.85626-0.75489
   8 -11  -2 2128.52 1375.94   1 0.01351 0.20049-0.64705-0.16841 0.76232-0.96511
  -3  -8   2 1805.28 1770.84   1 0.12411-0.72354-0.45840-0.13488 0.88003-0.67697
 -11   3  -2 1002.60 2189.78   1-0.71492-0.09801-0.40328 0.62560 0.57118-0.77395
  -3  -8   2 2622.93 1456.11   1 0.15734-0.75640-0.50191-0.09099 0.85048-0.64774
  -3  -8   3  686.82 1081.42   1 0.16521-0.76464-0.37659-0.21668 0.91152-0.60692
 -11   3  -3  349.19 1196.00   1-0.78239-0.03053-0.36736 0.58968 0.50289-0.80705
  -3  -8   3  390.13  692.51   1 0.23929-0.83834-0.48844-0.10446 0.83914-0.53503
  -2  -9  -3 -112.07 1392.70   1-0.10825-0.44815-0.80843 0.14123 0.57854-0.88272
   9 -11   3  298.86 1303.61   1 0.29937 0.00034-0.05412-0.76163 0.95260-0.64800
 -11   2   3  700.68  797.32   1-0.29717-0.55915-0.51149 0.65981 0.80626-0.50197
  -2  -9  -2 2105.43 1462.40   1-0.05841-0.49799-0.74848 0.08128 0.66057-0.86336
   9 -11   2 2370.31 2144.37   1 0.26175 0.03796-0.15491-0.66085 0.95262-0.74955
 -11   2   2 1771.68 1599.73   1-0.36671-0.48961-0.50286 0.65118 0.78271-0.57986
  -2  -9  -1  759.27 1417.80   1-0.00758-0.54882-0.67860 0.01140 0.73446-0.83586
   9 -11   1 -230.07 1187.94   1 0.21212 0.08758-0.27459-0.54117 0.93786-0.83633
 -11   2   1 1142.07  968.42   1-0.44290-0.41342-0.48979 0.63811 0.75095-0.64952
  -2  -9   0  697.32 1275.48   1 0.04260-0.59901-0.60113-0.06606 0.79800-0.79800
   9 -11   0  627.87 1261.95   1 0.14989 0.14982-0.40787-0.40789 0.90065-0.90065
 -11   2   0 1108.12 1142.85   1-0.52269-0.33363-0.47159 0.61991 0.71020-0.71020
  -2  -9   0  876.21  949.41   1-0.05437-0.50189-0.52012-0.14690 0.85236-0.85236
  -2  -9   1  580.11 1281.53   1 0.09035-0.64676-0.51954-0.14765 0.84965-0.74825
 -11   2  -1  446.33  962.36   1-0.60280-0.25352-0.44788 0.59620 0.66032-0.76175
  -2  -9   1 1016.16  847.07   1 0.08154-0.63780-0.51113-0.15589 0.85562-0.75425
  -2  -9   2 2473.69 1836.85   1 0.13443-0.69105-0.43846-0.22898 0.88863-0.68557
 -11   2  -2 2436.41 1955.77   1-0.67989-0.17582-0.41901 0.56722 0.60179-0.80457
  -2  -9   2 2068.25 1130.81   1 0.18963-0.74589-0.49704-0.16997 0.84674-0.64400
  -2  -9   3  152.20 1212.92   1 0.17264-0.72926-0.36108-0.30636 0.91641-0.61181
 -11   2  -3 -109.63 1594.27   1-0.75175-0.10396-0.38470 0.53291 0.53559-0.83975
  -2  -9   3  654.50  663.18   1 0.27210-0.82836-0.48199-0.18503 0.83285-0.52874
  -1 -10  -1 -480.31 1670.49   1 0.00425-0.51786-0.66108-0.08024 0.75029-0.85169
 -11   1   1  796.59  956.42   1-0.41300-0.48613-0.49540 0.56956 0.76420-0.66277
  -1 -10   0 1221.48 1871.89   1 0.05246-0.56607-0.58493-0.15640 0.80938-0.80938
 -11   1   0 1887.90 1136.80   1-0.49215-0.40699-0.47914 0.55330 0.72677-0.72677
  -1 -10   1  556.82 1545.08   1 0.09781-0.61142-0.50608-0.23524 0.85691-0.75552
 -11   1  -1 1239.38 1102.67   1-0.57280-0.32633-0.45746 0.53162 0.68016-0.78159
   4 -12   1 1592.22 1482.19   1 0.15670-0.32797-0.39407-0.49585 0.90562-0.80408
  -8  -4  -1  544.03  786.78   1-0.40436-0.45196-0.49690 0.20026 0.76783-0.86926
   4 -12   0 -546.18 1419.96   1 0.11116-0.28242-0.48283-0.40708 0.86862-0.86862
  -8  -4   0 1044.68 1112.42   1-0.30255-0.55377-0.51093 0.21429 0.80461-0.80461
   4 -12  -1  583.17 1399.86   1 0.06025-0.23145-0.57189-0.31770 0.81811-0.91950
 -12   8  -1  497.07  847.67   1-0.89804 0.21346-0.27838 0.87124 0.34061-0.44200
  -8  -4   1  -64.60 1482.51   1-0.20734-0.64845-0.51861 0.22215 0.82948-0.72811
  -7  -5  -2 1149.12  908.22   1-0.20458-0.60844-0.89750 0.52692 0.39067-0.59341
   5 -12   2 1009.94 1431.78   1 0.21033-0.29597-0.27866-0.61125 0.93707-0.73400
   5 -12   1  343.69 1352.46   1 0.16988-0.25551-0.36687-0.52305 0.91462-0.81309
 -12   7   1 -202.21  933.24   1-0.75472 0.02736-0.38310 0.90185 0.53256-0.43117
  -7  -5  -1  384.11  789.14   1-0.36595-0.44756-0.50297 0.13217 0.78300-0.88443
   5 -12   0 1156.04 1420.22   1 0.12280-0.20843-0.46089-0.42902 0.87891-0.87891
 -12   7   0  431.24 1106.60   1-0.80200 0.07463-0.35520 0.87396 0.48022-0.48022
  -7  -5   0  930.75  853.09   1-0.25643-0.55707-0.51519 0.14439 0.81780-0.81780
   5 -12  -1 1733.30 2021.10   1 0.06968-0.15529-0.55581-0.33378 0.82837-0.92977
 -12   7  -1  836.59 1011.80   1-0.84599 0.11862-0.32425 0.84300 0.42327-0.52465
  -7  -5   1  758.28  782.51   1-0.15532-0.65767-0.52053 0.14996 0.83959-0.73822
   5 -12  -2 1752.57 2320.76   1 0.01348-0.09908-0.64709-0.24250 0.76228-0.96507
 -12   7  -2 1556.25 1280.19   1-0.88539 0.15803-0.29073 0.80948 0.36269-0.56546
  -7  -5   2  755.72 1057.26   1-0.06672-0.74628-0.52046 0.14988 0.85127-0.64853
  -6  -6  -2  171.20  924.65   1-0.16507-0.60516-0.86539 0.42069 0.47312-0.67586
   6 -12   2 1902.23 1607.30   1 0.22139-0.22139-0.25324-0.63667 0.94172-0.73866
 -12   6   2  785.49  739.20   1-0.62496-0.14573-0.44021 0.88517 0.64469-0.44183
  -6  -6  -2 1155.98 1378.95   1-0.45528-0.31540-0.48729 0.04232 0.74515-0.94801
  -6  -6  -1  336.68  881.74   1-0.11974-0.65067-0.82100 0.37620 0.55822-0.65962
   6 -12   1   26.39 1327.39   1 0.17991-0.17991-0.34568-0.54424 0.92094-0.81941
 -12   6   1  236.59  659.43   1-0.68245-0.08769-0.41792 0.86257 0.59966-0.49827
  -6  -6  -1  706.03  818.68   1-0.33207-0.43861-0.50754 0.06257 0.79506-0.89649
  -6  -6   0  162.49  919.06   1-0.07173-0.69868-0.76535 0.32055 0.63959-0.63959
   6 -12   0  632.40 1343.40   1 0.13109-0.13109-0.44496-0.44496 0.88590-0.88590
 -12   6   0 -109.92 1146.14   1-0.73931-0.03083-0.39123 0.83588 0.54804-0.54804
  -6  -6   0  773.82  791.13   1-0.21426-0.55594-0.51824 0.07356 0.82795-0.82795
   6 -12  -1  234.05 1257.03   1 0.07553-0.07553-0.54569-0.34390 0.83456-0.93596
 -12   6  -1  704.22  930.67   1-0.79305 0.02290-0.36086 0.80550 0.49075-0.59214
  -6  -6   1  723.99  849.27   1-0.10790-0.66231-0.52101 0.07632 0.84670-0.74532
   6 -12  -2 1279.34 1466.18   1 0.01645-0.01645-0.64254-0.24705 0.76607-0.96886
 -12   6  -2 1572.25  961.75   1-0.84200 0.07185-0.32730 0.77194 0.42883-0.63161
  -6  -6   2 2911.74 1561.77   1-0.01574-0.75447-0.51854 0.07386 0.85490-0.65216
  -5  -7  -2  453.60 1032.24   1-0.13203-0.59541-0.83352 0.31471 0.53647-0.73921
   7 -12   2 2013.51 2235.39   1 0.22931-0.14368-0.23463-0.65529 0.94464-0.74158
  -5  -7  -2  585.27  552.80   1-0.43721-0.29066-0.49091-0.02820 0.75355-0.95640
  -5  -7  -1  605.80 1262.48   1-0.08483-0.64278-0.78134 0.26241 0.61830-0.71969
   7 -12   1  210.72 1204.79   1 0.18655-0.10092-0.33140-0.55852 0.92486-0.82332
 -12   5   1  413.50  587.37   1-0.61833-0.19517-0.44256 0.81336 0.64946-0.54803
  -5  -7  -1  187.19  807.20   1-0.30389-0.42398-0.51079-0.00832 0.80420-0.90562
  -5  -7   0  470.08 1011.39   1-0.03613-0.69148-0.71891 0.19998 0.69415-0.69415
   7 -12   0  557.93 1340.47   1 0.13568-0.05005-0.43602-0.45389 0.88964-0.88964
 -12   5   0  817.03  719.13   1-0.68157-0.13135-0.41830 0.78883 0.60039-0.60039
  -5  -7   0  923.22 1143.89   1-0.17793-0.54948-0.51988 0.00108 0.83549-0.83549
  -5  -7   1 1218.22 1449.87   1 0.01260-0.74022-0.64843 0.12950 0.76116-0.65976
   7 -12  -1  545.67 1682.50   1 0.07732 0.00827-0.54259-0.34701 0.83643-0.93782
 -12   5  -1  612.83  718.68   1-0.74269-0.07023-0.38948 0.76002 0.54470-0.64608
  -5  -7   1  750.27 1629.96   1-0.06596-0.66146-0.52044 0.00164 0.85134-0.74997
   7 -12  -2 2389.38 1463.79   1 0.01498 0.07061-0.64479-0.24480 0.76420-0.96699
  -5  -7   2  636.66 1296.98   1 0.05946-0.78708-0.57321 0.05428 0.81724-0.61445
 -12   5  -2 1889.16 1583.12   1-0.79941-0.01351-0.35686 0.72740 0.48330-0.68607
  -5  -7   2  636.11 1083.68   1 0.02948-0.75691-0.51571-0.00308 0.85625-0.65351
  -4  -8  -1  894.39 1224.27   1-0.05752-0.62729-0.74733 0.15426 0.66195-0.76335
   8 -12   1  616.45 1166.46   1 0.18947-0.01821-0.32506-0.56486 0.92651-0.82498
 -12   4   1  -76.32  852.45   1-0.56372-0.29260-0.46018 0.75683 0.68588-0.58445
  -4  -8  -1  334.71  714.93   1-0.28274-0.40232-0.51292-0.08036 0.81053-0.91196
  -4  -8   0  109.54 1207.58   1-0.00932-0.67548-0.68113 0.08807 0.73209-0.73209
   8 -12   0 1594.43 1810.78   1 0.13608 0.03518-0.43525-0.45467 0.88996-0.88996
 -12   4   0  484.38  754.62   1-0.63125-0.22507-0.43794 0.73458 0.64009-0.64009
  -4  -8   0  428.98  776.14   1-0.14812-0.53650-0.52068-0.07222 0.84079-0.84079
  -4  -8   1  518.09 1052.83   1 0.03785-0.72267-0.60882 0.01575 0.79240-0.69101
   8 -12  -1  773.43 1110.25   1 0.07437 0.09682-0.54772-0.34187 0.83334-0.93474
 -12   4  -1  599.60 1221.25   1-0.69727-0.15844-0.41142 0.70785 0.58696-0.68835
  -4  -8   1  461.50  813.47   1-0.03042-0.65420-0.51923-0.07367 0.85408-0.75271
;
_shelx_hkl_checksum              61991
loop_
_space_group_symop_operation_xyz
'x, y, z'
'-y, x-y, z'
'-x+y, -x, z'
'-x, -y, z+1/2'
'y, -x+y, z+1/2'
'x-y, x, z+1/2'
'y, x, -z'
'x-y, -y, -z'
'-x, -x+y, -z'
'-y, -x, -z+1/2'
'-x+y, y, -z+1/2'
'x, x-y, -z+1/2'
'-x, -y, -z'
'y, -x+y, -z'
'x-y, x, -z'
'x, y, -z-1/2'
'-y, x-y, -z-1/2'
'-x+y, -x, -z-1/2'
'-y, -x, z'
'-x+y, y, z'
'x, x-y, z'
'y, x, z-1/2'
'x-y, -y, z-1/2'
'-x, -x+y, z-1/2'
loop_
_atom_site_label
_atom_site_type_symbol
_atom_site_fract_x
_atom_site_fract_y
_atom_site_fract_z
_atom_site_U_iso_or_equiv
_atom_site_adp_type
_atom_site_occupancy
_atom_site_site_symmetry_order
_atom_site_calc_flag
_atom_site_refinement_flags_posn
_atom_site_refinement_flags_adp
_atom_site_refinement_flags_occupancy
_atom_site_disorder_assembly
_atom_site_disorder_group
MN1 Cd 0.0000 0.0000 0.0000 0.0705(11) Uani 1 12 d S T P . .
Br1 Br 0.13017(13) -0.13017(13) 0.2500 0.0974(12) Uani 1 4 d S T P . .
N1 N 0.336(15) -0.326(12) -0.241(7) 0.108(11) Uiso 0.0833 1 d D . P A -1
Cl2 Cl 0.37(3) -0.42(3) 0.104(9) 0.57(11) Uiso 0.0833 1 d D . P A -1
C1 C 0.33(3) -0.291(17) -0.032(7) 0.20(2) Uiso 0.0833 1 d D . P A -1
H1A H 0.2312 -0.3033 0.0020 0.239 Uiso 0.0833 1 calc R U P A -1
H1B H 0.4173 -0.1813 -0.0054 0.239 Uiso 0.0833 1 calc R U P A -1
C2 C 0.42(3) -0.170(15) -0.349(18) 0.20(2) Uiso 0.0833 1 d D . P A -1
H2A H 0.5296 -0.1070 -0.3041 0.298 Uiso 0.0833 1 calc R U P A -1
H2B H 0.4218 -0.1915 -0.4828 0.298 Uiso 0.0833 1 calc R U P A -1
H2C H 0.3655 -0.1105 -0.3304 0.298 Uiso 0.0833 1 calc R U P A -1
C3 C 0.166(17) -0.42(3) -0.31(3) 0.20(2) Uiso 0.0833 1 d D . P A -1
H3A H 0.1116 -0.5231 -0.2432 0.298 Uiso 0.0833 1 calc R U P A -1
H3B H 0.1105 -0.3643 -0.2932 0.298 Uiso 0.0833 1 calc R U P A -1
H3C H 0.1668 -0.4454 -0.4456 0.298 Uiso 0.0833 1 calc R U P A -1
C4 C 0.42(2) -0.418(19) -0.271(14) 0.20(2) Uiso 0.0833 1 d D . P A -1
H4A H 0.5314 -0.3556 -0.2259 0.298 Uiso 0.0833 1 calc R U P A -1
H4B H 0.3685 -0.5178 -0.2023 0.298 Uiso 0.0833 1 calc R U P A -1
H4C H 0.4236 -0.4399 -0.4047 0.298 Uiso 0.0833 1 calc R U P A -1
loop_
_atom_site_aniso_label
_atom_site_aniso_U_11
_atom_site_aniso_U_22
_atom_site_aniso_U_33
_atom_site_aniso_U_23
_atom_site_aniso_U_13
_atom_site_aniso_U_12
MN1 0.0830(13) 0.0830(13) 0.0455(12) 0.000 0.000 0.0415(7)
Br1 0.1256(17) 0.1256(17) 0.0689(15) 0.000 0.000 0.0837(15)
loop_
_atom_type_symbol
_atom_type_description
_atom_type_scat_dispersion_real
_atom_type_scat_dispersion_imag
_atom_type_scat_source
C C 0.0033 0.0016 'International Tables Vol C Tables 4.2.6.8 and 6.1.1.4'
H H 0.0000 0.0000 'International Tables Vol C Tables 4.2.6.8 and 6.1.1.4'
N N 0.0061 0.0033 'International Tables Vol C Tables 4.2.6.8 and 6.1.1.4'
Cl Cl 0.1484 0.1585 'International Tables Vol C Tables 4.2.6.8 and 6.1.1.4'
Cd Cd -0.8075 1.2024 'International Tables Vol C Tables 4.2.6.8 and 6.1.1.4'
Br Br -0.2901 2.4595 'International Tables Vol C Tables 4.2.6.8 and 6.1.1.4'
loop_
_geom_angle_atom_site_label_1
_geom_angle_atom_site_label_2
_geom_angle_atom_site_label_3
_geom_angle
_geom_angle_site_symmetry_1
_geom_angle_site_symmetry_3
Br1 MN1 Br1 95.46(4) . 14
Br1 MN1 Br1 84.54(4) . 2
Br1 MN1 Br1 180.00(2) 14 2
Br1 MN1 Br1 180.0 . 13
Br1 MN1 Br1 84.54(4) 14 13
Br1 MN1 Br1 95.46(4) 2 13
Br1 MN1 Br1 95.46(4) . 15
Br1 MN1 Br1 84.54(4) 14 15
Br1 MN1 Br1 95.46(4) 2 15
Br1 MN1 Br1 84.54(4) 13 15
Br1 MN1 Br1 84.54(4) . 3
Br1 MN1 Br1 95.46(4) 14 3
Br1 MN1 Br1 84.54(4) 2 3
Br1 MN1 Br1 95.46(4) 13 3
Br1 MN1 Br1 180.00(13) 15 3
MN1 Br1 MN1 78.09(6) 4 .
C3 N1 C2 109.4(9) . .
C3 N1 C4 109.5(9) . .
C2 N1 C4 109.4(9) . .
C3 N1 C1 109.5(9) . .
C2 N1 C1 109.5(9) . .
C4 N1 C1 109.5(9) . .
N1 C1 Cl2 110.1(10) . .
loop_
_geom_bond_atom_site_label_1
_geom_bond_atom_site_label_2
_geom_bond_distance
_geom_bond_site_symmetry_2
MN1 Br1 2.7840(17) .
MN1 Br1 2.7840(17) 14
MN1 Br1 2.7840(17) 2
MN1 Br1 2.7840(17) 13
MN1 Br1 2.7840(17) 15
MN1 Br1 2.7840(17) 3
Br1 MN1 2.7840(17) 4
N1 C3 1.503(9) .
N1 C2 1.503(9) .
N1 C4 1.503(9) .
N1 C1 1.504(9) .
Cl2 C1 1.760(11) .
