#------------------------------------------------------------------------------
#$Date: 2019-11-25 20:19:37 +0200 (Mon, 25 Nov 2019) $
#$Revision: 241726 $
#$URL: file:///home/coder/svn-repositories/cod/cif/4/13/15/4131536.cif $
#------------------------------------------------------------------------------
#
# This file is available in the Crystallography Open Database (COD),
# http://www.crystallography.net/
#
# All data on this site have been placed in the public domain by the
# contributors.
#
data_4131536
loop_
_publ_author_name
'Zhang, Hu'
'Buchwald, Stephen L.'
_publ_section_title
;
 Palladium-Catalyzed Negishi Coupling of \a-CF<sub>3</sub> Oxiranyl
 Zincate: Access to Chiral CF<sub>3</sub>-Substituted Benzylic Tertiary
 Alcohols.
;
_journal_issue                   33
_journal_name_full               'Journal of the American Chemical Society'
_journal_page_first              11590
_journal_page_last               11594
_journal_paper_doi               10.1021/jacs.7b06630
_journal_volume                  139
_journal_year                    2017
_chemical_absolute_configuration ad
_chemical_formula_sum            'C10 H9 F3 O S'
_chemical_formula_weight         234.23
_space_group_crystal_system      monoclinic
_space_group_IT_number           4
_space_group_name_Hall           'P 2yb'
_space_group_name_H-M_alt        'P 1 21 1'
_atom_sites_solution_hydrogens   geom
_atom_sites_solution_primary     direct
_atom_sites_solution_secondary   difmap
_audit_creation_method           SHELXL-2014/7
_cell_angle_alpha                90
_cell_angle_beta                 98.017(3)
_cell_angle_gamma                90
_cell_formula_units_Z            2
_cell_length_a                   8.1870(13)
_cell_length_b                   5.4348(8)
_cell_length_c                   11.5306(18)
_cell_measurement_reflns_used    5204
_cell_measurement_temperature    100(2)
_cell_measurement_theta_max      30.42
_cell_measurement_theta_min      2.51
_cell_volume                     508.04(14)
_computing_cell_refinement       'SAINT 7.46A (Bruker-AXS, 2015)'
_computing_data_collection       'APEX2 v2011.4.0 (Bruker-AXS, 2015)'
_computing_data_reduction        'SAINT 7.46A (Bruker-AXS, 2015)'
_computing_molecular_graphics    'Bruker SHELXTL'
_computing_publication_material  'Bruker SHELXTL'
_computing_structure_refinement  'SHELXL-2014/7 (Sheldrick, 2014)'
_computing_structure_solution    'SHELXT-2015 (Sheldrick, 2015)'
_diffrn_ambient_temperature      100(2)
_diffrn_detector_area_resol_mean 8.3
_diffrn_measured_fraction_theta_full 1.000
_diffrn_measured_fraction_theta_max 1.000
_diffrn_measurement_device_type  'Bruker Smart APEX2 CCD'
_diffrn_measurement_method       '\f and \w scans'
_diffrn_radiation_type           MoK\a
_diffrn_radiation_wavelength     0.71073
_diffrn_reflns_av_R_equivalents  0.0241
_diffrn_reflns_av_unetI/netI     0.0258
_diffrn_reflns_Laue_measured_fraction_full 1.000
_diffrn_reflns_Laue_measured_fraction_max 1.000
_diffrn_reflns_limit_h_max       11
_diffrn_reflns_limit_h_min       -11
_diffrn_reflns_limit_k_max       7
_diffrn_reflns_limit_k_min       -7
_diffrn_reflns_limit_l_max       16
_diffrn_reflns_limit_l_min       -16
_diffrn_reflns_number            8816
_diffrn_reflns_point_group_measured_fraction_full 0.997
_diffrn_reflns_point_group_measured_fraction_max 0.990
_diffrn_reflns_theta_full        25.242
_diffrn_reflns_theta_max         29.567
_diffrn_reflns_theta_min         1.784
_diffrn_source
'I\mS micro-focus sealed tube, multilayer optics'
_exptl_absorpt_coefficient_mu    0.331
_exptl_absorpt_correction_T_max  0.7461
_exptl_absorpt_correction_T_min  0.6571
_exptl_absorpt_correction_type   multi-scan
_exptl_absorpt_process_details   'SADABS (Sheldrick, 2009)'
_exptl_crystal_colour            colourless
_exptl_crystal_density_diffrn    1.531
_exptl_crystal_density_method    'not measured'
_exptl_crystal_description       needle
_exptl_crystal_F_000             240
_exptl_crystal_size_max          0.577
_exptl_crystal_size_mid          0.244
_exptl_crystal_size_min          0.185
_refine_diff_density_max         0.336
_refine_diff_density_min         -0.148
_refine_diff_density_rms         0.047
_refine_ls_abs_structure_details
; 
 Flack x determined using 1152 quotients [(I+)-(I-)]/[(I+)+(I-)] 
 (Parsons, Flack and Wagner, Acta Cryst. B69 (2013) 249-259). 
;
_refine_ls_abs_structure_Flack   0.08(3)
_refine_ls_extinction_method     none
_refine_ls_goodness_of_fit_ref   1.038
_refine_ls_hydrogen_treatment    constr
_refine_ls_matrix_type           full
_refine_ls_number_parameters     137
_refine_ls_number_reflns         2825
_refine_ls_number_restraints     1
_refine_ls_restrained_S_all      1.038
_refine_ls_R_factor_all          0.0293
_refine_ls_R_factor_gt           0.0279
_refine_ls_shift/su_max          0.000
_refine_ls_shift/su_mean         0.000
_refine_ls_structure_factor_coef Fsqd
_refine_ls_weighting_details
'w=1/[\s^2^(Fo^2^)+(0.0394P)^2^+0.0720P] where P=(Fo^2^+2Fc^2^)/3'
_refine_ls_weighting_scheme      calc
_refine_ls_wR_factor_gt          0.0686
_refine_ls_wR_factor_ref         0.0695
_reflns_Friedel_coverage         0.802
_reflns_Friedel_fraction_full    0.993
_reflns_Friedel_fraction_max     0.978
_reflns_number_gt                2732
_reflns_number_total             2825
_reflns_threshold_expression     'I > 2\s(I)'
_cod_data_source_file            ja7b06630_si_001.cif
_cod_data_source_block           x17088
_cod_original_sg_symbol_H-M      'P 21'
_cod_database_code               4131536
_shelx_shelxl_version_number     2014/7
_shelx_space_group_comment
; 
The symmetry employed for this shelxl refinement is uniquely defined 
by the following loop, which should always be used as a source of 
symmetry information in preference to the above space-group names. 
They are only intended as comments. 
;
_shelx_estimated_absorpt_t_min   0.832
_shelx_estimated_absorpt_t_max   0.941
_shelx_res_file
; 
  
    x17088.res created by SHELXL-2014/7 
  
  
TITL x17088 in P2(1) 
CELL 0.71073   8.18700   5.43480  11.53060  90.0000  98.0170  90.0000 
ZERR    2.00   0.00130   0.00080   0.00180   0.0000   0.0025   0.0000 
LATT -1 
SYMM -X, 0.5+Y, -Z 
SFAC C H O F S 
UNIT 20 18 2 6 2 
TEMP -173 
SIZE 0.185 0.244 0.577 
  
wpdb -2 
acta 
  
L.S. 10 
BOND $H 
FMAP 2 
PLAN 20 
  
EQIV $1 -x+1, y+1/2, -z 
EQIV $2 -x+1, y+1/2, -z+1 
EQIV $3 -x, y+1/2, -z+1 
HTAB C1 O1_$1 
REM  HTAB C1 S1_$2   ! long 
REM  HTAB C10 F2_$3  ! long 
htab 
  
WGHT    0.039400    0.072000 
FVAR       0.36995 
O1    3    0.498065    0.517217    0.139537    11.00000    0.01746    0.04273 = 
         0.02154   -0.00212    0.00478    0.00353 
C1    1    0.432287    0.762815    0.114785    11.00000    0.02321    0.03667 = 
         0.01923    0.00097    0.00488   -0.00692 
AFIX  23 
H1A   2    0.400958    0.810203    0.031760    11.00000   -1.20000 
H1B   2    0.476585    0.898137    0.167478    11.00000   -1.20000 
AFIX   0 
C2    1    0.334490    0.570915    0.162848    11.00000    0.01679    0.02474 = 
         0.01565   -0.00020    0.00270    0.00135 
C3    1    0.204996    0.439018    0.079322    11.00000    0.02362    0.02955 = 
         0.01577    0.00158    0.00090   -0.00177 
F1    4    0.192862    0.202397    0.109392    11.00000    0.04573    0.02691 = 
         0.02586   -0.00151   -0.00610   -0.00761 
F2    4    0.056221    0.541091    0.080899    11.00000    0.01704    0.04563 = 
         0.02517    0.00393   -0.00237   -0.00013 
F3    4    0.235461    0.443991   -0.031596    11.00000    0.03256    0.05086 = 
         0.01422   -0.00438    0.00195   -0.00674 
C4    1    0.306758    0.566125    0.288684    11.00000    0.01453    0.02141 = 
         0.01478   -0.00043    0.00113   -0.00163 
C5    1    0.373582    0.375667    0.361497    11.00000    0.01704    0.01905 = 
         0.01868   -0.00136    0.00158    0.00201 
AFIX  43 
H5    2    0.437799    0.251712    0.331305    11.00000   -1.20000 
AFIX   0 
C6    1    0.346954    0.365915    0.477708    11.00000    0.01774    0.01792 = 
         0.01760    0.00040   -0.00049    0.00085 
AFIX  43 
H6    2    0.392790    0.235412    0.526585    11.00000   -1.20000 
AFIX   0 
C7    1    0.252569    0.548235    0.523093    11.00000    0.01345    0.01984 = 
         0.01467   -0.00148    0.00074   -0.00296 
C8    1    0.185876    0.739275    0.450443    11.00000    0.01757    0.01868 = 
         0.01932    0.00004    0.00316    0.00346 
AFIX  43 
H8    2    0.121635    0.863480    0.480424    11.00000   -1.20000 
AFIX   0 
C9    1    0.213587    0.747730    0.333834    11.00000    0.01882    0.01891 = 
         0.01840    0.00332    0.00099    0.00261 
AFIX  43 
H9    2    0.168495    0.878513    0.284837    11.00000   -1.20000 
AFIX   0 
S1    5    0.226996    0.515519    0.671544    11.00000    0.01983    0.02205 = 
         0.01475    0.00168    0.00280    0.00050 
C10   1    0.128659    0.796656    0.704848    11.00000    0.03315    0.03207 = 
         0.02078   -0.00111    0.00819    0.01090 
AFIX 137 
H10A  2    0.196426    0.936743    0.687194    11.00000   -1.50000 
H10B  2    0.115984    0.799098    0.788108    11.00000   -1.50000 
H10C  2    0.019832    0.807750    0.657442    11.00000   -1.50000 
AFIX   0 
HKLF 4 
  
REM  x17088 in P2(1) 
REM R1 =  0.0279 for    2732 Fo > 4sig(Fo)  and  0.0293 for all    2825 data 
REM    137 parameters refined using      1 restraints 
  
END 
  
WGHT      0.0393      0.0721 
  
REM Instructions for potential hydrogen bonds 
HTAB C1 O1_$1 
HTAB C1 S1_$2 
HTAB C10 F2_$3 
  
REM Highest difference peak  0.336,  deepest hole -0.148,  1-sigma level  0.047 
Q1    1   0.2473  0.5327  0.5945  11.00000  0.05    0.34 
Q2    1   0.3131  0.5547  0.2254  11.00000  0.05    0.31 
Q3    1   0.2773  0.5066  0.1168  11.00000  0.05    0.28 
Q4    1   0.2066  0.7344  0.3933  11.00000  0.05    0.28 
Q5    1   0.1412  0.6178  0.6818  11.00000  0.05    0.28 
Q6    1   0.2648  0.4192  0.4882  11.00000  0.05    0.28 
Q7    1   0.3582  0.3788  0.4219  11.00000  0.05    0.26 
Q8    1   0.2647  0.6597  0.3223  11.00000  0.05    0.26 
Q9    1   0.1709  0.3901  0.6861  11.00000  0.05    0.25 
Q10   1   0.3250  0.5872  0.6748  11.00000  0.05    0.23 
Q11   1   0.3463  0.4608  0.3217  11.00000  0.05    0.22 
Q12   1   0.2591  0.6729  0.4782  11.00000  0.05    0.22 
Q13   1   0.3613  0.6865  0.1424  11.00000  0.05    0.21 
Q14   1   0.2243  0.4446  0.0257  11.00000  0.05    0.21 
Q15   1   0.4032  0.5078  0.1580  11.00000  0.05    0.20 
Q16   1   0.1550  0.5112 -0.0411  11.00000  0.05    0.19 
Q17   1   0.1412  0.5040  0.0803  11.00000  0.05    0.19 
Q18   1   0.4166  0.7359  0.0500  11.00000  0.05    0.18 
Q19   1   0.3192  0.4605  0.6791  11.00000  0.05    0.18 
Q20   1   0.3013  0.5168 -0.0415  11.00000  0.05    0.16 
;
_shelx_res_checksum              52942
_shelx_hkl_file
; 
   1   0   0    2.34    0.09 
  -1   0   0    2.18    0.09 
  -1   0   0    2.27    0.09 
  -1   0   0    2.42    0.09 
  -1   0   0    2.27    0.10 
   1   0   0    2.20    0.09 
   2   0   0  599.09   13.52 
  -2   0   0  597.41   13.53 
  -2   0   0  604.34   13.51 
  -2   0   0  604.92   13.52 
   2   0   0  566.99   13.47 
  -2   0   0  589.12   13.49 
  -3   0   0  118.03    2.70 
   3   0   0  116.19    2.74 
  -3   0   0  124.00    2.75 
  -3   0   0  113.48    2.72 
  -3   0   0  115.71    2.77 
   3   0   0  112.57    2.75 
   3   0   0  107.32    2.71 
  -4   0   0  113.78    2.64 
  -4   0   0  108.68    2.73 
   4   0   0  108.08    2.66 
  -4   0   0  114.44    2.69 
   4   0   0  110.41    2.69 
  -4   0   0  111.12    2.68 
   4   0   0  109.74    2.71 
  -5   0   0   57.25    1.43 
  -5   0   0   55.29    1.48 
   5   0   0   55.45    1.47 
   5   0   0   56.14    1.50 
  -5   0   0   57.03    1.50 
  -5   0   0   56.80    1.56 
   5   0   0   53.51    1.52 
   6   0   0    3.17    0.25 
  -6   0   0    3.23    0.20 
   6   0   0    3.53    0.28 
   6   0   0    2.79    0.22 
  -6   0   0    3.30    0.24 
  -7   0   0  110.77    2.80 
   7   0   0  108.58    2.89 
   7   0   0  112.50    2.85 
  -7   0   0  108.39    2.67 
   7   0   0  111.25    2.81 
   8   0   0    0.32    0.14 
   8   0   0    0.18    0.12 
  -8   0   0    0.31    0.12 
   8   0   0    0.32    0.13 
   9   0   0   13.11    0.69 
   9   0   0   11.99    0.64 
  -9   0   0   11.74    0.59 
 -10   0   0    0.33    0.17 
  10   0   0    0.45    0.18 
  10   0   0    0.32    0.21 
 -11   0   0   13.32    0.67 
  11   0   0   13.36    0.79 
  11   0   0   12.14    0.73 
   0  -1   0    0.03    0.02 
   0  -1   0   -0.01    0.02 
   0  -1   0    0.01    0.02 
   0  -1   0    0.02    0.02 
   0  -1   0    0.01    0.02 
   0   1   0    0.17    0.04 
   1  -1   0  966.78   21.84 
  -1  -1   0  998.96   21.87 
   1  -1   0 1000.00   21.84 
   1  -1   0  981.68   23.49 
   1  -1   0  969.01   21.85 
  -1   1   0  920.16   21.84 
  -1   1   0  897.62   21.83 
   2  -1   0   34.71    0.87 
   2  -1   0   33.42    0.91 
  -2  -1   0   34.29    0.92 
   2  -1   0   35.17    0.91 
   2  -1   0   32.83    0.89 
   2  -1   0   34.54    0.91 
  -2   1   0   34.18    0.91 
  -2   1   0   34.32    0.91 
   3  -1   0  117.64    2.88 
   3  -1   0  116.01    2.85 
  -3  -1   0  113.53    2.89 
   3  -1   0  121.67    2.88 
   3  -1   0  119.78    2.88 
   3  -1   0  119.47    2.84 
   3   1   0  121.57    2.76 
   3   1   0  122.20    2.78 
  -3   1   0  123.50    2.88 
  -3   1   0  118.59    2.88 
  -4  -1   0   10.52    0.45 
   4  -1   0    9.72    0.41 
   4  -1   0    9.76    0.39 
   4  -1   0   10.20    0.41 
   4  -1   0    9.94    0.40 
   4  -1   0    9.53    0.41 
  -4   1   0    9.97    0.41 
   4   1   0    9.45    0.35 
  -4   1   0    9.07    0.39 
   4   1   0    9.26    0.33 
   5  -1   0   67.31    1.81 
   5  -1   0   69.60    1.85 
   5  -1   0   71.51    1.83 
   5  -1   0   67.89    1.84 
  -5  -1   0   70.07    1.89 
   5   1   0   69.37    1.73 
  -5   1   0   68.76    1.81 
  -5   1   0   68.16    1.84 
   5   1   0   68.77    1.76 
   6  -1   0   64.62    1.78 
  -6  -1   0   61.31    1.64 
   6  -1   0   64.12    1.76 
  -6  -1   0   62.09    1.81 
   6  -1   0   64.69    1.74 
   6   1   0   64.35    1.80 
   6   1   0   62.92    1.68 
  -6   1   0   62.53    1.71 
  -6   1   0   65.43    1.76 
   6   1   0   62.39    1.64 
  -7  -1   0    2.58    0.36 
  -7  -1   0    2.60    0.21 
   7  -1   0    3.14    0.36 
   7  -1   0    2.93    0.34 
   7  -1   0    2.46    0.31 
   7   1   0    2.51    0.33 
  -7   1   0    2.80    0.32 
  -7   1   0    2.65    0.29 
   7   1   0    2.38    0.27 
   8  -1   0   25.89    0.99 
   8  -1   0   26.81    0.97 
  -8  -1   0   26.68    1.06 
  -8  -1   0   25.68    0.86 
   8  -1   0   26.48    1.01 
   8   1   0   26.34    1.03 
  -8   1   0   26.38    0.97 
  -8   1   0   27.42    0.90 
   8   1   0   26.47    0.93 
  -9  -1   0    4.36    0.31 
   9  -1   0    4.82    0.40 
   9  -1   0    4.76    0.42 
   9  -1   0    4.81    0.42 
   9   1   0    5.17    0.56 
   9   1   0    4.39    0.36 
  -9   1   0    4.85    0.40 
  10  -1   0   10.95    0.66 
 -10  -1   0   10.28    0.51 
  10  -1   0   10.25    0.63 
  10  -1   0    9.59    0.63 
  10   1   0   10.40    0.68 
 -10   1   0   11.40    0.63 
  10   1   0   10.74    0.60 
  11  -1   0    1.17    0.30 
  11  -1   0    1.04    0.31 
 -11   1   0    0.66    0.23 
  11   1   0    0.92    0.30 
  11   1   0    0.90    0.24 
   0  -2   0  123.45    2.93 
   0  -2   0  121.76    2.93 
   0  -2   0  123.69    2.98 
   0  -2   0  127.41    2.91 
   0  -2   0  125.38    2.92 
   0   2   0  125.28    2.93 
   0   2   0  127.20    2.94 
   1  -2   0    7.64    0.29 
  -1  -2   0    7.86    0.33 
   1  -2   0    7.29    0.30 
   1  -2   0    7.36    0.29 
   1  -2   0    7.30    0.26 
   1   2   0    7.65    0.25 
  -1   2   0    7.50    0.31 
  -1   2   0    7.71    0.30 
   2  -2   0   22.98    0.64 
   2  -2   0   23.36    0.69 
   2  -2   0   23.07    0.71 
  -2  -2   0   22.82    0.73 
   2  -2   0   23.55    0.71 
  -2   2   0   21.60    0.70 
  -2   2   0   22.21    0.69 
   3  -2   0   12.57    0.42 
   3  -2   0   12.31    0.47 
   3  -2   0   12.53    0.48 
   3  -2   0   12.44    0.49 
  -3  -2   0   11.21    0.48 
  -3   2   0   12.38    0.49 
  -3   2   0   11.27    0.46 
   4  -2   0  147.98    3.69 
   4  -2   0  151.47    3.73 
   4  -2   0  152.56    3.62 
  -4  -2   0  146.54    3.75 
   4  -2   0  151.22    3.72 
  -4   2   0  149.99    3.70 
   4   2   0  159.15    3.50 
  -4   2   0  153.53    3.72 
  -5  -2   0   13.14    0.61 
   5  -2   0   14.30    0.54 
   5  -2   0   13.78    0.60 
   5  -2   0   14.85    0.59 
   5  -2   0   14.58    0.61 
  -5   2   0   13.86    0.58 
   5   2   0   14.03    0.47 
  -5   2   0   14.09    0.60 
   6  -2   0   11.21    0.51 
   6  -2   0   12.55    0.59 
   6  -2   0   12.14    0.57 
  -6  -2   0   11.79    0.61 
  -6   2   0   12.40    0.57 
  -6   2   0   11.88    0.56 
   6   2   0   11.55    0.46 
   7  -2   0   37.31    1.18 
   7  -2   0   36.28    1.22 
  -7  -2   0   37.08    1.32 
   7  -2   0   36.42    1.26 
  -7   2   0   37.08    1.23 
   7   2   0   35.95    1.09 
  -7   2   0   36.04    1.20 
   7   2   0   38.58    1.28 
   8  -2   0   16.92    0.79 
   8  -2   0   16.89    0.77 
  -8  -2   0   15.09    0.80 
   8  -2   0   17.56    0.74 
   8   2   0   15.57    0.77 
   8   2   0   15.44    0.63 
  -8   2   0   16.14    0.76 
  -8   2   0   15.66    0.71 
  -9  -2   0    1.24    0.33 
   9  -2   0    0.92    0.25 
   9  -2   0    1.17    0.27 
   9  -2   0    1.21    0.29 
   9   2   0    1.07    0.20 
   9   2   0    1.18    0.28 
  -9   2   0    1.26    0.28 
  -9   2   0    1.59    0.28 
  10  -2   0    1.92    0.36 
  10  -2   0    1.45    0.32 
  10  -2   0    1.71    0.35 
 -10  -2   0    1.42    0.35 
  10   2   0    1.60    0.27 
 -10   2   0    1.23    0.29 
  10   2   0    1.43    0.34 
   0  -3   0   -0.01    0.06 
   0  -3   0   -0.04    0.05 
   0  -3   0   -0.01    0.05 
   0  -3   0   -0.02    0.04 
   0  -3   0   -0.05    0.04 
   0   3   0   -0.01    0.04 
   0   3   0    0.04    0.06 
   1  -3   0  146.86    3.43 
   1  -3   0  147.18    3.41 
  -1  -3   0  141.86    3.38 
  -1  -3   0  150.64    3.54 
  -1  -3   0  144.72    3.39 
   1  -3   0  142.26    3.47 
   1   3   0  138.14    3.39 
  -1   3   0  138.71    3.45 
  -1   3   0  145.14    3.49 
   2  -3   0   50.52    1.40 
  -2  -3   0   52.87    1.48 
   2  -3   0   51.55    1.35 
   2  -3   0   52.78    1.45 
   2  -3   0   52.88    1.41 
  -2   3   0   53.72    1.47 
  -2   3   0   52.03    1.43 
  -3  -3   0   42.27    1.23 
   3  -3   0   39.48    1.17 
   3  -3   0   39.60    1.15 
   3  -3   0   37.04    1.06 
  -3   3   0   38.26    1.16 
   3   3   0   36.38    0.96 
  -3   3   0   39.31    1.19 
  -4  -3   0   42.61    1.37 
   4  -3   0   44.50    1.32 
   4  -3   0   44.49    1.24 
   4  -3   0   47.04    1.36 
   4  -3   0   45.39    1.36 
  -4   3   0   44.06    1.34 
  -4   3   0   45.24    1.37 
  -5  -3   0   43.65    1.41 
   5  -3   0   43.64    1.37 
   5  -3   0   43.73    1.25 
   5  -3   0   44.43    1.35 
   5  -3   0   42.56    1.36 
  -5   3   0   43.30    1.37 
  -5   3   0   43.19    1.36 
  -6  -3   0   11.03    0.63 
   6  -3   0   10.86    0.56 
   6  -3   0   11.34    0.60 
   6  -3   0   11.88    0.52 
  -6   3   0   10.49    0.57 
  -6   3   0   11.00    0.59 
  -7  -3   0    3.12    0.43 
   7  -3   0    3.06    0.50 
   7  -3   0    4.01    0.46 
   7  -3   0    4.11    0.41 
  -7   3   0    4.12    0.46 
  -7   3   0    3.55    0.43 
   8  -3   0    6.29    0.43 
   8  -3   0    5.20    0.44 
  -8  -3   0    5.91    0.64 
   8   3   0    5.37    0.57 
  -8   3   0    5.31    0.46 
  -8   3   0    5.86    0.46 
  -9  -3   0    0.50    0.25 
   9  -3   0    0.39    0.18 
   9  -3   0    0.58    0.23 
   9   3   0    0.46    0.21 
  -9   3   0    0.21    0.18 
  -9   3   0    0.45    0.22 
   9   3   0    0.29    0.12 
  10  -3   0    7.99    0.61 
  10  -3   0    8.40    0.64 
 -10  -3   0    9.03    0.71 
 -10   3   0    8.34    0.58 
  10   3   0    7.82    0.64 
  10   3   0    8.67    0.47 
 -10   3   0    8.89    0.64 
   0  -4   0  103.13    2.52 
   0  -4   0  105.32    2.59 
   0  -4   0  103.32    2.72 
   0  -4   0  103.20    2.62 
   0   4   0  107.76    2.64 
   1  -4   0    5.67    0.35 
   1  -4   0    4.91    0.32 
   1  -4   0    5.91    0.30 
  -1  -4   0    6.00    0.38 
  -1  -4   0    5.07    0.28 
  -1  -4   0    5.56    0.29 
   1  -4   0    5.63    0.29 
   1   4   0    5.61    0.30 
  -1   4   0    6.00    0.35 
   2  -4   0   18.01    0.66 
  -2  -4   0   17.71    0.73 
   2  -4   0   17.58    0.69 
   2  -4   0   17.93    0.61 
  -2   4   0   18.39    0.71 
   2   4   0   17.56    0.59 
   3  -4   0   69.45    1.81 
   3  -4   0   69.59    1.94 
  -3  -4   0   72.02    2.01 
   3  -4   0   68.54    1.90 
   3  -4   0   69.66    1.89 
  -3   4   0   67.17    1.96 
   4  -4   0   45.65    1.39 
   4  -4   0   46.73    1.44 
   4  -4   0   45.00    1.40 
   4  -4   0   44.71    1.28 
  -4  -4   0   48.69    1.51 
  -4   4   0   43.32    1.44 
  -5  -4   0   25.27    1.04 
   5  -4   0   25.51    0.95 
   5  -4   0   25.23    0.85 
   5  -4   0   26.87    1.00 
  -5   4   0   24.79    0.99 
   6  -4   0    7.40    0.49 
  -6  -4   0    6.81    0.52 
  -6   4   0    7.36    0.52 
   7  -4   0    6.23    0.47 
  -7  -4   0    6.00    0.52 
  -7   4   0    5.90    0.49 
   8  -4   0    0.77    0.24 
  -8  -4   0    1.07    0.32 
  -8   4   0    0.79    0.27 
  -9  -4   0    3.33    0.54 
   9  -4   0    2.97    0.45 
   9   4   0    2.78    0.46 
  -9   4   0    4.17    0.56 
   0  -5   0   -0.01    0.11 
   0  -5   0   -0.11    0.11 
   0   5   0    0.09    0.11 
  -1  -5   0   31.45    0.99 
  -1  -5   0   32.12    1.15 
   1  -5   0   31.76    0.97 
   1  -5   0   31.76    1.07 
   1  -5   0   33.56    1.15 
  -1   5   0   33.16    1.10 
   2  -5   0    5.18    0.39 
  -2  -5   0    5.50    0.42 
   2  -5   0    4.38    0.32 
   2  -5   0    5.39    0.40 
  -2   5   0    4.45    0.38 
   3  -5   0    8.19    0.47 
   3  -5   0    9.03    0.53 
  -3  -5   0    8.84    0.55 
  -3   5   0    7.85    0.52 
  -4  -5   0    2.34    0.38 
   4  -5   0    2.91    0.36 
   4  -5   0    2.81    0.38 
  -4   5   0    2.19    0.35 
   5  -5   0   13.47    0.72 
  -5  -5   0   13.23    0.74 
   5  -5   0   11.77    0.63 
   5  -5   0   13.55    0.68 
  -5   5   0   11.73    0.69 
   6  -5   0    5.94    0.46 
   6  -5   0    4.53    0.41 
  -6  -5   0    4.72    0.57 
  -6   5   0    4.78    0.56 
   7  -5   0    1.53    0.33 
  -7  -5   0    1.28    0.36 
   7  -5   0    1.00    0.27 
  -7   5   0    0.94    0.27 
   8  -5   0    4.31    0.54 
  -8  -5   0    3.94    0.61 
   8  -5   0    2.87    0.44 
  -8   5   0    3.51    0.51 
   0  -6   0   26.36    1.06 
   0  -6   0   26.09    0.94 
  -1  -6   0    0.35    0.21 
   1  -6   0    0.20    0.17 
   1  -6   0    0.37    0.20 
  -1  -6   0    0.69    0.18 
  -1   6   0    0.19    0.17 
  -2  -6   0    5.40    0.47 
   2  -6   0    5.79    0.46 
   2  -6   0    5.48    0.45 
  -2   6   0    6.60    0.50 
   3  -6   0    1.86    0.33 
  -3  -6   0    1.23    0.30 
   3  -6   0    1.76    0.28 
   3  -6   0    1.36    0.29 
  -3   6   0    1.90    0.36 
   4  -6   0    2.68    0.36 
   4  -6   0    2.81    0.42 
  -4  -6   0    2.56    0.44 
  -4   6   0    2.61    0.40 
  -5  -6   0    0.82    0.28 
   5  -6   0    0.37    0.19 
  -5   6   0    0.56    0.24 
  -6  -6   0    1.07    0.31 
   6  -6   0    1.13    0.28 
  -6   6   0    0.61    0.26 
   0  -7   0   -0.11    0.14 
  -1  -7   0    1.61    0.26 
   1  -7   0    1.55    0.30 
  -1  -7   0    2.69    0.45 
   2  -7   0    0.73    0.24 
  -2  -7   0    0.82    0.28 
  -2   7   0    0.30    0.22 
  -3  -7   0    0.51    0.27 
   3  -7   0   -0.15    0.17 
  -3   7   0    0.35    0.23 
  -4  -7   0    4.87    0.63 
   4  -7   0    2.66    0.44 
  -4   7   0    3.41    0.49 
  11   0  -1    0.28    0.18 
  11   0  -1    0.42    0.26 
 -11   0   1    0.34    0.16 
  10   0  -1    2.66    0.41 
 -10   0   1    2.17    0.30 
  10   0  -1    2.86    0.39 
   9   0  -1   21.61    0.88 
  -9   0   1   20.81    0.80 
   9   0  -1   20.06    0.90 
   8   0  -1    1.72    0.30 
  -8   0   1    2.36    0.29 
   8   0  -1    2.33    0.30 
   8   0  -1    2.79    0.33 
   7   0  -1   28.50    0.94 
  -7   0   1   29.83    0.94 
   7   0  -1   28.66    0.97 
  -7   0   1   30.18    1.00 
   7   0  -1   28.67    1.02 
  -6   0   1    0.24    0.08 
   6   0  -1    0.29    0.10 
  -6   0   1    0.58    0.13 
   6   0  -1    0.25    0.11 
   6   0  -1    0.13    0.08 
   5   0  -1   21.83    0.68 
  -5   0   1   22.46    0.69 
  -5   0   1   22.73    0.64 
  -5   0   1   21.44    0.71 
   5   0  -1   21.67    0.71 
   5   0  -1   22.37    0.75 
  -4   0   1   53.62    1.37 
   4   0  -1   52.60    1.37 
   4   0  -1   54.20    1.42 
   4   0  -1   50.83    1.34 
  -4   0   1   53.82    1.32 
  -4   0   1   54.12    1.35 
  -3   0   1    1.94    0.11 
  -3   0   1    1.85    0.13 
   3   0  -1    1.72    0.11 
   3   0  -1    1.94    0.14 
   3   0  -1    1.89    0.13 
  -3   0   1    1.59    0.14 
  -3   0   1    2.04    0.12 
  -2   0   1    1.33    0.09 
  -2   0   1    1.29    0.08 
   2   0  -1    1.02    0.07 
  -2   0   1    1.20    0.08 
   2   0  -1    1.16    0.08 
   2   0  -1    1.07    0.09 
  -2   0   1    1.53    0.12 
  -1   0   1   69.93    1.60 
   1   0  -1   70.42    1.60 
  -1   0   1   70.34    1.61 
  -1   0   1   67.93    1.60 
   1   0  -1   68.46    1.62 
   0   0  -1    8.76    0.27 
   0   0   1   12.27    0.28 
   1   0   1   37.00    0.91 
  -1   0  -1   34.88    0.90 
   1   0   1   38.80    0.92 
  -1   0  -1   38.26    0.92 
  -1   0  -1   38.62    0.92 
  -2   0  -1  351.94    8.39 
   2   0   1  377.24    8.37 
  -2   0  -1  367.99    8.39 
   2   0   1  347.68    8.36 
  -2   0  -1  378.99    8.46 
  -2   0  -1  382.47    8.37 
   2   0   1  365.55    8.35 
  -3   0  -1  116.12    2.88 
   3   0   1  115.57    2.84 
  -3   0  -1  121.61    2.86 
  -3   0  -1  121.13    2.86 
  -3   0  -1  120.80    2.83 
   3   0   1  123.59    2.87 
  -4   0  -1    4.87    0.28 
   4   0   1    4.97    0.25 
  -4   0  -1    5.12    0.26 
   4   0   1    4.82    0.27 
  -4   0  -1    4.82    0.27 
  -4   0  -1    4.98    0.24 
  -5   0  -1    4.52    0.27 
   5   0   1    3.90    0.26 
   5   0   1    4.32    0.26 
   5   0   1    3.95    0.28 
  -5   0  -1    3.91    0.28 
  -5   0  -1    4.69    0.28 
  -5   0  -1    4.06    0.23 
   6   0   1    0.97    0.18 
  -6   0  -1    1.07    0.18 
  -6   0  -1    0.81    0.19 
  -6   0  -1    0.85    0.14 
   6   0   1    1.18    0.19 
   6   0   1    1.09    0.21 
  -7   0  -1   44.07    1.21 
   7   0   1   44.19    1.33 
   7   0   1   45.02    1.39 
   7   0   1   43.13    1.36 
  -7   0  -1   44.49    1.34 
   8   0   1   18.21    0.75 
   8   0   1   17.62    0.80 
   8   0   1   18.99    0.79 
  -8   0  -1   18.76    0.75 
   9   0   1    1.78    0.33 
   9   0   1    2.10    0.33 
  -9   0  -1    1.82    0.29 
   9   0   1    2.07    0.33 
 -10   0  -1    7.29    0.49 
  10   0   1    7.38    0.54 
  10   0   1    7.26    0.56 
  11   0   1    2.79    0.46 
 -11   0  -1    2.06    0.33 
  11   0   1    1.74    0.33 
  11  -1  -1    0.86    0.28 
  11  -1  -1    0.74    0.24 
  11   1  -1    0.79    0.24 
 -11   1   1    0.88    0.23 
  11   1  -1    1.21    0.32 
  10  -1  -1    1.58    0.32 
  10  -1  -1    2.10    0.37 
  10  -1  -1    1.26    0.28 
 -10   1   1    1.49    0.28 
  10   1  -1    2.19    0.38 
  10   1  -1    2.07    0.30 
   9  -1  -1    6.09    0.46 
   9  -1  -1    5.05    0.42 
   9  -1  -1    5.44    0.42 
  -9   1   1    5.78    0.42 
   9   1  -1    6.00    0.40 
   9   1  -1    5.55    0.59 
   8  -1  -1   13.89    0.64 
   8  -1  -1   12.99    0.64 
  -8  -1   1   13.39    0.70 
  -8   1   1   13.60    0.63 
   8   1  -1   13.41    0.68 
  -8   1   1   12.70    0.54 
   8   1  -1   13.01    0.58 
   7  -1  -1    1.97    0.27 
   7  -1  -1    2.07    0.28 
  -7  -1   1    1.75    0.31 
   7  -1  -1    2.09    0.29 
   7   1  -1    2.40    0.32 
  -7   1   1    2.36    0.27 
   7   1  -1    2.19    0.24 
  -7   1   1    2.49    0.29 
   6  -1  -1   29.81    0.95 
   6  -1  -1   28.02    0.92 
  -6  -1   1   28.65    0.99 
   6  -1  -1   27.62    0.94 
   6   1  -1   27.78    0.85 
   6   1  -1   29.36    0.97 
  -6   1   1   29.60    0.94 
   6   1  -1   27.17    0.83 
  -6   1   1   29.06    0.90 
  -5  -1   1   81.01    2.19 
   5  -1  -1   85.28    2.13 
   5  -1  -1   84.62    2.16 
   5  -1  -1   84.82    2.14 
   5  -1  -1   85.91    2.15 
   5   1  -1   79.60    2.04 
  -5   1   1   82.47    2.11 
  -5   1   1   84.35    2.14 
   5   1  -1   80.90    2.01 
   5   1  -1   82.46    2.16 
   4  -1  -1   64.56    1.69 
   4  -1  -1   66.58    1.69 
   4  -1  -1   66.83    1.70 
   4  -1  -1   66.60    1.72 
  -4  -1   1   62.17    1.73 
   4   1  -1   65.45    1.60 
  -4   1   1   67.08    1.70 
   4   1  -1   65.17    1.71 
  -4   1   1   66.11    1.69 
   4   1  -1   66.03    1.58 
   3  -1  -1   77.39    1.89 
   3  -1  -1   73.90    1.87 
  -3  -1   1   72.88    1.91 
   3  -1  -1   75.39    1.89 
   3  -1  -1   79.29    1.91 
  -3   1   1   76.43    1.89 
  -3   1   1   78.36    1.89 
   2  -1  -1  207.46    4.86 
   2  -1  -1  212.87    4.89 
   2  -1  -1  205.68    4.88 
   2  -1  -1  214.31    4.90 
  -2  -1   1  217.06    4.91 
  -2   1   1  214.10    4.89 
  -2   1   1  208.86    4.89 
   1  -1  -1   27.85    0.72 
   1  -1  -1   27.98    0.72 
   1  -1  -1   28.09    0.73 
  -1  -1   1   28.50    0.73 
  -1   1   1   27.88    0.73 
  -1   1   1   27.48    0.73 
   0  -1  -1   36.51    0.92 
   0  -1  -1   37.54    0.92 
   0  -1   1   36.77    0.92 
   0  -1  -1   37.23    0.94 
   0  -1   1   36.75    0.91 
   0  -1  -1   36.87    0.96 
   0  -1   1   38.21    0.91 
   0  -1  -1   38.35    0.93 
   0  -1   1   40.21    0.93 
   0   1   1   40.34    0.93 
   0   1  -1   35.67    0.92 
   0   1   1   37.62    0.92 
   0   1  -1   39.26    0.92 
   1  -1   1  223.22    5.07 
   1  -1   1  227.98    5.15 
  -1  -1  -1  222.71    5.17 
  -1  -1  -1  237.65    5.10 
   1  -1   1  218.90    5.15 
  -1  -1  -1  218.28    5.09 
  -1  -1  -1  224.80    5.16 
   1  -1   1  218.81    5.13 
  -1  -1  -1  225.68    5.10 
   1   1   1  231.88    5.09 
  -1   1  -1  215.22    5.15 
  -1   1  -1  222.69    5.15 
  -2  -1  -1  438.72    9.64 
   2  -1   1  426.70    9.73 
   2  -1   1  425.91    9.71 
   2  -1   1  422.28    9.62 
  -2  -1  -1  438.82    9.62 
  -2  -1  -1  418.33    9.58 
   2  -1   1  425.43    9.69 
  -2  -1  -1  409.57    9.71 
   2   1   1  428.85    9.60 
  -2   1  -1  414.42    9.69 
  -2   1  -1  419.12    9.69 
  -3  -1  -1  249.91    5.60 
   3  -1   1  243.31    5.67 
   3  -1   1  243.01    5.69 
   3  -1   1  243.96    5.69 
  -3  -1  -1  244.05    5.60 
  -3  -1  -1  234.98    5.71 
   3  -1   1  243.79    5.63 
  -3   1  -1  237.99    5.68 
   3   1   1  248.79    5.61 
   3   1   1  253.43    5.59 
  -3   1  -1  238.12    5.68 
   4  -1   1   87.09    2.20 
   4  -1   1   86.57    2.18 
   4  -1   1   85.59    2.20 
  -4  -1  -1   83.77    2.22 
  -4  -1  -1   85.35    2.10 
   4  -1   1   84.11    2.15 
  -4  -1  -1   87.70    2.10 
  -4   1  -1   89.36    2.20 
   4   1   1   87.22    2.12 
  -4   1  -1   86.37    2.18 
   4   1   1   85.60    2.09 
   5  -1   1   21.02    0.74 
   5  -1   1   21.15    0.75 
   5  -1   1   21.01    0.72 
   5  -1   1   20.76    0.71 
  -5  -1  -1   20.46    0.66 
  -5  -1  -1   20.55    0.77 
  -5   1  -1   21.32    0.73 
  -5   1  -1   21.50    0.75 
   5   1   1   21.66    0.67 
   5   1   1   20.22    0.68 
   6  -1   1   43.48    1.35 
  -6  -1  -1   46.39    1.26 
  -6  -1  -1   46.70    1.41 
   6  -1   1   44.78    1.32 
   6  -1   1   43.97    1.32 
   6   1   1   43.78    1.29 
   6   1   1   44.53    1.25 
  -6   1  -1   43.18    1.30 
  -6   1  -1   44.92    1.35 
   7  -1   1   10.35    0.54 
   7  -1   1    9.47    0.51 
  -7  -1  -1    9.95    0.45 
  -7  -1  -1    9.24    0.55 
   7  -1   1   10.24    0.52 
   7   1   1    9.24    0.45 
  -7   1  -1   10.15    0.53 
   7   1   1   10.17    0.50 
  -7   1  -1   10.12    0.48 
   7   1   1   11.11    0.57 
   8  -1   1    3.61    0.41 
   8  -1   1    4.02    0.45 
   8  -1   1    3.65    0.42 
  -8  -1  -1    3.38    0.28 
  -8  -1  -1    3.22    0.43 
   8   1   1    3.85    0.45 
  -8   1  -1    3.36    0.29 
  -8   1  -1    3.92    0.43 
   8   1   1    3.66    0.32 
  -9  -1  -1   22.45    0.83 
   9  -1   1   24.54    0.98 
   9  -1   1   22.96    0.94 
   9  -1   1   22.98    0.99 
  -9  -1  -1   22.27    1.02 
  -9   1  -1   22.40    0.93 
   9   1   1   23.26    1.01 
   9   1   1   22.02    0.90 
 -10  -1  -1    0.37    0.16 
  10  -1   1    0.72    0.24 
  10  -1   1    0.75    0.24 
  10  -1   1    0.80    0.25 
 -10   1  -1    0.36    0.19 
  10   1   1    0.73    0.26 
  10   1   1    0.41    0.19 
  11  -1   1    3.33    0.48 
  11  -1   1    3.01    0.46 
 -11  -1  -1    4.18    0.36 
 -11   1  -1    3.33    0.44 
  11   1   1    3.47    0.46 
  11   1   1    3.92    0.56 
  10  -2  -1    1.09    0.28 
  10  -2  -1    1.21    0.31 
  10  -2  -1    1.25    0.29 
  10   2  -1    1.22    0.31 
 -10   2   1    1.10    0.28 
  10   2  -1    0.96    0.19 
   9  -2  -1    5.64    0.48 
  -9  -2   1    5.85    0.51 
   9  -2  -1    6.72    0.49 
   9  -2  -1    6.51    0.47 
   9   2  -1    6.28    0.39 
  -9   2   1    6.69    0.49 
  -9   2   1    5.89    0.42 
   9   2  -1    5.90    0.50 
   8  -2  -1    4.36    0.47 
  -8  -2   1    4.57    0.52 
   8  -2  -1    4.81    0.38 
   8  -2  -1    3.70    0.43 
  -8   2   1    3.88    0.43 
   8   2  -1    4.43    0.50 
   8   2  -1    3.75    0.28 
  -8   2   1    3.77    0.33 
   7  -2  -1    0.58    0.18 
  -7  -2   1    0.40    0.21 
   7  -2  -1    0.66    0.19 
   7  -2  -1    0.61    0.18 
   7   2  -1    0.65    0.20 
  -7   2   1    0.33    0.16 
  -7   2   1    0.60    0.18 
   7   2  -1    0.71    0.13 
  -6  -2   1    7.29    0.47 
   6  -2  -1    7.69    0.41 
   6  -2  -1    7.39    0.42 
   6  -2  -1    8.09    0.46 
  -6   2   1    7.30    0.42 
   6   2  -1    7.88    0.45 
  -6   2   1    8.68    0.46 
   5  -2  -1   44.33    1.33 
  -5  -2   1   45.80    1.37 
   5  -2  -1   45.36    1.32 
   5  -2  -1   45.44    1.35 
   5  -2  -1   45.67    1.28 
  -5   2   1   44.21    1.32 
  -5   2   1   44.42    1.33 
   4  -2  -1  109.90    2.73 
   4  -2  -1  106.74    2.71 
   4  -2  -1  106.64    2.66 
  -4  -2   1  113.14    2.77 
  -4   2   1  106.07    2.73 
  -4   2   1  107.93    2.72 
   3  -2  -1   74.37    1.96 
   3  -2  -1   75.76    1.95 
   3  -2  -1   76.94    1.92 
  -3  -2   1   82.04    2.01 
  -3   2   1   76.59    1.97 
  -3   2   1   74.14    1.96 
   2  -2  -1   51.92    1.39 
   2  -2  -1   52.98    1.35 
   2  -2  -1   52.55    1.37 
   2  -2  -1   53.08    1.38 
  -2  -2   1   51.77    1.40 
  -2   2   1   53.23    1.39 
  -2   2   1   55.04    1.40 
   1  -2  -1   32.23    0.87 
   1  -2  -1   32.05    0.88 
  -1  -2   1   33.63    0.89 
   1  -2  -1   33.62    0.88 
   1   2  -1   30.99    0.80 
  -1   2   1   31.54    0.87 
  -1   2   1   31.82    0.88 
   1   2  -1   30.95    0.80 
   0  -2   1   36.93    0.91 
   0  -2  -1   37.78    0.95 
   0  -2  -1   37.94    1.03 
   0  -2  -1   36.41    0.98 
   0  -2   1   36.87    0.96 
   0  -2  -1   37.85    0.97 
   0  -2   1   35.02    0.97 
   0  -2  -1   37.12    0.96 
   0  -2   1   36.76    0.92 
   0  -2   1   36.95    0.96 
   0   2  -1   37.67    0.97 
   0   2  -1   36.81    0.96 
   0   2   1   38.34    0.97 
  -1  -2  -1  123.37    2.88 
   1  -2   1  121.74    2.95 
  -1  -2  -1  128.51    3.01 
   1  -2   1  122.47    2.92 
  -1  -2  -1  124.36    2.86 
   1  -2   1  121.40    2.95 
   1  -2   1  122.51    2.95 
  -1  -2  -1  122.88    2.88 
  -1  -2  -1  126.87    2.96 
   1  -2   1  122.94    2.85 
   1   2   1  125.76    2.88 
  -1   2  -1  121.51    2.95 
  -1   2  -1  122.00    2.95 
  -2  -2  -1   45.04    1.27 
   2  -2   1   47.54    1.24 
   2  -2   1   46.12    1.24 
   2  -2   1   45.63    1.13 
   2  -2   1   45.42    1.22 
  -2   2  -1   44.92    1.24 
  -2   2  -1   45.93    1.24 
   2   2   1   44.29    1.11 
   3  -2   1   93.44    2.26 
  -3  -2  -1   94.42    2.42 
   3  -2   1   94.33    2.39 
   3  -2   1   95.69    2.39 
   3  -2   1   94.92    2.39 
   3  -2   1   95.50    2.36 
  -3   2  -1   92.60    2.38 
  -3   2  -1   94.34    2.39 
   3   2   1   93.11    2.21 
   4  -2   1  141.97    3.55 
   4  -2   1  145.58    3.59 
  -4  -2  -1  147.21    3.63 
   4  -2   1  147.10    3.59 
   4  -2   1  143.92    3.59 
   4  -2   1  146.24    3.47 
  -4   2  -1  143.22    3.59 
   4   2   1  147.77    3.40 
  -4   2  -1  144.28    3.59 
   5  -2   1    7.92    0.44 
  -5  -2  -1    8.41    0.48 
   5  -2   1    7.88    0.45 
   5  -2   1    9.53    0.46 
   5  -2   1    8.77    0.40 
   5  -2   1    9.02    0.47 
  -5   2  -1    9.82    0.48 
   5   2   1    8.80    0.35 
  -5   2  -1    8.93    0.46 
   5   2   1    9.09    0.38 
   6  -2   1   76.08    2.14 
  -6  -2  -1   77.00    2.21 
   6  -2   1   79.45    2.08 
   6  -2   1   78.34    2.19 
   6   2   1   77.69    2.01 
  -6   2  -1   79.80    2.16 
  -6   2  -1   79.68    2.18 
   7  -2   1   35.87    1.20 
   7  -2   1   35.97    1.15 
  -7  -2  -1   34.91    1.27 
   7  -2   1   34.13    1.23 
  -7   2  -1   36.87    1.21 
  -7   2  -1   35.36    1.21 
   7   2   1   34.83    1.10 
   8  -2   1   19.41    0.86 
   8  -2   1   18.46    0.77 
  -8  -2  -1   17.02    0.87 
   8  -2   1   17.84    0.81 
   8   2   1   17.07    0.83 
  -8   2  -1   19.06    0.83 
   8   2   1   16.76    0.70 
  -8   2  -1   18.17    0.78 
   9  -2   1    2.49    0.38 
   9  -2   1    2.53    0.39 
   9  -2   1    3.34    0.41 
  -9  -2  -1    2.14    0.39 
  -9   2  -1    2.95    0.37 
   9   2   1    2.76    0.33 
   9   2   1    2.86    0.44 
  -9   2  -1    2.97    0.41 
  10  -2   1    8.62    0.58 
  10  -2   1    8.87    0.62 
 -10  -2  -1    9.14    0.69 
  10  -2   1    9.32    0.66 
 -10   2  -1    9.00    0.62 
  10   2   1    8.95    0.53 
  10   2   1    9.24    0.67 
 -10  -3   1    8.16    0.67 
  10  -3  -1    7.69    0.56 
  10  -3  -1    6.60    0.55 
 -10   3   1    6.86    0.53 
  10   3  -1    7.74    0.63 
 -10   3   1    7.55    0.59 
  -9  -3   1    3.61    0.52 
   9  -3  -1    4.20    0.50 
   9  -3  -1    4.41    0.48 
  -9   3   1    3.76    0.47 
  -9   3   1    3.40    0.46 
   9   3  -1    4.83    0.57 
  -8  -3   1    6.45    0.53 
   8  -3  -1    6.47    0.48 
   8  -3  -1    7.53    0.47 
  -8   3   1    6.44    0.47 
   8   3  -1    6.37    0.49 
  -8   3   1    6.17    0.48 
   7  -3  -1    4.02    0.33 
   7  -3  -1    4.14    0.37 
  -7  -3   1    3.64    0.46 
   7  -3  -1    3.37    0.39 
  -7   3   1    4.80    0.48 
   7   3  -1    3.86    0.45 
  -7   3   1    4.87    0.50 
   6  -3  -1    1.73    0.28 
   6  -3  -1    1.92    0.27 
  -6  -3   1    2.02    0.33 
  -6   3   1    1.93    0.31 
  -6   3   1    1.65    0.27 
   5  -3  -1    2.87    0.34 
   5  -3  -1    2.36    0.31 
   5  -3  -1    2.45    0.28 
  -5  -3   1    2.36    0.33 
  -5   3   1    3.03    0.33 
  -5   3   1    2.55    0.33 
   4  -3  -1   13.06    0.56 
   4  -3  -1   11.86    0.53 
   4  -3  -1   11.68    0.48 
  -4  -3   1   12.01    0.58 
  -4   3   1   13.09    0.56 
  -4   3   1   12.07    0.56 
  -3  -3   1   11.74    0.52 
   3  -3  -1   10.43    0.42 
   3  -3  -1   11.21    0.47 
   3  -3  -1   10.22    0.45 
   3  -3  -1    9.47    0.46 
  -3   3   1   10.36    0.46 
  -3   3   1   10.64    0.49 
  -2  -3   1   39.95    1.15 
   2  -3  -1   39.26    1.07 
   2  -3  -1   38.11    1.12 
   2  -3  -1   38.56    1.10 
   2   3  -1   37.39    0.97 
  -2   3   1   38.34    1.11 
  -2   3   1   37.60    1.13 
   1  -3  -1   22.50    0.72 
  -1  -3   1   22.89    0.74 
   1  -3  -1   22.86    0.69 
   1  -3  -1   22.75    0.70 
  -1  -3   1   21.21    0.64 
  -1   3   1   22.86    0.72 
  -1   3   1   22.69    0.71 
   1   3  -1   21.62    0.65 
   1   3  -1   21.77    0.65 
   0  -3   1    5.95    0.24 
   0  -3  -1    6.25    0.30 
   0  -3  -1    5.86    0.33 
   0  -3  -1    6.08    0.29 
   0  -3  -1    5.30    0.27 
   0  -3  -1    6.23    0.26 
   0  -3   1    5.23    0.29 
   0  -3   1    6.18    0.28 
   0  -3   1    5.78    0.24 
   0  -3   1    6.00    0.28 
   0   3  -1    5.50    0.27 
   0   3  -1    5.72    0.28 
   0   3   1    5.53    0.28 
  -1  -3  -1    1.32    0.16 
  -1  -3  -1    1.21    0.10 
   1  -3   1    1.26    0.15 
   1  -3   1    1.33    0.16 
  -1  -3  -1    1.57    0.20 
   1  -3   1    1.27    0.18 
  -1  -3  -1    1.69    0.24 
  -1  -3  -1    1.19    0.14 
   1  -3   1    1.29    0.19 
   1  -3   1    1.23    0.10 
   1   3   1    1.32    0.15 
  -1   3  -1    1.16    0.17 
  -1   3  -1    1.03    0.16 
  -2  -3  -1   38.31    1.17 
   2  -3   1   38.28    1.11 
   2  -3   1   38.18    1.12 
   2  -3   1   37.83    1.08 
   2  -3   1   36.88    0.98 
  -2   3  -1   38.32    1.11 
  -2   3  -1   37.58    1.13 
   2   3   1   36.66    0.99 
   3  -3   1   42.76    1.29 
   3  -3   1   43.12    1.30 
   3  -3   1   44.54    1.27 
  -3  -3  -1   47.13    1.37 
   3  -3   1   43.78    1.15 
  -3   3  -1   43.81    1.31 
  -3   3  -1   43.76    1.29 
   3   3   1   42.63    1.12 
   4  -3   1    0.87    0.14 
  -4  -3  -1    0.64    0.18 
   4  -3   1    0.39    0.14 
   4  -3   1    0.65    0.16 
   4  -3   1    0.78    0.20 
  -4   3  -1    0.53    0.16 
  -4   3  -1    0.66    0.17 
   5  -3   1  103.03    2.68 
   5  -3   1   96.60    2.65 
   5  -3   1   94.50    2.47 
  -5  -3  -1   98.99    2.73 
  -5   3  -1  104.62    2.67 
  -5   3  -1   97.14    2.67 
   6  -3   1   41.51    1.38 
   6  -3   1   42.99    1.54 
   6  -3   1   43.76    1.26 
  -6  -3  -1   41.59    1.45 
   6   3   1   43.41    1.21 
  -6   3  -1   43.29    1.40 
  -6   3  -1   42.49    1.41 
  -7  -3  -1   32.04    1.24 
   7  -3   1   31.40    1.17 
   7  -3   1   32.43    1.05 
   7   3   1   31.58    0.99 
  -7   3  -1   31.64    1.18 
  -7   3  -1   31.86    1.18 
  -8  -3  -1    5.23    0.61 
   8  -3   1    5.80    0.41 
   8  -3   1    4.44    0.50 
  -8   3  -1    5.04    0.54 
  -8   3  -1    5.28    0.45 
   8   3   1    5.49    0.35 
   9  -3   1   13.07    0.74 
  -9  -3  -1   12.72    0.81 
   9   3   1   12.71    0.77 
  -9   3  -1   12.76    0.71 
   9   3   1   11.69    0.58 
  -9   3  -1   12.38    0.74 
 -10  -3  -1    1.73    0.42 
  10  -3   1    1.24    0.32 
  10   3   1    2.01    0.29 
 -10   3  -1    1.94    0.37 
  10   3   1    1.69    0.38 
 -10   3  -1    1.88    0.38 
  -9  -4   1   13.20    0.84 
   9  -4  -1   12.94    0.76 
  -9   4   1   13.28    0.77 
   9   4  -1   12.29    0.76 
   8  -4  -1    3.94    0.48 
  -8  -4   1    3.64    0.52 
   8   4  -1    4.30    0.54 
  -8   4   1    3.51    0.47 
   7  -4  -1   11.81    0.59 
   7  -4  -1   11.46    0.65 
  -7  -4   1   12.55    0.73 
  -7   4   1   11.93    0.69 
   6  -4  -1   -0.06    0.08 
  -6  -4   1   -0.05    0.14 
   6  -4  -1    0.06    0.12 
  -6   4   1   -0.18    0.11 
   5  -4  -1   12.94    0.64 
   5  -4  -1   11.74    0.54 
   5  -4  -1   12.38    0.61 
   5  -4  -1   12.18    0.60 
  -5  -4   1   12.77    0.67 
  -5   4   1   12.46    0.65 
   4  -4  -1    9.46    0.45 
   4  -4  -1    9.39    0.51 
  -4  -4   1   10.60    0.57 
   4  -4  -1   10.43    0.55 
   4  -4  -1    9.91    0.51 
  -4   4   1    8.94    0.53 
  -3  -4   1   39.58    1.27 
   3  -4  -1   39.20    1.24 
   3  -4  -1   40.58    1.21 
   3  -4  -1   38.67    1.15 
  -3   4   1   37.65    1.25 
   2  -4  -1   32.52    0.98 
  -2  -4   1   32.46    1.06 
   2  -4  -1   31.15    1.01 
   2  -4  -1   32.27    0.97 
   2   4  -1   29.63    0.89 
  -2   4   1   30.25    1.03 
   1  -4  -1   32.94    0.98 
  -1  -4   1   33.52    0.97 
   1  -4  -1   33.92    1.01 
  -1  -4   1   32.91    0.96 
   1  -4  -1   33.12    1.05 
  -1  -4   1   33.49    1.08 
   1  -4  -1   34.35    1.12 
   1   4  -1   34.18    0.99 
  -1   4   1   35.51    1.07 
   0  -4   1   16.90    0.62 
   0  -4   1   16.85    0.53 
   0  -4  -1   17.35    0.72 
   0  -4   1   16.51    0.66 
   0  -4  -1   17.29    0.56 
   0  -4  -1   16.60    0.62 
   0  -4  -1   17.96    0.63 
   0   4   1   17.89    0.64 
   0   4  -1   17.83    0.64 
   1  -4   1    1.69    0.24 
  -1  -4  -1    1.92    0.30 
  -1  -4  -1    1.54    0.19 
  -1  -4  -1    1.36    0.11 
   1  -4   1    1.58    0.17 
  -1  -4  -1    1.82    0.23 
   1  -4   1    1.99    0.26 
   1  -4   1    1.64    0.19 
   1   4   1    1.81    0.21 
  -1   4  -1    1.86    0.24 
  -2  -4  -1  115.52    3.00 
   2  -4   1  113.14    2.84 
   2  -4   1  116.24    2.86 
   2  -4   1  111.21    2.91 
   2  -4   1  109.99    2.75 
  -2   4  -1  117.71    2.95 
   2   4   1  112.47    2.77 
   3  -4   1    0.76    0.18 
  -3  -4  -1    0.72    0.20 
   3  -4   1    0.43    0.17 
  -3   4  -1    0.47    0.17 
   4  -4   1   53.30    1.58 
  -4  -4  -1   51.63    1.67 
   4  -4   1   53.22    1.62 
  -4   4  -1   52.69    1.64 
   5  -4   1    4.51    0.48 
  -5  -4  -1    4.30    0.50 
   5  -4   1    3.84    0.34 
  -5   4  -1    3.90    0.45 
   6  -4   1   16.53    0.76 
  -6  -4  -1   15.67    0.82 
  -6   4  -1   15.72    0.79 
   7  -4   1    4.73    0.42 
  -7  -4  -1    4.63    0.55 
  -7   4  -1    5.44    0.47 
   8  -4   1    7.51    0.55 
  -8  -4  -1    6.79    0.73 
  -8   4  -1    7.14    0.57 
  -9  -4  -1    0.75    0.33 
   9  -4   1    0.43    0.22 
   9   4   1    0.92    0.33 
  -9   4  -1    0.59    0.26 
  -8  -5   1    8.04    0.66 
   8  -5  -1    7.69    0.60 
   8  -5  -1    8.57    0.61 
   8   5  -1    8.40    0.62 
  -8   5   1    7.46    0.61 
   7  -5  -1    4.45    0.51 
  -7  -5   1    4.56    0.58 
   7  -5  -1    4.42    0.51 
  -7   5   1    4.66    0.56 
  -6  -5   1   18.56    0.93 
   6  -5  -1   19.01    0.86 
  -6   5   1   18.78    0.91 
  -5  -5   1    2.75    0.41 
   5  -5  -1    2.36    0.35 
   5  -5  -1    3.40    0.46 
  -5   5   1    2.32    0.37 
   4  -5  -1   27.12    1.04 
  -4  -5   1   27.43    1.07 
   4  -5  -1   25.83    0.98 
  -4   5   1   25.35    1.04 
   3  -5  -1   16.86    0.70 
   3  -5  -1   15.88    0.74 
  -3  -5   1   17.26    0.78 
  -3   5   1   17.21    0.77 
   2  -5  -1   39.17    1.29 
  -2  -5   1   38.69    1.32 
   2  -5  -1   40.26    1.34 
   2  -5  -1   39.59    1.21 
  -2   5   1   40.14    1.30 
  -1  -5   1   22.02    0.86 
   1  -5  -1   21.16    0.88 
   1  -5  -1   21.64    0.82 
  -1  -5   1   21.68    0.74 
   1  -5  -1   21.04    0.79 
   1  -5  -1   21.81    0.74 
  -1   5   1   22.42    0.84 
   0  -5   1   19.66    0.74 
   0  -5  -1   20.05    0.74 
   0  -5   1   20.11    0.81 
   0  -5  -1   20.32    0.75 
   0  -5  -1   20.31    0.86 
   0   5   1   20.20    0.77 
  -1  -5  -1   41.90    1.27 
   1  -5   1   43.13    1.39 
  -1  -5  -1   45.32    1.47 
   1  -5   1   44.33    1.24 
   1  -5   1   44.94    1.36 
   1   5   1   47.21    1.33 
  -1   5  -1   43.19    1.38 
  -2  -5  -1    8.74    0.55 
   2  -5   1    8.43    0.43 
   2  -5   1    8.29    0.49 
   2  -5   1    8.45    0.48 
  -2   5  -1    7.95    0.49 
   3  -5   1   37.40    1.28 
   3  -5   1   38.23    1.25 
  -3  -5  -1   37.89    1.36 
   3  -5   1   36.88    1.20 
  -3   5  -1   37.85    1.31 
   4  -5   1    1.58    0.27 
   4  -5   1    2.04    0.34 
   4  -5   1    2.02    0.30 
  -4  -5  -1    1.63    0.32 
  -4   5  -1    1.68    0.32 
   5  -5   1   16.07    0.76 
  -5  -5  -1   18.44    0.91 
   5  -5   1   16.70    0.77 
   5  -5   1   16.86    0.83 
  -5   5  -1   18.19    0.87 
   6  -5   1    0.21    0.15 
  -6  -5  -1    0.27    0.21 
   6  -5   1    0.29    0.16 
  -6   5  -1    0.12    0.16 
   7  -5   1    3.93    0.48 
  -7  -5  -1    4.62    0.61 
  -7   5  -1    3.16    0.45 
   8  -5   1    1.20    0.30 
  -8  -5  -1    1.35    0.37 
  -8   5  -1    0.74    0.27 
  -6  -6   1    0.42    0.28 
   6  -6  -1    0.44    0.20 
  -6   6   1    0.02    0.19 
   5  -6  -1   11.73    0.66 
  -5  -6   1   12.62    0.78 
  -5   6   1   11.29    0.72 
   4  -6  -1    1.64    0.29 
   4  -6  -1    1.66    0.34 
  -4  -6   1    2.16    0.38 
   4  -6  -1    2.11    0.39 
  -4   6   1    1.20    0.31 
  -3  -6   1    3.95    0.50 
   3  -6  -1    3.76    0.33 
   3  -6  -1    3.49    0.45 
   3  -6  -1    3.53    0.48 
  -3   6   1    3.54    0.46 
  -2  -6   1    6.22    0.48 
   2  -6  -1    5.43    0.47 
   2  -6  -1    5.96    0.46 
  -2   6   1    5.57    0.47 
   1  -6  -1   18.32    0.76 
  -1  -6   1   16.90    0.80 
  -1  -6   1   15.33    0.64 
   1  -6  -1   16.18    0.82 
  -1   6   1   15.28    0.74 
   0  -6  -1    6.03    0.49 
   0  -6   1    5.72    0.41 
   0  -6  -1    5.99    0.41 
   0  -6   1    6.58    0.48 
   1  -6   1   18.03    0.78 
  -1  -6  -1   19.48    0.90 
  -1  -6  -1   16.80    0.69 
   1  -6   1   19.13    0.88 
   2  -6   1    8.78    0.55 
  -2  -6  -1    9.09    0.62 
  -2   6  -1    9.65    0.60 
   3  -6   1   13.22    0.63 
  -3  -6  -1   14.70    0.80 
   3  -6   1   13.64    0.72 
  -3   6  -1   13.96    0.76 
   4  -6   1    4.80    0.55 
   4  -6   1    5.11    0.41 
  -4  -6  -1    4.96    0.59 
  -4   6  -1    3.91    0.50 
   5  -6   1    1.27    0.28 
  -5  -6  -1    1.08    0.34 
   5  -6   1    1.13    0.33 
  -5   6  -1    1.04    0.30 
   6  -6   1    5.75    0.49 
  -6  -6  -1    6.53    0.73 
  -6   6  -1    6.51    0.59 
   4  -7  -1    2.55    0.42 
  -4  -7   1    2.62    0.47 
  -4   7   1    2.91    0.44 
   3  -7  -1    0.53    0.25 
  -3   7   1    0.56    0.23 
   2  -7  -1    2.29    0.36 
  -2   7   1    3.37    0.45 
   1  -7  -1    0.38    0.22 
  -1  -7   1    0.47    0.18 
   1  -7  -1    0.59    0.23 
   0  -7  -1    7.01    0.48 
   0  -7   1    7.60    0.49 
   0  -7  -1    7.22    0.59 
  -1  -7  -1    7.95    0.63 
   1  -7   1    7.65    0.52 
  -2  -7  -1   17.48    0.95 
   3  -7   1    6.32    0.55 
  -3  -7  -1    5.71    0.67 
  -3   7  -1    4.47    0.54 
   4  -7   1    1.85    0.36 
  -4  -7  -1    2.36    0.47 
  -4   7  -1    2.35    0.43 
 -11   0   2    0.83    0.21 
  11   0  -2    0.87    0.28 
  10   0  -2    1.33    0.28 
  10   0  -2    1.57    0.35 
 -10   0   2    1.50    0.26 
   9   0  -2    5.80    0.45 
  -9   0   2    4.33    0.34 
   9   0  -2    4.91    0.39 
   8   0  -2    9.30    0.51 
   8   0  -2   10.06    0.56 
  -8   0   2   10.71    0.49 
   8   0  -2   10.95    0.51 
   7   0  -2   -0.12    0.08 
   7   0  -2   -0.04    0.11 
   7   0  -2    0.18    0.11 
  -7   0   2   -0.05    0.07 
  -6   0   2    1.41    0.12 
   6   0  -2    1.46    0.19 
  -6   0   2    1.65    0.19 
   6   0  -2    2.13    0.27 
   6   0  -2    1.98    0.21 
  -5   0   2   96.53    2.30 
  -5   0   2   97.81    2.37 
   5   0  -2   95.34    2.45 
  -5   0   2   97.74    2.40 
   5   0  -2   97.06    2.37 
   5   0  -2   95.67    2.40 
  -4   0   2    2.55    0.17 
  -4   0   2    2.27    0.13 
   4   0  -2    2.26    0.16 
  -4   0   2    2.49    0.15 
   4   0  -2    2.14    0.18 
   4   0  -2    2.31    0.15 
  -3   0   2    0.25    0.05 
   3   0  -2    0.19    0.05 
   3   0  -2    0.22    0.06 
  -3   0   2    0.13    0.05 
   3   0  -2    0.16    0.06 
  -3   0   2    0.17    0.05 
  -2   0   2   41.47    0.99 
  -2   0   2   38.69    0.98 
   2   0  -2   40.06    1.02 
  -2   0   2   39.56    0.97 
   2   0  -2   40.45    0.99 
  -1   0   2  240.93    5.53 
   1   0  -2  243.03    5.51 
   1   0  -2  246.21    5.56 
  -1   0   2  236.02    5.51 
   1   0  -2  245.46    5.52 
   0   0  -2   21.96    0.57 
   0   0   2   22.25    0.58 
   0   0  -2   22.14    0.58 
   0   0  -2   22.84    0.57 
   0   0   2   20.93    0.57 
  -1   0  -2  116.27    2.79 
   1   0   2  118.63    2.79 
   1   0   2  117.87    2.78 
  -1   0  -2  122.38    2.78 
  -1   0  -2  119.55    2.77 
   1   0   2  121.92    2.79 
  -1   0  -2  116.06    2.75 
   2   0   2  107.04    2.52 
  -2   0  -2  101.59    2.49 
   2   0   2  106.36    2.51 
  -2   0  -2  105.16    2.51 
   2   0   2  104.10    2.50 
  -2   0  -2  105.76    2.50 
  -3   0  -2    1.96    0.16 
  -3   0  -2    2.40    0.17 
  -3   0  -2    2.53    0.17 
   3   0   2    2.27    0.17 
   3   0   2    2.66    0.19 
   3   0   2    2.29    0.18 
  -4   0  -2   22.06    0.74 
  -4   0  -2   23.24    0.73 
   4   0   2   22.68    0.74 
   4   0   2   23.43    0.74 
  -4   0  -2   23.05    0.73 
   4   0   2   21.73    0.71 
  -4   0  -2   23.33    0.70 
  -5   0  -2   11.63    0.45 
  -5   0  -2   11.36    0.50 
  -5   0  -2   11.60    0.49 
   5   0   2   11.36    0.48 
   5   0   2   11.96    0.51 
  -5   0  -2   10.48    0.51 
   6   0   2   24.65    0.83 
   6   0   2   24.03    0.86 
  -6   0  -2   23.78    0.84 
  -6   0  -2   24.17    0.87 
  -6   0  -2   24.01    0.78 
  -7   0  -2    4.40    0.37 
  -7   0  -2    4.51    0.34 
  -7   0  -2    4.56    0.29 
   7   0   2    4.64    0.36 
   7   0   2    5.37    0.36 
   7   0   2    4.46    0.36 
   8   0   2    2.45    0.36 
   8   0   2    2.37    0.33 
  -8   0  -2    3.81    0.41 
   8   0   2    3.20    0.39 
  -9   0  -2    3.11    0.38 
   9   0   2    3.56    0.44 
   9   0   2    3.30    0.42 
   9   0   2    3.10    0.43 
  10   0   2   21.82    1.00 
 -10   0  -2   22.47    0.94 
  10   0   2   23.06    1.04 
  11  -1  -2    3.31    0.49 
  11   1  -2    3.21    0.49 
 -11   1   2    2.89    0.41 
  11   1  -2    3.14    0.41 
  10  -1  -2    2.17    0.40 
  10  -1  -2    1.65    0.32 
  10  -1  -2    1.49    0.31 
 -10   1   2    1.63    0.30 
  10   1  -2    1.65    0.36 
  10   1  -2    1.06    0.23 
   9  -1  -2    0.80    0.23 
   9  -1  -2    0.65    0.20 
   9  -1  -2    0.48    0.19 
   9   1  -2    1.05    0.21 
  -9   1   2    1.21    0.24 
   9   1  -2    1.17    0.28 
   8  -1  -2    0.23    0.13 
   8  -1  -2    0.25    0.15 
   8  -1  -2    0.31    0.14 
   8   1  -2    0.33    0.17 
  -8   1   2    0.51    0.14 
   8   1  -2    0.17    0.11 
  -8   1   2    0.16    0.12 
   7  -1  -2   25.83    0.93 
  -7  -1   2   26.68    1.00 
   7  -1  -2   26.13    0.91 
   7  -1  -2   25.73    0.92 
  -7   1   2   26.55    0.85 
   7   1  -2   25.64    0.95 
  -7   1   2   26.24    0.90 
   7   1  -2   25.61    0.83 
   6  -1  -2   10.15    0.48 
  -6  -1   2   10.26    0.53 
   6  -1  -2   10.13    0.48 
   6  -1  -2   10.30    0.47 
   6   1  -2   10.47    0.39 
   6   1  -2   10.51    0.41 
  -6   1   2   10.66    0.45 
  -6   1   2   10.70    0.47 
   6   1  -2    9.24    0.48 
  -5  -1   2   36.58    1.10 
   5  -1  -2   35.91    1.05 
   5  -1  -2   36.04    1.06 
   5  -1  -2   36.45    1.04 
   5  -1  -2   34.03    1.03 
   5   1  -2   33.53    1.05 
  -5   1   2   35.01    1.01 
  -5   1   2   33.91    1.02 
   5   1  -2   34.40    0.94 
   5   1  -2   33.76    0.92 
   4  -1  -2   71.39    1.83 
   4  -1  -2   71.18    1.85 
   4  -1  -2   74.68    1.84 
  -4  -1   2   70.91    1.87 
   4  -1  -2   73.46    1.83 
   4   1  -2   71.34    1.70 
  -4   1   2   70.98    1.82 
  -4   1   2   72.13    1.82 
   4   1  -2   72.75    1.84 
   4   1  -2   68.19    1.72 
   3  -1  -2   52.23    1.32 
   3  -1  -2   52.74    1.32 
   3  -1  -2   50.28    1.31 
  -3  -1   2   50.02    1.34 
  -3   1   2   50.19    1.32 
  -3   1   2   50.82    1.32 
   3   1  -2   49.05    1.31 
   2  -1  -2  106.79    2.55 
   2  -1  -2  103.92    2.53 
   2  -1  -2  109.78    2.55 
  -2  -1   2  109.91    2.54 
  -2   1   2  104.53    2.53 
  -2   1   2  105.67    2.54 
   2   1  -2  104.71    2.51 
   1  -1  -2    3.36    0.17 
   1  -1  -2    3.41    0.17 
  -1  -1   2    4.13    0.16 
   1  -1  -2    3.09    0.16 
   1   1  -2    3.42    0.13 
   1   1  -2    3.40    0.12 
  -1   1   2    3.56    0.17 
  -1   1   2    3.37    0.16 
   1   1  -2    3.89    0.14 
   0  -1   2  215.78    4.83 
   0  -1  -2  220.33    4.83 
   0  -1  -2  205.03    4.83 
   0  -1   2  192.41    4.75 
   0  -1   2  196.75    4.82 
   0  -1   2  212.89    4.80 
   0   1  -2  222.10    4.87 
   0   1   2  213.85    4.83 
   0   1  -2  205.25    4.83 
   0   1   2  219.19    4.83 
  -1  -1  -2  248.48    5.80 
  -1  -1  -2  245.08    5.85 
   1  -1   2  247.95    5.84 
   1  -1   2  247.39    5.81 
  -1  -1  -2  261.53    5.79 
   1  -1   2  246.93    5.84 
  -1  -1  -2  252.78    5.80 
  -1  -1  -2  252.55    5.85 
  -1   1  -2  241.17    5.83 
   1   1   2  292.38    5.80 
  -1   1  -2  250.61    5.83 
   2  -1   2  109.62    2.73 
  -2  -1  -2  120.90    2.68 
   2  -1   2  108.12    2.70 
  -2  -1  -2  120.88    2.68 
  -2  -1  -2  111.74    2.65 
   2  -1   2  111.48    2.73 
  -2  -1  -2  113.13    2.74 
  -2   1  -2  110.43    2.72 
  -2   1  -2  106.78    2.72 
   2   1   2  115.58    2.66 
   3  -1   2   88.59    2.26 
  -3  -1  -2   87.42    2.25 
   3  -1   2   87.81    2.17 
   3  -1   2   88.66    2.22 
  -3  -1  -2   85.79    2.13 
  -3  -1  -2   91.00    2.18 
   3  -1   2   91.82    2.26 
  -3  -1  -2   98.29    2.19 
   3   1   2   90.27    2.20 
  -3   1  -2   90.40    2.25 
  -3   1  -2   86.00    2.24 
   3   1   2   89.83    2.17 
   4  -1   2   81.34    2.04 
   4  -1   2   79.01    2.07 
   4  -1   2   76.97    1.99 
   4  -1   2   82.80    2.07 
  -4  -1  -2   75.63    2.07 
  -4  -1  -2   79.08    1.91 
  -4  -1  -2   81.56    1.99 
  -4  -1  -2   81.51    1.98 
  -4   1  -2   78.32    2.06 
   4   1   2   77.28    2.00 
  -4   1  -2   79.36    2.05 
   4   1   2   78.02    1.97 
  -5  -1  -2    6.84    0.34 
  -5  -1  -2    7.10    0.34 
   5  -1   2    7.13    0.40 
   5  -1   2    6.09    0.38 
   5  -1   2    6.64    0.34 
  -5  -1  -2    6.32    0.26 
   5  -1   2    7.01    0.37 
  -5  -1  -2    6.64    0.39 
   5   1   2    6.49    0.35 
  -5   1  -2    6.85    0.37 
  -5   1  -2    6.69    0.38 
   5   1   2    6.16    0.32 
  -6  -1  -2    4.09    0.28 
   6  -1   2    4.18    0.32 
   6  -1   2    4.38    0.34 
   6  -1   2    4.21    0.30 
  -6  -1  -2    3.69    0.32 
  -6   1  -2    4.09    0.30 
  -6   1  -2    4.17    0.32 
   6   1   2    4.52    0.31 
   6   1   2    4.12    0.29 
   7  -1   2   40.70    1.32 
  -7  -1  -2   39.08    1.19 
   7  -1   2   39.17    1.25 
  -7  -1  -2   38.44    1.32 
   7  -1   2   39.91    1.27 
   7   1   2   38.28    1.24 
  -7   1  -2   38.08    1.28 
  -7   1  -2   38.57    1.22 
   7   1   2   38.63    1.21 
  -8  -1  -2   13.66    0.62 
   8  -1   2   14.08    0.68 
   8  -1   2   14.39    0.71 
  -8  -1  -2   13.80    0.73 
   8  -1   2   14.28    0.69 
  -8   1  -2   14.27    0.70 
   8   1   2   13.47    0.66 
  -8   1  -2   16.05    0.66 
   8   1   2   15.74    0.76 
   9  -1   2    8.31    0.56 
   9  -1   2    7.53    0.53 
   9  -1   2    7.48    0.52 
  -9  -1  -2    8.16    0.47 
  -9  -1  -2    7.46    0.57 
   9   1   2    8.37    0.57 
   9   1   2    7.29    0.50 
  -9   1  -2    7.89    0.53 
  10  -1   2   15.64    0.81 
  10  -1   2   15.60    0.81 
  10  -1   2   16.32    0.87 
 -10  -1  -2   15.15    0.70 
  10   1   2   16.10    0.80 
 -10   1  -2   17.06    0.83 
  10   1   2   16.71    0.89 
  10  -2  -2    0.26    0.18 
  10  -2  -2    0.25    0.19 
  10   2  -2    0.36    0.14 
 -10   2   2    0.14    0.17 
  10   2  -2    0.39    0.22 
   9  -2  -2    0.65    0.22 
   9  -2  -2    0.12    0.15 
  -9  -2   2    0.46    0.22 
  -9   2   2    0.19    0.16 
   9   2  -2    0.12    0.11 
   9   2  -2    0.47    0.20 
  -9   2   2    0.15    0.16 
   8  -2  -2    6.57    0.44 
   8  -2  -2    6.36    0.43 
  -8  -2   2    6.09    0.49 
  -8   2   2    5.86    0.43 
   8   2  -2    5.64    0.33 
   8   2  -2    6.28    0.47 
  -8   2   2    6.83    0.42 
   7  -2  -2    2.00    0.30 
   7  -2  -2    1.60    0.26 
  -7  -2   2    1.84    0.31 
   7  -2  -2    1.30    0.24 
   7   2  -2    1.35    0.17 
  -7   2   2    1.98    0.28 
   7   2  -2    1.61    0.27 
  -7   2   2    1.25    0.23 
   6  -2  -2   14.72    0.61 
   6  -2  -2   15.62    0.64 
  -6  -2   2   15.32    0.69 
  -6   2   2   15.14    0.63 
  -6   2   2   15.56    0.63 
   6   2  -2   14.88    0.64 
   5  -2  -2   10.07    0.46 
  -5  -2   2   10.68    0.51 
   5  -2  -2   10.11    0.47 
   5  -2  -2   10.46    0.49 
  -5   2   2   10.07    0.47 
  -5   2   2    9.77    0.47 
   5   2  -2   10.85    0.48 
   4  -2  -2    0.98    0.17 
   4  -2  -2    1.46    0.19 
   4  -2  -2    1.35    0.20 
  -4  -2   2    1.32    0.20 
  -4   2   2    1.48    0.20 
  -4   2   2    0.90    0.16 
   4   2  -2    1.46    0.20 
   3  -2  -2   31.51    0.94 
   3  -2  -2   33.02    0.95 
  -3  -2   2   36.07    0.99 
   3  -2  -2   32.42    0.96 
   3  -2  -2   33.42    0.96 
  -3   2   2   30.89    0.96 
  -3   2   2   31.37    0.95 
   2  -2  -2   33.24    0.96 
   2  -2  -2   35.11    0.98 
   2  -2  -2   34.91    0.96 
  -2  -2   2   35.39    0.97 
  -2   2   2   34.12    0.98 
  -2   2   2   33.98    0.96 
   1  -2  -2  242.08    5.67 
   1  -2  -2  240.94    5.68 
   1  -2  -2  246.58    5.67 
  -1  -2   2  245.77    5.64 
   1   2  -2  248.69    5.59 
   1   2  -2  251.50    5.60 
  -1   2   2  241.40    5.66 
  -1   2   2  238.44    5.67 
   0  -2  -2   18.09    0.54 
   0  -2  -2   17.05    0.57 
   0  -2  -2   18.10    0.59 
   0  -2   2   17.27    0.54 
   0  -2   2   17.80    0.54 
   0  -2  -2   17.93    0.60 
   0  -2   2   17.61    0.52 
   0  -2  -2   17.35    0.54 
   0  -2   2   17.12    0.50 
   0   2  -2   19.46    0.55 
   0   2  -2   18.49    0.55 
   0   2   2   18.57    0.55 
   0   2   2   17.88    0.53 
  -1  -2  -2   12.04    0.45 
   1  -2   2   11.84    0.43 
  -1  -2  -2   10.81    0.45 
  -1  -2  -2   12.15    0.38 
  -1  -2  -2   11.52    0.38 
  -1  -2  -2   11.43    0.38 
   1  -2   2   11.51    0.40 
   1  -2   2   11.88    0.44 
   1   2   2   12.14    0.39 
  -1   2  -2   11.41    0.43 
  -1   2  -2   11.74    0.42 
   2  -2   2   41.32    1.13 
   2  -2   2   39.47    1.10 
  -2  -2  -2   38.47    1.16 
  -2  -2  -2   42.19    1.04 
   2  -2   2   40.11    1.13 
  -2  -2  -2   39.55    1.04 
  -2  -2  -2   39.43    1.00 
   2  -2   2   39.94    0.98 
  -2   2  -2   40.79    1.13 
   2   2   2   40.92    1.03 
  -2   2  -2   40.25    1.14 
   3  -2   2   34.46    1.01 
  -3  -2  -2   36.08    0.94 
   3  -2   2   35.07    0.91 
   3  -2   2   34.52    1.04 
   3  -2   2   34.06    1.03 
  -3  -2  -2   35.46    1.08 
  -3   2  -2   32.85    1.03 
  -3   2  -2   31.05    1.02 
   3   2   2   34.80    0.92 
   4  -2   2    3.95    0.22 
   4  -2   2    3.51    0.27 
  -4  -2  -2    3.48    0.28 
   4  -2   2    3.95    0.27 
   4  -2   2    3.70    0.29 
  -4   2  -2    3.65    0.28 
   4   2   2    3.32    0.21 
  -4   2  -2    3.50    0.28 
   5  -2   2   26.48    0.84 
   5  -2   2   27.39    0.93 
  -5  -2  -2   28.43    1.00 
   5  -2   2   26.22    0.94 
   5  -2   2   26.58    0.95 
  -5   2  -2   28.12    0.95 
   5   2   2   26.63    0.82 
  -5   2  -2   27.39    0.95 
   5   2   2   25.68    0.85 
   6  -2   2   76.84    2.13 
   6  -2   2   78.32    2.19 
  -6  -2  -2   78.68    2.22 
   6  -2   2   76.36    2.04 
  -6   2  -2   75.37    2.16 
  -6   2  -2   77.47    2.18 
   6   2   2   76.82    2.04 
   7  -2   2    4.73    0.34 
  -7  -2  -2    4.41    0.50 
   7  -2   2    4.14    0.36 
   7  -2   2    3.50    0.41 
  -7   2  -2    4.45    0.37 
   7   2   2    4.30    0.33 
  -7   2  -2    4.44    0.39 
  -8  -2  -2   24.82    1.08 
   8  -2   2   25.97    1.07 
   8  -2   2   24.63    0.95 
   8  -2   2   25.94    1.02 
   8   2   2   24.91    0.94 
  -8   2  -2   24.80    0.99 
  -8   2  -2   27.64    1.07 
   9  -2   2   12.85    0.74 
   9  -2   2   13.12    0.67 
  -9  -2  -2   12.28    0.76 
   9  -2   2   11.44    0.67 
  -9   2  -2   12.03    0.65 
  -9   2  -2   12.67    0.72 
   9   2   2   12.09    0.63 
   9   2   2   12.90    0.75 
  10  -2   2    6.24    0.56 
  10  -2   2    7.64    0.55 
 -10  -2  -2    7.61    0.64 
  10  -2   2    7.08    0.57 
  10   2   2    7.64    0.61 
  10   2   2    6.79    0.50 
 -10   2  -2    5.64    0.60 
 -10  -3   2    2.49    0.45 
  10  -3  -2    2.03    0.37 
  10  -3  -2    2.39    0.40 
 -10   3   2    2.25    0.40 
 -10   3   2    2.59    0.40 
  10   3  -2    1.87    0.37 
   9  -3  -2    3.50    0.47 
  -9  -3   2    4.26    0.55 
   9  -3  -2    4.31    0.49 
  -9   3   2    3.76    0.46 
   9   3  -2    2.38    0.41 
  -9   3   2    2.97    0.41 
   8  -3  -2    0.74    0.21 
   8  -3  -2    0.42    0.18 
  -8  -3   2    0.44    0.23 
   8   3  -2    0.83    0.25 
  -8   3   2    0.94    0.24 
  -8   3   2    0.35    0.19 
   7  -3  -2   29.43    1.05 
   7  -3  -2   30.11    1.10 
  -7  -3   2   28.60    1.15 
  -7   3   2   29.31    1.08 
   7   3  -2   30.97    1.10 
  -7   3   2   29.35    1.09 
   6  -3  -2    3.46    0.29 
   6  -3  -2    3.27    0.36 
  -6  -3   2    2.76    0.37 
  -6   3   2    3.32    0.37 
   6   3  -2    3.10    0.36 
  -6   3   2    3.18    0.39 
  -5  -3   2    2.57    0.34 
   5  -3  -2    2.59    0.32 
   5  -3  -2    2.27    0.30 
   5  -3  -2    2.88    0.31 
  -5   3   2    2.99    0.35 
  -5   3   2    2.58    0.31 
  -4  -3   2   14.26    0.60 
   4  -3  -2   13.36    0.56 
   4  -3  -2   12.15    0.55 
   4  -3  -2   12.44    0.52 
   4  -3  -2   13.06    0.56 
  -4   3   2   12.82    0.56 
  -4   3   2   12.37    0.56 
   3  -3  -2   39.12    1.15 
   3  -3  -2   39.37    1.19 
   3  -3  -2   40.53    1.19 
  -3  -3   2   42.18    1.22 
  -3   3   2   40.77    1.21 
  -3   3   2   39.95    1.19 
  -2  -3   2   56.78    1.51 
   2  -3  -2   54.18    1.48 
   2  -3  -2   54.23    1.49 
   2  -3  -2   54.71    1.52 
   2   3  -2   55.42    1.36 
  -2   3   2   56.01    1.50 
   2   3  -2   53.70    1.36 
  -2   3   2   56.90    1.53 
   1  -3  -2   43.15    1.17 
  -1  -3   2   40.62    1.10 
   1  -3  -2   42.07    1.19 
  -1  -3   2   41.79    1.18 
   1  -3  -2   42.74    1.19 
  -1   3   2   44.72    1.21 
  -1   3   2   42.01    1.17 
   1   3  -2   43.15    1.12 
   1   3  -2   42.45    1.12 
   0  -3  -2  295.72    6.79 
   0  -3  -2  289.01    6.82 
   0  -3   2  285.62    6.77 
   0  -3  -2  297.08    6.90 
   0  -3   2  298.60    6.78 
   0  -3   2  298.05    6.70 
   0  -3  -2  290.97    6.75 
   0  -3   2  295.02    6.78 
   0  -3  -2  286.26    6.78 
   0   3  -2  303.81    6.79 
   0   3   2  291.32    6.78 
   0   3  -2  276.03    6.78 
   1  -3   2   11.52    0.47 
   1  -3   2   11.88    0.47 
  -1  -3  -2   11.32    0.52 
  -1  -3  -2   11.78    0.42 
   1  -3   2   11.50    0.51 
  -1  -3  -2   11.57    0.49 
  -1  -3  -2   11.40    0.42 
  -1  -3  -2   11.77    0.40 
   1  -3   2   11.70    0.43 
   1  -3   2   10.44    0.42 
  -1   3  -2   12.09    0.47 
  -1   3  -2   11.42    0.47 
   1   3   2   12.00    0.43 
  -2  -3  -2    7.94    0.32 
   2  -3   2    7.44    0.39 
   2  -3   2    7.99    0.39 
   2  -3   2    8.33    0.37 
  -2  -3  -2    7.89    0.32 
   2  -3   2    7.84    0.27 
  -2  -3  -2    8.43    0.44 
   2  -3   2    8.03    0.40 
  -2   3  -2    8.41    0.40 
  -2   3  -2    8.08    0.40 
   2   3   2    7.53    0.32 
   3  -3   2   16.04    0.64 
   3  -3   2   15.35    0.48 
  -3  -3  -2   16.07    0.68 
   3  -3   2   14.93    0.63 
   3  -3   2   16.37    0.63 
   3  -3   2   16.04    0.61 
   3   3   2   14.84    0.50 
  -3   3  -2   14.85    0.62 
  -3   3  -2   16.51    0.65 
   4  -3   2   23.92    0.86 
   4  -3   2   22.48    0.84 
   4  -3   2   22.97    0.86 
  -4  -3  -2   22.26    0.89 
   4  -3   2   23.32    0.83 
   4  -3   2   22.52    0.68 
  -4   3  -2   22.43    0.85 
  -4   3  -2   22.28    0.86 
   5  -3   2   26.93    1.00 
   5  -3   2   27.84    0.98 
  -5  -3  -2   27.56    1.05 
   5  -3   2   27.73    1.01 
   5  -3   2   27.14    0.83 
  -5   3  -2   26.18    1.00 
  -5   3  -2   26.84    1.00 
  -6  -3  -2    0.32    0.18 
   6  -3   2    0.27    0.15 
   6  -3   2    0.51    0.15 
   6   3   2    0.26    0.12 
  -6   3  -2    0.08    0.12 
  -6   3  -2    0.36    0.17 
  -7  -3  -2   52.80    1.78 
   7  -3   2   53.48    1.56 
   7  -3   2   54.83    1.71 
   7   3   2   51.89    1.53 
  -7   3  -2   52.02    1.70 
  -7   3  -2   54.10    1.72 
  -8  -3  -2   10.81    0.70 
   8  -3   2   10.26    0.63 
   8   3   2    9.40    0.51 
  -8   3  -2    9.90    0.63 
  -8   3  -2   12.02    0.87 
  -9  -3  -2    0.99    0.32 
   9  -3   2    0.91    0.27 
   9   3   2    0.57    0.18 
  -9   3  -2    0.35    0.20 
 -10  -3  -2    3.32    0.55 
  10  -3   2    3.61    0.49 
  10   3   2    3.81    0.41 
 -10   3  -2    3.83    0.49 
  10   3   2    3.82    0.56 
   9  -4  -2    0.62    0.24 
  -9  -4   2    1.66    0.39 
   9  -4  -2    0.35    0.21 
   9   4  -2    1.21    0.33 
  -9   4   2    0.89    0.27 
   8  -4  -2    6.59    0.51 
   8  -4  -2    6.67    0.47 
   8  -4  -2    6.85    0.52 
  -8  -4   2    6.71    0.56 
   8   4  -2    7.71    0.55 
  -8   4   2    6.84    0.54 
  -7  -4   2    0.45    0.20 
   7  -4  -2    0.73    0.21 
   7  -4  -2    0.48    0.19 
   7  -4  -2    0.71    0.20 
   7   4  -2    0.80    0.23 
  -7   4   2    0.37    0.19 
   6  -4  -2    6.23    0.45 
   6  -4  -2    6.15    0.40 
   6  -4  -2    6.56    0.45 
  -6  -4   2    6.41    0.49 
   6   4  -2    6.03    0.43 
  -6   4   2    5.80    0.46 
   5  -4  -2    5.19    0.35 
   5  -4  -2    4.90    0.38 
   5  -4  -2    5.52    0.45 
  -5  -4   2    5.53    0.43 
  -5   4   2    4.86    0.40 
  -4  -4   2    6.22    0.43 
   4  -4  -2    5.92    0.38 
   4  -4  -2    5.65    0.40 
   4  -4  -2    5.81    0.35 
  -4   4   2    4.82    0.38 
   3  -4  -2    5.89    0.35 
  -3  -4   2    5.37    0.38 
   3  -4  -2    5.80    0.36 
   3  -4  -2    6.09    0.40 
  -3   4   2    5.93    0.39 
   2  -4  -2   10.96    0.52 
   2  -4  -2   10.90    0.49 
   2  -4  -2   10.26    0.47 
  -2  -4   2   10.68    0.51 
   2   4  -2   10.97    0.41 
  -2   4   2   11.52    0.53 
  -1  -4   2   30.77    0.86 
   1  -4  -2   27.48    1.00 
  -1  -4   2   28.14    0.93 
   1  -4  -2   28.50    0.88 
   1  -4  -2   29.13    0.93 
   1  -4  -2   27.28    0.91 
  -1  -4   2   27.89    0.84 
  -1   4   2   29.17    0.94 
   1   4  -2   27.56    0.86 
   0  -4  -2   19.19    0.71 
   0  -4  -2   18.38    0.62 
   0  -4   2   17.38    0.65 
   0  -4  -2   18.86    0.78 
   0  -4   2   18.64    0.68 
   0  -4  -2   18.81    0.67 
   0  -4   2   19.54    0.57 
   0   4   2   20.72    0.69 
   0   4  -2   20.14    0.69 
   1  -4   2   15.64    0.62 
   1  -4   2   15.55    0.55 
  -1  -4  -2   16.38    0.58 
  -1  -4  -2   16.44    0.64 
  -1  -4  -2   16.21    0.51 
   1  -4   2   15.74    0.60 
  -1  -4  -2   16.48    0.71 
   1   4   2   16.61    0.60 
  -1   4  -2   16.04    0.64 
   2  -4   2   20.69    0.72 
  -2  -4  -2   20.89    0.85 
   2  -4   2   20.41    0.78 
  -2  -4  -2   21.07    0.67 
   2  -4   2   20.70    0.73 
  -2   4  -2   20.97    0.80 
   2   4   2   20.44    0.68 
   3  -4   2    0.18    0.11 
  -3  -4  -2    0.14    0.14 
   3  -4   2    0.02    0.12 
  -3   4  -2    0.12    0.13 
   4  -4   2    5.71    0.44 
  -4  -4  -2    5.43    0.44 
   4  -4   2    5.64    0.39 
  -4   4  -2    5.21    0.41 
  -5  -4  -2    9.75    0.61 
   5  -4   2    9.56    0.58 
   5  -4   2    9.59    0.54 
  -5   4  -2    9.10    0.57 
  -6  -4  -2    2.43    0.42 
   6  -4   2    2.69    0.39 
  -6   4  -2    2.46    0.38 
   7  -4   2   13.10    0.71 
  -7  -4  -2   12.67    0.78 
  -7   4  -2   12.50    0.74 
   7   4   2   12.98    0.57 
   8  -4   2    0.61    0.23 
  -8  -4  -2    0.42    0.25 
  -8   4  -2    0.69    0.24 
   8   4   2    0.69    0.19 
   9  -4   2   17.62    0.93 
  -9  -4  -2   17.19    1.00 
  -9   4  -2   17.23    0.93 
   9   4   2   18.09    0.74 
   8  -5  -2    0.33    0.19 
  -8  -5   2    1.18    0.35 
  -8   5   2    0.82    0.28 
   8   5  -2    0.67    0.26 
  -7  -5   2   10.55    0.70 
   7  -5  -2    8.96    0.60 
  -7   5   2    8.37    0.61 
   7   5  -2    8.55    0.58 
  -6  -5   2    2.43    0.41 
   6  -5  -2    3.05    0.41 
  -6   5   2    2.58    0.40 
   6   5  -2    2.40    0.48 
  -5  -5   2    3.83    0.49 
   5  -5  -2    3.06    0.40 
  -5   5   2    1.99    0.34 
  -4  -5   2    2.58    0.37 
   4  -5  -2    2.59    0.35 
   4  -5  -2    2.77    0.39 
  -4   5   2    2.58    0.38 
   3  -5  -2    5.88    0.38 
   3  -5  -2    5.70    0.43 
  -3  -5   2    6.02    0.43 
   3  -5  -2    5.61    0.39 
  -3   5   2    5.35    0.43 
   2  -5  -2    1.89    0.29 
   2  -5  -2    2.18    0.28 
   2  -5  -2    2.63    0.38 
  -2  -5   2    2.26    0.32 
   2  -5  -2    2.06    0.28 
  -2   5   2    2.22    0.32 
  -1  -5   2    1.18    0.19 
   1  -5  -2    1.53    0.30 
   1  -5  -2    1.58    0.25 
   1  -5  -2    1.32    0.23 
   1  -5  -2    1.55    0.22 
  -1  -5   2    1.63    0.27 
  -1   5   2    1.17    0.23 
   0  -5   2    5.49    0.35 
   0  -5  -2    5.68    0.38 
   0  -5  -2    5.20    0.35 
   0  -5  -2    5.97    0.45 
   0  -5   2    5.19    0.37 
   0   5  -2    5.65    0.37 
   0   5   2    5.71    0.37 
   1  -5   2    8.38    0.47 
  -1  -5  -2    9.10    0.49 
  -1  -5  -2    8.88    0.44 
   1  -5   2    8.76    0.40 
   1  -5   2    8.79    0.47 
  -1  -5  -2    9.01    0.56 
   1   5   2    9.21    0.46 
  -1   5  -2    8.55    0.49 
  -2  -5  -2    1.32    0.19 
   2  -5   2    1.40    0.25 
   2  -5   2    1.52    0.22 
  -2  -5  -2    1.13    0.28 
   2  -5   2    1.72    0.29 
  -2   5  -2    1.03    0.24 
   3  -5   2    9.46    0.56 
  -3  -5  -2    9.10    0.60 
   3  -5   2    9.42    0.50 
   3  -5   2    9.42    0.49 
  -3   5  -2    8.75    0.56 
   4  -5   2   21.58    0.86 
   4  -5   2   22.34    0.94 
  -4  -5  -2   20.03    0.96 
   4  -5   2   22.60    0.87 
  -4   5  -2   21.61    0.96 
   5  -5   2    4.82    0.40 
   5  -5   2    3.73    0.47 
  -5  -5  -2    4.54    0.55 
  -5   5  -2    5.07    0.55 
  -6  -5  -2   12.80    0.82 
   6  -5   2   13.81    0.73 
  -6   5  -2   13.84    0.79 
  -7  -5  -2    1.33    0.37 
   7  -5   2    1.22    0.29 
  -7   5  -2    1.19    0.33 
  -8  -5  -2   12.29    0.85 
   8  -5   2   12.43    0.76 
  -8   5  -2   12.30    0.80 
  -6  -6   2   10.07    0.71 
   6  -6  -2    9.09    0.62 
  -6   6   2   10.18    0.70 
  -5  -6   2    1.49    0.35 
   5  -6  -2    1.64    0.32 
  -5   6   2    0.97    0.29 
  -4  -6   2   12.46    0.73 
   4  -6  -2   12.33    0.72 
   4  -6  -2   12.36    0.72 
   4  -6  -2   12.92    0.66 
  -4   6   2   11.51    0.70 
   3  -6  -2    2.61    0.34 
   3  -6  -2    3.66    0.49 
   3  -6  -2    3.17    0.42 
  -3  -6   2    3.06    0.42 
  -3   6   2    2.89    0.42 
   2  -6  -2   15.05    0.73 
   2  -6  -2   13.36    0.69 
   2  -6  -2   15.63    0.81 
  -2  -6   2   16.20    0.77 
  -2   6   2   14.98    0.75 
   1  -6  -2    6.54    0.52 
  -1  -6   2    6.22    0.38 
   1  -6  -2    6.00    0.45 
  -1   6   2    6.47    0.47 
   0  -6  -2    1.62    0.26 
   0  -6   2    1.28    0.24 
   0  -6  -2    1.63    0.35 
   0   6   2    1.93    0.30 
  -1  -6  -2   11.01    0.69 
  -1  -6  -2   10.65    0.53 
   1  -6   2   11.42    0.59 
  -1   6  -2   12.37    0.66 
  -2  -6  -2    0.76    0.27 
  -2  -6  -2    0.76    0.17 
   2  -6   2    0.76    0.22 
  -2   6  -2    0.58    0.22 
  -3  -6  -2   27.33    1.20 
   3  -6   2   28.44    1.00 
   3  -6   2   27.36    1.10 
   4  -6   2    0.81    0.22 
   4  -6   2    0.99    0.27 
  -4  -6  -2    0.67    0.27 
  -4   6  -2    0.71    0.27 
   5  -6   2   14.87    0.75 
  -5  -6  -2   16.87    0.93 
   5  -6   2   14.30    0.86 
   6  -6   2    1.11    0.28 
   6  -6   2    0.41    0.21 
  -6  -6  -2    0.54    0.30 
  -6   6  -2    0.78    0.28 
   4  -7  -2    0.53    0.25 
  -4   7   2   -0.03    0.16 
   3  -7  -2   13.13    0.81 
   3  -7  -2   12.11    0.73 
   2  -7  -2    1.11    0.32 
   2  -7  -2    0.45    0.21 
  -2   7   2    0.48    0.24 
   1  -7  -2    4.53    0.50 
   1  -7  -2    4.81    0.60 
   0  -7   2    4.50    0.39 
   0  -7  -2    5.28    0.65 
   0  -7  -2    3.65    0.41 
  -1  -7  -2   -0.03    0.14 
  -1  -7  -2   -0.16    0.17 
   1  -7   2    0.02    0.16 
  -2  -7  -2   11.15    0.76 
   3  -7   2    1.21    0.31 
  -3  -7  -2    1.02    0.33 
  -3   7  -2    0.84    0.28 
 -11   0   3    8.09    0.49 
  11   0  -3    8.37    0.62 
 -10   0   3   -0.14    0.10 
  10   0  -3    0.12    0.15 
  -9   0   3    6.66    0.39 
   9   0  -3    5.51    0.44 
   8   0  -3    2.26    0.29 
  -8   0   3    1.89    0.25 
   8   0  -3    1.60    0.25 
   8   0  -3    1.95    0.31 
   7   0  -3    0.39    0.14 
  -7   0   3    0.58    0.14 
   7   0  -3    0.43    0.13 
   7   0  -3    0.54    0.17 
  -6   0   3    4.87    0.27 
  -6   0   3    5.12    0.22 
   6   0  -3    4.30    0.31 
   6   0  -3    5.36    0.29 
   6   0  -3    5.36    0.30 
  -5   0   3   47.23    1.26 
  -5   0   3   44.97    1.16 
   5   0  -3   45.27    1.23 
   5   0  -3   46.33    1.31 
  -5   0   3   46.19    1.22 
   4   0  -3    0.01    0.05 
  -4   0   3    0.41    0.08 
   4   0  -3    0.10    0.05 
  -4   0   3    0.08    0.06 
  -4   0   3    0.09    0.04 
   3   0  -3   37.07    1.01 
  -3   0   3   38.74    0.99 
  -3   0   3   39.04    0.98 
  -3   0   3   35.59    0.95 
   3   0  -3   37.45    0.97 
  -2   0   3   34.27    0.86 
   2   0  -3   32.14    0.87 
   2   0  -3   33.73    0.85 
  -2   0   3   32.45    0.84 
   1   0  -3  459.43   10.40 
   1   0  -3  462.46   10.40 
  -1   0   3  438.25   10.35 
   1   0  -3  456.53   10.36 
  -1   0   3  457.14   10.35 
   0   0   3   37.56    0.98 
   0   0  -3   37.61    0.97 
   0   0  -3   38.85    0.98 
   0   0   3   38.51    0.99 
   0   0  -3   38.93    0.99 
   1   0   3    3.09    0.19 
  -1   0  -3    3.16    0.17 
  -1   0  -3    2.98    0.15 
   1   0   3    3.12    0.18 
  -1   0  -3    3.93    0.19 
   1   0   3    2.80    0.17 
  -1   0  -3    3.55    0.19 
   2   0   3  405.61    9.76 
   2   0   3  439.95    9.79 
  -2   0  -3  400.84    9.73 
  -2   0  -3  435.88    9.79 
  -2   0  -3  441.77    9.80 
   2   0   3  439.31    9.80 
  -3   0  -3   78.47    1.92 
   3   0   3   75.67    1.96 
   3   0   3   79.58    1.96 
  -3   0  -3   76.97    1.93 
   3   0   3   70.13    1.91 
  -3   0  -3   77.33    1.95 
  -4   0  -3   78.52    1.94 
   4   0   3   74.17    1.96 
   4   0   3   73.87    1.93 
   4   0   3   74.27    1.96 
  -4   0  -3   73.88    1.94 
  -4   0  -3   72.63    1.93 
   5   0   3   39.43    1.15 
  -5   0  -3   35.83    1.14 
  -5   0  -3   37.62    1.11 
  -5   0  -3   39.38    1.16 
   5   0   3   37.53    1.17 
   6   0   3  135.53    3.45 
  -6   0  -3  136.65    3.48 
  -6   0  -3  141.37    3.49 
  -6   0  -3  137.62    3.40 
   6   0   3  138.39    3.52 
  -7   0  -3   27.15    1.02 
  -7   0  -3   28.20    1.00 
   7   0   3   27.59    0.99 
   7   0   3   28.04    1.04 
   7   0   3   27.85    1.02 
  -7   0  -3   28.94    0.93 
   8   0   3    6.30    0.44 
   8   0   3    6.16    0.47 
  -8   0  -3    6.15    0.43 
   8   0   3    6.15    0.46 
   9   0   3   18.44    0.89 
   9   0   3   20.40    0.88 
  -9   0  -3   19.83    0.87 
   9   0   3   20.01    0.91 
 -10   0  -3    1.88    0.33 
  10   0   3    2.30    0.40 
  10   0   3    2.20    0.40 
  11  -1  -3    4.19    0.55 
  11   1  -3    5.26    0.62 
 -11   1   3    4.93    0.43 
  10  -1  -3    8.05    0.57 
  10  -1  -3    8.47    0.63 
  10   1  -3    8.77    0.61 
 -10   1   3    9.05    0.54 
   9  -1  -3    1.32    0.28 
   9  -1  -3    1.01    0.23 
  -9   1   3    1.21    0.25 
   9   1  -3    0.62    0.21 
   8  -1  -3    3.81    0.32 
   8  -1  -3    4.32    0.36 
  -8   1   3    3.98    0.30 
   8   1  -3    4.36    0.47 
   8   1  -3    3.53    0.28 
  -8   1   3    3.85    0.33 
   7  -1  -3    1.87    0.28 
   7  -1  -3    2.14    0.28 
   7   1  -3    1.65    0.27 
   7   1  -3    1.77    0.21 
  -7   1   3    1.49    0.23 
  -7   1   3    1.94    0.24 
   6  -1  -3   20.83    0.76 
   6  -1  -3   20.27    0.73 
   6   1  -3   20.69    0.77 
  -6   1   3   21.57    0.71 
  -6   1   3   21.42    0.74 
   6   1  -3   20.59    0.66 
   6   1  -3   20.65    0.65 
  -5  -1   3   30.68    1.00 
   5  -1  -3   32.72    0.96 
   5  -1  -3   31.81    1.19 
   5  -1  -3   30.68    0.97 
  -5   1   3   31.78    0.95 
   5   1  -3   30.20    0.84 
  -5   1   3   33.14    0.94 
   5   1  -3   32.16    0.99 
   4  -1  -3   25.03    0.78 
   4  -1  -3   25.46    0.77 
  -4  -1   3   24.24    0.79 
   4  -1  -3   25.88    0.77 
  -4   1   3   25.09    0.76 
   4   1  -3   24.31    0.77 
  -4   1   3   24.79    0.76 
   4   1  -3   24.57    0.66 
   3  -1  -3   60.11    1.54 
   3  -1  -3   62.61    1.54 
  -3  -1   3   56.63    1.52 
   3  -1  -3   59.68    1.52 
   3  -1  -3   60.88    1.53 
   3   1  -3   58.99    1.51 
  -3   1   3   60.17    1.52 
  -3   1   3   59.09    1.52 
   3   1  -3   56.69    1.40 
   2  -1  -3   18.81    0.58 
   2  -1  -3   18.48    0.57 
  -2  -1   3   20.88    0.56 
   2  -1  -3   18.67    0.57 
   2   1  -3   18.59    0.54 
   2   1  -3   18.58    0.49 
  -2   1   3   18.91    0.58 
  -2   1   3   17.78    0.56 
   1  -1  -3   60.90    1.54 
   1  -1  -3   64.12    1.54 
  -1  -1   3   64.47    1.47 
  -1  -1   3   67.63    1.48 
  -1  -1   3   61.14    1.50 
   1  -1  -3   61.22    1.55 
  -1  -1   3   57.84    1.49 
  -1   1   3   62.78    1.54 
   1   1  -3   61.54    1.47 
   1   1  -3   61.94    1.50 
  -1   1   3   59.79    1.53 
   0  -1   3   23.76    0.68 
   0  -1  -3   24.52    0.69 
   0  -1   3   24.16    0.66 
   0  -1  -3   24.87    0.68 
   0   1   3   24.51    0.68 
   0   1  -3   23.30    0.68 
   0   1  -3   25.71    0.68 
   0   1  -3   23.27    0.60 
   0   1   3   24.41    0.68 
  -1  -1  -3  136.99    3.33 
   1  -1   3  137.52    3.29 
  -1  -1  -3  137.95    3.30 
  -1  -1  -3  141.71    3.28 
   1  -1   3  139.43    3.31 
   1  -1   3  138.40    3.32 
  -1  -1  -3  140.17    3.33 
  -1   1  -3  139.23    3.33 
   1   1   3  143.16    3.28 
  -1   1  -3  138.34    3.31 
   1   1   3  142.48    3.29 
  -2  -1  -3  218.01    5.11 
  -2  -1  -3  222.94    5.06 
   2  -1   3  210.18    5.08 
   2  -1   3  216.91    5.12 
  -2  -1  -3  225.99    5.06 
  -2  -1  -3  217.21    5.06 
   2  -1   3  215.13    5.11 
  -2   1  -3  215.21    5.11 
   2   1   3  219.89    5.05 
   2   1   3  218.40    5.07 
  -2   1  -3  212.03    5.11 
  -3  -1  -3   58.05    1.53 
  -3  -1  -3   61.51    1.53 
  -3  -1  -3   55.10    1.57 
   3  -1   3   58.70    1.56 
   3  -1   3   59.35    1.60 
   3  -1   3   58.76    1.60 
  -3  -1  -3   59.10    1.50 
   3   1   3   57.97    1.52 
  -3   1  -3   60.08    1.59 
  -3   1  -3   60.32    1.59 
   4  -1   3   30.86    0.98 
  -4  -1  -3   31.09    0.91 
  -4  -1  -3   30.35    0.91 
  -4  -1  -3   29.84    0.97 
   4  -1   3   29.55    0.97 
   4  -1   3   28.63    0.93 
  -4  -1  -3   30.54    0.86 
  -4   1  -3   30.51    0.96 
  -4   1  -3   30.17    0.97 
   4   1   3   30.84    0.90 
   4   1   3   29.95    0.93 
  -5  -1  -3   33.77    1.12 
   5  -1   3   35.42    1.10 
  -5  -1  -3   35.72    0.97 
   5  -1   3   35.62    1.06 
   5  -1   3   35.78    1.15 
  -5  -1  -3   34.83    1.05 
   5   1   3   33.87    1.04 
  -5   1  -3   36.46    1.11 
  -5   1  -3   35.35    1.13 
   5   1   3   33.67    1.08 
   6  -1   3   26.06    0.97 
  -6  -1  -3   26.08    0.88 
   6  -1   3   24.78    0.87 
  -6  -1  -3   24.82    0.95 
   6  -1   3   23.82    0.90 
  -6  -1  -3   26.24    0.76 
   6   1   3   25.62    0.91 
  -6   1  -3   26.49    0.92 
   6   1   3   26.36    0.88 
  -6   1  -3   26.61    0.95 
   7  -1   3   41.66    1.31 
   7  -1   3   41.37    1.34 
  -7  -1  -3   43.38    1.40 
   7  -1   3   37.91    1.34 
  -7  -1  -3   38.13    1.25 
   7   1   3   38.68    1.26 
  -7   1  -3   41.11    1.30 
   7   1   3   41.08    1.33 
  -7   1  -3   42.01    1.36 
   8  -1   3   13.21    0.64 
   8  -1   3   11.29    0.65 
   8  -1   3   10.51    0.61 
  -8  -1  -3   11.02    0.57 
  -8  -1  -3   10.70    0.65 
  -8   1  -3   12.24    0.66 
   8   1   3   11.91    0.63 
  -8   1  -3   12.12    0.59 
   9  -1   3    2.81    0.39 
  -9  -1  -3    3.02    0.45 
   9  -1   3    2.79    0.41 
   9  -1   3    2.33    0.37 
  -9  -1  -3    2.56    0.35 
   9   1   3    3.25    0.47 
  -9   1  -3    2.82    0.39 
   9   1   3    2.69    0.40 
  10  -1   3    3.79    0.51 
  10  -1   3    3.46    0.51 
 -10  -1  -3    2.74    0.37 
  10  -1   3    3.44    0.46 
  10   1   3    3.49    0.50 
  10   1   3    3.64    0.47 
 -10   1  -3    2.34    0.39 
  10  -2  -3    0.28    0.21 
  10  -2  -3    0.40    0.20 
 -10   2   3    0.48    0.22 
  10   2  -3    0.24    0.21 
   9  -2  -3   11.14    0.63 
   9  -2  -3   10.78    0.62 
  -9   2   3   11.24    0.57 
  -9   2   3   11.81    0.64 
   9   2  -3   10.89    0.66 
   8  -2  -3    4.06    0.36 
  -8  -2   3    3.87    0.46 
   8  -2  -3    4.44    0.37 
   8   2  -3    4.54    0.49 
  -8   2   3    4.09    0.36 
  -8   2   3    3.90    0.33 
   7  -2  -3    4.03    0.34 
   7  -2  -3    4.25    0.34 
  -7  -2   3    4.67    0.39 
  -7   2   3    4.52    0.36 
  -7   2   3    3.54    0.31 
   7   2  -3    3.72    0.41 
   6  -2  -3    6.03    0.37 
   6  -2  -3    5.89    0.37 
  -6  -2   3    5.24    0.38 
  -6   2   3    5.45    0.36 
  -6   2   3    5.49    0.36 
   6   2  -3    5.25    0.36 
  -5  -2   3   72.62    1.96 
   5  -2  -3   71.52    1.91 
   5  -2  -3   69.96    1.92 
   5  -2  -3   73.12    2.16 
   5   2  -3   71.66    1.91 
  -5   2   3   70.44    1.91 
  -5   2   3   69.29    1.91 
   4  -2  -3   60.66    1.67 
  -4  -2   3   64.18    1.69 
   4  -2  -3   61.08    1.67 
   4  -2  -3   61.29    1.66 
   4   2  -3   62.09    1.63 
  -4   2   3   60.76    1.67 
  -4   2   3   62.73    1.67 
   3  -2  -3    2.89    0.22 
   3  -2  -3    2.64    0.20 
  -3  -2   3    2.86    0.21 
   3  -2  -3    2.90    0.21 
  -3   2   3    3.19    0.22 
   3   2  -3    2.84    0.18 
  -3   2   3    2.71    0.20 
   2  -2  -3  123.83    3.05 
   2  -2  -3  125.58    3.05 
   2  -2  -3  126.54    3.05 
  -2  -2   3  128.95    3.01 
  -2   2   3  126.55    3.06 
   2   2  -3  124.87    2.91 
   2   2  -3  128.43    2.96 
  -2   2   3  122.28    3.04 
   1  -2  -3   10.05    0.40 
  -1  -2   3    9.50    0.34 
   1  -2  -3    9.91    0.38 
   1  -2  -3    9.77    0.38 
  -1  -2   3    9.92    0.33 
   1   2  -3    9.34    0.34 
   1   2  -3    9.80    0.29 
  -1   2   3   10.09    0.39 
   1   2  -3   10.67    0.35 
  -1   2   3    9.61    0.37 
   0  -2  -3   58.33    1.49 
   0  -2  -3   60.51    1.50 
   0  -2   3   58.85    1.44 
   0  -2   3   55.55    1.40 
   0  -2   3   56.44    1.47 
   0  -2   3   60.12    1.49 
   0   2  -3   57.88    1.50 
   0   2   3   57.54    1.49 
   0   2  -3   60.76    1.49 
   0   2   3   58.58    1.49 
   1  -2   3   95.29    2.34 
  -1  -2  -3   96.06    2.41 
  -1  -2  -3   97.70    2.34 
  -1  -2  -3   97.01    2.44 
   1  -2   3   92.05    2.24 
   1  -2   3   95.77    2.38 
  -1  -2  -3   97.22    2.34 
  -1  -2  -3   91.22    2.32 
   1  -2   3   97.73    2.37 
  -1   2  -3   96.98    2.38 
  -1   2  -3   94.22    2.38 
   1   2   3  102.35    2.33 
   2  -2   3   93.08    2.23 
   2  -2   3   93.05    2.42 
   2  -2   3   95.72    2.38 
  -2  -2  -3   93.39    2.43 
  -2  -2  -3  100.19    2.34 
   2  -2   3   97.67    2.42 
  -2  -2  -3   97.74    2.47 
  -2  -2  -3   93.94    2.31 
  -2  -2  -3   98.96    2.34 
  -2   2  -3   93.74    2.43 
  -2   2  -3   92.45    2.41 
   2   2   3  100.04    2.33 
   3  -2   3   25.33    0.82 
  -3  -2  -3   25.70    0.75 
   3  -2   3   25.82    0.70 
   3  -2   3   24.51    0.84 
  -3  -2  -3   25.99    0.77 
  -3  -2  -3   25.61    0.87 
  -3  -2  -3   24.62    0.69 
   3  -2   3   26.12    0.85 
  -3   2  -3   25.68    0.85 
  -3   2  -3   23.69    0.84 
   3   2   3   24.58    0.75 
  -4  -2  -3    3.10    0.22 
   4  -2   3    3.30    0.35 
  -4  -2  -3    3.13    0.22 
   4  -2   3    3.27    0.20 
   4  -2   3    3.77    0.30 
  -4  -2  -3    3.13    0.34 
   4  -2   3    2.77    0.24 
  -4  -2  -3    3.21    0.15 
  -4   2  -3    3.34    0.27 
   4   2   3    2.94    0.22 
  -4   2  -3    3.63    0.28 
   5  -2   3   27.95    0.87 
   5  -2   3   28.16    0.97 
  -5  -2  -3   28.99    1.04 
   5  -2   3   27.46    1.00 
   5  -2   3   28.33    1.00 
  -5  -2  -3   29.05    0.88 
  -5   2  -3   28.02    0.99 
   5   2   3   27.04    0.91 
  -5   2  -3   26.98    0.99 
   5   2   3   28.98    0.89 
  -6  -2  -3   26.93    0.89 
   6  -2   3   27.99    1.00 
  -6  -2  -3   27.07    1.05 
   6  -2   3   28.51    0.92 
   6  -2   3   26.56    1.02 
   6   2   3   28.04    0.94 
  -6   2  -3   28.49    1.04 
  -6   2  -3   27.19    1.00 
   6   2   3   26.61    0.99 
   7  -2   3    2.92    0.38 
   7  -2   3    3.69    0.45 
  -7  -2  -3    3.07    0.33 
  -7  -2  -3    3.31    0.43 
   7  -2   3    3.63    0.38 
  -7   2  -3    3.15    0.40 
   7   2   3    2.82    0.34 
  -7   2  -3    3.31    0.42 
  -8  -2  -3    3.25    0.34 
   8  -2   3    3.34    0.42 
  -8  -2  -3    3.56    0.49 
   8  -2   3    3.61    0.46 
   8  -2   3    3.44    0.40 
   8   2   3    3.09    0.38 
  -8   2  -3    3.76    0.45 
  -8   2  -3    3.40    0.45 
   9  -2   3    5.00    0.53 
  -9  -2  -3    3.93    0.54 
   9  -2   3    3.83    0.48 
   9  -2   3    4.86    0.57 
  -9   2  -3    4.29    0.49 
   9   2   3    3.73    0.44 
  -9   2  -3    4.42    0.53 
  10  -2   3    0.17    0.18 
  10  -2   3    0.23    0.28 
 -10  -2  -3    0.57    0.27 
 -10   2  -3    0.33    0.22 
  10   2   3    0.14    0.16 
  10   2   3    0.79    0.28 
  10  -3  -3    6.93    0.55 
  10  -3  -3    6.63    0.54 
  10  -3  -3    6.42    0.53 
 -10   3   3    6.45    0.54 
  10   3  -3    6.71    0.57 
  -9  -3   3    1.78    0.38 
   9  -3  -3    1.72    0.34 
   9  -3  -3    1.49    0.31 
  -9   3   3    1.33    0.29 
  -9   3   3    1.09    0.26 
   9   3  -3    1.05    0.27 
   8  -3  -3    4.43    0.40 
   8  -3  -3    4.51    0.49 
   8  -3  -3    3.29    0.42 
  -8  -3   3    4.11    0.51 
  -8   3   3    4.45    0.47 
   8   3  -3    5.22    0.55 
  -8   3   3    4.08    0.46 
   7  -3  -3    8.56    0.51 
  -7  -3   3    8.06    0.54 
   7  -3  -3    7.97    0.51 
   7  -3  -3    8.00    0.50 
  -7   3   3    8.28    0.51 
   7   3  -3    7.70    0.50 
  -7   3   3    8.03    0.51 
  -6  -3   3    6.48    0.45 
   6  -3  -3    6.49    0.43 
   6  -3  -3    5.94    0.40 
   6  -3  -3    6.90    0.43 
  -6   3   3    6.40    0.43 
   6   3  -3    6.60    0.41 
  -6   3   3    6.08    0.42 
   5  -3  -3    3.96    0.30 
  -5  -3   3    4.24    0.34 
   5  -3  -3    3.98    0.31 
   5  -3  -3    3.42    0.31 
  -5   3   3    3.97    0.31 
  -5   3   3    4.74    0.35 
   5   3  -3    4.41    0.30 
   4  -3  -3   10.44    0.47 
  -4  -3   3    9.81    0.48 
   4  -3  -3    9.55    0.47 
   4  -3  -3    9.36    0.48 
   4   3  -3   10.52    0.44 
  -4   3   3    9.75    0.49 
  -4   3   3   10.07    0.48 
   3  -3  -3    3.46    0.27 
  -3  -3   3    3.77    0.27 
   3  -3  -3    3.32    0.25 
   3  -3  -3    3.55    0.26 
  -3   3   3    3.16    0.26 
   3   3  -3    3.19    0.21 
  -3   3   3    3.00    0.24 
  -2  -3   3    6.46    0.32 
   2  -3  -3    5.76    0.33 
   2  -3  -3    6.68    0.35 
   2  -3  -3    6.21    0.33 
   2   3  -3    6.87    0.27 
  -2   3   3    5.93    0.34 
   2   3  -3    5.76    0.25 
   2   3  -3    6.09    0.26 
  -2   3   3    5.81    0.32 
  -1  -3   3   48.85    1.30 
  -1  -3   3   49.78    1.27 
   1  -3  -3   48.20    1.33 
   1  -3  -3   49.69    1.38 
  -1  -3   3   48.44    1.27 
   1  -3  -3   50.04    1.35 
  -1   3   3   49.00    1.35 
   1   3  -3   48.52    1.28 
   1   3  -3   48.63    1.28 
  -1   3   3   46.46    1.32 
   1   3  -3   47.69    1.18 
   0  -3   3   22.09    0.70 
   0  -3   3   21.41    0.70 
   0  -3  -3   23.44    0.79 
   0  -3  -3   22.74    0.69 
   0  -3   3   21.68    0.63 
   0  -3  -3   21.44    0.79 
   0  -3   3   21.00    0.66 
   0  -3  -3   22.55    0.71 
   0  -3  -3   21.73    0.76 
   0   3  -3   22.29    0.72 
   0   3   3   22.08    0.71 
   0   3  -3   22.21    0.71 
   0   3   3   22.60    0.72 
   1  -3   3   61.29    1.69 
  -1  -3  -3   58.94    1.53 
   1  -3   3   55.29    1.49 
   1  -3   3   60.05    1.62 
  -1  -3  -3   60.72    1.55 
  -1  -3  -3   61.25    1.71 
   1  -3   3   60.89    1.55 
  -1  -3  -3   59.46    1.65 
  -1  -3  -3   59.04    1.55 
   1   3   3   61.20    1.56 
  -1   3  -3   59.16    1.60 
  -1   3  -3   58.47    1.62 
   2  -3   3   14.20    0.54 
  -2  -3  -3   14.27    0.50 
   2  -3   3   14.26    0.59 
  -2  -3  -3   13.66    0.45 
  -2  -3  -3   14.61    0.50 
   2  -3   3   14.23    0.61 
  -2  -3  -3   13.95    0.63 
  -2  -3  -3   13.16    0.58 
  -2   3  -3   13.24    0.57 
   2   3   3   14.57    0.50 
  -2   3  -3   14.95    0.58 
  -3  -3  -3   52.15    1.36 
   3  -3   3   51.16    1.45 
   3  -3   3   53.69    1.52 
  -3  -3  -3   50.83    1.34 
  -3  -3  -3   52.07    1.57 
   3  -3   3   49.90    1.26 
  -3   3  -3   48.42    1.48 
  -3   3  -3   50.89    1.51 
   3   3   3   48.91    1.34 
   4  -3   3    3.65    0.40 
   4  -3   3    3.21    0.19 
   4  -3   3    3.00    0.27 
  -4  -3  -3    3.85    0.43 
  -4  -3  -3    3.48    0.24 
  -4   3  -3    3.64    0.38 
  -4   3  -3    2.92    0.34 
   4   3   3    3.14    0.23 
   5  -3   3    6.70    0.42 
   5  -3   3    5.97    0.45 
  -5  -3  -3    7.69    0.51 
  -5   3  -3    7.53    0.54 
  -5   3  -3    6.62    0.45 
  -6  -3  -3    9.25    0.60 
   6  -3   3    9.65    0.54 
   6   3   3    8.18    0.46 
  -6   3  -3    9.91    0.58 
  -7  -3  -3    4.75    0.56 
   7  -3   3    4.24    0.48 
  -7   3  -3    4.24    0.49 
   7   3   3    3.76    0.34 
  -8  -3  -3   15.80    0.88 
   8  -3   3   14.88    0.79 
   8   3   3   14.11    0.68 
  -8   3  -3   16.78    0.83 
   9  -3   3    5.21    0.60 
  -9  -3  -3    4.23    0.59 
  -9   3  -3    4.57    0.55 
   9   3   3    5.07    0.42 
   9  -4  -3   10.18    0.64 
  -9  -4   3    9.58    0.70 
   9  -4  -3   10.26    0.67 
   9  -4  -3   10.49    0.69 
   9   4  -3   10.33    0.68 
  -9   4   3   10.30    0.67 
   8  -4  -3    0.68    0.22 
  -8  -4   3    0.93    0.32 
   8  -4  -3    0.96    0.26 
   8  -4  -3    0.73    0.23 
   8   4  -3    0.61    0.23 
  -8   4   3    0.82    0.26 
  -7  -4   3    3.93    0.49 
   7  -4  -3    3.92    0.45 
   7  -4  -3    3.95    0.48 
  -7   4   3    3.54    0.46 
   7   4  -3    3.32    0.41 
   6  -4  -3    4.15    0.35 
  -6  -4   3    4.01    0.46 
   6  -4  -3    4.25    0.37 
   6   4  -3    5.10    0.39 
  -6   4   3    4.13    0.47 
   5  -4  -3   17.31    0.71 
  -5  -4   3   16.05    0.75 
   5  -4  -3   16.43    0.73 
  -5   4   3   17.14    0.77 
   5   4  -3   17.38    0.69 
   4  -4  -3    3.16    0.38 
   4  -4  -3    3.16    0.36 
  -4  -4   3    2.98    0.36 
   4  -4  -3    3.02    0.34 
  -4   4   3    3.23    0.37 
   4   4  -3    3.21    0.26 
  -3  -4   3    2.60    0.31 
   3  -4  -3    2.62    0.31 
   3  -4  -3    2.89    0.32 
   3  -4  -3    2.61    0.33 
  -3   4   3    2.27    0.30 
  -2  -4   3    9.82    0.47 
   2  -4  -3    9.83    0.48 
   2  -4  -3    9.63    0.48 
   2  -4  -3   10.17    0.47 
   2   4  -3    9.39    0.42 
  -2   4   3    9.45    0.49 
  -1  -4   3   15.51    0.54 
   1  -4  -3   15.29    0.62 
   1  -4  -3   14.67    0.57 
   1  -4  -3   13.80    0.66 
  -1  -4   3   15.17    0.58 
   1  -4  -3   15.59    0.63 
  -1  -4   3   16.39    0.62 
  -1   4   3   15.46    0.62 
   1   4  -3   14.29    0.56 
   0  -4   3    9.98    0.36 
   0  -4   3    9.80    0.44 
   0  -4   3   10.64    0.46 
   0  -4  -3   10.69    0.51 
   0  -4  -3   10.32    0.43 
   0  -4  -3   11.52    0.58 
   0  -4  -3   10.23    0.46 
   0   4   3   10.48    0.47 
   0   4  -3   10.16    0.47 
   1  -4   3   13.80    0.50 
  -1  -4  -3   13.18    0.53 
   1  -4   3   13.84    0.58 
   1  -4   3   13.29    0.50 
  -1  -4  -3   13.16    0.60 
   1  -4   3   13.07    0.51 
  -1  -4  -3   13.41    0.48 
  -1  -4  -3   13.97    0.66 
   1   4   3   13.59    0.54 
  -1   4  -3   13.26    0.58 
   2  -4   3   58.60    1.58 
  -2  -4  -3   60.19    1.82 
   2  -4   3   57.45    1.62 
  -2  -4  -3   60.36    1.59 
   2  -4   3   60.54    1.72 
  -2   4  -3   59.48    1.72 
   2   4   3   57.91    1.59 
   3  -4   3   19.87    0.74 
  -3  -4  -3   19.34    0.66 
  -3  -4  -3   19.10    0.85 
   3  -4   3   19.02    0.80 
  -3   4  -3   19.57    0.81 
  -4  -4  -3   22.72    0.96 
   4  -4   3   21.38    0.83 
   4  -4   3   20.63    0.88 
   5  -4   3    0.97    0.26 
  -5  -4  -3    0.82    0.26 
   5  -4   3    1.49    0.27 
  -5   4  -3    0.99    0.25 
  -6  -4  -3    3.87    0.53 
   6  -4   3    4.51    0.40 
  -6   4  -3    3.38    0.46 
   7  -4   3   16.94    0.84 
  -7  -4  -3   15.37    0.89 
  -7   4  -3   16.79    0.87 
   7   4   3   17.73    0.73 
  -8  -4  -3    1.28    0.35 
   8  -4   3    0.86    0.27 
   8   4   3    0.88    0.23 
  -9  -4  -3   22.46    1.18 
   9  -4   3   23.69    1.11 
   9   4   3   23.42    0.93 
  -9   4  -3   22.98    1.12 
   8  -5  -3    4.59    0.54 
  -8  -5   3    5.95    0.68 
  -8   5   3    5.36    0.63 
  -7  -5   3    0.48    0.22 
   7  -5  -3    0.15    0.15 
  -7   5   3   -0.04    0.15 
  -6  -5   3    8.86    0.60 
   6  -5  -3    8.60    0.56 
  -6   5   3    7.93    0.58 
   5  -5  -3    8.98    0.56 
  -5  -5   3    9.91    0.61 
   5  -5  -3    9.37    0.53 
  -5   5   3    9.61    0.61 
   4  -5  -3    9.59    0.51 
  -4  -5   3    8.83    0.55 
   4  -5  -3    8.02    0.54 
   4  -5  -3    8.85    0.52 
  -4   5   3    8.51    0.55 
   3  -5  -3   15.82    0.69 
  -3  -5   3   16.82    0.73 
   3  -5  -3   14.84    0.71 
   3  -5  -3   15.44    0.69 
  -3   5   3   15.50    0.74 
   2  -5  -3    0.37    0.16 
   2  -5  -3    0.06    0.11 
  -2  -5   3    0.29    0.15 
   2  -5  -3    0.12    0.11 
   2  -5  -3    0.32    0.16 
  -2   5   3    0.16    0.14 
   1  -5  -3   12.90    0.55 
   1  -5  -3   13.42    0.61 
   1  -5  -3   13.54    0.70 
  -1  -5   3   12.17    0.58 
  -1  -5   3   12.35    0.52 
   1  -5  -3   14.08    0.62 
  -1   5   3   12.26    0.60 
   0  -5  -3    6.30    0.39 
   0  -5   3    5.65    0.37 
   0  -5  -3    5.83    0.33 
   0  -5  -3    5.98    0.47 
   0  -5  -3    6.45    0.43 
   0   5   3    6.35    0.40 
   0   5  -3    6.61    0.40 
  -1  -5  -3    8.26    0.43 
  -1  -5  -3    8.49    0.50 
   1  -5   3    8.63    0.48 
  -1  -5  -3    9.24    0.58 
  -1   5  -3    8.12    0.49 
   1   5   3    8.30    0.45 
   2  -5   3    8.54    0.51 
  -2  -5  -3    7.50    0.40 
  -2  -5  -3    8.09    0.56 
   2  -5   3    7.69    0.41 
  -3  -5  -3    5.55    0.47 
   3  -5   3    5.26    0.44 
   3  -5   3    5.28    0.36 
   3  -5   3    5.35    0.37 
  -3   5  -3    5.13    0.43 
  -4  -5  -3    1.31    0.31 
   4  -5   3    1.17    0.28 
   4  -5   3    1.57    0.26 
  -4   5  -3    1.42    0.31 
   5  -5   3    1.90    0.32 
  -5  -5  -3    2.34    0.43 
   5  -5   3    2.13    0.39 
  -5   5  -3    1.80    0.35 
   6  -5   3    4.87    0.44 
  -6  -5  -3    5.59    0.64 
  -6   5  -3    4.32    0.54 
   7  -5   3    2.68    0.43 
  -7  -5  -3    1.82    0.41 
   7   5   3    2.80    0.37 
  -7   5  -3    1.54    0.36 
  -6  -6   3    2.72    0.44 
   6  -6  -3    2.58    0.41 
  -6   6   3    1.98    0.40 
   5  -6  -3    3.16    0.42 
  -5  -6   3    3.00    0.44 
  -5   6   3    2.77    0.43 
   4  -6  -3    4.30    0.50 
   4  -6  -3    3.65    0.43 
   4  -6  -3    4.07    0.54 
  -4  -6   3    3.94    0.55 
  -4   6   3    3.39    0.45 
   3  -6  -3    1.90    0.35 
   3  -6  -3    2.10    0.38 
   3  -6  -3    1.35    0.26 
  -3   6   3    0.95    0.25 
   2  -6  -3    5.04    0.44 
   2  -6  -3    5.50    0.39 
   2  -6  -3    5.43    0.48 
  -2   6   3    4.61    0.50 
  -1  -6   3    0.37    0.16 
   1  -6  -3    1.27    0.32 
   1  -6  -3    0.71    0.21 
  -1   6   3    0.46    0.19 
   0  -6  -3    4.00    0.42 
   0  -6   3    3.82    0.33 
   0  -6  -3    4.34    0.56 
   0   6   3    3.20    0.39 
  -1  -6  -3    0.44    0.23 
   1  -6   3    0.84    0.22 
  -1  -6  -3    0.97    0.21 
  -1   6  -3    0.60    0.22 
  -2  -6  -3    1.76    0.38 
   2  -6   3    1.99    0.32 
  -2  -6  -3    1.59    0.24 
  -2   6  -3    1.96    0.34 
  -3  -6  -3    0.18    0.17 
   3  -6   3    0.25    0.17 
  -3   6  -3    0.15    0.17 
  -4  -6  -3    0.53    0.27 
   4  -6   3    0.58    0.24 
   4  -6   3    0.44    0.17 
  -4   6  -3    0.57    0.23 
  -5  -6  -3    3.34    0.53 
   5  -6   3    3.25    0.41 
   5  -6   3    3.04    0.40 
   5  -6   3    2.79    0.46 
  -5   6  -3    3.43    0.51 
   6  -6   3    7.70    0.56 
   6  -6   3    7.15    0.54 
  -6  -6  -3    5.88    0.74 
   3  -7  -3    2.50    0.42 
   3  -7  -3    3.16    0.50 
  -3   7   3    2.29    0.40 
   2  -7  -3    1.82    0.34 
   2  -7  -3    1.49    0.38 
  -2   7   3    1.88    0.36 
   1  -7  -3    5.93    0.47 
   1  -7  -3    6.85    0.60 
  -1   7   3    3.73    0.56 
   0  -7   3    2.03    0.30 
   0  -7  -3    2.12    0.44 
   0  -7  -3    2.23    0.33 
  -1  -7  -3    2.21    0.44 
   1  -7   3    1.41    0.28 
  -1  -7  -3    1.35    0.26 
  -2  -7  -3    1.57    0.39 
   2  -7   3    0.87    0.24 
  -2  -7  -3    1.16    0.24 
  -3  -7  -3    0.82    0.34 
   3  -7   3    1.22    0.31 
  -3   7  -3    0.82    0.29 
 -11   0   4    4.50    0.37 
  11   0  -4    4.58    0.56 
  10   0  -4   18.62    0.90 
 -10   0   4   19.07    0.75 
   9   0  -4    5.08    0.43 
  -9   0   4    5.17    0.35 
   8   0  -4   24.53    0.95 
  -8   0   4   24.08    0.83 
   7   0  -4   50.73    1.45 
  -7   0   4   52.67    1.43 
   7   0  -4   51.41    1.55 
   6   0  -4    4.86    0.32 
  -6   0   4    3.99    0.20 
   6   0  -4    4.54    0.27 
  -6   0   4    4.39    0.26 
   5   0  -4    4.27    0.24 
   5   0  -4    3.55    0.26 
  -5   0   4    4.03    0.23 
  -5   0   4    3.92    0.20 
   4   0  -4    2.05    0.15 
   4   0  -4    2.06    0.15 
   4   0  -4    2.04    0.18 
  -4   0   4    1.99    0.16 
  -4   0   4    1.96    0.14 
  -4   0   4    1.79    0.14 
  -3   0   4  186.70    4.22 
  -3   0   4  181.87    4.22 
   3   0  -4  179.04    4.20 
  -3   0   4  173.71    4.18 
   3   0  -4  179.62    4.25 
   2   0  -4   56.69    1.43 
   2   0  -4   57.02    1.45 
  -2   0   4   55.44    1.42 
  -2   0   4   56.25    1.43 
  -2   0   4   59.17    1.43 
   2   0  -4   57.68    1.42 
   1   0  -4    2.98    0.17 
   1   0  -4    3.04    0.17 
   1   0  -4    2.57    0.16 
  -1   0   4    2.88    0.17 
  -1   0   4    2.51    0.16 
   0   0  -4  114.60    2.81 
   0   0  -4  120.05    2.83 
   0   0   4  118.24    2.85 
   0   0   4  119.24    2.83 
   0   0  -4  122.17    2.86 
  -1   0  -4   87.06    2.08 
  -1   0  -4   85.47    2.16 
   1   0   4   83.54    2.13 
   1   0   4   89.22    2.15 
  -1   0  -4   88.99    2.15 
  -1   0  -4   86.72    2.12 
  -2   0  -4   24.12    0.71 
   2   0   4   23.69    0.76 
  -2   0  -4   26.06    0.79 
   2   0   4   25.81    0.78 
   2   0   4   25.37    0.80 
  -2   0  -4   26.11    0.79 
   3   0   4    1.05    0.17 
  -3   0  -4    0.70    0.14 
  -3   0  -4    0.82    0.15 
   3   0   4    0.99    0.18 
   3   0   4    0.79    0.16 
  -3   0  -4    0.97    0.15 
   4   0   4   34.51    1.07 
   4   0   4   33.57    1.07 
  -4   0  -4   34.35    1.01 
  -4   0  -4   33.03    1.05 
   4   0   4   32.63    1.03 
  -4   0  -4   35.01    1.04 
   5   0   4   20.32    0.79 
  -5   0  -4   21.73    0.76 
   5   0   4   21.27    0.78 
  -5   0  -4   21.48    0.79 
  -5   0  -4   21.40    0.77 
  -6   0  -4    0.12    0.10 
   6   0   4    0.29    0.14 
   6   0   4    0.47    0.17 
  -6   0  -4    0.30    0.15 
  -6   0  -4    0.21    0.13 
   7   0   4    1.97    0.31 
  -7   0  -4    1.99    0.27 
  -7   0  -4    2.08    0.32 
   7   0   4    1.51    0.29 
  -7   0  -4    1.59    0.28 
   8   0   4    6.46    0.48 
   8   0   4    5.84    0.46 
   8   0   4    5.91    0.45 
  -8   0  -4    6.19    0.46 
  -8   0  -4    5.41    0.45 
   9   0   4    5.38    0.47 
  -9   0  -4    5.92    0.47 
   9   0   4    6.64    0.53 
   9   0   4    5.95    0.48 
  10   0   4    1.61    0.35 
  10   0   4    1.25    0.32 
 -10   0  -4    2.07    0.38 
  11  -1  -4   10.69    0.70 
  11   1  -4   10.34    0.71 
 -11   1   4   10.57    0.61 
  10  -1  -4    2.10    0.37 
 -10   1   4    1.69    0.30 
  10   1  -4    1.50    0.35 
   9  -1  -4   17.32    0.75 
   9  -1  -4   16.77    0.79 
  -9   1   4   15.77    0.71 
   9   1  -4   15.52    0.78 
   8  -1  -4   17.68    0.74 
   8  -1  -4   18.01    0.79 
  -8   1   4   19.61    0.75 
   8   1  -4   17.68    0.80 
   7  -1  -4   16.66    0.70 
   7  -1  -4   15.89    0.66 
  -7   1   4   17.42    0.67 
  -7   1   4   15.74    0.59 
   7   1  -4   16.53    0.70 
   6  -1  -4   17.93    0.66 
   6  -1  -4   18.58    0.70 
  -6   1   4   16.80    0.64 
   6   1  -4   15.84    0.66 
  -6   1   4   17.34    0.61 
   5  -1  -4   15.92    0.62 
   5  -1  -4   16.43    0.59 
   5  -1  -4   16.57    0.60 
  -5   1   4   16.07    0.57 
   5   1  -4   16.54    0.61 
   5   1  -4   14.91    0.49 
  -5   1   4   16.43    0.59 
   4  -1  -4   38.94    1.12 
   4  -1  -4   38.51    1.08 
   4  -1  -4   39.31    1.09 
  -4   1   4   38.22    1.08 
   4   1  -4   37.66    0.98 
   4   1  -4   37.96    1.09 
   4   1  -4   36.87    0.98 
  -4   1   4   39.49    1.08 
   3  -1  -4  107.77    2.64 
   3  -1  -4  107.76    2.60 
   3  -1  -4  107.14    2.60 
  -3   1   4  101.80    2.58 
   3   1  -4  108.29    2.50 
  -3   1   4  105.39    2.60 
   3   1  -4  106.80    2.57 
   2  -1  -4  110.80    2.74 
   2  -1  -4  114.56    2.72 
   2  -1  -4  114.49    2.71 
  -2  -1   4  109.68    2.63 
  -2  -1   4  119.94    2.60 
  -2  -1   4  108.51    2.66 
   2   1  -4  115.72    2.66 
   2   1  -4  109.97    2.64 
  -2   1   4  111.33    2.72 
  -2   1   4  108.67    2.71 
  -1  -1   4   37.00    0.91 
   1  -1  -4   35.68    0.96 
   1  -1  -4   35.66    0.97 
   1  -1  -4   36.09    0.99 
  -1  -1   4   34.36    0.94 
   1   1  -4   34.72    0.94 
  -1   1   4   35.21    0.97 
   1   1  -4   34.59    0.89 
  -1   1   4   34.04    0.96 
   0  -1  -4   27.14    0.77 
   0  -1   4   26.91    0.78 
   0  -1  -4   26.45    0.80 
   0  -1  -4   28.23    0.80 
   0  -1   4   27.01    0.76 
   0  -1  -4   26.70    0.79 
   0  -1   4   26.61    0.83 
   0   1  -4   28.78    0.79 
   0   1   4   27.55    0.78 
   0   1   4   27.93    0.79 
   0   1  -4   26.49    0.70 
   0   1  -4   26.53    0.78 
  -1  -1  -4   35.07    1.02 
  -1  -1  -4   36.73    1.02 
   1  -1   4   35.66    1.02 
  -1  -1  -4   36.56    0.99 
  -1  -1  -4   37.60    1.02 
   1  -1   4   36.03    1.00 
   1  -1   4   33.32    1.01 
  -1   1  -4   36.23    1.03 
   1   1   4   37.24    1.01 
  -1   1  -4   36.65    1.02 
   1   1   4   35.79    1.00 
  -2  -1  -4   74.24    1.85 
   2  -1   4   69.57    1.88 
   2  -1   4   73.35    1.89 
   2  -1   4   71.56    1.85 
  -2  -1  -4   74.40    1.85 
  -2  -1  -4   71.12    1.88 
  -2  -1  -4   70.73    1.86 
  -2   1  -4   74.61    1.89 
   2   1   4   75.46    1.85 
   2   1   4   71.16    1.83 
  -2   1  -4   73.95    1.90 
  -2   1  -4   69.09    1.71 
  -3  -1  -4    4.77    0.31 
   3  -1   4    5.49    0.33 
  -3  -1  -4    5.40    0.28 
  -3  -1  -4    5.99    0.31 
   3  -1   4    5.05    0.30 
  -3  -1  -4    5.19    0.31 
   3  -1   4    5.82    0.34 
   3   1   4    5.49    0.30 
  -3   1  -4    5.47    0.24 
  -3   1  -4    6.02    0.33 
   3   1   4    5.62    0.31 
  -3   1  -4    5.91    0.33 
   4  -1   4   17.98    0.71 
  -4  -1  -4   17.72    0.61 
  -4  -1  -4   18.26    0.69 
  -4  -1  -4   17.43    0.65 
  -4  -1  -4   19.88    0.75 
   4  -1   4   18.45    0.71 
   4  -1   4   17.82    0.67 
   4   1   4   17.28    0.67 
  -4   1  -4   17.38    0.68 
   4   1   4   16.85    0.64 
  -4   1  -4   18.41    0.70 
  -5  -1  -4   20.08    0.74 
  -5  -1  -4   20.18    0.78 
   5  -1   4   20.48    0.77 
   5  -1   4   21.24    0.82 
  -5  -1  -4   19.80    0.67 
   5   1   4   20.36    0.74 
  -5   1  -4   21.07    0.78 
   5   1   4   19.94    0.76 
  -5   1  -4   19.90    0.79 
  -6  -1  -4    3.32    0.30 
  -6  -1  -4    3.37    0.24 
   6  -1   4    3.81    0.41 
   6  -1   4    3.45    0.29 
  -6  -1  -4    3.87    0.42 
   6  -1   4    3.80    0.40 
  -6   1  -4    4.00    0.43 
   6   1   4    3.06    0.36 
  -6   1  -4    3.72    0.31 
   6   1   4    3.63    0.38 
   7  -1   4    7.69    0.52 
   7  -1   4    8.24    0.47 
   7  -1   4    7.79    0.50 
  -7  -1  -4    7.64    0.46 
  -7  -1  -4    7.70    0.52 
  -7   1  -4    8.57    0.49 
   7   1   4    7.57    0.49 
  -7   1  -4    8.72    0.53 
   7   1   4    7.68    0.47 
  -8  -1  -4    5.34    0.40 
  -8  -1  -4    4.62    0.53 
   8  -1   4    4.50    0.41 
   8  -1   4    5.10    0.41 
   8  -1   4    4.39    0.50 
  -8   1  -4    4.54    0.38 
   8   1   4    4.47    0.48 
  -8   1  -4    5.13    0.44 
   8   1   4    4.97    0.42 
  -9  -1  -4   13.73    0.69 
   9  -1   4   14.36    0.76 
   9  -1   4   14.25    0.73 
   9  -1   4   14.04    0.79 
  -9  -1  -4   13.22    0.77 
   9   1   4   13.41    0.75 
  -9   1  -4   12.86    0.74 
   9   1   4   13.66    0.78 
  10  -1   4    4.88    0.61 
 -10  -1  -4    3.74    0.55 
 -10  -1  -4    3.28    0.43 
  10  -1   4    4.69    0.58 
  10  -1   4    4.35    0.52 
 -10   1  -4    3.60    0.48 
  10   1   4    4.19    0.55 
  10   1   4    3.35    0.46 
  10  -2  -4   15.13    0.80 
  10  -2  -4   15.45    0.77 
  10  -2  -4   13.78    0.75 
  10   2  -4   13.76    0.80 
 -10   2   4   14.22    0.75 
   9  -2  -4    0.59    0.21 
   9  -2  -4    0.76    0.24 
  -9   2   4    0.48    0.19 
  -9   2   4    0.79    0.31 
   9   2  -4    0.88    0.26 
   8  -2  -4    9.53    0.56 
   8  -2  -4    9.82    0.55 
   8   2  -4   10.33    0.58 
  -8   2   4    9.82    0.51 
  -8   2   4    9.85    0.55 
   7  -2  -4   38.36    1.25 
   7  -2  -4   35.94    1.22 
   7  -2  -4   37.90    1.22 
  -7  -2   4   36.67    1.28 
  -7   2   4   36.72    1.18 
  -7   2   4   38.40    1.22 
   7   2  -4   37.15    1.24 
  -6  -2   4   32.93    1.09 
   6  -2  -4   31.13    1.04 
   6  -2  -4   30.82    1.04 
   6  -2  -4   31.07    1.05 
   6   2  -4   30.40    1.03 
  -6   2   4   31.33    1.02 
  -6   2   4   30.95    1.03 
  -5  -2   4    3.14    0.33 
   5  -2  -4    3.04    0.25 
   5  -2  -4    2.61    0.29 
   5  -2  -4    2.40    0.29 
   5   2  -4    2.35    0.27 
  -5   2   4    3.09    0.31 
  -5   2   4    2.21    0.26 
   4  -2  -4   32.68    0.99 
  -4  -2   4   32.10    0.97 
   4  -2  -4   29.84    0.97 
   4  -2  -4   30.59    0.98 
   4   2  -4   29.29    0.86 
  -4   2   4   32.10    0.97 
  -4   2   4   31.16    0.97 
   4   2  -4   30.77    0.92 
   3  -2  -4   64.91    1.74 
  -3  -2   4   68.19    1.71 
   3  -2  -4   67.21    1.76 
   3  -2  -4   66.55    1.75 
  -3   2   4   65.70    1.74 
   3   2  -4   65.33    1.66 
   3   2  -4   63.64    1.57 
  -3   2   4   65.79    1.74 
   2  -2  -4   18.52    0.63 
   2  -2  -4   17.51    0.61 
  -2  -2   4   18.78    0.57 
   2  -2  -4   17.85    0.61 
   2   2  -4   17.40    0.52 
  -2   2   4   18.59    0.62 
  -2   2   4   17.49    0.60 
   2   2  -4   17.59    0.53 
   2   2  -4   18.05    0.54 
  -1  -2   4   24.16    0.71 
  -1  -2   4   23.81    0.65 
   1  -2  -4   24.96    0.75 
   1  -2  -4   24.81    0.76 
  -1  -2   4   24.53    0.70 
  -1  -2   4   23.70    0.63 
   1  -2  -4   24.60    0.78 
  -1   2   4   24.55    0.75 
   1   2  -4   23.85    0.62 
  -1   2   4   23.93    0.75 
   1   2  -4   24.78    0.72 
   1   2  -4   23.84    0.71 
   0  -2   4   17.44    0.59 
   0  -2  -4   18.71    0.67 
   0  -2   4   18.54    0.56 
   0  -2   4   18.72    0.62 
   0  -2  -4   19.16    0.61 
   0  -2  -4   18.28    0.65 
   0  -2  -4   18.25    0.61 
   0   2  -4   19.93    0.62 
   0   2   4   18.39    0.60 
   0   2  -4   18.96    0.62 
   0   2   4   19.08    0.61 
  -1  -2  -4   49.51    1.35 
  -1  -2  -4   49.11    1.27 
  -1  -2  -4   48.45    1.29 
   1  -2   4   45.92    1.31 
  -1  -2  -4   48.15    1.37 
   1  -2   4   45.39    1.29 
   1  -2   4   47.46    1.26 
   1   2   4   45.24    1.27 
   1   2   4   49.81    1.27 
  -1   2  -4   47.89    1.31 
  -1   2  -4   43.82    1.30 
   2  -2   4   44.44    1.11 
  -2  -2  -4   46.09    1.24 
   2  -2   4   45.98    1.31 
  -2  -2  -4   45.99    1.25 
  -2  -2  -4   45.06    1.33 
   2  -2   4   47.75    1.33 
   2  -2   4   43.23    1.26 
  -2  -2  -4   44.97    1.23 
  -2   2  -4   44.35    1.31 
  -2   2  -4   46.95    1.32 
   2   2   4   47.71    1.25 
   3  -2   4   46.59    1.36 
   3  -2   4   46.15    1.35 
  -3  -2  -4   46.27    1.27 
  -3  -2  -4   46.03    1.37 
   3  -2   4   45.06    1.16 
  -3  -2  -4   44.74    1.22 
   3  -2   4   44.05    1.30 
  -3  -2  -4   46.12    1.25 
  -3   2  -4   41.96    1.34 
  -3   2  -4   45.37    1.35 
   3   2   4   47.27    1.27 
  -4  -2  -4   36.24    1.10 
   4  -2   4   37.92    1.03 
   4  -2   4   35.33    1.19 
  -4  -2  -4   38.37    1.22 
   4  -2   4   36.77    1.20 
  -4  -2  -4   36.91    1.01 
   4  -2   4   36.10    1.16 
  -4   2  -4   37.27    1.20 
  -4   2  -4   38.02    1.21 
   4   2   4   38.78    1.11 
  -5  -2  -4   27.74    0.92 
   5  -2   4   28.26    1.03 
   5  -2   4   28.56    0.88 
  -5  -2  -4   26.90    1.03 
   5  -2   4   27.80    0.99 
   5   2   4   27.86    0.93 
  -5   2  -4   29.95    1.04 
  -5   2  -4   28.30    1.03 
   5   2   4   29.39    0.97 
   6  -2   4    1.63    0.23 
   6  -2   4    1.62    0.29 
  -6  -2  -4    1.70    0.31 
  -6  -2  -4    1.23    0.22 
   6  -2   4    1.19    0.24 
   6   2   4    1.77    0.27 
  -6   2  -4    1.36    0.26 
   6   2   4    1.41    0.25 
  -6   2  -4    1.26    0.25 
  -7  -2  -4    1.70    0.27 
  -7  -2  -4    2.27    0.37 
   7  -2   4    2.64    0.39 
   7  -2   4    2.23    0.31 
   7  -2   4    2.15    0.35 
  -7   2  -4    1.94    0.32 
  -7   2  -4    2.17    0.37 
   7   2   4    1.79    0.30 
  -8  -2  -4   23.55    0.92 
   8  -2   4   25.76    1.07 
  -8  -2  -4   26.29    1.13 
   8  -2   4   28.82    1.28 
   8  -2   4   26.11    0.98 
   8   2   4   26.89    1.03 
  -8   2  -4   23.91    1.03 
  -8   2  -4   26.28    1.11 
  -9  -2  -4    4.45    0.37 
   9  -2   4    4.59    0.54 
  -9  -2  -4    3.81    0.54 
  -9   2  -4    3.40    0.49 
  -9   2  -4    3.63    0.48 
   9   2   4    4.35    0.52 
 -10  -2  -4    6.82    0.46 
 -10  -2  -4    6.77    0.73 
  10  -2   4    6.64    0.57 
  10   2   4    6.53    0.54 
 -10   2  -4    6.73    0.59 
  10   2   4    6.23    0.72 
  10  -3  -4    0.93    0.28 
  10  -3  -4    0.66    0.24 
  10  -3  -4    0.91    0.26 
 -10   3   4    0.26    0.22 
  10   3  -4    0.79    0.28 
   9  -3  -4   12.26    0.72 
  -9  -3   4   13.52    0.79 
   9  -3  -4   12.18    0.70 
   9  -3  -4   12.22    0.71 
  -9   3   4   13.30    0.68 
  -9   3   4   13.32    0.72 
   9   3  -4   12.46    0.72 
   8  -3  -4   21.69    0.92 
   8  -3  -4   21.90    0.94 
   8  -3  -4   20.31    0.91 
  -8  -3   4   21.23    0.97 
  -8   3   4   21.78    0.92 
   8   3  -4   20.72    0.91 
  -8   3   4   20.61    0.88 
  -7  -3   4   17.27    0.81 
   7  -3  -4   18.11    0.79 
   7  -3  -4   16.53    0.78 
   7  -3  -4   17.43    0.77 
   7   3  -4   17.35    0.76 
  -7   3   4   17.81    0.78 
  -7   3   4   17.72    0.78 
  -6  -3   4   17.45    0.75 
   6  -3  -4   16.14    0.71 
   6  -3  -4   15.73    0.70 
  -6   3   4   15.70    0.70 
   6   3  -4   15.13    0.66 
  -6   3   4   16.06    0.71 
   5  -3  -4    6.84    0.42 
   5  -3  -4    7.60    0.43 
  -5  -3   4    7.15    0.43 
  -5   3   4    7.00    0.44 
  -5   3   4    6.99    0.43 
   5   3  -4    7.56    0.40 
   4  -3  -4   22.78    0.82 
   4  -3  -4   23.59    0.83 
  -4  -3   4   23.10    0.82 
   4  -3  -4   22.85    0.84 
  -4   3   4   23.37    0.83 
   4   3  -4   23.05    0.75 
  -4   3   4   22.79    0.84 
   3  -3  -4    4.07    0.30 
  -3  -3   4    4.55    0.28 
   3  -3  -4    4.02    0.29 
   3  -3  -4    4.13    0.29 
  -3   3   4    4.48    0.30 
  -3   3   4    3.95    0.30 
   3   3  -4    4.13    0.23 
   2  -3  -4   35.56    1.08 
   2  -3  -4   34.88    1.11 
  -2  -3   4   36.19    1.02 
   2  -3  -4   35.79    1.09 
   2   3  -4   37.06    0.99 
  -2   3   4   35.52    1.08 
   2   3  -4   36.67    0.98 
  -2   3   4   35.78    1.09 
   2   3  -4   35.11    0.93 
  -1  -3   4   28.41    0.82 
   1  -3  -4   29.05    0.89 
  -1  -3   4   27.26    0.82 
   1  -3  -4   29.52    0.94 
  -1  -3   4   28.41    0.81 
   1  -3  -4   27.25    0.89 
  -1   3   4   28.42    0.89 
   1   3  -4   28.10    0.85 
  -1   3   4   27.86    0.88 
   1   3  -4   28.35    0.84 
   0  -3  -4   13.83    0.52 
   0  -3   4   13.81    0.45 
   0  -3  -4   13.08    0.57 
   0  -3   4   13.37    0.51 
   0  -3  -4   14.50    0.62 
   0  -3   4   13.07    0.43 
   0  -3  -4   13.88    0.53 
   0  -3   4   14.32    0.53 
   0   3   4   13.77    0.53 
   0   3   4   12.66    0.52 
   0   3  -4   12.53    0.52 
   0   3  -4   14.55    0.54 
   1  -3   4    3.59    0.27 
   1  -3   4    3.55    0.23 
  -1  -3  -4    3.91    0.25 
  -1  -3  -4    3.78    0.30 
  -1  -3  -4    4.47    0.31 
  -1  -3  -4    3.73    0.24 
   1  -3   4    3.40    0.18 
  -1   3  -4    3.59    0.27 
   1   3   4    3.55    0.24 
  -2  -3  -4   11.32    0.45 
   2  -3   4   10.46    0.50 
  -2  -3  -4   10.81    0.42 
  -2  -3  -4   10.07    0.51 
  -2  -3  -4   10.19    0.54 
   2  -3   4   10.92    0.46 
   2   3   4   10.48    0.44 
  -2   3  -4   10.72    0.51 
  -3  -3  -4   20.09    0.61 
  -3  -3  -4   19.62    0.82 
  -3  -3  -4   20.06    0.70 
   3  -3   4   21.00    0.81 
   3  -3   4   20.50    0.75 
  -3   3  -4   21.44    0.82 
   3   3   4   21.80    0.71 
   4  -3   4    3.38    0.29 
  -4  -3  -4    3.39    0.42 
   4  -3   4    3.37    0.39 
  -4  -3  -4    3.17    0.25 
  -4   3  -4    3.36    0.40 
   4   3   4    3.06    0.26 
  -5  -3  -4    6.48    0.48 
  -5  -3  -4    6.03    0.36 
   5  -3   4    6.48    0.67 
   5  -3   4    6.41    0.42 
  -5   3  -4    6.32    0.45 
  -6  -3  -4    1.39    0.31 
   6  -3   4    1.19    0.25 
  -6   3  -4    1.13    0.26 
   6   3   4    1.48    0.26 
   7  -3   4    0.78    0.24 
  -7  -3  -4    0.21    0.20 
   7   3   4    0.79    0.20 
  -7   3  -4    0.52    0.19 
  -8  -3  -4    0.69    0.28 
   8  -3   4    1.11    0.28 
   8   3   4    0.86    0.24 
  -8   3  -4    0.88    0.27 
  -9  -3  -4    8.07    0.66 
   9  -3   4    8.61    0.64 
   9   3   4    7.87    0.55 
  -9   3  -4    7.96    0.61 
   9  -4  -4    2.34    0.40 
  -9  -4   4    2.75    0.46 
   9  -4  -4    2.68    0.42 
   9   4  -4    1.45    0.32 
  -9   4   4    2.16    0.38 
   8  -4  -4    6.27    0.51 
  -8  -4   4    6.63    0.55 
   8  -4  -4    5.69    0.47 
  -8   4   4    5.75    0.49 
   8   4  -4    6.73    0.50 
   7  -4  -4    8.71    0.57 
  -7  -4   4    8.63    0.59 
   7  -4  -4    8.71    0.55 
   7   4  -4   10.00    0.56 
  -7   4   4    8.86    0.58 
  -6  -4   4    2.80    0.39 
   6  -4  -4    2.74    0.36 
   6  -4  -4    2.49    0.36 
  -6   4   4    2.34    0.36 
   6   4  -4    2.69    0.34 
  -5  -4   4    6.87    0.45 
   5  -4  -4    7.11    0.45 
   5  -4  -4    6.42    0.44 
  -5   4   4    5.79    0.45 
   5   4  -4    6.89    0.40 
   4  -4  -4    2.21    0.31 
   4  -4  -4    2.34    0.32 
  -4  -4   4    2.73    0.33 
   4  -4  -4    2.42    0.32 
  -4   4   4    1.99    0.31 
   4   4  -4    2.37    0.27 
   3  -4  -4   31.83    1.09 
  -3  -4   4   33.81    1.06 
   3  -4  -4   32.27    1.09 
   3  -4  -4   32.08    1.07 
  -3   4   4   32.17    1.10 
   2  -4  -4    9.29    0.49 
  -2  -4   4    9.62    0.45 
   2  -4  -4    9.59    0.47 
   2  -4  -4    8.80    0.48 
  -2   4   4    9.78    0.50 
   1  -4  -4    4.23    0.33 
   1  -4  -4    4.05    0.35 
  -1  -4   4    4.24    0.27 
  -1  -4   4    4.19    0.27 
   1  -4  -4    4.63    0.33 
   1  -4  -4    4.43    0.30 
   1   4  -4    4.45    0.29 
  -1   4   4    4.42    0.32 
   0  -4   4   17.55    0.54 
   0  -4   4   18.01    0.66 
   0  -4   4   15.84    0.58 
   0  -4  -4   17.42    0.63 
   0  -4   4   17.16    0.65 
   0  -4  -4   18.20    0.78 
   0  -4  -4   16.39    0.65 
   0  -4  -4   18.01    0.73 
   0   4  -4   17.94    0.68 
   0   4   4   17.08    0.67 
  -1  -4  -4   16.72    0.60 
   1  -4   4   17.31    0.60 
   1  -4   4   16.65    0.68 
  -1  -4  -4   17.37    0.64 
  -1  -4  -4   15.39    0.70 
  -1  -4  -4   16.94    0.77 
  -1   4  -4   16.53    0.69 
   1   4   4   17.51    0.65 
  -2  -4  -4    5.95    0.45 
  -2  -4  -4    6.21    0.42 
   2  -4   4    5.55    0.34 
   2  -4   4    6.13    0.42 
  -2  -4  -4    6.18    0.34 
  -2   4  -4    5.12    0.38 
   2   4   4    5.63    0.33 
   3  -4   4    4.11    0.46 
  -3  -4  -4    4.20    0.29 
   3  -4   4    3.60    0.30 
  -3  -4  -4    3.85    0.46 
   3  -4   4    3.64    0.43 
   3   4   4    4.17    0.30 
  -3   4  -4    4.09    0.36 
   4  -4   4   29.54    1.07 
   4  -4   4   31.30    1.14 
  -4  -4  -4   30.65    1.20 
   4  -4   4   29.31    1.12 
  -4  -4  -4   29.69    0.96 
  -4   4  -4   30.98    1.15 
   5  -4   4    2.70    0.36 
   5  -4   4    2.40    0.40 
   5  -4   4    2.49    0.41 
  -5  -4  -4    2.50    0.41 
  -5   4  -4    2.26    0.36 
  -6  -4  -4    3.42    0.48 
   6  -4   4    3.49    0.45 
  -6   4  -4    2.84    0.40 
  -7  -4  -4    0.93    0.31 
   7  -4   4    0.79    0.24 
  -7   4  -4    0.53    0.23 
   7   4   4    0.44    0.18 
  -8  -4  -4    4.90    0.63 
   8  -4   4    5.73    0.51 
   8   4   4    5.48    0.44 
  -8   4  -4    4.46    0.57 
  -8  -5   4    1.11    0.34 
   8  -5  -4    1.09    0.30 
  -8   5   4    0.86    0.30 
  -7  -5   4    2.13    0.40 
   7  -5  -4    2.35    0.39 
   7  -5  -4    2.01    0.44 
  -7   5   4    2.30    0.41 
   6  -5  -4    0.76    0.23 
  -6  -5   4    0.83    0.24 
   6  -5  -4    0.42    0.17 
  -6   5   4    0.51    0.23 
   5  -5  -4    1.84    0.33 
   5  -5  -4    2.03    0.32 
  -5  -5   4    1.85    0.33 
  -5   5   4    1.00    0.28 
   4  -5  -4    5.43    0.42 
   4  -5  -4    5.66    0.46 
   4  -5  -4    6.31    0.44 
  -4  -5   4    5.94    0.44 
  -4   5   4    5.18    0.44 
  -3  -5   4    5.33    0.39 
   3  -5  -4    5.81    0.42 
   3  -5  -4    5.45    0.43 
   3  -5  -4    4.87    0.38 
  -3   5   4    6.14    0.45 
   2  -5  -4   14.16    0.66 
   2  -5  -4   12.18    0.70 
   2  -5  -4   12.23    0.59 
   2  -5  -4   13.21    0.64 
  -2   5   4   13.37    0.65 
   1  -5  -4    1.17    0.29 
   1  -5  -4    1.11    0.25 
  -1  -5   4    1.15    0.19 
   1  -5  -4    1.47    0.24 
   1  -5  -4    0.91    0.22 
  -1   5   4    1.10    0.23 
   0  -5  -4    8.88    0.49 
   0  -5  -4    9.89    0.55 
   0  -5  -4   10.08    0.46 
   0  -5  -4    9.43    0.61 
   0  -5   4    9.19    0.48 
   0   5   4    9.03    0.50 
   0   5  -4   10.10    0.52 
  -1  -5  -4   -0.07    0.09 
  -1  -5  -4    0.14    0.12 
  -1  -5  -4    0.00    0.12 
   1  -5   4   -0.19    0.10 
  -1   5  -4    0.09    0.12 
   1   5   4    0.04    0.11 
   2  -5   4    9.44    0.46 
   2  -5   4    9.75    0.56 
   2  -5   4    9.65    0.46 
  -2  -5  -4    8.15    0.45 
  -2  -5  -4    9.52    0.62 
  -2   5  -4    8.80    0.54 
  -3  -5  -4    8.39    0.44 
  -3  -5  -4    7.96    0.58 
   3  -5   4    8.70    0.47 
   3  -5   4    8.24    0.55 
  -3   5  -4    8.78    0.56 
   4  -5   4   13.39    0.67 
  -4  -5  -4   13.98    0.81 
   4  -5   4   15.17    0.78 
  -4   5  -4   14.76    0.78 
   5  -5   4   15.01    0.88 
  -5  -5  -4   14.08    0.84 
   5  -5   4   13.40    0.70 
  -5   5  -4   13.56    0.79 
   6  -5   4    8.62    0.58 
  -6  -5  -4    8.79    0.68 
  -6   5  -4    9.15    0.66 
  -7  -5  -4    7.89    0.68 
   7  -5   4    6.84    0.55 
  -7   5  -4    6.84    0.61 
   7   5   4    6.39    0.47 
   6  -6  -4    2.57    0.41 
  -6   6   4    3.16    0.50 
   5  -6  -4    3.63    0.46 
  -5   6   4    3.30    0.47 
   4  -6  -4    1.87    0.32 
   4  -6  -4    1.48    0.34 
   4  -6  -4    1.48    0.33 
  -4   6   4    1.57    0.32 
   3  -6  -4   14.98    0.78 
   3  -6  -4   14.18    0.82 
   3  -6  -4   15.91    0.73 
  -3   6   4   15.03    0.78 
   2  -6  -4    0.70    0.21 
   2  -6  -4    0.34    0.22 
   2  -6  -4    0.35    0.19 
  -2   6   4    0.44    0.19 
   1  -6  -4    8.70    0.54 
   1  -6  -4    8.90    0.65 
   1  -6  -4    8.74    0.56 
  -1   6   4    8.83    0.56 
   0  -6   4    2.34    0.29 
   0  -6  -4    2.18    0.31 
   0  -6  -4    3.06    0.49 
   0  -6  -4    3.06    0.41 
   0   6   4    3.39    0.42 
  -1  -6  -4    4.72    0.61 
  -1  -6  -4    4.48    0.37 
  -1  -6  -4    4.55    0.51 
   1  -6   4    5.19    0.41 
  -1   6  -4    4.24    0.49 
  -2  -6  -4    2.21    0.30 
  -2  -6  -4    2.85    0.49 
   2  -6   4    2.74    0.39 
  -2   6  -4    2.50    0.39 
   3  -6   4    1.22    0.30 
  -3  -6  -4    2.03    0.41 
  -3  -6  -4    2.04    0.28 
  -3   6  -4    1.81    0.36 
   4  -6   4    7.21    0.49 
   4  -6   4    7.72    0.51 
  -4  -6  -4    9.07    0.69 
   4  -6   4    8.68    0.64 
  -4   6  -4    7.68    0.60 
  -5  -6  -4    4.53    0.63 
   5  -6   4    3.36    0.44 
   5  -6   4    4.27    0.48 
  -5   6  -4    3.74    0.53 
   3  -7  -4    1.18    0.33 
   3  -7  -4    2.34    0.38 
  -3   7   4    1.95    0.39 
   2  -7  -4    4.20    0.58 
   2  -7  -4    4.24    0.51 
  -2   7   4    4.37    0.53 
   1  -7  -4    1.31    0.29 
  -1   7   4    1.32    0.32 
   0  -7  -4    5.89    0.46 
   0  -7  -4    5.56    0.69 
  -1  -7  -4    2.24    0.33 
   1  -7   4    2.36    0.35 
  -1  -7  -4    3.21    0.54 
   2  -7   4    2.90    0.40 
  -2  -7  -4    3.08    0.53 
  -2  -7  -4    3.21    0.38 
 -11   0   5    7.65    0.47 
  11   0  -5    6.73    0.58 
 -10   0   5    0.56    0.17 
  10   0  -5    0.84    0.26 
  -9   0   5   10.07    0.51 
   9   0  -5   10.76    0.63 
  -8   0   5    0.43    0.14 
   8   0  -5    0.86    0.23 
   7   0  -5   20.39    0.72 
   7   0  -5   19.39    0.80 
  -7   0   5   20.83    0.72 
   7   0  -5   20.57    0.73 
  -6   0   5   12.68    0.45 
   6   0  -5   13.52    0.53 
  -6   0   5   15.32    0.54 
   6   0  -5   13.97    0.60 
   6   0  -5   14.66    0.54 
  -5   0   5    1.47    0.18 
   5   0  -5    1.92    0.25 
   5   0  -5    1.74    0.19 
  -5   0   5    1.18    0.17 
  -5   0   5    1.74    0.17 
  -4   0   5   12.26    0.45 
  -4   0   5   11.98    0.45 
  -4   0   5   11.26    0.41 
   4   0  -5   11.16    0.47 
   4   0  -5   11.65    0.43 
   3   0  -5   20.42    0.63 
   3   0  -5   19.83    0.67 
  -3   0   5   21.23    0.64 
  -3   0   5   20.99    0.65 
  -3   0   5   20.41    0.62 
  -2   0   5  161.16    3.78 
   2   0  -5  159.88    3.75 
  -2   0   5  160.21    3.75 
   2   0  -5  157.62    3.78 
   2   0  -5  157.19    3.76 
  -1   0   5   19.02    0.61 
  -1   0   5   18.91    0.60 
   1   0  -5   19.02    0.59 
   1   0  -5   18.65    0.59 
   1   0  -5   19.15    0.61 
   0   0  -5  562.67   13.07 
   0   0   5  555.85   13.09 
   0   0  -5  587.78   13.10 
   0   0   5  592.71   13.12 
   0   0  -5  571.19   13.12 
   1   0   5   12.43    0.49 
  -1   0  -5   13.20    0.43 
  -1   0  -5   14.03    0.52 
  -1   0  -5   13.21    0.47 
   1   0   5   13.00    0.49 
  -1   0  -5   13.29    0.50 
  -2   0  -5    0.11    0.08 
   2   0   5    0.02    0.05 
  -2   0  -5    0.06    0.06 
   2   0   5   -0.01    0.08 
   2   0   5    0.01    0.06 
  -2   0  -5   -0.04    0.06 
   3   0   5   28.77    0.93 
  -3   0  -5   30.85    0.95 
  -3   0  -5   29.90    0.95 
   3   0   5   29.11    0.96 
  -3   0  -5   28.28    0.87 
   3   0   5   29.61    0.96 
   4   0   5   13.66    0.58 
  -4   0  -5   13.78    0.60 
   4   0   5   14.51    0.74 
  -4   0  -5   13.96    0.54 
  -4   0  -5   13.65    0.57 
   4   0   5   14.73    0.63 
   5   0   5   14.86    0.66 
  -5   0  -5   14.28    0.60 
   5   0   5   14.53    0.64 
  -5   0  -5   14.07    0.63 
  -5   0  -5   14.44    0.61 
   6   0   5    1.46    0.27 
  -6   0  -5    1.62    0.25 
   6   0   5    1.91    0.32 
  -6   0  -5    1.70    0.29 
  -6   0  -5    1.50    0.26 
   7   0   5    1.79    0.31 
  -7   0  -5    1.15    0.25 
   7   0   5    1.96    0.34 
  -7   0  -5    1.82    0.32 
  -7   0  -5    1.65    0.25 
  -8   0  -5    6.17    0.47 
   8   0   5    6.24    0.48 
  -8   0  -5    6.62    0.49 
   8   0   5    6.74    0.53 
   9   0   5    0.04    0.15 
   9   0   5    0.14    0.17 
   9   0   5   -0.02    0.15 
  -9   0  -5   -0.03    0.15 
  10   0   5    0.64    0.26 
  10   0   5    0.74    0.28 
 -10   0  -5    0.64    0.26 
  10   0   5    0.82    0.27 
  11  -1  -5    1.90    0.38 
  11   1  -5    1.70    0.38 
 -11   1   5    2.01    0.32 
  10  -1  -5    3.91    0.50 
 -10   1   5    3.45    0.40 
  10   1  -5    2.58    0.40 
   9  -1  -5    6.05    0.47 
   9  -1  -5    6.93    0.46 
   9  -1  -5    6.31    0.44 
  -9   1   5    6.89    0.45 
   9   1  -5    6.11    0.48 
   8  -1  -5   17.25    0.72 
   8  -1  -5   17.81    0.74 
   8  -1  -5   18.05    0.79 
  -8   1   5   17.90    0.73 
   8   1  -5   16.33    0.76 
   7  -1  -5    3.86    0.34 
   7  -1  -5    3.59    0.29 
   7  -1  -5    3.64    0.30 
  -7   1   5    3.91    0.31 
  -7   1   5    3.68    0.27 
   7   1  -5    4.00    0.34 
   6  -1  -5    3.63    0.28 
   6  -1  -5    4.11    0.29 
   6  -1  -5    3.46    0.29 
   6   1  -5    3.64    0.30 
  -6   1   5    3.70    0.28 
  -6   1   5    3.69    0.26 
   5  -1  -5   88.20    2.29 
   5  -1  -5   85.02    2.24 
   5   1  -5   87.98    2.25 
  -5   1   5   86.45    2.20 
   5   1  -5   88.14    2.13 
  -5   1   5   86.25    2.24 
   4  -1  -5    6.31    0.33 
   4  -1  -5    6.05    0.35 
   4  -1  -5    6.46    0.32 
  -4   1   5    6.61    0.32 
  -4   1   5    5.88    0.31 
   4   1  -5    6.10    0.26 
   4   1  -5    6.18    0.32 
  -3  -1   5    7.50    0.23 
   3  -1  -5    7.89    0.37 
  -3  -1   5    6.95    0.31 
   3  -1  -5    7.60    0.34 
  -3  -1   5    7.56    0.30 
   3  -1  -5    7.60    0.35 
  -3   1   5    7.19    0.34 
   3   1  -5    7.17    0.32 
  -3   1   5    7.46    0.35 
   3   1  -5    6.91    0.28 
  -2  -1   5    5.64    0.28 
  -2  -1   5    5.97    0.23 
   2  -1  -5    5.71    0.29 
   2  -1  -5    5.84    0.30 
   2  -1  -5    6.07    0.30 
  -2  -1   5    5.65    0.26 
  -2   1   5    5.62    0.29 
   2   1  -5    5.92    0.26 
   2   1  -5    5.89    0.26 
  -2   1   5    5.88    0.30 
   1  -1  -5  186.15    4.48 
  -1  -1   5  196.98    4.40 
   1  -1  -5  182.54    4.44 
  -1  -1   5  187.56    4.44 
   1  -1  -5  194.34    4.47 
   1   1  -5  190.04    4.44 
  -1   1   5  190.32    4.47 
   1   1  -5  185.37    4.37 
  -1   1   5  184.71    4.45 
   0  -1   5    3.77    0.24 
   0  -1  -5    3.64    0.23 
   0  -1  -5    3.65    0.23 
   0  -1  -5    3.52    0.22 
   0  -1   5    3.42    0.23 
   0  -1  -5    3.74    0.24 
   0  -1   5    3.59    0.22 
   0   1  -5    4.19    0.24 
   0   1   5    3.81    0.24 
   0   1  -5    3.98    0.19 
   0   1   5    3.92    0.24 
   0   1  -5    3.93    0.24 
  -1  -1  -5    1.95    0.21 
   1  -1   5    1.61    0.21 
   1  -1   5    1.96    0.23 
  -1  -1  -5    1.63    0.20 
  -1  -1  -5    1.38    0.18 
  -1  -1  -5    2.17    0.24 
   1  -1   5    1.82    0.16 
  -1   1  -5    1.63    0.21 
   1   1   5    1.72    0.21 
  -1   1  -5    1.60    0.15 
   1   1   5    1.75    0.20 
  -1   1  -5    1.46    0.19 
  -2  -1  -5   14.91    0.56 
   2  -1   5   14.85    0.59 
  -2  -1  -5   15.84    0.58 
   2  -1   5   15.96    0.61 
  -2  -1  -5   15.90    0.57 
  -2  -1  -5   15.57    0.59 
   2  -1   5   14.42    0.56 
   2   1   5   15.78    0.57 
   2   1   5   13.63    0.55 
  -2   1  -5   14.70    0.58 
  -2   1  -5   16.37    0.61 
  -2   1  -5   15.30    0.43 
   3  -1   5   10.75    0.51 
   3  -1   5   10.71    0.51 
  -3  -1  -5   11.22    0.47 
  -3  -1  -5   10.68    0.47 
   3  -1   5   10.86    0.48 
  -3  -1  -5   11.45    0.49 
  -3   1  -5    9.98    0.37 
   3   1   5   11.89    0.50 
  -3   1  -5   10.61    0.50 
   3   1   5   10.07    0.47 
  -3   1  -5   10.70    0.50 
   4  -1   5    3.61    0.31 
  -4  -1  -5    3.71    0.29 
  -4  -1  -5    3.98    0.27 
  -4  -1  -5    3.15    0.27 
   4  -1   5    3.99    0.30 
   4  -1   5    3.80    0.33 
  -4   1  -5    3.54    0.30 
   4   1   5    3.49    0.30 
   4   1   5    3.53    0.28 
  -4   1  -5    3.31    0.22 
  -4   1  -5    3.14    0.27 
   5  -1   5    1.45    0.25 
  -5  -1  -5    1.39    0.21 
   5  -1   5    1.59    0.25 
  -5  -1  -5    1.70    0.28 
  -5  -1  -5    1.28    0.23 
   5   1   5    1.61    0.25 
   5   1   5    1.16    0.23 
  -5   1  -5    1.66    0.27 
  -5   1  -5    1.68    0.29 
  -6  -1  -5   23.60    0.79 
  -6  -1  -5   24.33    0.92 
   6  -1   5   23.82    0.95 
  -6  -1  -5   22.51    0.86 
   6  -1   5   23.05    0.90 
   6   1   5   21.85    0.86 
  -6   1  -5   22.26    0.92 
   6   1   5   22.11    0.90 
  -6   1  -5   21.45    0.87 
   7  -1   5    4.26    0.36 
  -7  -1  -5    4.86    0.53 
   7  -1   5    5.00    0.57 
  -7  -1  -5    4.29    0.37 
   7  -1   5    5.31    0.42 
  -7   1  -5    4.22    0.37 
   7   1   5    4.35    0.39 
   7   1   5    4.12    0.47 
  -7   1  -5    5.18    0.56 
   8  -1   5    1.32    0.30 
   8  -1   5    1.51    0.33 
  -8  -1  -5    1.50    0.34 
   8  -1   5    2.12    0.33 
  -8  -1  -5    0.97    0.23 
   8   1   5    1.14    0.27 
  -8   1  -5    1.35    0.30 
  -8   1  -5    1.40    0.27 
   8   1   5    1.58    0.32 
   9  -1   5    7.86    0.55 
  -9  -1  -5    7.40    0.57 
  -9  -1  -5    6.63    0.50 
   9  -1   5    8.32    0.64 
   9  -1   5    7.14    0.55 
   9   1   5    7.52    0.57 
  -9   1  -5    7.12    0.57 
 -10  -1  -5    1.15    0.34 
  10  -1   5    1.63    0.38 
  10  -1   5    1.41    0.36 
  10  -1   5    1.08    0.28 
 -10  -1  -5    1.46    0.32 
  10   1   5    1.69    0.37 
 -10   1  -5    1.36    0.34 
  10   1   5    1.91    0.41 
  10  -2  -5    7.12    0.56 
  10  -2  -5    6.19    0.51 
  10  -2  -5    6.89    0.52 
  10   2  -5    6.71    0.54 
 -10   2   5    6.18    0.50 
   9  -2  -5    1.86    0.33 
   9  -2  -5    2.95    0.43 
   9  -2  -5    1.67    0.32 
  -9   2   5    1.25    0.27 
   9   2  -5    1.65    0.32 
   8  -2  -5    8.57    0.54 
   8  -2  -5    8.69    0.51 
   8  -2  -5    7.46    0.49 
  -8   2   5    8.33    0.50 
  -8   2   5    7.44    0.44 
   8   2  -5    7.19    0.50 
   7  -2  -5    5.00    0.37 
   7  -2  -5    4.28    0.37 
  -7   2   5    4.22    0.33 
  -7   2   5    4.67    0.36 
   7   2  -5    4.19    0.35 
   6  -2  -5   27.84    1.01 
   6  -2  -5   28.06    0.98 
  -6   2   5   26.74    0.94 
  -6   2   5   29.57    0.98 
   6   2  -5   27.72    0.95 
   5  -2  -5   23.16    0.83 
  -5  -2   5   21.89    0.81 
   5  -2  -5   23.25    0.85 
  -5   2   5   23.78    0.83 
   5   2  -5   24.09    0.80 
  -5   2   5   23.44    0.82 
   4  -2  -5   61.80    1.70 
   4  -2  -5   60.98    1.69 
  -4  -2   5   60.25    1.65 
   4  -2  -5   61.11    1.72 
  -4   2   5   59.55    1.67 
   4   2  -5   63.65    1.62 
  -4   2   5   62.62    1.69 
   3  -2  -5    9.22    0.43 
   3  -2  -5    9.01    0.42 
  -3  -2   5    9.08    0.38 
   3  -2  -5    8.87    0.42 
  -3   2   5    8.84    0.41 
  -3   2   5    8.84    0.41 
   3   2  -5    8.47    0.32 
   3   2  -5    8.91    0.35 
   2  -2  -5   19.52    0.70 
  -2  -2   5   18.60    0.60 
  -2  -2   5   20.43    0.59 
   2  -2  -5   19.70    0.68 
   2  -2  -5   19.32    0.67 
  -2  -2   5   18.83    0.59 
   2   2  -5   19.20    0.61 
   2   2  -5   19.57    0.57 
  -2   2   5   20.24    0.68 
  -2   2   5   21.10    0.69 
  -1  -2   5    4.60    0.20 
  -1  -2   5    4.15    0.25 
  -1  -2   5    4.33    0.24 
   1  -2  -5    4.08    0.26 
   1  -2  -5    3.81    0.27 
   1  -2  -5    4.59    0.27 
   1   2  -5    4.45    0.18 
   1   2  -5    4.60    0.26 
  -1   2   5    4.27    0.27 
  -1   2   5    3.92    0.26 
   1   2  -5    3.78    0.23 
   0  -2  -5   18.90    0.69 
   0  -2   5   18.19    0.64 
   0  -2  -5   19.19    0.69 
   0  -2  -5   19.26    0.64 
   0  -2  -5   18.82    0.65 
   0  -2   5   18.23    0.58 
   0  -2   5   17.13    0.62 
   0   2  -5   19.42    0.66 
   0   2  -5   18.41    0.74 
   0   2   5   19.47    0.64 
   0   2   5   19.38    0.65 
  -1  -2  -5   24.80    0.81 
  -1  -2  -5   24.50    0.85 
  -1  -2  -5   24.72    0.86 
   1  -2   5   25.80    0.78 
  -1  -2  -5   26.24    0.80 
   1  -2   5   24.00    0.81 
   1  -2   5   25.03    0.84 
   1   2   5   24.83    0.79 
  -1   2  -5   25.37    0.83 
  -1   2  -5   24.82    0.84 
   1   2   5   25.64    0.81 
  -2  -2  -5    4.72    0.33 
  -2  -2  -5    4.75    0.28 
   2  -2   5    4.51    0.33 
   2  -2   5    4.27    0.28 
  -2  -2  -5    4.72    0.33 
   2  -2   5    4.42    0.30 
  -2  -2  -5    4.63    0.29 
   2   2   5    4.76    0.30 
  -2   2  -5    4.39    0.31 
  -2   2  -5    4.59    0.32 
   2   2   5    4.79    0.29 
  -3  -2  -5    1.47    0.22 
   3  -2   5    1.52    0.24 
  -3  -2  -5    1.84    0.23 
  -3  -2  -5    1.86    0.28 
   3  -2   5    1.53    0.23 
   3  -2   5    1.69    0.24 
  -3   2  -5    1.54    0.24 
  -3   2  -5    1.36    0.23 
   3   2   5    2.46    0.27 
  -4  -2  -5   12.04    0.54 
  -4  -2  -5   12.31    0.61 
   4  -2   5   12.82    0.47 
   4  -2   5   12.54    0.58 
   4  -2   5   13.33    0.62 
   4  -2   5   13.00    0.63 
  -4  -2  -5   12.61    0.49 
   4   2   5   13.00    0.56 
  -4   2  -5   12.66    0.61 
  -4   2  -5   13.26    0.62 
   5  -2   5   10.81    0.55 
  -5  -2  -5    9.31    0.41 
   5  -2   5   10.63    0.59 
   5  -2   5    9.91    0.44 
  -5  -2  -5   10.31    0.50 
  -5  -2  -5    9.51    0.56 
  -5   2  -5   11.26    0.59 
   5   2   5   10.51    0.54 
   5   2   5   10.31    0.52 
  -5   2  -5   10.89    0.58 
   6  -2   5    2.94    0.41 
   6  -2   5    2.84    0.32 
  -6  -2  -5    2.43    0.36 
   6  -2   5    2.81    0.38 
  -6  -2  -5    2.17    0.31 
   6   2   5    2.01    0.30 
  -6   2  -5    2.44    0.35 
   6   2   5    2.20    0.31 
  -6   2  -5    2.58    0.37 
  -7  -2  -5   11.77    0.70 
  -7  -2  -5   12.66    0.62 
   7  -2   5   13.34    0.76 
   7  -2   5   13.54    0.71 
  -7   2  -5   13.24    0.73 
   7   2   5   13.77    0.69 
  -8  -2  -5    1.64    0.30 
  -8  -2  -5    1.91    0.37 
   8  -2   5    1.72    0.34 
  -8   2  -5    1.66    0.33 
  -8   2  -5    1.26    0.30 
   8   2   5    1.53    0.32 
  -9  -2  -5    0.71    0.30 
  -9  -2  -5    1.40    0.28 
   9  -2   5    1.40    0.33 
  -9   2  -5    1.56    0.35 
  -9   2  -5    1.15    0.27 
   9   2   5    1.47    0.37 
  10  -3  -5    1.38    0.31 
  10  -3  -5    1.47    0.34 
 -10   3   5    1.39    0.32 
  10   3  -5    0.86    0.28 
   9  -3  -5    3.54    0.47 
   9  -3  -5    2.63    0.41 
  -9   3   5    3.68    0.46 
   9   3  -5    4.04    0.49 
  -9   3   5    3.96    0.46 
  -8  -3   5    3.86    0.48 
   8  -3  -5    3.66    0.45 
   8  -3  -5    3.73    0.47 
  -8   3   5    3.37    0.42 
  -8   3   5    3.28    0.41 
   8   3  -5    3.10    0.40 
  -7  -3   5    5.79    0.45 
   7  -3  -5    4.63    0.41 
   7  -3  -5    4.76    0.40 
  -7   3   5    5.44    0.42 
  -7   3   5    5.26    0.41 
   7   3  -5    6.03    0.42 
   6  -3  -5    6.03    0.43 
   6  -3  -5    5.61    0.41 
  -6  -3   5    6.04    0.42 
  -6   3   5    5.94    0.42 
  -6   3   5    6.35    0.43 
   6   3  -5    6.37    0.40 
  -5  -3   5   43.95    1.33 
   5  -3  -5   41.55    1.33 
   5  -3  -5   42.39    1.35 
   5   3  -5   42.44    1.25 
  -5   3   5   42.34    1.34 
  -5   3   5   41.85    1.32 
   4  -3  -5    8.05    0.45 
  -4  -3   5    8.46    0.43 
   4  -3  -5    8.40    0.46 
   4  -3  -5    7.96    0.45 
  -4   3   5    8.38    0.46 
  -4   3   5    8.99    0.46 
   4   3  -5    8.49    0.38 
  -3  -3   5    5.52    0.31 
   3  -3  -5    5.62    0.35 
   3  -3  -5    5.79    0.37 
   3  -3  -5    5.75    0.37 
   3   3  -5    6.10    0.28 
  -3   3   5    6.06    0.36 
  -3   3   5    5.56    0.36 
   2  -3  -5    2.20    0.26 
  -2  -3   5    2.03    0.17 
   2  -3  -5    2.04    0.28 
   2  -3  -5    2.06    0.26 
   2   3  -5    1.82    0.20 
   2   3  -5    1.79    0.13 
  -2   3   5    2.13    0.27 
   2   3  -5    1.93    0.17 
  -2   3   5    2.56    0.28 
  -1  -3   5   99.44    2.48 
   1  -3  -5   99.51    2.56 
  -1  -3   5   98.30    2.49 
   1  -3  -5   98.07    2.62 
  -1  -3   5   99.73    2.39 
  -1  -3   5  100.69    2.35 
   1  -3  -5  101.69    2.57 
   1   3  -5  102.50    2.53 
  -1   3   5   97.84    2.56 
  -1   3   5  100.76    2.56 
   1   3  -5  104.75    2.62 
   0  -3   5    2.21    0.13 
   0  -3   5    2.20    0.16 
   0  -3   5    2.47    0.27 
   0  -3  -5    2.82    0.35 
   0  -3  -5    2.08    0.28 
   0  -3  -5    2.61    0.22 
   0  -3  -5    2.68    0.27 
   0   3   5    2.39    0.22 
   0   3  -5    2.59    0.22 
  -1  -3  -5   13.90    0.65 
  -1  -3  -5   15.41    0.58 
   1  -3   5   14.72    0.54 
   1  -3   5   14.10    0.60 
  -1  -3  -5   14.77    0.57 
  -1  -3  -5   14.23    0.63 
  -1   3  -5   14.31    0.60 
   1   3   5   15.87    0.58 
  -2  -3  -5   38.09    1.27 
  -2  -3  -5   37.54    1.24 
   2  -3   5   36.58    1.20 
   2  -3   5   37.38    1.13 
  -2  -3  -5   37.62    1.13 
  -2  -3  -5   38.96    1.11 
  -2   3  -5   38.74    1.23 
   2   3   5   39.11    1.14 
  -3  -3  -5   15.24    0.55 
  -3  -3  -5   16.04    0.73 
   3  -3   5   15.88    0.70 
   3  -3   5   16.09    0.65 
  -3  -3  -5   15.83    0.62 
   3   3   5   15.76    0.62 
  -3   3  -5   16.25    0.72 
  -4  -3  -5    6.73    0.40 
   4  -3   5    7.02    0.43 
   4  -3   5    6.69    0.47 
  -4  -3  -5    6.10    0.46 
  -4   3  -5    6.74    0.47 
   4   3   5    7.15    0.40 
   5  -3   5    1.46    0.27 
  -5  -3  -5    1.11    0.29 
  -5  -3  -5    1.43    0.24 
  -5   3  -5    1.49    0.27 
   5   3   5    1.39    0.27 
   6  -3   5   36.36    1.25 
  -6  -3  -5   32.04    1.10 
  -6  -3  -5   35.17    1.34 
   6   3   5   33.15    1.19 
  -7  -3  -5    0.52    0.23 
  -7  -3  -5    0.27    0.14 
   7  -3   5    0.34    0.18 
   7   3   5    0.42    0.20 
  -7   3  -5    0.58    0.22 
  -8  -3  -5   -0.13    0.18 
   8  -3   5    0.47    0.22 
   8   3   5    0.14    0.17 
  -8   3  -5    0.45    0.22 
  -9  -3  -5    1.67    0.41 
   9  -3   5    1.20    0.32 
  -9   3  -5    1.92    0.40 
   9   3   5    1.11    0.28 
   9  -4  -5    0.49    0.25 
  -9  -4   5    0.94    0.31 
   9  -4  -5    0.73    0.25 
   9   4  -5    0.23    0.21 
  -9   4   5    0.36    0.23 
  -8  -4   5    3.45    0.48 
   8  -4  -5    3.33    0.45 
   8  -4  -5    3.09    0.45 
  -8   4   5    3.94    0.49 
  -7  -4   5    1.39    0.31 
   7  -4  -5    1.32    0.28 
   7  -4  -5    1.34    0.29 
  -7   4   5    1.31    0.30 
   7   4  -5    1.55    0.28 
  -6  -4   5   30.30    1.12 
   6  -4  -5   28.27    1.10 
   6  -4  -5   31.29    1.13 
  -6   4   5   28.44    1.11 
   6   4  -5   28.23    1.16 
  -5  -4   5   15.24    0.70 
   5  -4  -5   15.59    0.71 
   5  -4  -5   14.33    0.70 
  -5   4   5   14.73    0.72 
   4  -4  -5   12.81    0.64 
   4  -4  -5   13.83    0.66 
   4  -4  -5   13.39    0.64 
  -4  -4   5   13.18    0.60 
  -4   4   5   13.01    0.65 
  -3  -4   5    5.32    0.34 
   3  -4  -5    4.46    0.35 
   3  -4  -5    5.60    0.39 
   3  -4  -5    5.40    0.40 
  -3   4   5    4.97    0.38 
  -2  -4   5    8.97    0.43 
   2  -4  -5    7.90    0.48 
   2  -4  -5    8.93    0.48 
   2  -4  -5    8.17    0.45 
  -2   4   5    7.88    0.46 
   1  -4  -5    5.20    0.38 
   1  -4  -5    5.75    0.43 
   1  -4  -5    4.54    0.33 
  -1  -4   5    5.25    0.31 
   1  -4  -5    5.58    0.37 
   1   4  -5    5.11    0.32 
  -1   4   5    5.01    0.35 
   0  -4  -5   35.07    1.11 
   0  -4  -5   36.87    1.28 
   0  -4  -5   36.27    1.13 
   0  -4  -5   35.33    1.20 
   0  -4   5   36.17    1.12 
   0  -4   5   35.62    0.98 
   0   4   5   35.54    1.13 
   0   4  -5   35.46    1.14 
   1  -4   5   10.11    0.54 
  -1  -4  -5   11.29    0.59 
  -1  -4  -5   10.92    0.49 
   1  -4   5   11.10    0.46 
  -1  -4  -5   11.34    0.63 
  -1  -4  -5   11.21    0.52 
  -1   4  -5   11.67    0.57 
   1   4   5   11.50    0.52 
   2  -4   5    0.90    0.22 
  -2  -4  -5    0.56    0.19 
  -2  -4  -5    1.20    0.27 
  -2  -4  -5    1.76    0.25 
  -2  -4  -5    1.22    0.20 
   2   4   5    1.19    0.21 
  -2   4  -5    1.19    0.24 
  -3  -4  -5   14.64    0.75 
   3  -4   5   14.12    0.70 
  -3  -4  -5   14.63    0.61 
   3  -4   5   14.48    0.64 
  -3   4  -5   13.84    0.70 
   3   4   5   14.66    0.61 
  -4  -4  -5    2.84    0.33 
   4  -4   5    2.08    0.30 
   4  -4   5    3.54    0.46 
  -4  -4  -5    2.65    0.40 
  -4   4  -5    2.56    0.39 
   5  -4   5    7.10    0.48 
  -5  -4  -5    6.52    0.54 
  -5  -4  -5    6.30    0.40 
  -5   4  -5    6.63    0.51 
  -6  -4  -5    0.90    0.28 
   6  -4   5    1.11    0.27 
  -6   4  -5    1.03    0.28 
   7  -4   5    2.86    0.43 
  -7  -4  -5    3.51    0.52 
   7   4   5    3.35    0.42 
  -7   4  -5    3.28    0.47 
  -8  -4  -5    0.64    0.31 
   8  -4   5    0.62    0.23 
  -8   4  -5    0.33    0.23 
   8   4   5    0.45    0.22 
   8  -5  -5    2.88    0.44 
  -8  -5   5    3.13    0.48 
   8  -5  -5    3.91    0.54 
  -8   5   5    2.58    0.45 
  -7  -5   5    5.94    0.63 
   7  -5  -5    6.51    0.51 
   7  -5  -5    5.50    0.50 
  -7   5   5    4.99    0.59 
   6  -5  -5   -0.11    0.11 
  -6  -5   5    0.17    0.18 
   6  -5  -5    0.23    0.16 
  -6   5   5    0.11    0.17 
   5  -5  -5   25.36    1.03 
  -5  -5   5   28.63    1.50 
   5  -5  -5   24.00    1.01 
  -5   5   5   25.99    1.08 
   4  -5  -5    1.41    0.30 
   4  -5  -5    1.63    0.30 
   4  -5  -5    1.44    0.28 
  -4   5   5    1.30    0.30 
   3  -5  -5    5.55    0.43 
   3  -5  -5    4.94    0.39 
   3  -5  -5    4.65    0.41 
  -3   5   5    5.30    0.44 
   2  -5  -5   13.42    0.66 
   2  -5  -5   12.83    0.62 
   2  -5  -5   13.70    0.75 
   2  -5  -5   13.98    0.69 
  -2   5   5   12.73    0.66 
   1  -5  -5   19.82    0.93 
   1  -5  -5   20.13    0.87 
   1  -5  -5   20.84    0.83 
   1  -5  -5   19.68    0.78 
  -1   5   5   20.68    0.84 
   0  -5  -5   10.31    0.66 
   0  -5  -5   10.25    0.60 
   0  -5  -5   10.70    0.54 
   0  -5  -5   10.43    0.51 
   0  -5   5    9.69    0.52 
   0   5   5   10.43    0.55 
   0   5  -5    9.69    0.54 
  -1  -5  -5    2.63    0.32 
  -1  -5  -5    2.83    0.44 
  -1  -5  -5    3.25    0.42 
   1  -5   5    2.52    0.34 
   1   5   5    2.65    0.33 
  -1   5  -5    2.53    0.34 
  -2  -5  -5    6.45    0.42 
   2  -5   5    6.68    0.48 
  -2  -5  -5    6.23    0.52 
   2  -5   5    7.11    0.39 
   2   5   5    6.51    0.43 
  -2   5  -5    6.84    0.48 
   3  -5   5    1.47    0.25 
   3  -5   5    1.43    0.30 
  -3  -5  -5    2.00    0.29 
  -3  -5  -5    1.80    0.36 
  -3   5  -5    1.41    0.30 
   4  -5   5    0.30    0.16 
  -4  -5  -5    0.43    0.22 
   4  -5   5    0.17    0.17 
  -4  -5  -5    0.17    0.13 
  -4   5  -5    0.00    0.15 
  -5  -5  -5    3.14    0.50 
   5  -5   5    3.27    0.43 
  -5   5  -5    3.27    0.48 
   6  -5   5    6.81    0.53 
  -6  -5  -5    6.55    0.76 
  -6   5  -5    5.71    0.65 
   7  -5   5    0.11    0.18 
  -7  -5  -5    0.26    0.24 
  -7   5  -5    0.01    0.16 
   7   5   5   -0.08    0.14 
   6  -6  -5    2.01    0.37 
  -6   6   5    1.55    0.35 
   5  -6  -5    1.31    0.30 
  -5   6   5    1.13    0.31 
   4  -6  -5    6.06    0.47 
   4  -6  -5    5.41    0.64 
   4  -6  -5    5.04    0.58 
  -4   6   5    5.34    0.60 
   3  -6  -5    1.88    0.35 
   3  -6  -5    1.37    0.28 
   3  -6  -5    1.48    0.34 
   3  -6  -5    0.96    0.27 
  -3   6   5    1.69    0.34 
   2  -6  -5    8.05    0.50 
   2  -6  -5    8.41    0.57 
   2  -6  -5    8.30    0.56 
   2  -6  -5    8.03    0.63 
  -2   6   5    9.09    0.59 
   1  -6  -5    3.47    0.44 
   1  -6  -5    5.01    0.54 
   1  -6  -5    3.86    0.55 
  -1   6   5    3.56    0.44 
   0  -6  -5    6.72    0.59 
   0  -6  -5    6.46    0.52 
   0  -6  -5    6.83    0.47 
   0   6   5    6.79    0.49 
  -1  -6  -5    7.76    0.62 
   1  -6   5    7.22    0.50 
  -1  -6  -5    7.77    0.49 
  -1  -6  -5    7.35    0.55 
  -2  -6  -5    2.80    0.36 
   2  -6   5    2.26    0.36 
  -2  -6  -5    3.39    0.55 
  -2   6  -5    2.33    0.37 
   3  -6   5    3.90    0.48 
  -3  -6  -5    4.48    0.37 
  -3  -6  -5    3.42    0.54 
  -3   6  -5    3.10    0.45 
  -4  -6  -5    2.64    0.51 
   4  -6   5    2.74    0.47 
   4  -6   5    2.61    0.54 
   4  -6   5    2.77    0.51 
  -4   6  -5    3.80    0.53 
   5  -6   5    4.15    0.48 
  -5  -6  -5    3.90    0.59 
  -5   6  -5    3.87    0.54 
   2  -7  -5    1.49    0.38 
   2  -7  -5    1.27    0.30 
  -2   7   5    1.35    0.33 
   1  -7  -5    2.87    0.42 
   1  -7  -5    3.64    0.57 
  -1   7   5    3.46    0.47 
   0  -7  -5    1.23    0.35 
   0  -7  -5    1.23    0.29 
   0  -7   5    0.90    0.22 
  -1  -7  -5    0.80    0.32 
  -1  -7  -5    1.17    0.27 
   1  -7   5    1.11    0.26 
 -11   0   6    4.31    0.37 
  11   0  -6    3.58    0.50 
  10   0  -6    1.57    0.34 
 -10   0   6    1.31    0.24 
  -9   0   6   50.85    1.49 
   9   0  -6   48.72    1.63 
  -8   0   6   33.07    1.07 
   8   0  -6   34.56    1.21 
   7   0  -6   68.80    1.97 
   7   0  -6   70.37    1.87 
  -7   0   6   67.48    1.86 
   6   0  -6    2.33    0.31 
   6   0  -6    2.14    0.24 
  -6   0   6    1.99    0.19 
  -6   0   6    1.81    0.23 
  -5   0   6    0.66    0.14 
   5   0  -6    0.80    0.17 
  -5   0   6    0.81    0.13 
   5   0  -6    0.76    0.14 
  -4   0   6   60.72    1.57 
   4   0  -6   57.20    1.61 
  -4   0   6   57.87    1.51 
   4   0  -6   59.48    1.56 
  -3   0   6    6.52    0.32 
   3   0  -6    7.79    0.36 
  -3   0   6    7.33    0.35 
   3   0  -6    7.24    0.33 
   3   0  -6    6.72    0.37 
  -3   0   6    7.74    0.35 
  -2   0   6   72.67    1.88 
   2   0  -6   75.44    1.91 
   2   0  -6   75.44    1.90 
  -2   0   6   75.23    1.93 
   2   0  -6   75.29    1.91 
  -1   0   6  178.69    4.38 
  -1   0   6  188.13    4.37 
   1   0  -6  185.72    4.36 
   1   0  -6  183.89    4.38 
   1   0  -6  181.97    4.36 
   0   0  -6   94.18    2.36 
   0   0  -6   97.28    2.31 
   0   0   6   91.33    2.38 
   0   0  -6   97.63    2.42 
   0   0   6   93.92    2.41 
   0   0  -6   95.48    2.39 
  -1   0  -6   -0.06    0.05 
   1   0   6    0.13    0.09 
  -1   0  -6    0.02    0.05 
  -1   0  -6    0.01    0.05 
  -1   0  -6    0.12    0.08 
   1   0   6    0.10    0.07 
   1   0   6    0.02    0.07 
  -2   0  -6   74.62    2.00 
  -2   0  -6   72.41    1.85 
   2   0   6   71.57    1.96 
  -2   0  -6   74.79    1.94 
   2   0   6   74.03    1.98 
  -2   0  -6   76.12    1.98 
   2   0   6   74.65    2.00 
   3   0   6   10.57    0.51 
  -3   0  -6   11.28    0.53 
  -3   0  -6   11.31    0.45 
   3   0   6   11.63    0.54 
  -3   0  -6   11.48    0.53 
   3   0   6   11.83    0.55 
   4   0   6    4.60    0.36 
  -4   0  -6    5.08    0.34 
  -4   0  -6    4.78    0.30 
  -4   0  -6    4.78    0.35 
   4   0   6    4.25    0.33 
   5   0   6    1.44    0.25 
  -5   0  -6    1.53    0.24 
  -5   0  -6    1.53    0.25 
   5   0   6    1.38    0.27 
  -5   0  -6    1.55    0.27 
  -6   0  -6    1.53    0.28 
   6   0   6    1.35    0.29 
  -6   0  -6    1.64    0.27 
   6   0   6    1.41    0.28 
  -6   0  -6    1.36    0.26 
   7   0   6   -0.18    0.11 
  -7   0  -6    0.12    0.14 
   7   0   6    0.15    0.16 
  -7   0  -6    0.20    0.16 
  -7   0  -6   -0.07    0.10 
   8   0   6   16.58    0.83 
  -8   0  -6   17.05    0.80 
   8   0   6   16.40    0.87 
  -8   0  -6   18.21    0.87 
   9   0   6    2.95    0.45 
   9   0   6    2.85    0.46 
  -9   0  -6    2.76    0.44 
   9   0   6    2.59    0.43 
  10  -1  -6   17.93    0.90 
 -10   1   6   18.21    0.80 
  10   1  -6   18.45    0.91 
   9  -1  -6    7.36    0.53 
   9  -1  -6    6.57    0.45 
  -9   1   6    6.52    0.44 
   9   1  -6    6.41    0.49 
   8  -1  -6   27.42    0.99 
   8  -1  -6   26.06    1.04 
   8   1  -6   26.72    1.03 
  -8   1   6   27.68    0.97 
   7  -1  -6   13.65    0.61 
   7  -1  -6   13.72    0.66 
  -7   1   6   13.64    0.54 
   7   1  -6   13.79    0.64 
  -7   1   6   14.35    0.61 
   6  -1  -6   22.77    0.87 
   6  -1  -6   22.28    0.81 
  -6   1   6   22.25    0.75 
   6   1  -6   23.30    0.84 
  -6   1   6   22.75    0.80 
  -5  -1   6    5.92    0.31 
   5  -1  -6    5.72    0.34 
  -5  -1   6    6.31    0.30 
   5  -1  -6    6.42    0.39 
  -5   1   6    6.01    0.35 
  -5   1   6    5.82    0.33 
   5   1  -6    6.35    0.30 
   5   1  -6    6.27    0.36 
  -4  -1   6    9.93    0.41 
   4  -1  -6    9.16    0.46 
   4  -1  -6    9.68    0.44 
  -4   1   6   10.43    0.46 
   4   1  -6   10.94    0.45 
   4   1  -6   10.85    0.40 
  -4   1   6   10.12    0.44 
  -3  -1   6   89.09    2.08 
   3  -1  -6   86.12    2.23 
   3  -1  -6   87.13    2.27 
  -3  -1   6   89.19    2.16 
   3  -1  -6   85.32    2.22 
  -3  -1   6   85.95    2.18 
  -3   1   6   87.71    2.22 
  -3   1   6   86.68    2.24 
   3   1  -6   86.64    2.16 
   3   1  -6   88.72    2.20 
  -2  -1   6   48.75    1.34 
   2  -1  -6   46.88    1.36 
   2  -1  -6   47.62    1.38 
  -2  -1   6   53.63    1.28 
   2  -1  -6   49.52    1.36 
   2   1  -6   50.85    1.31 
   2   1  -6   50.61    1.33 
  -2   1   6   49.85    1.38 
  -2   1   6   49.86    1.37 
   1  -1  -6   28.66    0.89 
  -1  -1   6   27.80    0.93 
   1  -1  -6   29.81    0.91 
  -1  -1   6   28.70    0.84 
   1  -1  -6   29.75    0.92 
  -1  -1   6   31.13    0.90 
   1   1  -6   29.05    0.90 
   1   1  -6   29.85    0.88 
  -1   1   6   30.67    0.92 
   1   1  -6   29.50    0.83 
  -1   1   6   31.37    0.92 
   0  -1  -6   16.77    0.60 
   0  -1  -6   15.73    0.57 
   0  -1   6   16.10    0.59 
   0  -1  -6   15.41    0.57 
   0  -1   6   15.51    0.55 
   0  -1   6   15.32    0.58 
   0  -1  -6   15.96    0.60 
   0   1   6   14.21    0.57 
   0   1  -6   15.22    0.58 
   0   1  -6   16.12    0.51 
   0   1  -6   16.89    0.58 
   0   1   6   15.28    0.59 
   0   1  -6   15.54    0.42 
   1  -1   6  161.03    4.00 
   1  -1   6  165.06    4.05 
  -1  -1  -6  163.84    4.01 
  -1  -1  -6  165.95    4.06 
  -1  -1  -6  170.14    4.02 
  -1  -1  -6  165.06    4.05 
   1  -1   6  159.10    4.03 
  -1   1  -6  167.33    4.07 
   1   1   6  173.69    4.04 
  -1   1  -6  167.24    4.05 
   1   1   6  170.59    4.05 
  -1   1  -6  168.01    3.93 
  -2  -1  -6   12.13    0.52 
   2  -1   6   13.49    0.57 
   2  -1   6   12.21    0.55 
   2  -1   6   12.32    0.52 
  -2  -1  -6   12.50    0.51 
  -2  -1  -6   11.81    0.53 
  -2  -1  -6   12.45    0.53 
   2   1   6   12.57    0.53 
  -2   1  -6   12.02    0.55 
  -2   1  -6   12.23    0.37 
  -2   1  -6   12.88    0.55 
   2   1   6   12.27    0.53 
   3  -1   6   77.55    2.10 
   3  -1   6   78.98    2.14 
   3  -1   6   79.86    2.15 
  -3  -1  -6   78.51    2.09 
  -3  -1  -6   77.36    2.07 
  -3  -1  -6   76.16    2.07 
   3   1   6   79.32    2.09 
  -3   1  -6   79.71    2.13 
  -3   1  -6   75.30    1.90 
  -3   1  -6   76.81    2.14 
   3   1   6   78.43    2.12 
   4  -1   6   23.90    0.91 
  -4  -1  -6   24.66    0.87 
   4  -1   6   23.75    0.92 
   4  -1   6   24.09    0.89 
  -4  -1  -6   25.50    0.86 
  -4  -1  -6   23.21    0.87 
  -4   1  -6   24.07    0.91 
   4   1   6   24.87    0.92 
  -4   1  -6   23.27    0.74 
  -4   1  -6   23.76    0.90 
   4   1   6   24.05    0.87 
   5  -1   6   15.69    0.70 
  -5  -1  -6   14.49    0.67 
   5  -1   6   15.28    0.73 
  -5  -1  -6   14.64    0.67 
  -5  -1  -6   15.68    0.64 
  -5   1  -6   16.19    0.72 
  -5   1  -6   16.08    0.59 
   5   1   6   14.96    0.70 
  -5   1  -6   15.67    0.72 
   5   1   6   15.05    0.68 
  -6  -1  -6    2.11    0.28 
  -6  -1  -6    0.84    0.22 
   6  -1   6    1.50    0.31 
  -6  -1  -6    0.88    0.23 
   6  -1   6    1.16    0.26 
   6   1   6    1.41    0.26 
  -6   1  -6    1.31    0.26 
   6   1   6    0.99    0.25 
  -6   1  -6    1.29    0.26 
   7  -1   6    7.94    0.50 
  -7  -1  -6    8.70    0.56 
   7  -1   6    8.22    0.55 
   7  -1   6    9.94    0.63 
  -7  -1  -6    7.84    0.52 
  -7   1  -6    8.94    0.59 
  -7   1  -6    7.43    0.51 
   7   1   6    8.31    0.54 
   7   1   6    8.26    0.56 
   8  -1   6   11.83    0.74 
   8  -1   6   11.10    0.68 
  -8  -1  -6   12.04    0.67 
   8  -1   6   11.16    0.62 
  -8  -1  -6   10.36    0.66 
  -8   1  -6   10.88    0.68 
  -8   1  -6   11.78    0.65 
   8   1   6   10.24    0.67 
   8   1   6   10.60    0.65 
   9  -1   6    5.21    0.61 
  -9  -1  -6    3.70    0.50 
  -9  -1  -6    4.42    0.54 
   9  -1   6    3.99    0.53 
   9  -1   6    4.88    0.56 
  -9   1  -6    4.26    0.56 
   9   1   6    3.42    0.51 
  10  -2  -6    2.71    0.42 
  10  -2  -6    2.39    0.43 
 -10   2   6    1.68    0.31 
  10   2  -6    1.64    0.35 
   9  -2  -6    8.97    0.61 
   9  -2  -6    8.12    0.55 
  -9   2   6    8.10    0.54 
   9   2  -6    9.10    0.57 
   8  -2  -6    8.32    0.55 
   8  -2  -6    7.23    0.49 
   8   2  -6    7.35    0.50 
  -8   2   6    7.95    0.50 
  -8   2   6    7.70    0.45 
   7  -2  -6    1.64    0.27 
   7  -2  -6    1.69    0.30 
  -7   2   6    2.37    0.32 
   7   2  -6    2.22    0.31 
  -7   2   6    3.11    0.34 
   6  -2  -6    1.03    0.23 
   6  -2  -6    1.41    0.25 
  -6   2   6    1.14    0.22 
  -6   2   6    1.07    0.21 
   6   2  -6    0.96    0.20 
   5  -2  -6   14.17    0.64 
   5  -2  -6   13.54    0.61 
   5   2  -6   13.84    0.56 
  -5   2   6   13.84    0.59 
  -5   2   6   14.77    0.61 
   4  -2  -6    3.10    0.26 
   4  -2  -6    3.28    0.28 
  -4   2   6    3.90    0.29 
  -4   2   6    3.79    0.28 
   4   2  -6    3.58    0.24 
   3  -2  -6   21.93    0.80 
   3  -2  -6   22.49    0.78 
   3  -2  -6   21.60    0.76 
  -3   2   6   21.69    0.77 
   3   2  -6   23.23    0.69 
  -3   2   6   22.14    0.78 
   3   2  -6   22.08    0.68 
   2  -2  -6   32.25    1.00 
   2  -2  -6   30.87    0.98 
  -2  -2   6   32.07    0.80 
   2  -2  -6   30.86    1.02 
  -2  -2   6   31.36    0.92 
  -2  -2   6   30.16    0.89 
   2   2  -6   32.47    0.87 
   2   2  -6   32.18    0.93 
  -2   2   6   31.83    1.00 
  -2   2   6   31.30    0.98 
  -1  -2   6    4.29    0.28 
   1  -2  -6    4.73    0.29 
  -1  -2   6    4.70    0.23 
   1  -2  -6    4.51    0.31 
   1  -2  -6    4.69    0.29 
  -1  -2   6    4.31    0.26 
  -1   2   6    4.27    0.28 
   1   2  -6    4.24    0.27 
   1   2  -6    4.20    0.19 
  -1   2   6    4.60    0.30 
   0  -2   6   39.13    1.11 
   0  -2  -6   36.99    1.12 
   0  -2  -6   36.68    1.08 
   0  -2  -6   35.82    1.14 
   0  -2   6   36.26    1.02 
   0  -2  -6   35.93    1.13 
   0   2  -6   36.79    1.09 
   0   2   6   35.39    1.08 
   0   2   6   35.59    1.09 
   0   2  -6   34.70    0.90 
   0   2  -6   36.05    1.10 
   1  -2   6   25.31    0.88 
  -1  -2  -6   26.86    0.85 
   1  -2   6   26.45    0.83 
  -1  -2  -6   26.34    0.91 
  -1  -2  -6   25.86    0.87 
  -1  -2  -6   24.99    0.90 
   1  -2   6   25.32    0.88 
   1   2   6   25.27    0.85 
   1   2   6   26.32    0.87 
  -1   2  -6   26.61    0.88 
  -1   2  -6   25.11    0.89 
   2  -2   6   57.46    1.62 
  -2  -2  -6   60.19    1.71 
  -2  -2  -6   59.69    1.64 
  -2  -2  -6   58.74    1.63 
   2  -2   6   56.35    1.68 
   2  -2   6   60.25    1.71 
  -2  -2  -6   57.24    1.71 
   2   2   6   59.93    1.64 
  -2   2  -6   59.90    1.68 
  -2   2  -6   57.74    1.70 
   3  -2   6    8.10    0.44 
  -3  -2  -6    7.83    0.41 
  -3  -2  -6    7.85    0.46 
   3  -2   6    7.45    0.47 
   3  -2   6    7.92    0.53 
  -3  -2  -6    7.88    0.43 
  -3   2  -6    7.97    0.46 
  -3   2  -6    7.50    0.45 
   3   2   6    7.42    0.41 
   4  -2   6   57.43    1.71 
  -4  -2  -6   54.41    1.59 
  -4  -2  -6   55.08    1.67 
  -4  -2  -6   53.05    1.52 
   4  -2   6   54.13    1.62 
  -4   2  -6   55.96    1.69 
   4   2   6   53.96    1.59 
  -4   2  -6   53.53    1.66 
  -5  -2  -6    4.51    0.48 
  -5  -2  -6    3.82    0.27 
   5  -2   6    4.00    0.36 
  -5  -2  -6    3.21    0.38 
  -5   2  -6    3.11    0.39 
   5   2   6    4.23    0.43 
  -5   2  -6    3.46    0.42 
   5   2   6    3.36    0.39 
  -6  -2  -6    8.69    0.51 
  -6  -2  -6    8.45    0.56 
   6  -2   6    8.25    0.53 
   6   2   6    8.19    0.53 
   6   2   6    8.28    0.52 
  -6   2  -6    9.17    0.59 
  -6   2  -6    8.76    0.56 
   7  -2   6    7.03    0.52 
  -7  -2  -6    6.46    0.52 
  -7  -2  -6    6.59    0.46 
  -7   2  -6    6.36    0.50 
   7   2   6    6.25    0.81 
   7   2   6    7.07    0.52 
  -7   2  -6    6.01    0.52 
  -8  -2  -6    6.54    0.55 
  -8  -2  -6    5.94    0.46 
   8  -2   6    5.90    0.51 
   8   2   6    5.33    0.48 
  -8   2  -6    5.88    0.50 
  -9  -2  -6    8.48    0.66 
   9  -2   6    7.72    0.61 
  -9  -2  -6    8.05    0.55 
   9   2   6    8.71    0.64 
  -9   2  -6    7.99    0.59 
  10  -3  -6   21.90    1.07 
  10  -3  -6   20.91    1.02 
  10   3  -6   21.82    1.03 
 -10   3   6   23.24    1.03 
   9  -3  -6    0.66    0.23 
   9  -3  -6    0.90    0.28 
  -9   3   6    0.84    0.23 
   9   3  -6    0.71    0.24 
  -9   3   6    0.71    0.25 
   8  -3  -6    6.09    0.50 
   8  -3  -6    6.45    0.49 
  -8   3   6    6.16    0.48 
   8   3  -6    6.86    0.48 
  -8   3   6    6.27    0.46 
   7  -3  -6   11.52    0.62 
   7  -3  -6   10.54    0.62 
  -7   3   6   11.17    0.61 
   7   3  -6   10.32    0.56 
  -7   3   6   11.19    0.59 
   6  -3  -6    5.72    0.41 
  -6  -3   6    5.71    0.41 
   6  -3  -6    5.16    0.41 
  -6   3   6    4.89    0.39 
  -6   3   6    5.38    0.41 
   6   3  -6    5.20    0.36 
   5  -3  -6   14.33    0.66 
   5  -3  -6   14.67    0.67 
  -5  -3   6   13.66    0.60 
   5   3  -6   13.27    0.56 
  -5   3   6   14.29    0.65 
  -5   3   6   13.98    0.65 
   4  -3  -6   13.21    0.62 
   4  -3  -6   14.18    0.65 
  -4  -3   6   13.25    0.56 
   4  -3  -6   16.70    0.96 
  -4   3   6   14.38    0.63 
   4   3  -6   14.55    0.53 
  -4   3   6   14.23    0.63 
  -3  -3   6   43.47    1.18 
   3  -3  -6   42.88    1.31 
   3  -3  -6   42.27    1.34 
   3  -3  -6   40.62    1.28 
   3   3  -6   39.23    1.11 
  -3   3   6   42.89    1.30 
  -3   3   6   42.71    1.29 
   2  -3  -6    1.98    0.29 
   2  -3  -6    2.19    0.28 
  -2  -3   6    2.35    0.20 
   2  -3  -6    2.49    0.30 
  -2  -3   6    2.13    0.16 
  -2  -3   6    2.22    0.22 
   2   3  -6    2.27    0.24 
  -2   3   6    2.66    0.31 
  -2   3   6    1.99    0.26 
   1  -3  -6    1.29    0.23 
  -1  -3   6    1.11    0.18 
   1  -3  -6    2.02    0.27 
  -1  -3   6    1.55    0.12 
   1  -3  -6    1.85    0.25 
   1  -3  -6    1.50    0.28 
  -1   3   6    1.69    0.24 
   1   3  -6    2.60    0.29 
   0  -3  -6    4.51    0.31 
   0  -3   6    3.45    0.29 
   0  -3   6    3.97    0.23 
   0  -3  -6    4.35    0.34 
   0  -3  -6    4.29    0.34 
   0  -3  -6    4.25    0.30 
   0   3  -6    4.09    0.31 
   0   3   6    4.40    0.30 
   1  -3   6   20.74    0.80 
   1  -3   6   21.29    0.72 
  -1  -3  -6   20.83    0.84 
  -1  -3  -6   22.57    0.78 
  -1  -3  -6   20.99    0.77 
  -1  -3  -6   21.58    0.87 
  -1   3  -6   22.55    0.83 
   1   3   6   21.26    0.77 
  -2  -3  -6    5.68    0.36 
  -2  -3  -6    5.53    0.41 
   2  -3   6    5.94    0.41 
  -2  -3  -6    5.76    0.42 
   2  -3   6    5.88    0.35 
  -2  -3  -6    6.24    0.36 
  -2   3  -6    6.12    0.41 
   2   3   6    5.89    0.37 
  -3  -3  -6   17.08    0.79 
  -3  -3  -6   17.03    0.65 
   3  -3   6   17.47    0.71 
  -3  -3  -6   18.44    0.72 
   3  -3   6   17.53    0.78 
   3   3   6   18.10    0.72 
  -3   3  -6   19.33    0.81 
   4  -3   6   10.60    0.61 
  -4  -3  -6   10.90    0.63 
   4  -3   6   11.09    0.57 
  -4  -3  -6   10.38    0.54 
   4   3   6   11.24    0.55 
  -4   3  -6    9.94    0.59 
  -5  -3  -6    7.25    0.46 
  -5  -3  -6    8.12    0.56 
   5  -3   6    8.37    0.52 
   5   3   6    7.88    0.49 
  -5   3  -6    8.27    0.55 
  -6  -3  -6    7.73    0.59 
   6  -3   6    6.95    0.51 
  -6  -3  -6    7.03    0.46 
  -6   3  -6    7.85    0.56 
   6   3   6    7.60    0.52 
  -7  -3  -6    3.32    0.40 
   7  -3   6    3.67    0.50 
  -7  -3  -6    2.76    0.45 
  -7   3  -6    3.12    0.45 
   7   3   6    3.01    0.43 
  -8  -3  -6    2.08    0.32 
  -8  -3  -6    2.77    0.49 
   8  -3   6    2.76    0.44 
  -8   3  -6    3.64    0.52 
   8   3   6    2.50    0.40 
   9  -4  -6   19.47    0.98 
   9  -4  -6   21.62    1.02 
  -9   4   6   20.74    0.95 
  -8  -4   6    1.12    0.30 
   8  -4  -6    0.86    0.28 
   8  -4  -6    0.79    0.25 
  -8   4   6    0.33    0.20 
   7  -4  -6   18.47    0.87 
  -7  -4   6   18.33    0.85 
   7  -4  -6   17.40    0.86 
  -7   4   6   17.59    0.85 
   6  -4  -6   10.42    0.62 
  -6  -4   6   11.22    0.60 
   6  -4  -6    9.70    0.60 
  -6   4   6   10.94    0.63 
  -5  -4   6   11.36    0.57 
   5  -4  -6    9.86    0.58 
   5  -4  -6   11.14    0.62 
  -5   4   6   10.92    0.61 
  -4  -4   6   54.23    1.60 
   4  -4  -6   50.15    1.59 
   4  -4  -6   46.26    1.53 
  -4   4   6   45.98    1.53 
   3  -4  -6   27.62    1.03 
   3  -4  -6   26.83    0.99 
  -3   4   6   25.66    0.98 
   2  -4  -6   15.18    0.71 
   2  -4  -6   14.83    0.66 
   2  -4  -6   15.19    0.67 
  -2   4   6   14.69    0.66 
   1  -4  -6    3.59    0.38 
   1  -4  -6    4.39    0.51 
   1  -4  -6    3.60    0.31 
   1  -4  -6    3.32    0.38 
  -1  -4   6    3.96    0.29 
  -1   4   6    4.10    0.33 
   1   4  -6    3.68    0.30 
   0  -4  -6   17.22    0.81 
   0  -4  -6   16.34    0.75 
   0  -4   6   16.49    0.68 
   0  -4  -6   16.98    0.69 
   0  -4  -6   16.52    0.70 
   0   4   6   18.05    0.71 
   0   4  -6   17.69    0.72 
  -1  -4  -6   12.97    0.59 
  -1  -4  -6   12.03    0.56 
   1  -4   6   13.16    0.52 
   1  -4   6   14.60    0.64 
  -1  -4  -6   13.00    0.70 
  -1  -4  -6   12.20    0.65 
   1   4   6   14.71    0.62 
  -1   4  -6   12.55    0.63 
  -2  -4  -6   52.99    1.71 
   2  -4   6   53.79    1.55 
   2  -4   6   52.04    1.65 
  -2  -4  -6   54.14    1.51 
  -2  -4  -6   51.11    1.74 
  -2  -4  -6   52.91    1.57 
   2   4   6   56.96    1.59 
  -2   4  -6   56.12    1.71 
  -3  -4  -6    4.13    0.53 
  -3  -4  -6    4.18    0.34 
   3  -4   6    4.41    0.34 
   3  -4   6    4.67    0.51 
  -3   4  -6    4.18    0.47 
   3   4   6    4.41    0.36 
  -4  -4  -6   15.38    0.68 
  -4  -4  -6   14.84    0.82 
   4  -4   6   15.41    0.80 
   4  -4   6   15.26    0.71 
  -4   4  -6   17.31    0.83 
  -5  -4  -6    1.75    0.36 
  -5  -4  -6    1.14    0.24 
   5  -4   6    1.89    0.31 
  -5   4  -6    1.86    0.35 
   6  -4   6    2.64    0.40 
  -6  -4  -6    2.60    0.47 
  -6  -4  -6    2.19    0.31 
  -6   4  -6    2.11    0.40 
   6   4   6    2.93    0.43 
   7  -4   6    1.74    0.35 
  -7  -4  -6    1.34    0.37 
   7   4   6    0.94    0.27 
  -7   4  -6    1.45    0.35 
   7  -5  -6    0.83    0.26 
   7  -5  -6    0.76    0.23 
  -7   5   6    0.75    0.26 
   6  -5  -6   21.03    0.95 
   6  -5  -6   20.15    0.94 
  -6   5   6   19.95    0.96 
   5  -5  -6    4.04    0.50 
   5  -5  -6    4.14    0.50 
  -5   5   6    2.87    0.41 
   4  -5  -6   17.20    0.80 
   4  -5  -6   17.14    0.83 
  -4   5   6   16.84    0.82 
   3  -5  -6   23.94    1.00 
   3  -5  -6   23.41    0.94 
   3  -5  -6   24.72    0.98 
  -3   5   6   23.70    0.98 
   2  -5  -6   11.98    0.61 
   2  -5  -6   13.27    0.75 
   2  -5  -6   12.46    0.68 
   2  -5  -6   11.70    0.64 
  -2   5   6   11.89    0.64 
   1  -5  -6   11.14    0.65 
   1  -5  -6   11.13    0.69 
   1  -5  -6   11.33    0.60 
  -1  -5   6   10.72    0.53 
   1  -5  -6   12.64    0.59 
  -1   5   6   12.25    0.62 
   0  -5  -6    0.44    0.16 
   0  -5   6    0.35    0.15 
   0  -5   6    0.61    0.18 
   0  -5  -6    0.54    0.18 
   0  -5  -6    0.66    0.25 
   0  -5  -6    0.43    0.20 
   0   5  -6    0.37    0.19 
   0   5   6    0.36    0.17 
  -1  -5  -6   26.33    1.12 
   1  -5   6   26.14    1.01 
  -1  -5  -6   28.73    1.02 
  -1  -5  -6   25.23    1.15 
  -1   5  -6   28.89    1.09 
   1   5   6   29.72    1.03 
   2  -5   6    1.39    0.28 
  -2  -5  -6    1.82    0.34 
   2  -5   6    1.42    0.22 
   2  -5   6    1.98    0.35 
  -2  -5  -6    1.82    0.30 
  -2  -5  -6    1.69    0.37 
   2   5   6    2.31    0.33 
  -2   5  -6    1.46    0.28 
  -3  -5  -6   13.21    0.63 
   3  -5   6   13.85    0.63 
   3  -5   6   13.15    0.73 
   3  -5   6   14.28    0.75 
  -3  -5  -6   12.52    0.78 
  -3   5  -6   13.56    0.74 
  -4  -5  -6    2.67    0.35 
   4  -5   6    2.93    0.46 
  -4  -5  -6    3.09    0.49 
   4  -5   6    3.46    0.42 
   4  -5   6    3.24    0.47 
  -4   5  -6    2.86    0.43 
   5  -5   6    7.69    0.53 
  -5  -5  -6    7.89    0.66 
  -5  -5  -6    7.85    0.48 
  -5   5  -6    7.47    0.61 
   6  -5   6    1.11    0.28 
  -6  -5  -6    1.47    0.40 
  -6   5  -6    1.05    0.32 
   5  -6  -6    8.10    0.58 
  -5   6   6    7.73    0.61 
   4  -6  -6    1.79    0.39 
   4  -6  -6    1.36    0.32 
   4  -6  -6    0.94    0.24 
  -4   6   6    0.78    0.26 
   3  -6  -6    3.47    0.43 
   3  -6  -6    3.21    0.44 
   3  -6  -6    2.91    0.43 
   3  -6  -6    3.44    0.54 
  -3   6   6    3.19    0.45 
   2  -6  -6    8.90    0.55 
   2  -6  -6    9.55    0.61 
   2  -6  -6    9.35    0.69 
   2  -6  -6   10.87    0.66 
  -2   6   6   10.73    0.64 
   1  -6  -6    4.61    0.56 
   1  -6  -6    4.48    0.49 
   1  -6  -6    3.51    0.54 
  -1   6   6    4.01    0.48 
   0  -6   6    7.16    0.48 
   0  -6  -6    7.34    0.57 
   0  -6  -6    6.17    0.70 
   0  -6  -6    7.43    0.51 
   0   6   6    8.15    0.54 
  -1  -6  -6    1.90    0.37 
   1  -6   6    1.50    0.28 
  -1  -6  -6    2.12    0.43 
  -1  -6  -6    1.89    0.32 
   1   6   6    2.32    0.43 
  -2  -6  -6    2.77    0.53 
  -2  -6  -6    2.06    0.32 
   2  -6   6    1.59    0.31 
  -2   6  -6    2.07    0.37 
  -3  -6  -6    0.72    0.29 
   3  -6   6    0.55    0.25 
   4  -6   6    2.76    0.46 
  -4  -6  -6    2.96    0.55 
  -4  -6  -6    4.43    0.47 
  -4   6  -6    3.27    0.50 
 -10   0   7    0.34    0.15 
  10   0  -7    0.40    0.22 
  -9   0   7    4.31    0.35 
   9   0  -7    3.36    0.43 
   8   0  -7    2.10    0.34 
  -8   0   7    2.23    0.29 
   7   0  -7   60.99    1.80 
  -7   0   7   60.37    1.71 
   7   0  -7   60.23    1.69 
   6   0  -7    1.11    0.23 
   6   0  -7    1.27    0.20 
  -6   0   7    1.23    0.21 
  -5   0   7  189.19    4.62 
   5   0  -7  190.50    4.70 
  -5   0   7  192.75    4.52 
   5   0  -7  194.55    4.61 
  -4   0   7   28.29    0.87 
   4   0  -7   29.64    0.96 
  -4   0   7   29.73    0.94 
   4   0  -7   29.80    0.91 
  -3   0   7   10.12    0.43 
   3   0  -7   10.97    0.45 
  -3   0   7    9.82    0.46 
   3   0  -7   10.31    0.46 
  -2   0   7    9.59    0.46 
   2   0  -7   11.38    0.45 
   2   0  -7   10.30    0.45 
  -2   0   7   10.15    0.45 
   2   0  -7    9.68    0.43 
  -1   0   7  237.45    5.67 
   1   0  -7  248.54    5.73 
   1   0  -7  237.96    5.67 
  -1   0   7  239.82    5.70 
   1   0  -7  236.56    5.66 
   0   0   7    2.41    0.26 
   0   0  -7    2.69    0.24 
   0   0   7    2.48    0.28 
   0   0  -7    2.62    0.28 
   0   0  -7    2.30    0.25 
   0   0  -7    2.49    0.18 
  -1   0  -7   30.67    0.95 
  -1   0  -7   30.84    0.88 
   1   0   7   31.10    1.02 
  -1   0  -7   30.10    1.01 
   1   0   7   31.31    1.00 
   1   0   7   30.13    0.98 
  -2   0  -7   48.24    1.44 
   2   0   7   46.99    1.42 
  -2   0  -7   46.97    1.28 
  -2   0  -7   48.07    1.41 
   2   0   7   45.42    1.40 
   2   0   7   48.79    1.45 
  -2   0  -7   48.61    1.37 
  -3   0  -7   70.31    1.88 
   3   0   7   72.61    2.05 
   3   0   7   72.33    2.03 
  -3   0  -7   73.97    2.05 
  -3   0  -7   73.28    2.05 
   3   0   7   75.68    2.03 
  -4   0  -7   31.46    1.07 
  -4   0  -7   28.50    0.94 
   4   0   7   29.69    1.09 
   4   0   7   29.63    1.05 
  -4   0  -7   30.54    1.07 
   5   0   7    9.21    0.56 
  -5   0  -7    8.70    0.50 
  -5   0  -7    8.86    0.54 
   5   0   7    8.19    0.51 
  -5   0  -7    8.12    0.44 
   6   0   7   43.87    1.48 
  -6   0  -7   46.37    1.47 
   6   0   7   44.03    1.52 
  -6   0  -7   44.20    1.50 
  -6   0  -7   43.83    1.39 
   7   0   7    0.13    0.15 
   7   0   7    0.06    0.14 
  -7   0  -7   -0.06    0.13 
  -7   0  -7    0.03    0.12 
   8   0   7    2.22    0.39 
  -8   0  -7    2.88    0.47 
   8   0   7    3.10    0.48 
   9   0   7    0.90    0.30 
   9   0   7    0.59    0.28 
   9   0   7    0.76    0.27 
  -9   0  -7    0.41    0.22 
  10  -1  -7    2.06    0.37 
  10   1  -7    3.04    0.46 
 -10   1   7    2.97    0.39 
   9  -1  -7    0.85    0.22 
   9  -1  -7    0.64    0.24 
   9   1  -7    0.66    0.23 
  -9   1   7    0.83    0.22 
   8  -1  -7   13.66    0.72 
   8  -1  -7   13.89    0.65 
   8   1  -7   12.98    0.67 
  -8   1   7   13.79    0.64 
   7  -1  -7   11.05    0.61 
   7  -1  -7   11.54    0.55 
   7   1  -7   10.78    0.57 
  -7   1   7   10.41    0.54 
  -7   1   7   11.13    0.49 
   6  -1  -7  107.02    2.76 
  -6   1   7  107.28    2.76 
  -6   1   7  102.32    2.67 
   6   1  -7  105.73    2.76 
  -5  -1   7   33.40    1.01 
   5  -1  -7   34.43    1.13 
   5  -1  -7   32.76    1.06 
   5   1  -7   31.87    0.97 
   5   1  -7   32.20    1.04 
  -5   1   7   33.95    1.03 
  -5   1   7   32.94    1.07 
   4  -1  -7   93.01    2.39 
   4  -1  -7   91.74    2.44 
  -4  -1   7   89.96    2.17 
  -4  -1   7   91.86    2.33 
  -4   1   7   94.47    2.41 
  -4   1   7   91.38    2.36 
   4   1  -7   93.37    2.31 
   4   1  -7   89.17    2.36 
  -3  -1   7   47.15    1.31 
   3  -1  -7   46.60    1.35 
   3  -1  -7   45.16    1.32 
  -3  -1   7   48.33    1.20 
   3  -1  -7   46.84    1.37 
   3   1  -7   47.97    1.31 
  -3   1   7   46.05    1.33 
  -3   1   7   45.96    1.35 
   3   1  -7   45.07    1.28 
   2  -1  -7  106.32    2.71 
  -2  -1   7  112.16    2.63 
   2  -1  -7  106.91    2.75 
   2  -1  -7  105.85    2.73 
  -2  -1   7  107.55    2.71 
  -2   1   7  105.28    2.74 
  -2   1   7  110.71    2.74 
   2   1  -7  110.27    2.71 
   2   1  -7  106.81    2.65 
  -1  -1   7    2.62    0.29 
   1  -1  -7    2.10    0.25 
   1  -1  -7    2.23    0.27 
   1  -1  -7    2.74    0.29 
  -1  -1   7    2.44    0.19 
   1   1  -7    2.34    0.21 
   1   1  -7    2.12    0.17 
   1   1  -7    2.78    0.28 
  -1   1   7    2.59    0.30 
  -1   1   7    2.37    0.27 
   0  -1  -7   82.69    2.20 
   0  -1   7   81.10    2.16 
   0  -1   7   82.49    2.12 
   0  -1  -7   83.80    2.19 
   0  -1  -7   86.75    2.15 
   0  -1   7   82.59    2.17 
   0  -1  -7   81.37    2.15 
   0   1   7   84.30    2.18 
   0   1   7   81.33    2.16 
   0   1  -7   81.48    1.94 
   0   1  -7   79.43    2.17 
   0   1  -7   82.63    2.06 
   0   1  -7   81.75    2.14 
  -1  -1  -7   59.63    1.60 
   1  -1   7   59.60    1.65 
  -1  -1  -7   57.94    1.61 
   1  -1   7   55.61    1.62 
   1  -1   7   57.30    1.60 
  -1  -1  -7   56.85    1.63 
  -1  -1  -7   57.78    1.65 
  -1   1  -7   55.98    1.65 
   1   1   7   56.81    1.63 
  -1   1  -7   56.49    1.51 
   1   1   7   59.50    1.63 
  -1   1  -7   58.65    1.64 
   2  -1   7   51.21    1.49 
  -2  -1  -7   53.00    1.53 
  -2  -1  -7   51.78    1.46 
  -2  -1  -7   51.82    1.52 
   2  -1   7   52.96    1.55 
   2  -1   7   50.61    1.53 
  -2  -1  -7   52.27    1.50 
   2   1   7   50.47    1.50 
  -2   1  -7   50.76    1.51 
   2   1   7   49.71    1.50 
  -3  -1  -7   11.43    0.54 
   3  -1   7   10.98    0.56 
  -3  -1  -7    9.72    0.48 
   3  -1   7   10.39    0.56 
  -3  -1  -7   11.55    0.54 
   3  -1   7   10.95    0.54 
   3   1   7    9.86    0.51 
  -3   1  -7    9.86    0.54 
  -3   1  -7    9.28    0.52 
   3   1   7   10.26    0.54 
   4  -1   7   38.34    1.30 
  -4  -1  -7   39.53    1.24 
  -4  -1  -7   38.09    1.27 
  -4  -1  -7   36.93    1.20 
   4  -1   7   38.69    1.27 
  -4   1  -7   37.44    1.29 
   4   1   7   38.07    1.30 
  -4   1  -7   38.09    1.28 
   4   1   7   37.84    1.25 
  -5  -1  -7   28.05    0.98 
  -5  -1  -7   27.71    1.00 
   5  -1   7   28.23    1.05 
   5  -1   7   27.75    1.09 
  -5  -1  -7   28.04    1.04 
  -5   1  -7   27.96    1.07 
  -5   1  -7   28.44    1.08 
   5   1   7   26.39    1.02 
   5   1   7   28.47    1.08 
  -6  -1  -7    2.46    0.36 
   6  -1   7    2.11    0.36 
  -6  -1  -7    3.29    0.30 
  -6  -1  -7    2.25    0.34 
   6  -1   7    3.17    0.48 
   6   1   7    3.02    0.38 
  -6   1  -7    2.18    0.33 
  -6   1  -7    3.47    0.46 
   6   1   7    2.98    0.42 
  -7  -1  -7   17.75    0.85 
   7  -1   7   19.60    0.95 
  -7  -1  -7   17.64    0.83 
   7  -1   7   18.01    0.86 
   7   1   7   17.17    0.84 
  -7   1  -7   18.17    0.90 
   7   1   7   17.67    0.88 
  -7   1  -7   17.62    0.83 
  -8  -1  -7    2.99    0.43 
   8  -1   7    3.03    0.46 
  -8  -1  -7    3.31    0.47 
   8  -1   7    4.34    0.51 
  -8   1  -7    3.18    0.42 
   8   1   7    3.65    0.50 
   8   1   7    4.24    0.52 
  -8   1  -7    3.38    0.50 
  -9  -1  -7    5.41    0.60 
   9  -1   7    5.61    0.64 
   9   1   7    4.69    0.62 
  -9   1  -7    5.68    0.68 
  10  -2  -7    1.44    0.35 
  10  -2  -7    1.48    0.34 
 -10   2   7    0.99    0.26 
  10   2  -7    1.85    0.35 
   9  -2  -7    2.14    0.38 
   9  -2  -7    3.51    0.43 
  -9   2   7    2.24    0.35 
   9   2  -7    2.64    0.40 
   8  -2  -7   17.21    0.84 
   8  -2  -7   17.65    0.79 
   8   2  -7   15.60    0.75 
  -8   2   7   15.61    0.74 
  -8   2   7   16.37    0.69 
   7  -2  -7    9.04    0.53 
   7  -2  -7    9.24    0.57 
  -7   2   7    9.31    0.53 
   7   2  -7    9.14    0.52 
  -7   2   7    9.00    0.49 
   6  -2  -7    6.15    0.42 
   6  -2  -7    6.99    0.46 
  -6   2   7    5.30    0.39 
   6   2  -7    5.55    0.37 
  -6   2   7    6.21    0.39 
   5  -2  -7   75.77    2.05 
   5  -2  -7   72.51    2.08 
   5   2  -7   72.18    1.95 
  -5   2   7   71.75    2.03 
  -5   2   7   71.86    1.99 
   4  -2  -7   11.73    0.57 
   4  -2  -7   11.78    0.55 
   4   2  -7   11.28    0.47 
  -4   2   7   11.11    0.53 
  -4   2   7   10.89    0.53 
   3  -2  -7   76.39    2.11 
  -3  -2   7   78.56    2.00 
   3  -2  -7   77.23    2.09 
  -3  -2   7   78.43    1.97 
   3  -2  -7   77.87    2.14 
  -3   2   7   77.49    2.09 
   3   2  -7   78.80    2.02 
   3   2  -7   80.40    2.00 
  -3   2   7   76.83    2.11 
  -2  -2   7    6.03    0.25 
  -2  -2   7    6.17    0.34 
   2  -2  -7    5.97    0.36 
   2  -2  -7    5.97    0.36 
   2  -2  -7    5.58    0.37 
   2   2  -7    6.15    0.34 
  -2   2   7    6.28    0.37 
  -2   2   7    6.56    0.38 
   2   2  -7    6.19    0.28 
  -1  -2   7  166.31    3.94 
   1  -2  -7  164.13    4.13 
   1  -2  -7  165.35    4.10 
  -1  -2   7  163.36    4.05 
   1  -2  -7  166.85    4.07 
  -1   2   7  167.61    4.09 
   1   2  -7  172.15    4.07 
  -1   2   7  168.63    4.07 
   1   2  -7  162.71    3.89 
   0  -2  -7   11.58    0.52 
   0  -2  -7   10.99    0.55 
   0  -2  -7   13.36    0.57 
   0  -2  -7   12.11    0.56 
   0  -2   7   11.73    0.53 
   0  -2   7   11.86    0.47 
   0   2   7   12.15    0.55 
   0   2  -7   11.84    0.54 
   0   2   7   11.08    0.52 
   0   2  -7   11.71    0.39 
   1  -2   7   10.00    0.46 
  -1  -2  -7   10.59    0.49 
  -1  -2  -7   10.01    0.51 
   1  -2   7   10.26    0.52 
  -1  -2  -7   10.37    0.53 
  -1  -2  -7   10.62    0.50 
  -1   2  -7    9.66    0.51 
   1   2   7    8.83    0.48 
   2  -2   7   21.66    0.87 
  -2  -2  -7   21.91    0.82 
  -2  -2  -7   23.29    0.84 
   2  -2   7   21.68    0.80 
  -2  -2  -7   22.22    0.86 
  -2  -2  -7   21.45    0.87 
   2   2   7   23.43    0.84 
  -2   2  -7   23.93    0.89 
   3  -2   7   38.20    1.30 
  -3  -2  -7   38.25    1.21 
  -3  -2  -7   38.29    1.22 
   3  -2   7   40.44    1.24 
  -3  -2  -7   37.43    1.26 
   3   2   7   36.30    1.22 
  -3   2  -7   36.98    1.27 
   4  -2   7    5.18    0.44 
   4  -2   7    6.06    0.41 
  -4  -2  -7    5.60    0.36 
  -4  -2  -7    5.12    0.40 
  -4  -2  -7    5.49    0.40 
   4   2   7    6.34    0.42 
  -4   2  -7    5.21    0.42 
  -5  -2  -7    4.94    0.33 
  -5  -2  -7    5.20    0.42 
   5  -2   7    5.26    0.42 
  -5  -2  -7    5.10    0.41 
   5   2   7    4.61    0.41 
  -5   2  -7    5.06    0.43 
   5   2   7    5.20    0.41 
   6  -2   7   50.84    1.70 
  -6  -2  -7   51.68    1.66 
  -6  -2  -7   53.83    1.74 
   6   2   7   55.51    1.70 
  -6   2  -7   51.25    1.74 
   6   2   7   52.81    1.72 
   7  -2   7    5.45    0.59 
  -7  -2  -7    3.64    0.45 
  -7  -2  -7    4.55    0.55 
   7   2   7    5.34    0.48 
   7   2   7    5.30    0.54 
  -7   2  -7    5.38    0.47 
  -8  -2  -7    4.84    0.60 
   8  -2   7    4.09    0.55 
  -8  -2  -7    3.89    0.47 
   8   2   7    4.40    0.55 
  -8   2  -7    3.92    0.51 
   9  -3  -7    8.70    0.64 
   9  -3  -7    9.60    0.63 
  -9   3   7    8.92    0.61 
  -9   3   7    8.55    0.55 
   9   3  -7    8.32    0.58 
   8  -3  -7    2.69    0.39 
   8  -3  -7    2.30    0.39 
   8   3  -7    2.53    0.38 
  -8   3   7    2.94    0.40 
  -8   3   7    3.13    0.40 
   7  -3  -7   10.06    0.62 
   7  -3  -7   10.40    0.61 
  -7   3   7    9.51    0.56 
   7   3  -7   10.44    0.55 
  -7   3   7   11.52    0.62 
   6  -3  -7   15.00    0.73 
   6  -3  -7   16.16    0.76 
  -6   3   7   15.67    0.71 
   6   3  -7   15.36    0.65 
  -6   3   7   16.55    0.74 
   5  -3  -7    0.35    0.15 
   5  -3  -7    0.08    0.12 
  -5   3   7    0.15    0.13 
  -5   3   7    0.22    0.14 
   5   3  -7    0.17    0.10 
   4  -3  -7   24.47    0.94 
   4  -3  -7   23.73    0.91 
  -4   3   7   23.32    0.90 
  -4   3   7   23.81    0.89 
   3  -3  -7   11.44    0.57 
   3  -3  -7   11.53    0.60 
   3  -3  -7   11.21    0.56 
  -3   3   7   11.52    0.57 
  -3   3   7   11.92    0.57 
  -2  -3   7   98.11    2.54 
   2  -3  -7   99.51    2.63 
   2  -3  -7  101.74    2.72 
   2  -3  -7  102.31    2.67 
  -2   3   7   99.67    2.64 
   2   3  -7  101.73    2.58 
   1  -3  -7   14.34    0.62 
   1  -3  -7   14.07    0.68 
  -1  -3   7   14.61    0.47 
  -1  -3   7   14.23    0.60 
   1  -3  -7   14.83    0.68 
   1  -3  -7   13.84    0.62 
   1   3  -7   14.47    0.61 
  -1   3   7   14.62    0.63 
   0  -3   7   80.83    2.08 
   0  -3   7   80.35    2.22 
   0  -3  -7   81.88    2.21 
   0  -3  -7   82.70    2.25 
   0  -3  -7   84.62    2.33 
   0  -3  -7   81.91    2.31 
   0   3  -7   82.18    2.25 
   0   3   7   81.84    2.20 
   1  -3   7    4.28    0.29 
  -1  -3  -7    4.78    0.34 
  -1  -3  -7    3.41    0.36 
  -1  -3  -7    4.70    0.49 
  -1  -3  -7    4.21    0.36 
   1  -3   7    3.85    0.41 
   1   3   7    3.87    0.32 
  -1   3  -7    4.08    0.34 
  -2  -3  -7   14.34    0.64 
  -2  -3  -7   15.43    0.63 
  -2  -3  -7   14.49    0.71 
   2  -3   7   14.97    0.62 
   2  -3   7   14.15    0.69 
  -2  -3  -7   15.10    0.73 
   2   3   7   13.80    0.64 
  -2   3  -7   14.61    0.69 
   3  -3   7   20.04    0.86 
  -3  -3  -7   18.27    0.77 
  -3  -3  -7   17.42    0.70 
  -3  -3  -7   18.74    0.85 
   3  -3   7   19.00    0.76 
  -3   3  -7   17.22    0.81 
   3   3   7   19.19    0.77 
   4  -3   7   11.92    0.61 
  -4  -3  -7   11.12    0.66 
  -4  -3  -7   11.90    0.60 
   4  -3   7   11.36    0.66 
   4   3   7   11.24    0.58 
  -4   3  -7   11.49    0.66 
   5  -3   7   51.07    1.63 
  -5  -3  -7   47.65    1.69 
  -5  -3  -7   48.23    1.57 
   5   3   7   52.04    1.61 
  -5   3  -7   51.51    1.72 
   6  -3   7    0.08    0.16 
  -6  -3  -7    0.27    0.17 
  -6  -3  -7    0.13    0.19 
   6   3   7    0.33    0.19 
  -6   3  -7    0.24    0.16 
  -7  -3  -7   15.14    0.75 
  -7  -3  -7   15.94    0.90 
   7  -3   7   16.19    0.85 
  -7   3  -7   16.30    0.88 
   7   3   7   15.99    0.84 
  -8  -3  -7    0.50    0.20 
  -8  -3  -7    1.48    0.39 
   8  -3   7    0.94    0.29 
   8   3   7    1.18    0.31 
  -8   3  -7    1.12    0.32 
   8  -4  -7    9.52    0.65 
   8  -4  -7    9.27    0.63 
  -8   4   7    9.39    0.63 
   7  -4  -7    5.29    0.60 
   7  -4  -7    4.52    0.52 
  -7   4   7    5.51    0.47 
   6  -4  -7    4.60    0.52 
   6  -4  -7    4.68    0.42 
  -6   4   7    4.72    0.43 
   5  -4  -7   17.19    0.80 
   5  -4  -7   16.41    0.80 
  -5   4   7   16.20    0.77 
   4  -4  -7    2.37    0.35 
   4  -4  -7    1.97    0.31 
  -4   4   7    1.79    0.31 
   3  -4  -7    2.77    0.36 
   3  -4  -7    3.50    0.43 
   3  -4  -7    3.52    0.42 
  -3   4   7    2.90    0.36 
   2  -4  -7    6.29    0.44 
   2  -4  -7    6.71    0.51 
   2  -4  -7    7.01    0.49 
   2  -4  -7    6.89    0.44 
  -2   4   7    6.33    0.44 
  -1  -4   7   37.96    1.20 
   1  -4  -7   39.21    1.36 
   1  -4  -7   40.05    1.28 
   1  -4  -7   39.14    1.28 
   1  -4  -7   38.41    1.40 
   1   4  -7   38.94    1.26 
  -1   4   7   40.05    1.29 
   0  -4   7    1.40    0.25 
   0  -4  -7    1.08    0.29 
   0  -4  -7    1.38    0.26 
   0  -4  -7    1.21    0.28 
   0  -4  -7    0.91    0.21 
   0   4   7    1.65    0.27 
   0   4  -7    1.30    0.25 
  -1  -4  -7    6.48    0.41 
   1  -4   7    6.73    0.37 
  -1  -4  -7    5.89    0.48 
  -1  -4  -7    7.43    0.51 
   1  -4   7    6.07    0.44 
  -1  -4  -7    7.22    0.45 
   1   4   7    6.32    0.43 
  -1   4  -7    5.81    0.44 
   2  -4   7    2.64    0.39 
  -2  -4  -7    2.26    0.32 
  -2  -4  -7    2.26    0.41 
  -2  -4  -7    2.90    0.33 
   2  -4   7    1.79    0.26 
  -2  -4  -7    1.83    0.33 
   2   4   7    2.26    0.33 
  -2   4  -7    2.21    0.34 
   3  -4   7    3.06    0.35 
  -3  -4  -7    3.39    0.50 
   3  -4   7    3.13    0.44 
  -3  -4  -7    3.58    0.41 
   3   4   7    3.14    0.39 
  -3   4  -7    3.90    0.50 
  -4  -4  -7    5.95    0.44 
   4  -4   7    6.85    0.46 
  -4  -4  -7    7.78    0.58 
   4  -4   7    7.04    0.55 
   4   4   7    6.42    0.47 
  -4   4  -7    6.45    0.52 
  -5  -4  -7    1.56    0.29 
   5  -4   7    2.16    0.34 
  -5  -4  -7    1.76    0.38 
  -5   4  -7    1.95    0.36 
   6  -4   7    9.23    0.60 
  -6  -4  -7    7.32    0.51 
  -6  -4  -7    9.65    0.70 
   6   4   7    8.55    0.60 
  -6   4  -7    8.65    0.65 
  -7  -4  -7    1.41    0.27 
  -7  -4  -7    1.05    0.34 
   7  -4   7    2.14    0.40 
   7   4   7    1.10    0.29 
  -7   4  -7    1.73    0.37 
   7  -5  -7    7.32    0.58 
   7  -5  -7    7.30    0.57 
  -7   5   7    6.65    0.56 
   6  -5  -7   14.88    0.80 
   6  -5  -7   15.36    0.83 
  -6   5   7   14.39    0.80 
   5  -5  -7    1.51    0.32 
   5  -5  -7    1.78    0.33 
  -5   5   7    1.49    0.32 
   4  -5  -7    3.30    0.45 
   4  -5  -7    4.22    0.50 
  -4   5   7    3.86    0.47 
   3  -5  -7    2.22    0.35 
   3  -5  -7    2.34    0.38 
   3  -5  -7    1.84    0.34 
   3  -5  -7    1.81    0.36 
  -3   5   7    1.88    0.32 
   2  -5  -7    7.34    0.59 
   2  -5  -7    8.56    0.52 
   2  -5  -7    8.30    0.54 
   2  -5  -7    9.09    0.59 
  -2   5   7    8.10    0.54 
  -1  -5   7    2.58    0.31 
  -1  -5   7    1.75    0.26 
   1  -5  -7    2.92    0.47 
   1  -5  -7    3.00    0.38 
   1  -5  -7    2.90    0.42 
   1  -5  -7    3.26    0.40 
  -1   5   7    3.41    0.41 
   0  -5  -7    2.40    0.36 
   0  -5  -7    1.86    0.29 
   0  -5   7    2.20    0.32 
   0  -5  -7    1.80    0.36 
   0  -5  -7    1.58    0.35 
   0   5   7    2.60    0.36 
  -1  -5  -7    0.75    0.24 
   1  -5   7    1.16    0.26 
  -1  -5  -7    0.79    0.22 
  -1  -5  -7    0.86    0.27 
   1   5   7    0.58    0.20 
  -1   5  -7    0.66    0.21 
   2  -5   7    1.24    0.29 
  -2  -5  -7    1.59    0.35 
  -2  -5  -7    1.34    0.26 
  -2  -5  -7    1.03    0.31 
   2   5   7    1.34    0.28 
  -2   5  -7    1.08    0.29 
  -3  -5  -7    0.27    0.18 
   3  -5   7    0.10    0.13 
  -3  -5  -7    0.07    0.18 
   3  -5   7    0.05    0.15 
  -3   5  -7    0.08    0.16 
   4  -5   7    6.68    0.58 
   4  -5   7    6.74    0.57 
  -4  -5  -7    6.07    0.47 
   4  -5   7    6.34    0.46 
  -4  -5  -7    7.16    0.62 
  -4   5  -7    6.48    0.55 
  -5  -5  -7    0.93    0.24 
   5  -5   7    1.08    0.27 
  -5  -5  -7    0.60    0.27 
  -5   5  -7    0.60    0.24 
  -6  -5  -7    3.04    0.53 
  -6  -5  -7    2.46    0.37 
   6  -5   7    3.02    0.46 
  -6   5  -7    2.26    0.43 
   5  -6  -7    5.14    0.62 
   5  -6  -7    4.67    0.56 
  -5   6   7    5.36    0.61 
   4  -6  -7    6.36    0.54 
   4  -6  -7    6.21    0.74 
   4  -6  -7    5.96    0.50 
  -4   6   7    4.45    0.54 
   3  -6  -7    2.26    0.39 
   3  -6  -7    2.63    0.42 
   3  -6  -7    2.81    0.41 
   3  -6  -7    1.94    0.44 
  -3   6   7    2.10    0.38 
   2  -6  -7    1.48    0.35 
   2  -6  -7    1.22    0.34 
   2  -6  -7    1.41    0.34 
   2  -6  -7    1.36    0.29 
  -2   6   7    1.62    0.35 
   1  -6  -7    8.88    0.59 
   1  -6  -7   10.00    0.67 
   1  -6  -7    8.03    0.67 
  -1   6   7    8.95    0.59 
   0  -6  -7    2.34    0.41 
   0  -6  -7    1.71    0.31 
   0  -6   7    1.77    0.30 
   0  -6  -7    2.37    0.47 
   0   6   7    2.52    0.39 
  -1  -6  -7    9.20    0.65 
   1  -6   7    7.84    0.55 
  -1  -6  -7    7.47    0.54 
  -1  -6  -7    5.70    0.68 
   1   6   7    7.91    0.55 
   2  -6   7    4.55    0.53 
  -2  -6  -7    5.14    0.44 
  -2  -6  -7    5.91    0.73 
  -2   6  -7    5.36    0.61 
   3  -6   7   17.14    0.91 
  -3  -6  -7   16.32    0.78 
  -3  -6  -7   16.19    0.99 
  -3   6  -7   15.92    0.91 
  -4  -6  -7    0.67    0.31 
   4  -6   7    0.71    0.32 
  -4  -6  -7    1.15    0.29 
  -4   6  -7    0.67    0.27 
 -10   0   8    2.08    0.31 
  10   0  -8    1.74    0.36 
   9   0  -8    3.85    0.49 
  -9   0   8    3.41    0.38 
  -8   0   8    0.57    0.18 
   8   0  -8    0.68    0.22 
   7   0  -8    0.51    0.19 
  -7   0   8    0.64    0.18 
  -6   0   8    0.85    0.20 
   6   0  -8    0.72    0.20 
   6   0  -8    0.99    0.18 
  -5   0   8    1.81    0.27 
  -5   0   8    1.95    0.22 
   5   0  -8    2.00    0.29 
   5   0  -8    1.97    0.26 
  -4   0   8    0.13    0.10 
   4   0  -8    0.27    0.11 
   4   0  -8    0.29    0.12 
   3   0  -8    5.50    0.34 
   3   0  -8    5.50    0.33 
  -3   0   8    6.16    0.34 
  -3   0   8    5.53    0.36 
   2   0  -8    2.39    0.27 
  -2   0   8    2.35    0.27 
   2   0  -8    2.31    0.28 
  -2   0   8    2.17    0.28 
  -1   0   8   83.48    2.25 
   1   0  -8   88.27    2.27 
  -1   0   8   82.97    2.21 
   1   0  -8   85.49    2.21 
   1   0  -8   82.40    2.20 
   0   0  -8   11.82    0.54 
   0   0  -8   11.34    0.54 
   0   0   8   11.66    0.54 
   0   0   8   10.91    0.52 
   0   0  -8   11.42    0.44 
   0   0  -8   10.83    0.49 
   1   0   8    7.79    0.46 
  -1   0  -8    8.25    0.42 
   1   0   8    8.55    0.46 
  -1   0  -8    8.07    0.45 
  -1   0  -8    8.17    0.46 
   1   0   8    7.76    0.46 
  -1   0  -8    8.31    0.36 
   2   0   8   67.58    1.95 
   2   0   8   69.83    1.98 
  -2   0  -8   69.96    2.00 
   2   0   8   70.89    2.02 
  -2   0  -8   68.31    1.80 
  -2   0  -8   71.55    1.92 
  -2   0  -8   70.26    1.97 
  -3   0  -8   17.65    0.75 
  -3   0  -8   16.21    0.60 
   3   0   8   16.57    0.75 
  -3   0  -8   16.01    0.73 
   3   0   8   16.66    0.73 
   4   0   8   19.76    0.86 
  -4   0  -8   18.54    0.81 
  -4   0  -8   20.38    0.84 
  -4   0  -8   17.84    0.73 
   4   0   8   18.88    0.81 
   5   0   8    5.60    0.45 
  -5   0  -8    5.99    0.47 
  -5   0  -8    6.28    0.45 
   5   0   8    6.62    0.51 
   6   0   8   16.62    0.85 
  -6   0  -8   17.20    0.80 
   6   0   8   15.86    0.81 
  -6   0  -8   17.95    0.85 
  -7   0  -8    9.53    0.64 
  -7   0  -8   10.44    0.60 
   7   0   8    9.65    0.65 
   7   0   8   10.73    0.70 
  -8   0  -8    2.62    0.45 
   8   0   8    2.37    0.41 
   8   0   8    2.30    0.45 
  10  -1  -8    8.99    0.65 
 -10   1   8    9.30    0.58 
  10   1  -8    7.24    0.58 
   9  -1  -8    0.71    0.24 
   9  -1  -8    0.60    0.24 
  -9   1   8    0.54    0.20 
   9   1  -8    0.68    0.23 
   8  -1  -8    0.24    0.18 
   8  -1  -8    0.54    0.18 
   8   1  -8    0.35    0.18 
  -8   1   8    0.48    0.18 
   7  -1  -8    0.40    0.19 
   7  -1  -8    0.30    0.14 
   7   1  -8    0.47    0.18 
  -7   1   8    0.94    0.20 
  -7   1   8    0.66    0.18 
   6  -1  -8   20.67    0.86 
   6  -1  -8   21.05    0.80 
  -6  -1   8   20.14    0.74 
  -6   1   8   20.75    0.82 
   6   1  -8   19.98    0.80 
  -6   1   8   19.67    0.75 
   5  -1  -8    7.02    0.45 
  -5  -1   8    7.06    0.40 
   5  -1  -8    7.32    0.42 
  -5   1   8    7.10    0.40 
   5   1  -8    7.05    0.36 
   5   1  -8    6.36    0.40 
  -5   1   8    5.53    0.39 
  -4  -1   8    3.00    0.26 
  -4  -1   8    3.02    0.18 
   4  -1  -8    2.96    0.26 
   4  -1  -8    3.24    0.36 
   4   1  -8    3.10    0.26 
  -4   1   8    2.99    0.33 
   4   1  -8    3.60    0.26 
  -4   1   8    3.22    0.28 
  -3  -1   8   23.73    0.71 
   3  -1  -8   23.52    0.83 
   3  -1  -8   22.77    0.84 
  -3  -1   8   22.86    0.82 
  -3   1   8   24.70    0.86 
   3   1  -8   22.68    0.79 
  -3   1   8   23.77    0.85 
   3   1  -8   23.99    0.79 
   2  -1  -8    0.28    0.13 
  -2  -1   8    0.26    0.10 
   2  -1  -8    0.05    0.07 
   2  -1  -8    0.09    0.09 
  -2  -1   8    0.15    0.11 
   2   1  -8    0.17    0.10 
   2   1  -8    0.21    0.09 
  -2   1   8    0.01    0.08 
  -2   1   8    0.16    0.12 
   1  -1  -8    9.42    0.46 
  -1  -1   8    9.81    0.43 
   1  -1  -8    9.28    0.48 
  -1  -1   8    9.42    0.48 
   1  -1  -8    9.91    0.48 
  -1   1   8    9.57    0.49 
  -1   1   8    9.61    0.48 
   1   1  -8   10.05    0.42 
   1   1  -8   10.22    0.49 
   0  -1  -8   12.61    0.53 
   0  -1  -8   12.47    0.56 
   0  -1   8   12.46    0.53 
   0  -1  -8   13.03    0.57 
   0  -1   8   12.35    0.57 
   0  -1  -8   12.44    0.58 
   0   1   8   11.71    0.56 
   0   1  -8   13.19    0.49 
   0   1   8   12.93    0.58 
   0   1  -8   12.58    0.57 
   1  -1   8   88.95    2.36 
  -1  -1  -8   85.88    2.32 
   1  -1   8   83.17    2.29 
  -1  -1  -8   86.70    2.36 
  -1  -1  -8   87.17    2.28 
  -1  -1  -8   89.27    2.35 
  -1   1  -8   87.10    2.38 
  -1   1  -8   86.08    2.21 
   1   1   8   84.90    2.34 
  -1   1  -8   89.21    2.36 
   1   1   8   86.68    2.35 
  -2  -1  -8   53.29    1.64 
  -2  -1  -8   53.52    1.62 
  -2  -1  -8   56.88    1.66 
   2  -1   8   53.87    1.61 
   2  -1   8   54.95    1.67 
  -2  -1  -8   55.37    1.57 
  -2   1  -8   55.46    1.68 
   2   1   8   57.30    1.65 
  -2   1  -8   55.70    1.65 
  -3  -1  -8    9.86    0.54 
   3  -1   8    8.79    0.55 
  -3  -1  -8    9.18    0.48 
  -3  -1  -8    8.97    0.51 
   3  -1   8    9.84    0.71 
   3  -1   8    8.64    0.51 
   3   1   8    9.26    0.54 
  -3   1  -8   10.23    0.56 
   3   1   8   10.17    0.55 
  -3   1  -8    9.81    0.56 
   4  -1   8   16.03    0.74 
  -4  -1  -8   16.27    0.69 
  -4  -1  -8   17.02    0.73 
  -4  -1  -8   15.78    0.75 
  -4   1  -8   15.59    0.75 
  -4   1  -8   16.47    0.77 
   4   1   8   15.85    0.74 
   4   1   8   16.37    0.78 
  -5  -1  -8   18.29    0.78 
  -5  -1  -8   17.64    0.82 
  -5  -1  -8   19.40    0.79 
   5  -1   8   19.29    0.85 
   5   1   8   17.59    0.82 
  -5   1  -8   17.87    0.84 
  -5   1  -8   18.22    0.85 
   5   1   8   17.54    0.85 
  -6  -1  -8    5.58    0.47 
  -6  -1  -8    4.94    0.41 
  -6  -1  -8    5.43    0.41 
   6  -1   8    6.68    0.49 
   6   1   8    5.62    0.47 
   6   1   8    5.60    0.50 
  -6   1  -8    6.33    0.51 
  -6   1  -8    5.80    0.47 
   7  -1   8    4.13    0.54 
  -7  -1  -8    3.99    0.50 
  -7  -1  -8    3.38    0.47 
   7   1   8    3.63    0.48 
   7   1   8    3.96    0.52 
  -7   1  -8    3.65    0.47 
  -7   1  -8    3.46    0.49 
   8  -1   8    8.17    0.62 
  -8  -1  -8    7.80    0.59 
   8   1   8    9.58    0.68 
   8   1   8    8.78    0.64 
  -8   1  -8    8.20    0.59 
  -8   1  -8    8.70    0.66 
  10  -2  -8   12.85    0.75 
  10  -2  -8   12.64    0.80 
 -10   2   8   12.97    0.74 
  10   2  -8   11.94    0.73 
   9  -2  -8    6.25    0.50 
   9  -2  -8    5.89    0.66 
   9   2  -8    7.16    0.53 
  -9   2   8    6.44    0.51 
   8  -2  -8    3.28    0.41 
   8  -2  -8    4.00    0.51 
   8   2  -8    4.16    0.46 
  -8   2   8    3.79    0.40 
  -8   2   8    5.10    0.52 
   7  -2  -8    0.84    0.22 
   7  -2  -8    1.26    0.29 
  -7   2   8    1.39    0.25 
   7   2  -8    0.83    0.22 
  -7   2   8    0.91    0.23 
   6  -2  -8   10.72    0.57 
   6  -2  -8   10.61    0.60 
   6   2  -8   10.86    0.53 
  -6   2   8   10.48    0.57 
  -6   2   8    9.67    0.53 
   5  -2  -8    9.01    0.53 
   5  -2  -8    9.55    0.51 
  -5   2   8    8.09    0.47 
   5   2  -8    8.99    0.45 
  -5   2   8    8.20    0.49 
   4  -2  -8   24.50    0.90 
  -4  -2   8   24.31    0.80 
   4  -2  -8   25.18    0.94 
   4   2  -8   23.20    0.81 
  -4   2   8   24.55    0.89 
  -4   2   8   23.33    0.89 
   3  -2  -8   44.20    1.45 
  -3  -2   8   47.24    1.35 
   3  -2  -8   48.06    1.44 
  -3   2   8   48.11    1.42 
   3   2  -8   45.98    1.35 
  -3   2   8   48.08    1.44 
   3   2  -8   45.72    1.29 
   2  -2  -8   19.02    0.74 
  -2  -2   8   20.19    0.60 
  -2  -2   8   20.79    0.74 
   2  -2  -8   19.92    0.79 
   2  -2  -8   19.83    0.76 
   2   2  -8   18.48    0.62 
  -2   2   8   18.15    0.75 
   2   2  -8   19.05    0.72 
  -2   2   8   19.23    0.76 
   1  -2  -8   61.28    1.82 
  -1  -2   8   64.86    1.77 
  -1  -2   8   62.71    1.65 
   1  -2  -8   60.95    1.75 
   1  -2  -8   62.84    1.81 
  -1   2   8   66.88    1.81 
  -1   2   8   65.53    1.82 
   1   2  -8   62.89    1.77 
   1   2  -8   59.99    1.66 
   0  -2  -8   17.00    0.73 
   0  -2   8   17.33    0.71 
   0  -2  -8   16.85    0.69 
   0  -2  -8   17.28    0.72 
   0  -2   8   17.49    0.64 
   0  -2  -8   17.47    0.73 
   0   2  -8   17.67    0.73 
   0   2   8   17.29    0.78 
   0   2   8   16.17    0.71 
   1  -2   8   69.15    1.89 
  -1  -2  -8   70.54    1.99 
  -1  -2  -8   69.88    1.99 
  -1  -2  -8   69.74    2.02 
   1  -2   8   70.47    2.00 
  -1  -2  -8   66.88    1.94 
  -1   2  -8   69.67    2.01 
   1   2   8   72.40    1.98 
   2  -2   8   13.92    0.68 
   2  -2   8   13.00    0.60 
  -2  -2  -8   14.15    0.64 
  -2  -2  -8   12.69    0.63 
  -2  -2  -8   13.26    0.67 
  -2  -2  -8   13.37    0.63 
   2   2   8   13.80    0.64 
  -2   2  -8   14.00    0.68 
  -3  -2  -8   11.49    0.59 
   3  -2   8   10.08    0.60 
  -3  -2  -8   10.21    0.56 
   3  -2   8   11.03    0.57 
  -3  -2  -8   11.01    0.56 
   3   2   8   10.22    0.56 
  -3   2  -8   10.28    0.59 
  -4  -2  -8    1.79    0.31 
  -4  -2  -8    1.97    0.29 
  -4  -2  -8    2.43    0.35 
   4  -2   8    2.20    0.33 
  -4   2  -8    2.51    0.38 
   4   2   8    2.06    0.33 
   4   2   8    2.52    0.35 
  -5  -2  -8    8.25    0.47 
  -5  -2  -8    7.90    0.53 
  -5  -2  -8    8.35    0.55 
   5  -2   8    7.52    0.52 
   5   2   8    7.81    0.53 
   5   2   8    8.98    0.59 
  -5   2  -8    8.62    0.58 
  -6  -2  -8    2.46    0.40 
   6  -2   8    3.18    0.44 
  -6  -2  -8    2.22    0.38 
   6   2   8    2.51    0.38 
  -6   2  -8    2.69    0.43 
   6   2   8    2.12    0.38 
  -7  -2  -8    3.80    0.50 
  -7  -2  -8    4.25    0.53 
   7  -2   8    4.30    0.53 
  -7   2  -8    3.91    0.52 
   7   2   8    4.12    0.51 
   7   2   8    3.78    0.51 
   8  -2   8   10.92    0.72 
  -8  -2  -8   10.63    0.71 
  -8  -2  -8    9.65    0.65 
   8   2   8    9.61    0.71 
  -8   2  -8   10.79    0.72 
   9  -3  -8   11.94    0.73 
   9  -3  -8   13.05    0.80 
   9   3  -8   13.81    0.73 
  -9   3   8   11.42    0.84 
  -9   3   8   13.35    0.76 
   8  -3  -8    0.08    0.16 
   8  -3  -8    0.18    0.14 
   8   3  -8    0.03    0.15 
  -8   3   8    0.34    0.20 
  -8   3   8    0.13    0.16 
   7  -3  -8   14.78    0.78 
   7  -3  -8   13.84    0.74 
  -7   3   8   15.75    0.77 
  -7   3   8   14.64    0.71 
   7   3  -8   15.35    0.69 
   6  -3  -8    3.03    0.40 
   6  -3  -8    4.43    0.53 
  -6   3   8    3.61    0.43 
  -6   3   8    3.96    0.43 
   5  -3  -8    4.55    0.39 
   5  -3  -8    5.45    0.43 
  -5   3   8    4.92    0.41 
  -5   3   8    5.32    0.41 
   4  -3  -8   19.04    0.82 
   4  -3  -8   16.75    0.76 
  -4   3   8   15.86    0.73 
  -4   3   8   17.50    0.77 
   3  -3  -8    3.37    0.41 
   3  -3  -8    2.98    0.37 
  -3   3   8    2.90    0.36 
   2  -3  -8   74.66    2.10 
   2  -3  -8   72.80    2.07 
  -2  -3   8   72.29    1.99 
   2  -3  -8   77.27    2.17 
   2   3  -8   77.82    2.05 
  -2   3   8   70.28    2.05 
   1  -3  -8    5.15    0.38 
   1  -3  -8    5.20    0.42 
   1  -3  -8    5.16    0.38 
  -1  -3   8    5.45    0.27 
  -1  -3   8    5.47    0.38 
   1  -3  -8    5.16    0.42 
  -1   3   8    4.97    0.38 
   1   3  -8    5.05    0.37 
   0  -3  -8   58.88    1.79 
   0  -3  -8   62.89    1.87 
   0  -3  -8   63.72    1.87 
   0  -3  -8   58.88    1.76 
   0  -3   8   60.83    1.63 
   0  -3   8   60.64    1.79 
   0   3  -8   63.25    1.82 
   0   3   8   58.52    1.76 
  -1  -3  -8   35.02    1.25 
   1  -3   8   34.90    1.09 
  -1  -3  -8   35.06    1.26 
  -1  -3  -8   34.84    1.16 
   1  -3   8   33.68    1.21 
  -1  -3  -8   35.03    1.18 
   1   3   8   34.68    1.17 
  -1   3  -8   34.98    1.22 
  -2  -3  -8   10.44    0.60 
   2  -3   8    9.39    0.58 
   2  -3   8    9.29    0.49 
  -2  -3  -8   10.25    0.53 
  -2  -3  -8    8.84    0.57 
  -2  -3  -8    9.52    0.53 
  -2   3  -8    9.67    0.57 
   2   3   8    9.30    0.53 
  -3  -3  -8    4.56    0.35 
  -3  -3  -8    5.17    0.44 
   3  -3   8    5.01    0.38 
   3  -3   8    5.36    0.47 
  -3  -3  -8    4.52    0.48 
  -3   3  -8    4.72    0.53 
   3   3   8    5.17    0.41 
   4  -3   8    2.24    0.34 
  -4  -3  -8    2.08    0.35 
  -4  -3  -8    2.48    0.41 
   4  -3   8    2.60    0.41 
  -4  -3  -8    3.15    0.53 
   4   3   8    2.69    0.38 
  -4   3  -8    1.92    0.35 
  -5  -3  -8    0.93    0.28 
  -5  -3  -8    0.68    0.24 
   5  -3   8    1.18    0.28 
   5   3   8    0.56    0.24 
   5   3   8    0.52    0.23 
  -5   3  -8    0.36    0.18 
  -6  -3  -8    2.46    0.37 
   6  -3   8    4.71    0.55 
  -6  -3  -8    3.61    0.51 
  -6   3  -8    3.68    0.49 
   6   3   8    2.82    0.44 
  -7  -3  -8    1.49    0.32 
  -7  -3  -8    1.01    0.32 
   7  -3   8    1.91    0.39 
  -7   3  -8    1.33    0.33 
   7   3   8    1.21    0.33 
   8  -4  -8    5.88    0.52 
   8  -4  -8    4.54    0.59 
  -8   4   8    5.32    0.58 
   7  -4  -8    0.32    0.19 
   7  -4  -8    0.42    0.18 
  -7   4   8    0.99    0.27 
   6  -4  -8    6.36    0.51 
   6  -4  -8    5.57    0.47 
  -6   4   8    6.66    0.50 
   5  -4  -8    5.80    0.45 
   5  -4  -8    5.48    0.47 
  -5   4   8    4.77    0.51 
   4  -4  -8    0.51    0.17 
   4  -4  -8    1.02    0.26 
  -4   4   8    1.03    0.25 
   3  -4  -8   25.32    0.99 
   3  -4  -8   24.79    1.03 
  -3   4   8   23.02    0.95 
   2  -4  -8    3.99    0.44 
   2  -4  -8    3.24    0.43 
   2  -4  -8    4.14    0.53 
  -2  -4   8    3.17    0.28 
   2  -4  -8    4.81    0.51 
  -2   4   8    4.09    0.45 
   1  -4  -8   12.18    0.63 
  -1  -4   8   12.37    0.59 
   1  -4  -8   13.48    0.71 
   1  -4  -8   11.96    0.70 
   1  -4  -8   11.61    0.62 
   1   4  -8   12.59    0.63 
  -1   4   8   12.20    0.63 
   0  -4  -8   12.68    0.65 
   0  -4  -8   12.89    0.75 
   0  -4  -8   14.07    0.67 
   0  -4  -8   13.96    0.74 
   0  -4   8   14.54    0.67 
   0   4   8   13.24    0.66 
   0   4  -8   13.89    0.68 
  -1  -4  -8   40.51    1.48 
   1  -4   8   39.37    1.22 
  -1  -4  -8   40.70    1.34 
  -1  -4  -8   40.77    1.33 
   1  -4   8   39.88    1.37 
  -1  -4  -8   41.04    1.46 
   1   4   8   42.14    1.36 
  -1   4  -8   41.31    1.41 
  -2  -4  -8   25.19    0.92 
  -2  -4  -8   22.69    1.05 
  -2  -4  -8   24.05    0.96 
   2  -4   8   24.14    0.87 
   2  -4   8   24.13    1.00 
  -2  -4  -8   22.57    1.03 
  -2   4  -8   24.82    1.04 
   2   4   8   24.32    0.96 
  -3  -4  -8   17.56    0.81 
   3  -4   8   18.19    0.77 
  -3  -4  -8   18.33    0.93 
   3  -4   8   17.78    0.87 
   3   4   8   18.59    0.83 
  -3   4  -8   17.52    0.89 
   4  -4   8    2.56    0.37 
   4  -4   8    2.13    0.40 
  -4  -4  -8    1.83    0.34 
  -4  -4  -8    1.91    0.38 
   4   4   8    1.94    0.34 
  -4   4  -8    1.99    0.38 
   5  -4   8    6.64    0.50 
  -5  -4  -8    6.96    0.51 
  -5  -4  -8    6.56    0.58 
  -5   4  -8    7.65    0.60 
  -6  -4  -8    0.64    0.30 
  -6  -4  -8    0.49    0.22 
   6  -4   8    1.08    0.29 
  -6   4  -8    0.60    0.25 
   6   4   8    0.78    0.25 
   7  -5  -8    4.36    0.54 
   7  -5  -8    5.70    0.66 
  -7   5   8    6.27    0.54 
   6  -5  -8    1.29    0.30 
   6  -5  -8    1.10    0.29 
  -6   5   8    1.15    0.30 
   5  -5  -8    8.36    0.58 
   5  -5  -8    8.09    0.60 
  -5   5   8    7.41    0.56 
   4  -5  -8    4.42    0.55 
   4  -5  -8    6.08    0.49 
  -4   5   8    4.01    0.50 
   3  -5  -8   13.87    0.82 
   3  -5  -8   14.74    0.74 
   3  -5  -8   13.22    0.76 
  -3   5   8   13.13    0.72 
   2  -5  -8    3.22    0.49 
   2  -5  -8    3.33    0.44 
   2  -5  -8    3.62    0.49 
   2  -5  -8    4.00    0.47 
  -2   5   8    3.51    0.44 
   1  -5  -8    7.46    0.50 
  -1  -5   8    6.15    0.43 
   1  -5  -8    6.43    0.55 
   1  -5  -8    6.44    0.49 
   1  -5  -8    7.28    0.56 
  -1   5   8    7.18    0.51 
   0  -5  -8   12.50    0.65 
   0  -5  -8   12.03    0.66 
   0  -5   8   11.67    0.63 
   0  -5  -8   11.29    0.75 
   0  -5  -8   12.40    0.75 
   0   5   8   13.40    0.69 
   1  -5   8    6.75    0.51 
  -1  -5  -8    6.27    0.48 
  -1  -5  -8    7.62    0.59 
  -1  -5  -8    6.92    0.59 
  -1   5  -8    7.76    0.56 
   1   5   8    7.58    0.52 
   2  -5   8   18.60    0.91 
  -2  -5  -8   18.68    0.87 
  -2  -5  -8   20.10    1.03 
  -2  -5  -8   19.60    0.99 
  -2   5  -8   20.97    0.98 
   2   5   8   21.40    0.91 
   3  -5   8    0.54    0.25 
   3  -5   8    0.76    0.20 
  -3  -5  -8    1.23    0.28 
  -3  -5  -8    0.70    0.28 
  -3   5  -8    1.19    0.32 
  -4  -5  -8   11.85    0.81 
  -4  -5  -8   11.41    0.66 
   4  -5   8   12.35    0.79 
   4  -5   8   12.95    0.68 
  -4   5  -8   11.68    0.77 
  -5  -5  -8    1.51    0.31 
  -5  -5  -8    1.14    0.35 
   5  -5   8    1.35    0.29 
  -5   5  -8    1.44    0.36 
   4  -6  -8   13.78    0.81 
   4  -6  -8   11.27    0.82 
   4  -6  -8   13.45    0.77 
  -4   6   8   12.68    0.77 
   3  -6  -8    6.44    0.52 
   3  -6  -8    6.56    0.57 
   3  -6  -8    6.13    0.75 
  -3   6   8    6.17    0.53 
   2  -6  -8    4.40    0.53 
   2  -6  -8    4.47    0.52 
   2  -6  -8    4.27    0.57 
   2  -6  -8    4.87    0.67 
  -2   6   8    4.43    0.55 
   1  -6  -8    3.02    0.44 
  -1  -6   8    2.65    0.33 
   1  -6  -8    2.91    0.48 
   1  -6  -8    2.74    0.50 
  -1   6   8    3.64    0.48 
   0  -6   8    0.20    0.19 
   0  -6  -8    0.24    0.20 
   0  -6  -8    0.01    0.22 
   0  -6  -8   -0.01    0.15 
   0   6   8   -0.07    0.16 
  -1  -6  -8    6.57    0.71 
  -1  -6  -8    5.19    0.68 
   1  -6   8    4.22    0.49 
  -1  -6  -8    5.43    0.58 
   1   6   8    5.48    0.50 
   2  -6   8    1.24    0.31 
  -2  -6  -8    1.98    0.45 
  -2  -6  -8    1.59    0.35 
  -2   6  -8    1.91    0.38 
  -3  -6  -8    5.06    0.67 
   3  -6   8    4.45    0.54 
  -3  -6  -8    4.97    0.54 
  -3   6  -8    6.84    0.60 
  10   0  -9    0.78    0.28 
 -10   0   9    0.56    0.20 
  -9   0   9    9.16    0.54 
   9   0  -9    9.25    0.63 
   8   0  -9    2.03    0.36 
  -8   0   9    2.29    0.32 
  -7   0   9   10.05    0.55 
   7   0  -9    9.78    0.59 
   7   0  -9   11.44    0.56 
  -6   0   9   15.18    0.68 
   6   0  -9   14.98    0.64 
   6   0  -9   14.66    0.70 
  -5   0   9    4.30    0.35 
   5   0  -9    4.22    0.32 
  -5   0   9    3.88    0.28 
   5   0  -9    4.15    0.34 
  -4   0   9   10.51    0.54 
   4   0  -9    9.55    0.49 
   4   0  -9   10.94    0.53 
  -4   0   9   10.38    0.48 
   3   0  -9   12.53    0.56 
  -3   0   9   12.04    0.58 
   3   0  -9   12.99    0.57 
  -3   0   9   11.49    0.53 
  -2   0   9   56.80    1.58 
   2   0  -9   54.53    1.58 
  -2   0   9   52.53    1.60 
   2   0  -9   56.07    1.62 
  -1   0   9   -0.04    0.10 
   1   0  -9    0.04    0.11 
   1   0  -9    0.01    0.07 
  -1   0   9    0.09    0.11 
   0   0  -9   32.42    1.11 
   0   0  -9   32.14    1.03 
   0   0   9   32.00    1.07 
   0   0  -9   30.95    0.93 
   0   0   9   30.09    1.06 
   0   0  -9   28.88    1.31 
  -1   0  -9   10.55    0.55 
  -1   0  -9    8.49    0.39 
   1   0   9    8.56    0.52 
  -1   0  -9    9.05    0.47 
   1   0   9    7.09    0.59 
   1   0   9    9.37    0.51 
  -1   0  -9    8.98    0.51 
  -2   0  -9    3.42    0.37 
   2   0   9    3.61    0.40 
  -2   0  -9    3.39    0.40 
   2   0   9    3.90    0.46 
   2   0   9    2.53    0.35 
  -2   0  -9    2.59    0.36 
  -3   0  -9   79.19    2.28 
  -3   0  -9   82.09    2.28 
   3   0   9   76.19    2.27 
   3   0   9   75.59    2.22 
  -4   0  -9   24.12    1.00 
  -4   0  -9   25.46    1.02 
   4   0   9   23.96    0.98 
   4   0   9   24.23    1.02 
   5   0   9  113.00    3.08 
  -5   0  -9  110.36    3.09 
  -5   0  -9  111.93    3.06 
   5   0   9  107.73    3.12 
   6   0   9    4.09    0.52 
  -6   0  -9    4.18    0.53 
  -6   0  -9    5.48    0.46 
   6   0   9    4.74    0.54 
  -7   0  -9    4.98    0.55 
  -7   0  -9    4.07    0.56 
   7   0   9    4.98    0.58 
   8   0   9    0.04    0.18 
  -8   0  -9    0.64    0.30 
  10  -1  -9    0.30    0.22 
 -10   1   9    0.21    0.19 
  10   1  -9    0.43    0.23 
   9  -1  -9    2.60    0.41 
  -9   1   9    3.32    0.43 
   9   1  -9    3.25    0.45 
   8  -1  -9   13.19    0.67 
   8  -1  -9   13.31    0.74 
   8   1  -9   12.20    0.68 
  -8   1   9   13.14    0.68 
   7  -1  -9    2.26    0.33 
   7  -1  -9    2.25    0.37 
  -7  -1   9    2.30    0.31 
   7   1  -9    2.17    0.35 
  -7   1   9    2.01    0.32 
   6  -1  -9    3.52    0.44 
   6  -1  -9    3.59    0.40 
  -6  -1   9    3.31    0.36 
  -6   1   9    3.79    0.43 
  -6   1   9    3.69    0.32 
   6   1  -9    3.09    0.37 
   5  -1  -9   15.66    0.72 
   5  -1  -9   15.36    0.69 
  -5  -1   9   15.36    0.66 
  -5   1   9   16.01    0.67 
  -5   1   9   15.81    0.70 
   5   1  -9   16.66    0.65 
   5   1  -9   15.96    0.68 
   4  -1  -9   11.16    0.58 
  -4  -1   9   11.53    0.56 
  -4  -1   9   11.32    0.55 
   4  -1  -9   10.96    0.55 
  -4   1   9   12.03    0.59 
  -4   1   9   12.55    0.57 
   4   1  -9   12.61    0.55 
   4   1  -9   12.79    0.56 
  -3  -1   9   17.99    0.71 
   3  -1  -9   16.10    0.68 
  -3  -1   9   16.43    0.57 
   3  -1  -9   16.87    0.71 
   3   1  -9   15.58    0.65 
  -3   1   9   15.84    0.70 
  -3   1   9   16.51    0.69 
   3   1  -9   15.67    0.63 
   2  -1  -9    0.34    0.13 
  -2  -1   9    0.30    0.14 
   2  -1  -9    0.50    0.15 
  -2  -1   9    0.24    0.11 
  -2   1   9    0.32    0.15 
   2   1  -9    0.20    0.10 
  -2   1   9    0.35    0.15 
   2   1  -9    0.37    0.13 
   1  -1  -9   38.05    1.25 
   1  -1  -9   38.65    1.23 
  -1  -1   9   37.50    1.14 
   1  -1  -9   35.68    1.18 
  -1  -1   9   37.73    1.22 
  -1   1   9   37.51    1.22 
  -1   1   9   38.45    1.24 
   1   1  -9   37.21    1.22 
   1   1  -9   38.45    1.12 
   0  -1  -9    6.55    0.41 
   0  -1  -9    6.57    0.43 
   0  -1  -9    6.80    0.42 
   0  -1   9    6.36    0.39 
   0  -1  -9    5.78    0.37 
   0  -1   9    6.31    0.43 
   0   1  -9    5.50    0.40 
   0   1   9    6.82    0.44 
   0   1   9    6.07    0.43 
   0   1  -9    6.44    0.35 
   1  -1   9   12.64    0.64 
  -1  -1  -9   11.61    0.60 
  -1  -1  -9   12.32    0.60 
  -1  -1  -9   13.02    0.63 
   1  -1   9   12.21    0.59 
  -1  -1  -9   12.33    0.55 
  -1   1  -9   13.42    0.54 
   1   1   9   11.74    0.61 
   1   1   9   11.94    0.62 
  -1   1  -9   12.45    0.63 
   2  -1   9   26.78    1.02 
  -2  -1  -9   25.90    0.98 
   2  -1   9   26.30    0.97 
  -2  -1  -9   23.98    0.96 
  -2  -1  -9   25.93    1.00 
  -2  -1  -9   25.07    0.89 
  -2   1  -9   26.09    1.02 
   2   1   9   25.46    0.98 
  -3  -1  -9   18.80    0.83 
  -3  -1  -9   19.10    0.75 
  -3  -1  -9   18.25    0.81 
   3  -1   9   18.09    0.81 
   3   1   9   18.63    0.83 
  -3   1  -9   19.00    0.86 
   3   1   9   19.03    0.86 
  -4  -1  -9   23.78    0.99 
  -4  -1  -9   23.38    0.89 
   4  -1   9   23.76    0.97 
  -4  -1  -9   23.48    0.96 
  -4   1  -9   22.88    0.99 
   4   1   9   24.00    0.99 
  -5  -1  -9    9.39    0.55 
  -5  -1  -9    9.44    0.56 
   5  -1   9    7.92    0.56 
  -5  -1  -9    8.38    0.57 
   5   1   9    8.20    0.56 
  -5   1  -9    9.21    0.59 
   5   1   9    8.19    0.60 
  -6  -1  -9   17.93    0.90 
   6  -1   9   19.26    0.91 
  -6  -1  -9   19.64    0.86 
  -6   1  -9   19.58    0.93 
   6   1   9   18.47    0.90 
   6   1   9   19.33    0.96 
  -7  -1  -9   10.05    0.66 
   7  -1   9    8.83    0.64 
  -7   1  -9    9.02    0.63 
   7   1   9    9.72    0.69 
   7   1   9    8.10    0.62 
   8  -1   9    0.86    0.30 
  -8  -1  -9    0.48    0.23 
   8   1   9    1.23    0.34 
   8   1   9    1.31    0.37 
  -8   1  -9    0.98    0.30 
   9  -2  -9    2.73    0.43 
   9  -2  -9    3.30    0.49 
  -9   2   9    2.25    0.38 
   9   2  -9    2.89    0.44 
   8  -2  -9    9.07    0.63 
   8  -2  -9    8.73    0.57 
   8   2  -9    8.53    0.55 
  -8   2   9    8.41    0.57 
   7  -2  -9    3.52    0.44 
   7  -2  -9    3.52    0.46 
  -7   2   9    4.28    0.45 
   7   2  -9    2.96    0.37 
  -7   2   9    2.99    0.40 
   6  -2  -9    7.76    0.53 
   6  -2  -9    9.46    0.54 
  -6   2   9    8.47    0.51 
  -6   2   9    8.52    0.54 
   6   2  -9    7.70    0.47 
   5  -2  -9   12.01    0.63 
   5  -2  -9   12.85    0.68 
   5   2  -9   13.22    0.59 
  -5   2   9   13.70    0.66 
  -5   2   9   12.61    0.63 
   4  -2  -9    4.28    0.46 
  -4  -2   9    4.04    0.31 
   4  -2  -9    4.62    0.37 
  -4   2   9    3.46    0.42 
   4   2  -9    4.05    0.30 
  -4   2   9    3.82    0.35 
   3  -2  -9   29.35    1.06 
   3  -2  -9   29.14    1.09 
  -3  -2   9   29.16    0.99 
   3   2  -9   31.00    1.02 
   3   2  -9   28.80    0.92 
  -3   2   9   31.34    1.08 
  -3   2   9   29.28    1.05 
  -2  -2   9    8.46    0.36 
  -2  -2   9    7.39    0.45 
   2  -2  -9    7.98    0.48 
   2  -2  -9    7.84    0.49 
   2   2  -9    8.35    0.46 
  -2   2   9    7.50    0.48 
  -2   2   9    7.51    0.47 
   1  -2  -9    5.16    0.38 
   1  -2  -9    5.34    0.40 
   1  -2  -9    5.52    0.39 
   1  -2  -9    5.30    0.40 
  -1  -2   9    6.28    0.42 
  -1  -2   9    5.16    0.31 
  -1   2   9    5.11    0.39 
   1   2  -9    5.25    0.38 
  -1   2   9    6.38    0.43 
   0  -2  -9    5.43    0.40 
   0  -2  -9    5.37    0.39 
   0  -2  -9    4.86    0.38 
   0  -2   9    6.08    0.36 
   0  -2   9    5.08    0.40 
   0  -2  -9    5.34    0.40 
   0   2  -9    5.29    0.40 
   0   2   9    5.56    0.41 
  -1  -2  -9   20.64    0.87 
   1  -2   9   20.88    0.79 
  -1  -2  -9   19.70    0.82 
   1  -2   9   19.46    0.86 
  -1  -2  -9   20.92    0.86 
  -1  -2  -9   21.82    0.86 
   1   2   9   19.84    0.84 
  -1   2  -9   21.31    0.88 
  -2  -2  -9    7.47    0.48 
  -2  -2  -9    6.98    0.49 
   2  -2   9    7.50    0.52 
  -2  -2  -9    6.69    0.46 
  -2  -2  -9    7.10    0.48 
   2  -2   9    6.77    0.44 
  -2   2  -9    7.91    0.52 
   2   2   9    8.67    0.53 
   3  -2   9    0.04    0.13 
   3  -2   9    0.00    0.14 
  -3  -2  -9   -0.07    0.09 
  -3  -2  -9    0.00    0.12 
  -3  -2  -9   -0.02    0.13 
   3   2   9   -0.07    0.12 
  -3   2  -9   -0.03    0.10 
   4  -2   9   13.73    0.69 
  -4  -2  -9   12.68    0.65 
  -4  -2  -9   13.15    0.69 
  -4  -2  -9   12.11    0.68 
   4   2   9   13.50    0.73 
  -4   2  -9   12.78    0.72 
   4   2   9   13.80    0.71 
  -5  -2  -9    1.85    0.30 
   5  -2   9    1.95    0.34 
  -5  -2  -9    1.65    0.34 
  -5  -2  -9    1.45    0.32 
  -5   2  -9    1.14    0.29 
   5   2   9    1.21    0.28 
   5   2   9    1.48    0.31 
   6  -2   9    3.39    0.49 
  -6  -2  -9    4.36    0.53 
  -6  -2  -9    3.09    0.47 
   6   2   9    3.25    0.48 
  -6   2  -9    3.93    0.53 
   6   2   9    3.61    0.48 
  -7  -2  -9    1.16    0.32 
   7  -2   9    1.39    0.34 
  -7  -2  -9    1.23    0.32 
   7   2   9    1.23    0.35 
   7   2   9    1.25    0.32 
  -7   2  -9    1.35    0.35 
   9  -3  -9    0.34    0.21 
   9  -3  -9    0.52    0.23 
  -9   3   9    0.15    0.17 
   8  -3  -9   10.01    0.64 
   8  -3  -9    9.75    0.67 
  -8   3   9    8.67    0.62 
  -8   3   9    9.94    0.60 
   7  -3  -9    4.83    0.56 
   7  -3  -9    4.63    0.54 
  -7   3   9    4.96    0.54 
  -7   3   9    4.90    0.42 
   6  -3  -9    5.48    0.46 
   6  -3  -9    4.76    0.42 
  -6   3   9    4.77    0.41 
  -6   3   9    5.06    0.44 
   5  -3  -9   11.25    0.63 
   5  -3  -9   11.23    0.65 
  -5   3   9   10.71    0.59 
  -5   3   9    9.91    0.69 
   4  -3  -9   23.08    0.96 
   4  -3  -9   20.13    0.88 
  -4   3   9   20.86    0.87 
  -3  -3   9    3.04    0.32 
   3  -3  -9    3.21    0.43 
   3  -3  -9    3.58    0.42 
  -3   3   9    2.72    0.36 
   2  -3  -9    7.62    0.49 
   2  -3  -9    8.82    0.55 
  -2  -3   9    8.44    0.47 
   2  -3  -9    8.29    0.51 
  -2   3   9    8.26    0.51 
   2   3  -9    9.35    0.50 
  -1  -3   9   19.32    0.78 
   1  -3  -9   18.17    0.77 
   1  -3  -9   18.59    0.81 
   1  -3  -9   17.44    0.82 
   1  -3  -9   18.23    0.83 
  -1   3   9   16.07    0.75 
   1   3  -9   18.76    0.79 
   0  -3  -9    3.35    0.42 
   0  -3  -9    4.05    0.36 
   0  -3  -9    4.38    0.49 
   0  -3   9    3.73    0.28 
   0  -3  -9    3.79    0.46 
   0  -3   9    4.50    0.48 
   0   3  -9    4.00    0.45 
   0   3   9    3.84    0.44 
  -1  -3  -9    9.22    0.58 
   1  -3   9    9.73    0.48 
  -1  -3  -9    9.84    0.56 
  -1  -3  -9    8.83    0.54 
   1  -3   9    9.24    0.58 
  -1  -3  -9    9.57    0.59 
   1   3   9    8.62    0.55 
  -1   3  -9    9.70    0.58 
   2  -3   9    4.87    0.52 
  -2  -3  -9    4.02    0.50 
  -2  -3  -9    4.63    0.48 
  -2  -3  -9    4.59    0.39 
   2  -3   9    4.93    0.37 
  -2  -3  -9    5.12    0.45 
  -2   3  -9    5.19    0.44 
   2   3   9    4.56    0.40 
  -3  -3  -9   35.89    1.38 
  -3  -3  -9   37.63    1.37 
  -3  -3  -9   36.66    1.30 
   3  -3   9   36.26    1.37 
   3  -3   9   36.15    1.26 
  -3  -3  -9   37.98    1.27 
   3   3   9   37.53    1.31 
  -3   3  -9   36.66    1.37 
  -4  -3  -9    3.55    0.48 
  -4  -3  -9    3.85    0.61 
  -4  -3  -9    4.28    0.54 
   4  -3   9    3.17    0.42 
   4   3   9    4.05    0.48 
  -4   3  -9    4.37    0.56 
  -5  -3  -9    2.23    0.38 
   5  -3   9    2.39    0.38 
  -5  -3  -9    1.74    0.37 
   5   3   9    2.78    0.45 
  -5   3  -9    2.99    0.48 
   5   3   9    2.50    0.41 
  -6  -3  -9    9.04    0.61 
   6  -3   9    9.30    0.63 
  -6  -3  -9    9.04    0.67 
   6   3   9    8.13    0.61 
  -6   3  -9    9.01    0.67 
   6   3   9    7.40    0.61 
   7  -3   9    4.25    0.56 
  -7  -3  -9    2.53    0.48 
  -7  -3  -9    3.24    0.47 
   7   3   9    3.59    0.53 
  -7   3  -9    3.27    0.52 
   8  -4  -9    0.60    0.23 
   8  -4  -9    0.75    0.29 
  -8   4   9    0.72    0.27 
   7  -4  -9    6.53    0.54 
   7  -4  -9    7.49    0.77 
  -7   4   9    6.02    0.62 
   6  -4  -9    6.66    0.52 
   6  -4  -9    5.88    0.52 
  -6   4   9    6.46    0.51 
   5  -4  -9   20.13    0.92 
   5  -4  -9   20.95    0.98 
  -5   4   9   19.10    0.89 
   4  -4  -9    1.03    0.29 
   4  -4  -9    1.25    0.28 
  -4   4   9    1.15    0.27 
   3  -4  -9   15.80    0.82 
   3  -4  -9   15.75    0.77 
  -3   4   9   15.64    0.76 
   2  -4  -9    8.19    0.56 
   2  -4  -9    7.88    0.51 
   2  -4  -9    7.40    0.50 
   2  -4  -9    7.08    0.55 
  -2  -4   9    6.88    0.42 
  -2   4   9    7.04    0.48 
   1  -4  -9    2.28    0.35 
   1  -4  -9    2.48    0.38 
   1  -4  -9    1.66    0.34 
  -1  -4   9    2.28    0.33 
   1  -4  -9    2.02    0.36 
   1   4  -9    2.31    0.47 
  -1   4   9    2.48    0.36 
   0  -4  -9   32.78    1.30 
   0  -4  -9   31.07    1.17 
   0  -4  -9   32.94    1.20 
   0  -4   9   32.00    1.16 
   0  -4  -9   32.85    1.28 
   0   4  -9   33.07    1.22 
   0   4   9   32.44    1.19 
  -1  -4  -9    2.25    0.35 
  -1  -4  -9    1.66    0.37 
  -1  -4  -9    1.81    0.35 
   1  -4   9    2.37    0.28 
  -1  -4  -9    2.72    0.38 
   1  -4   9    2.52    0.40 
  -1   4  -9    2.85    0.42 
   1   4   9    1.90    0.32 
   2  -4   9   26.44    1.12 
  -2  -4  -9   30.10    1.07 
  -2  -4  -9   27.32    1.18 
  -2  -4  -9   27.66    1.09 
   2  -4   9   27.23    0.98 
  -2   4  -9   30.32    1.19 
   2   4   9   28.00    1.12 
   3  -4   9    0.71    0.20 
  -3  -4  -9    1.00    0.30 
   3  -4   9    0.92    0.28 
  -3  -4  -9    1.22    0.31 
  -3   4  -9    1.43    0.35 
   3   4   9    1.39    0.31 
  -4  -4  -9   18.91    0.99 
  -4  -4  -9   18.52    0.90 
   4  -4   9   20.56    0.88 
   4  -4   9   18.07    1.11 
  -4   4  -9   20.00    1.01 
   4   4   9   19.61    0.92 
   5  -4   9    6.50    0.51 
  -5  -4  -9    6.29    0.53 
  -5  -4  -9    6.80    0.61 
  -5   4  -9    7.13    0.61 
   6  -4   9    6.76    0.55 
  -6  -4  -9    5.92    0.73 
  -6  -4  -9    5.27    0.58 
   6   4   9    5.64    0.68 
  -6   4  -9    7.08    0.62 
   6  -5  -9    1.14    0.29 
   6  -5  -9    1.38    0.33 
  -6   5   9    1.49    0.33 
   5  -5  -9    0.45    0.25 
   5  -5  -9    0.75    0.24 
  -5   5   9    0.86    0.26 
   4  -5  -9   14.63    0.80 
   4  -5  -9   15.04    0.85 
  -4   5   9   14.49    0.78 
   3  -5  -9    0.94    0.27 
   3  -5  -9    0.67    0.25 
   3  -5  -9    1.29    0.35 
  -3   5   9    1.30    0.30 
   2  -5  -9    7.57    0.55 
  -2  -5   9    6.53    0.43 
   2  -5  -9    8.13    0.56 
   2  -5  -9    7.68    0.59 
   2  -5  -9    7.59    0.62 
  -2   5   9    6.60    0.53 
   1  -5  -9   14.95    0.78 
   1  -5  -9   16.25    0.87 
   1  -5  -9   15.27    0.77 
   1  -5  -9   14.93    0.87 
  -1  -5   9   14.65    0.70 
  -1   5   9   14.48    0.76 
   0  -5  -9    3.02    0.49 
   0  -5  -9    3.20    0.53 
   0  -5  -9    4.36    0.49 
   0  -5   9    3.49    0.44 
   0  -5  -9    3.90    0.49 
   0   5   9    3.16    0.44 
  -1  -5  -9    5.16    0.65 
  -1  -5  -9    5.30    0.62 
  -1  -5  -9    4.74    0.52 
   1  -5   9    5.77    0.48 
   1   5   9    5.61    0.48 
  -1   5  -9    5.85    0.51 
   2  -5   9    0.48    0.26 
  -2  -5  -9    0.10    0.20 
  -2  -5  -9    0.34    0.27 
  -2  -5  -9    0.87    0.27 
   2   5   9    0.17    0.21 
  -2   5  -9    0.81    0.28 
   3  -5   9   11.22    0.75 
  -3  -5  -9   12.04    0.72 
  -3  -5  -9   12.63    0.83 
  -3   5  -9   12.00    0.78 
   3   5   9   12.90    0.75 
   4  -5   9   13.71    0.74 
  -4  -5  -9   14.44    0.79 
   4  -5   9   16.37    0.93 
  -4  -5  -9   15.08    0.94 
  -4   5  -9   16.57    0.94 
   3  -6  -9    5.05    0.68 
   3  -6  -9    5.79    0.66 
   3  -6  -9    5.21    0.59 
  -3   6   9    4.69    0.56 
   2  -6  -9    9.35    0.70 
   2  -6  -9   10.62    0.67 
   2  -6  -9    9.82    0.68 
   2  -6  -9   11.70    0.83 
  -2   6   9    9.78    0.68 
   1  -6  -9    5.22    0.61 
   1  -6  -9    3.56    0.59 
   1  -6  -9    4.41    0.61 
  -1   6   9    4.70    0.56 
   0  -6  -9    3.40    0.58 
   0  -6  -9    3.49    0.48 
   0  -6  -9    2.62    0.46 
   0   6   9    3.87    0.51 
  -1  -6  -9    2.41    0.47 
   1  -6   9    1.24    0.31 
  -1  -6  -9    0.97    0.35 
   1  -6   9    1.02    0.28 
  -1  -6  -9    1.81    0.35 
   1   6   9    2.09    0.41 
  -9   0  10    0.30    0.20 
   9   0 -10    0.09    0.16 
   8   0 -10    3.79    0.49 
  -8   0  10    4.21    0.46 
   7   0 -10   12.57    0.71 
  -7   0  10   11.98    0.64 
   7   0 -10   13.71    0.71 
  -6   0  10   33.02    1.17 
   6   0 -10   32.31    1.20 
   6   0 -10   33.98    1.14 
   5   0 -10    8.34    0.48 
   5   0 -10    8.24    0.50 
  -5   0  10    8.27    0.51 
  -5   0  10    8.07    0.42 
  -4   0  10   12.21    0.56 
   4   0 -10   12.58    0.60 
  -4   0  10   12.23    0.63 
   4   0 -10   12.64    0.62 
  -3   0  10   17.18    0.70 
   3   0 -10   17.94    0.73 
  -3   0  10   16.60    0.75 
   3   0 -10   16.70    0.73 
  -2   0  10    0.22    0.15 
  -2   0  10    0.02    0.11 
   2   0 -10    0.09    0.10 
   2   0 -10    0.05    0.10 
   1   0 -10   23.69    0.79 
   1   0 -10   22.44    0.85 
  -1   0  10   22.15    0.87 
   1   0 -10   23.36    0.91 
  -1   0  10   22.06    0.91 
   0   0 -10    0.88    0.20 
   0   0  10    1.00    0.25 
   0   0 -10    1.23    0.26 
   0   0  10    0.78    0.21 
  -1   0 -10   81.36    2.40 
   1   0  10   84.51    2.39 
  -1   0 -10   84.90    2.31 
   1   0  10   87.49    2.39 
  -2   0 -10    0.31    0.16 
   2   0  10    0.34    0.17 
  -2   0 -10    0.58    0.17 
  -3   0 -10    5.59    0.46 
   3   0  10    4.98    0.42 
  -3   0 -10    5.51    0.64 
   4   0  10   -0.12    0.14 
  -4   0 -10    0.29    0.21 
  -4   0 -10    0.07    0.14 
   5   0  10    0.28    0.20 
  -5   0 -10    0.36    0.18 
  -5   0 -10    0.21    0.20 
   6   0  10   11.76    0.74 
  -6   0 -10   13.27    0.79 
  -6   0 -10   12.72    0.74 
  -7   0 -10    5.48    0.48 
  -7   0 -10    5.17    0.65 
   7   0  10    5.46    0.64 
   9  -1 -10    4.29    0.55 
  -9   1  10    5.55    0.56 
   8  -1 -10    0.51    0.23 
   8  -1 -10    0.09    0.14 
  -8  -1  10    0.06    0.14 
  -8   1  10   -0.08    0.13 
   8   1 -10   -0.17    0.11 
   7  -1 -10   12.80    0.71 
  -7  -1  10   11.86    0.60 
   7  -1 -10   12.84    0.65 
   7   1 -10   11.29    0.64 
  -7   1  10   11.54    0.65 
   6  -1 -10   11.69    0.65 
   6  -1 -10   11.86    0.61 
  -6  -1  10   11.00    0.57 
  -6   1  10   11.61    0.57 
  -6   1  10   10.02    0.59 
   6   1 -10   11.16    0.60 
   5  -1 -10   18.17    0.78 
   5  -1 -10   17.92    0.81 
  -5  -1  10   18.58    0.77 
   5   1 -10   17.34    0.75 
   5   1 -10   17.78    0.73 
  -5   1  10   16.98    0.79 
  -5   1  10   18.75    0.76 
  -4  -1  10   18.16    0.77 
   4  -1 -10   17.53    0.78 
   4  -1 -10   17.26    0.76 
  -4   1  10   18.46    0.80 
   4   1 -10   18.21    0.73 
  -4   1  10   18.14    0.76 
   4   1 -10   17.36    0.73 
  -3  -1  10    8.81    0.41 
   3  -1 -10    7.65    0.48 
  -3  -1  10    8.37    0.49 
   3  -1 -10    9.50    0.53 
  -3   1  10    8.13    0.51 
   3   1 -10    9.12    0.46 
  -3   1  10    8.70    0.50 
   3   1 -10    7.37    0.46 
  -2  -1  10   40.64    1.32 
  -2  -1  10   40.55    1.20 
   2  -1 -10   38.93    1.33 
   2  -1 -10   39.90    1.32 
   2   1 -10   40.13    1.23 
  -2   1  10   40.09    1.34 
   2   1 -10   39.43    1.31 
  -2   1  10   40.94    1.31 
   1  -1 -10    0.16    0.14 
   1  -1 -10    0.47    0.17 
   1  -1 -10    0.45    0.16 
  -1  -1  10    0.52    0.19 
  -1  -1  10    0.56    0.18 
  -1   1  10    0.21    0.15 
   1   1 -10    0.20    0.13 
  -1   1  10    0.27    0.17 
   1   1 -10    0.13    0.11 
   0  -1 -10   87.28    2.45 
   0  -1 -10   86.02    2.40 
   0  -1 -10   89.02    2.33 
   0  -1  10   85.65    2.41 
   0  -1  10   89.47    2.35 
   0   1 -10   83.40    2.42 
   0   1 -10   84.47    2.26 
   0   1  10   84.49    2.43 
   0   1  10   87.36    2.43 
   1  -1  10   20.22    0.89 
  -1  -1 -10   21.01    0.89 
  -1  -1 -10   21.59    0.81 
  -1  -1 -10   21.46    0.88 
   1  -1  10   22.29    0.87 
  -1  -1 -10   21.19    0.88 
   1   1  10   22.32    0.92 
  -1   1 -10   21.17    0.77 
  -1   1 -10   19.72    0.89 
   2  -1  10   38.25    1.36 
  -2  -1 -10   38.84    1.22 
  -2  -1 -10   38.31    1.31 
   2  -1  10   39.76    1.31 
  -2  -1 -10   35.96    1.30 
  -2  -1 -10   39.13    1.35 
   2   1  10   36.89    1.35 
   2   1  10   36.65    1.31 
  -2   1 -10   35.17    1.33 
   3  -1  10    3.83    0.46 
  -3  -1 -10    4.52    0.41 
  -3  -1 -10    4.34    0.48 
   3   1  10    4.78    0.42 
  -3   1 -10    4.86    0.43 
   3   1  10    4.84    0.58 
   4  -1  10    2.23    0.37 
  -4  -1 -10    2.78    0.41 
  -4  -1 -10    3.38    0.47 
  -4   1 -10    2.76    0.43 
   4   1  10    2.27    0.40 
   4   1  10    2.31    0.40 
  -5  -1 -10    9.70    0.60 
  -5  -1 -10    9.53    0.64 
   5  -1  10    9.09    0.62 
   5   1  10    9.26    0.62 
   5   1  10    9.73    0.67 
  -5   1 -10    9.44    0.63 
   6  -1  10    5.66    0.51 
  -6  -1 -10    5.46    0.46 
  -6  -1 -10    5.73    0.65 
   6   1  10    5.62    0.66 
  -6   1 -10    4.74    0.59 
   6   1  10    5.09    0.59 
   7  -1  10   24.04    1.12 
  -7  -1 -10   22.68    1.10 
   7   1  10   21.95    1.08 
   7   1  10   24.60    1.17 
  -7   1 -10   24.38    1.11 
   9  -2 -10    0.07    0.17 
   9  -2 -10    0.44    0.23 
  -9   2  10    0.07    0.19 
   9   2 -10    0.17    0.20 
   8  -2 -10    1.44    0.34 
   8  -2 -10    2.61    0.41 
   8   2 -10    1.73    0.33 
  -8   2  10    1.98    0.36 
   7  -2 -10    1.34    0.31 
   7  -2 -10    2.29    0.35 
  -7   2  10    1.86    0.31 
   7   2 -10    2.10    0.35 
  -7   2  10    1.92    0.35 
   6  -2 -10   14.30    0.72 
   6  -2 -10   13.28    0.74 
  -6   2  10   12.91    0.70 
   6   2 -10   14.48    0.67 
  -6   2  10   14.41    0.70 
   5  -2 -10    8.56    0.53 
   5  -2 -10    8.54    0.56 
  -5  -2  10    7.53    0.45 
  -5   2  10    7.45    0.52 
   5   2 -10    8.55    0.47 
  -5   2  10    9.68    0.55 
   4  -2 -10    6.84    0.49 
   4  -2 -10    6.66    0.47 
  -4  -2  10    6.54    0.42 
  -4   2  10    6.75    0.48 
  -4   2  10    7.45    0.49 
  -3  -2  10   24.22    0.92 
   3  -2 -10   24.53    0.98 
   3  -2 -10   24.68    1.00 
  -3   2  10   24.83    0.99 
   3   2 -10   25.23    0.94 
  -3   2  10   25.09    0.99 
   2  -2 -10    7.54    0.50 
  -2  -2  10    8.50    0.38 
  -2  -2  10    8.41    0.50 
   2  -2 -10    8.06    0.52 
  -2   2  10    7.38    0.50 
  -2   2  10    8.15    0.52 
   2   2 -10    8.43    0.50 
   1  -2 -10   43.13    1.45 
   1  -2 -10   43.89    1.46 
   1  -2 -10   44.26    1.43 
  -1  -2  10   43.69    1.28 
  -1  -2  10   45.51    1.43 
   1   2 -10   42.35    1.42 
  -1   2  10   41.68    1.41 
   0  -2  10    5.95    0.38 
   0  -2  10    5.70    0.45 
   0  -2 -10    6.16    0.46 
   0  -2 -10    6.29    0.45 
   0  -2 -10    5.65    0.43 
   0  -2 -10    5.68    0.45 
   0   2  10    5.86    0.45 
   0   2 -10    5.74    0.45 
  -1  -2 -10   79.84    2.25 
  -1  -2 -10   80.28    2.29 
   1  -2  10   75.77    2.27 
  -1  -2 -10   77.72    2.29 
  -1  -2 -10   78.32    2.24 
   1  -2  10   77.29    2.16 
   1   2  10   77.31    2.25 
  -1   2 -10   77.17    2.30 
   2  -2  10    3.09    0.43 
   2  -2  10    3.58    0.41 
  -2  -2 -10    3.19    0.43 
  -2  -2 -10    3.81    0.47 
  -2  -2 -10    3.49    0.42 
  -2  -2 -10    3.43    0.42 
  -2   2 -10    3.20    0.44 
   2   2  10    3.41    0.44 
  -3  -2 -10    3.89    0.50 
  -3  -2 -10    4.07    0.46 
   3  -2  10    5.05    0.62 
  -3  -2 -10    4.68    0.50 
   3  -2  10    4.76    0.41 
  -3   2 -10    5.02    0.57 
   3   2  10    4.35    0.51 
   4  -2  10   13.09    0.71 
  -4  -2 -10   12.45    0.67 
  -4  -2 -10   13.40    0.70 
  -4  -2 -10   13.28    0.73 
  -4   2 -10   12.52    0.74 
   4   2  10   12.14    0.71 
   4   2  10   12.62    0.74 
   5  -2  10   11.67    0.70 
  -5  -2 -10   11.31    0.68 
  -5  -2 -10   10.26    0.68 
  -5  -2 -10   12.30    0.66 
  -5   2 -10   11.50    0.73 
   5   2  10   11.41    0.74 
   5   2  10   11.33    0.70 
   6  -2  10   17.56    0.89 
  -6  -2 -10   17.15    0.88 
   6   2  10   14.82    0.88 
   6   2  10   15.05    0.85 
  -6   2 -10   13.91    0.85 
  -7  -2 -10    0.29    0.22 
   7  -2  10    0.36    0.23 
  -7   2 -10    0.72    0.28 
   7   2  10    0.60    0.29 
   7   2  10    0.73    0.30 
   8  -3 -10    2.02    0.40 
   8  -3 -10    2.29    0.39 
  -8   3  10    2.55    0.43 
  -8   3  10    2.43    0.38 
   7  -3 -10    3.43    0.47 
   7  -3 -10    3.44    0.49 
  -7   3  10    3.33    0.44 
  -7   3  10    3.76    0.51 
   6  -3 -10    8.93    0.60 
   6  -3 -10   10.06    0.65 
  -6   3  10    9.72    0.60 
   5  -3 -10    1.39    0.29 
   5  -3 -10    1.07    0.29 
  -5   3  10    0.98    0.26 
   4  -3 -10    8.69    0.56 
   4  -3 -10    9.82    0.62 
  -4   3  10    9.11    0.57 
   3  -3 -10    0.90    0.25 
   3  -3 -10    0.77    0.22 
  -3  -3  10    0.86    0.21 
  -3   3  10    0.97    0.26 
   2  -3 -10    9.90    0.59 
   2  -3 -10    9.90    0.61 
  -2  -3  10    9.27    0.53 
   2  -3 -10    9.25    0.60 
  -2   3  10    8.84    0.57 
   2   3 -10    9.78    0.56 
  -1  -3  10   13.71    0.69 
   1  -3 -10   14.08    0.75 
   1  -3 -10   15.08    0.75 
   1  -3 -10   14.10    0.71 
   1  -3 -10   16.19    0.79 
   1   3 -10   14.89    0.72 
  -1   3  10   14.75    0.74 
   0  -3 -10    6.13    0.46 
   0  -3 -10    6.88    0.51 
   0  -3 -10    5.91    0.45 
   0  -3  10    5.92    0.47 
   0  -3 -10    5.29    0.46 
   0  -3  10    6.01    0.36 
   0   3  10    5.88    0.47 
   0   3 -10    5.60    0.45 
  -1  -3 -10    4.63    0.50 
  -1  -3 -10    4.90    0.43 
   1  -3  10    3.93    0.49 
   1  -3  10    4.83    0.36 
  -1  -3 -10    4.45    0.52 
  -1  -3 -10    5.29    0.46 
   1   3  10    4.64    0.50 
  -1   3 -10    4.71    0.55 
  -2  -3 -10   10.62    0.67 
  -2  -3 -10   10.91    0.62 
   2  -3  10   10.44    0.68 
   2  -3  10   11.45    0.59 
  -2  -3 -10   11.72    0.68 
  -2  -3 -10   10.01    0.62 
   2   3  10   11.32    0.65 
  -2   3 -10   10.03    0.65 
   3  -3  10    9.33    0.66 
   3  -3  10    8.96    0.55 
  -3  -3 -10    8.94    0.55 
  -3  -3 -10    9.46    0.63 
  -3  -3 -10    8.19    0.58 
   3   3  10    8.37    0.59 
  -3   3 -10    8.31    0.60 
  -4  -3 -10    9.15    0.63 
   4  -3  10    9.90    0.61 
  -4  -3 -10    9.56    0.62 
   4   3  10    8.02    0.61 
  -4   3 -10    8.62    0.64 
  -5  -3 -10    7.37    0.60 
  -5  -3 -10    7.30    0.57 
   5  -3  10    8.40    0.59 
   5   3  10    8.09    0.62 
  -5   3 -10    6.94    0.60 
   5   3  10    6.48    0.59 
  -6  -3 -10    5.07    0.64 
  -6  -3 -10    5.73    0.64 
   6  -3  10    6.24    0.55 
  -6   3 -10    6.06    0.69 
   6   3  10    6.32    0.68 
   6   3  10    4.67    0.63 
   7  -4 -10    4.21    0.56 
   7  -4 -10    5.05    0.60 
  -7   4  10    5.46    0.59 
   6  -4 -10    4.65    0.57 
   6  -4 -10    5.79    0.50 
  -6   4  10    5.10    0.55 
   5  -4 -10    8.12    0.61 
   5  -4 -10    9.10    0.61 
  -5   4  10    7.70    0.56 
   4  -4 -10    4.90    0.56 
   4  -4 -10    5.17    0.46 
  -4   4  10    4.76    0.53 
   3  -4 -10   18.20    0.87 
  -3  -4  10   16.96    0.70 
   3  -4 -10   17.89    0.90 
  -3   4  10   16.13    0.81 
  -2  -4  10    1.68    0.29 
   2  -4 -10    1.59    0.33 
   2  -4 -10    1.11    0.28 
   2  -4 -10    1.27    0.32 
  -2   4  10    1.75    0.33 
   1  -4 -10    0.87    0.25 
   1  -4 -10    1.31    0.29 
  -1  -4  10    1.05    0.26 
   1  -4 -10    1.22    0.31 
   1  -4 -10    1.04    0.28 
  -1   4  10    0.65    0.23 
   0  -4 -10    1.30    0.30 
   0  -4  10    1.10    0.28 
   0  -4 -10    1.03    0.26 
   0  -4 -10    0.89    0.28 
   0  -4 -10    0.92    0.26 
   0   4 -10    1.18    0.28 
   0   4  10    1.14    0.29 
  -1  -4 -10    1.52    0.34 
  -1  -4 -10    1.71    0.33 
  -1  -4 -10    1.86    0.35 
  -1  -4 -10    1.27    0.32 
   1  -4  10    1.28    0.30 
  -1   4 -10    1.40    0.33 
   1   4  10    1.59    0.33 
   2  -4  10   10.46    0.68 
  -2  -4 -10   11.76    0.74 
  -2  -4 -10    9.78    0.69 
  -2  -4 -10    9.43    0.59 
  -2  -4 -10   10.24    0.65 
   2  -4  10   10.70    0.55 
   2   4  10   10.59    0.66 
  -2   4 -10   11.39    0.71 
  -3  -4 -10    1.64    0.35 
   3  -4  10    1.93    0.40 
  -3  -4 -10    1.50    0.37 
   3  -4  10    1.55    0.29 
   3   4  10    1.28    0.32 
  -3   4 -10    1.55    0.35 
  -4  -4 -10    5.32    0.62 
  -4  -4 -10    6.71    0.60 
   4  -4  10    5.85    0.47 
  -4   4 -10    6.88    0.60 
   4   4  10    6.17    0.56 
  -5  -4 -10    5.08    0.61 
   5  -4  10    3.92    0.51 
  -5  -4 -10    5.50    0.67 
  -5   4 -10    6.12    0.73 
   5  -5 -10    2.87    0.48 
   5  -5 -10    2.64    0.43 
  -5   5  10    1.75    0.37 
   4  -5 -10    7.37    0.61 
   4  -5 -10    9.00    0.63 
   4  -5 -10    7.61    0.65 
  -4   5  10    6.91    0.57 
   3  -5 -10    8.23    0.60 
   3  -5 -10    8.38    0.65 
   3  -5 -10    8.26    0.66 
  -3   5  10    8.08    0.59 
   2  -5 -10    9.07    0.67 
  -2  -5  10    9.07    0.51 
   2  -5 -10    7.98    0.65 
   2  -5 -10   10.33    0.65 
  -2   5  10    9.23    0.63 
   1  -5 -10    0.76    0.27 
   1  -5 -10    0.34    0.25 
   1  -5 -10    0.60    0.22 
  -1  -5  10    0.42    0.21 
  -1   5  10    0.81    0.26 
   0  -5  10    2.40    0.38 
   0  -5 -10    2.76    0.42 
   0  -5 -10    1.41    0.35 
   0  -5 -10    1.58    0.38 
   0  -5 -10    1.74    0.35 
   0   5  10    1.68    0.35 
  -1  -5 -10    6.77    0.61 
  -1  -5 -10    7.75    0.65 
   1  -5  10    8.13    0.59 
  -1  -5 -10    7.56    0.58 
   1   5  10    7.31    0.57 
  -1   5 -10    8.30    0.62 
  -2  -5 -10    0.26    0.22 
  -2  -5 -10    0.50    0.27 
   2  -5  10    0.40    0.24 
  -2  -5 -10    0.75    0.25 
   2   5  10    0.82    0.28 
  -2   5 -10    0.51    0.22 
  -3  -5 -10    8.43    0.70 
  -3  -5 -10    7.83    0.61 
   3  -5  10    9.27    0.69 
   3   5  10    6.90    0.58 
  -3   5 -10    7.51    0.64 
   9   0 -11   11.46    0.73 
  -9   0  11   11.12    0.66 
   8   0 -11   11.65    0.71 
  -8   0  11   11.61    0.67 
  -7   0  11    5.79    0.48 
   7   0 -11    5.87    0.48 
   6   0 -11    4.56    0.49 
   6   0 -11    3.57    0.44 
  -6   0  11    3.86    0.46 
  -5   0  11    0.17    0.15 
   5   0 -11   -0.02    0.12 
   5   0 -11   -0.02    0.10 
   4   0 -11   41.40    1.39 
   4   0 -11   40.51    1.38 
  -4   0  11   43.67    1.45 
  -4   0  11   43.70    1.33 
   3   0 -11    6.71    0.45 
  -3   0  11    6.61    0.43 
   3   0 -11    6.14    0.44 
  -3   0  11    6.61    0.48 
   2   0 -11   -0.11    0.09 
   2   0 -11    0.16    0.12 
  -2   0  11   -0.17    0.12 
  -2   0  11   -0.02    0.12 
  -1   0  11    1.85    0.33 
  -1   0  11    1.95    0.30 
   1   0 -11    2.67    0.38 
   1   0 -11    2.30    0.32 
   0   0 -11    2.91    0.40 
   0   0 -11    2.85    0.35 
   0   0  11    1.91    0.31 
   0   0  11    2.39    0.37 
  -1   0 -11    1.95    0.29 
  -1   0 -11    2.15    0.36 
   1   0  11    2.24    0.36 
   1   0  11    1.70    0.33 
   2   0  11   13.19    0.71 
  -2   0 -11   13.37    0.73 
  -2   0 -11   13.60    0.66 
  -3   0 -11    8.86    0.60 
   3   0  11    8.68    0.58 
   4   0  11    6.68    0.55 
  -4   0 -11    8.35    0.59 
   5   0  11    0.14    0.19 
  -5   0 -11    0.04    0.16 
  -6   0 -11    4.04    0.53 
   6   0  11    3.14    0.50 
   7   0  11    0.43    0.24 
  -7   0 -11   -0.09    0.14 
   9  -1 -11    4.52    0.60 
   9   1 -11    4.90    0.57 
  -9   1  11    4.91    0.56 
   8  -1 -11    4.73    0.53 
   8  -1 -11    3.85    0.51 
  -8  -1  11    4.50    0.39 
   8   1 -11    5.06    0.55 
  -8   1  11    4.33    0.53 
   7  -1 -11    3.68    0.48 
  -7  -1  11    3.33    0.41 
   7  -1 -11    3.32    0.41 
  -7   1  11    3.74    0.49 
   7   1 -11    3.49    0.44 
   6  -1 -11    2.40    0.38 
  -6  -1  11    2.13    0.34 
   6  -1 -11    1.94    0.34 
  -6   1  11    2.01    0.31 
   6   1 -11    2.06    0.35 
  -6   1  11    2.14    0.36 
   5  -1 -11    7.01    0.50 
  -5  -1  11    5.83    0.46 
   5  -1 -11    6.37    0.46 
  -5   1  11    6.18    0.49 
   5   1 -11    6.54    0.45 
  -5   1  11    7.24    0.46 
   5   1 -11    6.93    0.46 
   4  -1 -11    9.29    0.56 
  -4  -1  11    7.92    0.53 
   4  -1 -11    9.02    0.54 
  -4   1  11    8.26    0.55 
   4   1 -11    9.04    0.53 
  -4   1  11    9.22    0.53 
   4   1 -11    9.91    0.52 
   3  -1 -11   18.29    0.83 
  -3  -1  11   20.11    0.71 
  -3  -1  11   17.89    0.80 
   3  -1 -11   19.44    0.85 
   3   1 -11   19.51    0.83 
  -3   1  11   16.59    0.82 
  -3   1  11   19.57    0.84 
   3   1 -11   19.41    0.77 
   2  -1 -11    1.36    0.27 
  -2  -1  11    1.40    0.29 
  -2  -1  11    1.44    0.23 
   2  -1 -11    1.41    0.27 
  -2   1  11    1.05    0.27 
  -2   1  11    1.35    0.29 
   2   1 -11    1.12    0.25 
   2   1 -11    1.21    0.23 
  -1  -1  11    5.28    0.37 
   1  -1 -11    5.05    0.40 
   1  -1 -11    4.39    0.40 
  -1  -1  11    5.08    0.43 
   1  -1 -11    4.59    0.35 
  -1   1  11    4.83    0.53 
   1   1 -11    4.03    0.32 
   1   1 -11    4.50    0.40 
  -1   1  11    4.82    0.41 
   0  -1 -11    5.23    0.44 
   0  -1  11    5.98    0.43 
   0  -1  11    4.83    0.54 
   0  -1 -11    5.47    0.42 
   0  -1 -11    6.24    0.40 
   0   1  11    5.61    0.45 
   0   1 -11    5.63    0.46 
  -1  -1 -11    9.84    0.62 
   1  -1  11   11.52    0.62 
   1  -1  11    9.85    0.63 
  -1  -1 -11   11.20    0.62 
   1   1  11   10.97    0.64 
  -1   1 -11   12.69    0.69 
  -2  -1 -11    9.34    0.57 
   2  -1  11    8.75    0.56 
  -2  -1 -11    8.97    0.59 
   2   1  11    8.35    0.58 
  -2   1 -11    8.36    0.58 
  -3  -1 -11   13.70    0.76 
   3  -1  11   15.48    0.78 
  -3  -1 -11   13.82    0.76 
   3   1  11   14.81    0.79 
  -3   1 -11   14.00    0.79 
   4  -1  11    6.69    0.53 
  -4  -1 -11    6.07    0.50 
  -4  -1 -11    6.32    0.55 
   4   1  11    6.22    0.53 
  -4   1 -11    5.95    0.52 
   5  -1  11    3.70    0.50 
  -5  -1 -11    3.69    0.48 
  -5  -1 -11    3.69    0.51 
  -5   1 -11    3.25    0.49 
   5   1  11    4.38    0.54 
  -6  -1 -11    5.70    0.62 
   6  -1  11    4.15    0.55 
  -6  -1 -11    3.91    0.56 
  -6   1 -11    5.83    0.69 
   6   1  11    3.78    0.54 
   8  -2 -11    9.55    0.63 
   8  -2 -11    9.51    0.69 
  -8   2  11    8.90    0.63 
   8   2 -11    8.96    0.65 
   7  -2 -11    1.69    0.34 
   7  -2 -11    1.02    0.29 
  -7   2  11    1.15    0.29 
  -7   2  11    2.19    0.34 
   6  -2 -11    0.38    0.20 
   6  -2 -11    0.23    0.15 
  -6   2  11    0.38    0.21 
  -6   2  11    0.49    0.21 
  -5  -2  11    3.47    0.39 
   5  -2 -11    4.18    0.49 
   5  -2 -11    4.33    0.53 
  -5   2  11    2.93    0.43 
  -5   2  11    3.15    0.42 
   4  -2 -11   14.47    0.75 
  -4  -2  11   15.62    0.72 
   4  -2 -11   16.01    0.81 
  -4   2  11   16.96    0.81 
  -4   2  11   16.55    0.79 
   3  -2 -11    3.70    0.47 
   3  -2 -11    2.80    0.39 
  -3  -2  11    3.21    0.40 
  -3   2  11    3.96    0.48 
   3   2 -11    3.52    0.41 
  -3   2  11    3.60    0.44 
   2  -2 -11   19.98    0.90 
  -2  -2  11   19.15    0.86 
   2  -2 -11   18.34    0.88 
   2   2 -11   21.69    0.88 
  -2   2  11   22.10    0.92 
  -1  -2  11    5.99    0.37 
   1  -2 -11    5.62    0.45 
   1  -2 -11    5.55    0.46 
   1  -2 -11    5.41    0.57 
  -1  -2  11    5.41    0.46 
  -1   2  11    5.59    0.45 
   1   2 -11    5.90    0.46 
   0  -2 -11   12.22    0.68 
   0  -2 -11   11.72    0.64 
   0  -2  11   11.14    0.67 
   0  -2  11   12.89    0.59 
   0  -2 -11   11.80    0.67 
   0   2 -11   12.15    0.68 
   0   2  11   11.94    0.67 
  -1  -2 -11   -0.03    0.12 
  -1  -2 -11    0.23    0.15 
  -1  -2 -11    0.10    0.17 
  -1  -2 -11    0.16    0.14 
   1  -2  11    0.02    0.17 
   1  -2  11    0.23    0.15 
   1   2  11    0.30    0.18 
  -1   2 -11   -0.05    0.13 
  -2  -2 -11    4.26    0.53 
  -2  -2 -11    5.10    0.45 
   2  -2  11    5.34    0.63 
  -2  -2 -11    4.90    0.42 
  -2  -2 -11    5.23    0.57 
   2  -2  11    5.45    0.43 
  -2   2 -11    5.47    0.63 
   2   2  11    4.93    0.56 
  -3  -2 -11   22.47    1.01 
   3  -2  11   23.68    1.00 
  -3  -2 -11   23.13    0.98 
  -3  -2 -11   24.23    1.03 
   3   2  11   23.47    1.04 
  -3   2 -11   23.92    1.08 
   4  -2  11    9.37    0.62 
  -4  -2 -11    8.23    0.62 
  -4  -2 -11    8.54    0.58 
   4   2  11    8.65    0.63 
   4   2  11    8.25    0.65 
  -4   2 -11    9.18    0.66 
  -5  -2 -11    4.09    0.50 
  -5  -2 -11    3.02    0.47 
   5  -2  11    3.93    0.53 
   5   2  11    2.85    0.47 
   5   2  11    4.26    0.54 
  -5   2 -11    4.30    0.56 
   6  -2  11    0.08    0.17 
  -6  -2 -11   -0.14    0.18 
  -6   2 -11    0.03    0.15 
   6   2  11   -0.16    0.18 
   6   2  11    0.13    0.23 
   7  -3 -11    5.50    0.49 
   7  -3 -11    5.80    0.68 
  -7   3  11    5.87    0.61 
   6  -3 -11    1.11    0.28 
   6  -3 -11    1.45    0.32 
  -6   3  11    1.40    0.33 
   5  -3 -11    9.36    0.62 
   5  -3 -11   10.86    0.70 
  -5   3  11   10.64    0.65 
   4  -3 -11    0.20    0.17 
  -4  -3  11    0.17    0.15 
   4  -3 -11    0.19    0.16 
  -4   3  11    0.30    0.17 
  -3  -3  11   18.40    0.80 
   3  -3 -11   19.68    0.91 
   3  -3 -11   20.19    0.95 
  -3   3  11   21.24    0.93 
   2  -3 -11   10.58    0.67 
  -2  -3  11   11.05    0.61 
   2  -3 -11   10.91    0.66 
   2  -3 -11   10.19    0.66 
   2   3 -11   11.85    0.65 
  -2   3  11   11.98    0.69 
   1  -3 -11   11.30    0.67 
   1  -3 -11   10.32    0.66 
  -1  -3  11   11.24    0.64 
   1  -3 -11   11.07    0.67 
  -1   3  11   11.13    0.67 
   1   3 -11   12.19    0.67 
   0  -3 -11    2.29    0.38 
   0  -3  11    3.04    0.42 
   0  -3  11    2.21    0.29 
   0  -3 -11    2.89    0.44 
   0  -3 -11    2.81    0.44 
   0  -3 -11    2.18    0.37 
   0   3  11    2.96    0.43 
   0   3 -11    3.08    0.42 
  -1  -3 -11    5.24    0.57 
  -1  -3 -11    7.12    0.54 
  -1  -3 -11    6.69    0.54 
  -1  -3 -11    7.43    0.53 
   1  -3  11    6.89    0.44 
   1  -3  11    5.41    0.61 
   1   3  11    6.57    0.53 
  -1   3 -11    6.16    0.52 
   2  -3  11    9.84    0.69 
   2  -3  11   10.66    0.59 
  -2  -3 -11   11.28    0.71 
  -2  -3 -11   10.66    0.67 
  -2  -3 -11   10.95    0.69 
  -2  -3 -11   11.01    0.66 
   2   3  11   10.75    0.69 
  -2   3 -11   11.70    0.73 
  -3  -3 -11    3.72    0.49 
  -3  -3 -11    3.97    0.54 
  -3  -3 -11    4.28    0.50 
   3  -3  11    5.04    0.64 
   3  -3  11    4.20    0.47 
  -3   3 -11    3.52    0.52 
   3   3  11    4.22    0.53 
  -4  -3 -11   14.50    0.83 
   4  -3  11   15.78    0.81 
  -4  -3 -11   15.04    0.82 
  -4   3 -11   14.71    0.87 
   4   3  11   14.50    0.83 
   5  -3  11    4.94    0.58 
  -5  -3 -11    4.05    0.55 
  -5  -3 -11    4.08    0.54 
   5   3  11    4.41    0.62 
   5   3  11    4.09    0.56 
  -5   3 -11    3.86    0.57 
   6  -4 -11    1.66    0.35 
   6  -4 -11    0.90    0.30 
  -6   4  11    1.47    0.34 
   5  -4 -11    0.44    0.22 
   5  -4 -11    0.51    0.24 
  -5   4  11    0.39    0.22 
   4  -4 -11   12.08    0.78 
   4  -4 -11   13.50    0.77 
  -4   4  11   13.58    0.76 
   3  -4 -11    0.42    0.20 
  -3  -4  11    0.42    0.17 
   3  -4 -11    0.43    0.21 
   3  -4 -11    0.54    0.25 
  -3   4  11    0.53    0.22 
   2  -4 -11    1.53    0.38 
  -2  -4  11    1.79    0.32 
   2  -4 -11    1.30    0.31 
   2  -4 -11    1.14    0.30 
  -2   4  11    1.73    0.36 
   1  -4 -11    2.78    0.45 
   1  -4 -11    3.68    0.53 
   1  -4 -11    2.64    0.41 
  -1  -4  11    2.91    0.40 
  -1   4  11    2.94    0.45 
   0  -4 -11    6.82    0.54 
   0  -4 -11    7.74    0.61 
   0  -4  11    7.91    0.57 
   0  -4 -11    6.71    0.54 
   0  -4 -11    8.29    0.63 
   0   4 -11    8.27    0.59 
   0   4  11    6.69    0.55 
  -1  -4 -11    0.42    0.23 
  -1  -4 -11    0.44    0.24 
  -1  -4 -11    0.50    0.24 
  -1  -4 -11    0.36    0.19 
   1  -4  11    0.76    0.27 
   1   4  11    0.78    0.27 
  -1   4 -11    0.62    0.27 
  -2  -4 -11    3.57    0.54 
  -2  -4 -11    2.91    0.45 
   2  -4  11    4.22    0.57 
  -2  -4 -11    2.63    0.47 
  -2  -4 -11    2.82    0.41 
   2  -4  11    3.87    0.43 
   2   4  11    3.33    0.48 
  -2   4 -11    2.23    0.40 
   3  -4  11    8.24    0.67 
  -3  -4 -11    7.33    0.60 
   3  -4  11    8.77    0.55 
  -3  -4 -11    7.37    0.63 
   3   4  11    7.72    0.61 
  -3   4 -11    8.32    0.65 
   4  -4  11   -0.02    0.18 
  -4  -4 -11    0.13    0.18 
  -4  -4 -11    0.08    0.19 
  -4   4 -11    0.14    0.19 
   4   4  11    0.00    0.19 
   4  -5 -11    0.95    0.32 
   4  -5 -11    1.18    0.33 
   4  -5 -11    0.76    0.30 
  -4   5  11    0.84    0.28 
   3  -5 -11    4.96    0.66 
   3  -5 -11    5.29    0.64 
   3  -5 -11    5.85    0.71 
  -3   5  11    4.74    0.57 
   2  -5 -11    1.78    0.39 
   2  -5 -11    1.30    0.33 
   2  -5 -11    2.23    0.41 
  -2  -5  11    1.53    0.28 
  -2   5  11    2.10    0.39 
   1  -5 -11    7.76    0.59 
   1  -5 -11    8.27    0.69 
  -1  -5  11    8.41    0.56 
   1  -5 -11    7.91    0.65 
  -1   5  11    8.08    0.63 
   0  -5  11    1.13    0.29 
   0  -5 -11    0.63    0.25 
   0  -5 -11    0.82    0.34 
   0  -5 -11    0.59    0.28 
   0  -5 -11    1.00    0.28 
   0   5  11    1.69    0.38 
  -1  -5 -11    3.00    0.48 
  -1  -5 -11    2.32    0.46 
   1  -5  11    3.32    0.48 
  -1  -5 -11    3.13    0.55 
  -1   5 -11    4.83    0.61 
   1   5  11    2.88    0.49 
   2  -5  11    1.90    0.41 
  -2  -5 -11    2.64    0.47 
  -2  -5 -11    1.46    0.39 
  -2  -5 -11    1.75    0.42 
  -2   5 -11    1.70    0.39 
   2   5  11    2.08    0.39 
   8   0 -12    0.08    0.18 
  -8   0  12    0.10    0.19 
   7   0 -12   28.76    1.16 
  -7   0  12   27.62    1.14 
   6   0 -12    2.25    0.35 
   6   0 -12    1.74    0.35 
  -6   0  12    2.04    0.36 
  -5   0  12   14.75    0.78 
   5   0 -12   15.52    0.75 
   5   0 -12   14.97    0.75 
   4   0 -12    0.30    0.16 
  -4   0  12    0.02    0.16 
   4   0 -12    0.18    0.14 
  -4   0  12    0.14    0.15 
   3   0 -12    0.59    0.18 
   3   0 -12    0.92    0.25 
  -3   0  12    0.00    0.15 
  -3   0  12    0.39    0.21 
   2   0 -12    2.34    0.34 
   2   0 -12    2.35    0.35 
  -2   0  12    2.62    0.36 
  -2   0  12    2.94    0.44 
  -1   0  12   19.64    0.92 
   1   0 -12   19.22    0.91 
   1   0 -12   20.12    0.85 
  -1   0  12   21.83    0.91 
   0   0  12    3.83    0.49 
   0   0 -12    3.06    0.43 
   0   0  12    3.56    0.44 
   0   0 -12    2.48    0.34 
  -1   0 -12    0.00    0.14 
   1   0  12    0.03    0.14 
  -1   0 -12    0.07    0.13 
  -2   0 -12    9.16    0.55 
  -2   0 -12    8.29    0.60 
   2   0  12    8.58    0.59 
  -3   0 -12    0.96    0.29 
   3   0  12    0.95    0.28 
   4   0  12   20.90    1.03 
  -4   0 -12   22.08    1.05 
  -5   0 -12    1.17    0.30 
   5   0  12    0.94    0.32 
   6   0  12    5.26    0.66 
  -6   0 -12    3.46    0.52 
   8  -1 -12    9.33    0.62 
   8  -1 -12   10.13    0.69 
  -8  -1  12    8.58    0.56 
   8   1 -12    9.17    0.63 
  -8   1  12    7.91    0.62 
  -7  -1  12    1.21    0.29 
   7  -1 -12    1.43    0.33 
   7  -1 -12    1.39    0.31 
   7   1 -12    1.70    0.33 
  -7   1  12    1.49    0.33 
  -6  -1  12   34.68    1.28 
   6  -1 -12   36.57    1.32 
   6  -1 -12   35.41    1.35 
  -6   1  12   33.72    1.32 
   6   1 -12   36.03    1.28 
  -5  -1  12    0.91    0.26 
   5  -1 -12    0.86    0.23 
   5  -1 -12    0.92    0.26 
   5   1 -12    1.52    0.29 
   5   1 -12    1.28    0.28 
  -5   1  12    1.00    0.26 
  -5   1  12    1.17    0.31 
   4  -1 -12    3.00    0.44 
   4  -1 -12    3.37    0.45 
  -4  -1  12    2.51    0.39 
   4   1 -12    2.72    0.36 
  -4   1  12    3.33    0.46 
   4   1 -12    2.48    0.37 
  -4   1  12    2.60    0.37 
   3  -1 -12    6.17    0.47 
  -3  -1  12    6.21    0.49 
   3  -1 -12    5.08    0.45 
  -3  -1  12    5.99    0.38 
   3   1 -12    6.33    0.47 
  -3   1  12    6.30    0.51 
  -3   1  12    5.21    0.45 
   3   1 -12    6.44    0.43 
  -2  -1  12   16.76    0.70 
  -2  -1  12   16.50    0.81 
   2  -1 -12   16.56    0.79 
   2  -1 -12   14.72    0.79 
  -2   1  12   13.99    0.78 
  -2   1  12   17.92    0.83 
   2   1 -12   17.05    0.81 
  -1  -1  12    7.82    0.49 
  -1  -1  12    8.78    0.59 
   1  -1 -12    6.89    0.52 
   1  -1 -12    8.08    0.54 
   1   1 -12    7.73    0.54 
  -1   1  12    7.31    0.54 
   0  -1 -12    1.28    0.28 
   0  -1  12    1.01    0.29 
   0  -1 -12    1.31    0.32 
   0  -1  12    1.11    0.26 
   0   1 -12    1.57    0.32 
   0   1  12    1.60    0.33 
   1  -1  12   14.09    0.73 
   1  -1  12   14.46    0.79 
  -1  -1 -12   13.28    0.76 
  -1  -1 -12   14.30    0.74 
   1   1  12   14.10    0.77 
  -1   1 -12   13.80    0.78 
  -2  -1 -12    1.09    0.27 
   2  -1  12    1.45    0.32 
  -2  -1 -12    0.85    0.27 
  -2   1 -12    1.16    0.30 
   2   1  12    1.13    0.30 
  -3  -1 -12    1.14    0.30 
   3  -1  12    1.24    0.31 
  -3   1 -12    1.01    0.28 
   3   1  12    1.07    0.30 
  -4  -1 -12    1.15    0.29 
   4  -1  12    1.82    0.38 
  -4   1 -12    1.69    0.38 
   4   1  12    1.41    0.35 
  -5  -1 -12    6.03    0.53 
   5  -1  12    6.34    0.57 
  -5   1 -12    5.51    0.66 
   5   1  12    4.98    0.64 
   6  -1  12    2.58    0.46 
  -6  -1 -12    2.82    0.46 
   6   1  12    2.34    0.48 
  -6   1 -12    2.52    0.48 
   8  -2 -12    0.21    0.21 
   8  -2 -12    0.90    0.27 
  -8   2  12    0.68    0.27 
   7  -2 -12    8.61    0.61 
   7  -2 -12    8.56    0.64 
  -7   2  12    7.26    0.59 
   6  -2 -12    1.50    0.34 
   6  -2 -12    2.05    0.39 
  -6  -2  12    1.27    0.26 
  -6   2  12    1.30    0.32 
  -6   2  12    1.27    0.28 
   5  -2 -12   13.18    0.73 
  -5  -2  12   12.33    0.65 
   5  -2 -12   12.77    0.76 
  -5   2  12   13.10    0.76 
  -5   2  12   11.40    0.68 
   4  -2 -12    2.53    0.41 
  -4  -2  12    3.23    0.42 
   4  -2 -12    4.26    0.53 
  -4   2  12    3.55    0.50 
  -4   2  12    3.13    0.43 
   3  -2 -12   12.40    0.71 
  -3  -2  12   12.14    0.66 
   3  -2 -12   11.53    0.70 
  -3   2  12   11.36    0.68 
   3   2 -12   12.61    0.68 
   2  -2 -12    6.52    0.51 
  -2  -2  12    5.93    0.50 
   2  -2 -12    6.17    0.48 
   2  -2 -12    5.16    0.56 
  -2   2  12    5.71    0.49 
   2   2 -12    6.44    0.49 
   1  -2 -12    6.48    0.52 
  -1  -2  12    7.09    0.43 
   1  -2 -12    6.98    0.50 
   1  -2 -12    6.71    0.52 
  -1  -2  12    6.51    0.54 
   1   2 -12    6.88    0.52 
  -1   2  12    6.98    0.53 
   0  -2 -12   22.07    1.01 
   0  -2 -12   22.12    0.99 
   0  -2  12   21.46    1.00 
   0  -2 -12   24.41    0.98 
   0  -2  12   21.70    0.87 
   0   2 -12   21.66    1.00 
   0   2  12   20.87    0.99 
  -1  -2 -12    5.95    0.48 
   1  -2  12    7.41    0.58 
  -1  -2 -12    6.72    0.54 
   1  -2  12    6.95    0.49 
  -1  -2 -12    7.13    0.55 
   1   2  12    7.05    0.56 
  -1   2 -12    6.98    0.56 
  -2  -2 -12    1.78    0.35 
   2  -2  12    1.76    0.33 
  -2  -2 -12    1.38    0.32 
   2  -2  12    1.66    0.38 
   2   2  12    1.29    0.33 
  -2   2 -12    1.20    0.29 
   3  -2  12    7.01    0.53 
  -3  -2 -12    6.60    0.54 
  -3  -2 -12    6.15    0.54 
   3   2  12    4.79    0.57 
  -3   2 -12    5.86    0.53 
   4  -2  12    0.73    0.25 
  -4  -2 -12    0.70    0.30 
  -4  -2 -12    0.45    0.21 
   4   2  12    0.65    0.28 
  -4   2 -12    0.65    0.26 
  -5  -2 -12    1.95    0.41 
  -5  -2 -12    2.44    0.41 
   5  -2  12    2.84    0.48 
   5   2  12    2.05    0.41 
  -5   2 -12    2.39    0.45 
   7  -3 -12    0.68    0.26 
  -7   3  12    0.33    0.23 
   6  -3 -12   15.08    0.85 
   6  -3 -12   16.26    0.92 
  -6   3  12   16.44    0.86 
   5  -3 -12    0.80    0.25 
   5  -3 -12    0.65    0.24 
  -5   3  12    0.83    0.28 
   4  -3 -12    3.68    0.53 
  -4  -3  12    4.58    0.47 
   4  -3 -12    3.64    0.49 
  -4   3  12    3.60    0.49 
   3  -3 -12    5.39    0.48 
  -3  -3  12    4.53    0.48 
   3  -3 -12    5.90    0.66 
  -3   3  12    5.18    0.58 
   2  -3 -12   15.41    0.81 
   2  -3 -12   11.67    0.75 
   2  -3 -12   13.52    0.78 
  -2  -3  12   13.53    0.72 
   2   3 -12   13.98    0.77 
  -2   3  12   13.82    0.77 
   1  -3 -12    2.56    0.43 
   1  -3 -12    2.58    0.42 
   1  -3 -12    2.60    0.44 
  -1  -3  12    2.57    0.40 
   1   3 -12    2.69    0.41 
   0  -3 -12    2.58    0.43 
   0  -3 -12    2.55    0.42 
   0  -3 -12    3.44    0.51 
   0  -3  12    2.71    0.43 
   0   3  12    2.95    0.44 
   0   3 -12    2.84    0.45 
   1  -3  12   10.25    0.70 
  -1  -3 -12   11.23    0.73 
   1  -3  12   10.14    0.56 
  -1  -3 -12    9.76    0.66 
  -1   3 -12   11.42    0.72 
   1   3  12   10.26    0.68 
  -2  -3 -12    9.27    0.65 
  -2  -3 -12    9.96    0.69 
  -2  -3 -12    8.91    0.65 
   2  -3  12    9.63    0.58 
   2  -3  12    9.69    0.71 
  -2  -3 -12   10.37    0.66 
  -2   3 -12    9.11    0.66 
   2   3  12    8.05    0.63 
  -3  -3 -12    3.34    0.48 
   3  -3  12    3.87    0.47 
  -3  -3 -12    3.34    0.49 
  -3  -3 -12    2.83    0.48 
   3   3  12    2.93    0.48 
  -3   3 -12    3.17    0.50 
   4  -3  12    3.03    0.47 
  -4  -3 -12    2.25    0.45 
  -4   3 -12    3.03    0.49 
   4   3  12    2.64    0.48 
   5  -4 -12   12.29    0.81 
   5  -4 -12   11.14    0.75 
  -5   4  12   12.30    0.76 
   4  -4 -12    1.89    0.40 
   4  -4 -12    1.87    0.40 
  -4   4  12    1.62    0.35 
   3  -4 -12    2.49    0.43 
   3  -4 -12    1.96    0.39 
   3  -4 -12    2.18    0.43 
  -3  -4  12    1.45    0.27 
  -3   4  12    2.07    0.38 
   2  -4 -12    4.96    0.62 
   2  -4 -12    4.17    0.57 
  -2  -4  12    4.62    0.50 
   2  -4 -12    4.37    0.58 
  -2   4  12    5.27    0.60 
   1  -4 -12   10.25    0.72 
  -1  -4  12    8.02    0.58 
   1  -4 -12    8.56    0.66 
   1  -4 -12    8.51    0.63 
  -1   4  12    8.69    0.64 
   0  -4  12    4.40    0.54 
   0  -4 -12    4.91    0.61 
   0  -4 -12    4.30    0.57 
   0  -4 -12    4.45    0.56 
   0   4  12    4.36    0.55 
   0   4 -12    5.16    0.60 
  -1  -4 -12    1.36    0.36 
   1  -4  12    1.75    0.39 
  -1  -4 -12    1.13    0.33 
  -1  -4 -12    1.21    0.30 
  -1  -4 -12    1.43    0.37 
   1   4  12    1.63    0.38 
  -1   4 -12    2.13    0.41 
  -2  -4 -12    4.59    0.59 
  -2  -4 -12    6.85    0.60 
  -2  -4 -12    5.87    0.70 
  -2  -4 -12    6.27    0.53 
   2  -4  12    5.41    0.67 
  -2   4 -12    6.44    0.58 
   2   4  12    5.16    0.60 
   3  -4  12    2.74    0.39 
  -3  -4 -12    2.14    0.44 
   3  -4  12    4.37    0.65 
  -3  -4 -12    3.08    0.49 
  -3   4 -12    3.64    0.54 
   3   4  12    2.76    0.48 
   7   0 -13    2.16    0.39 
  -7   0  13    1.83    0.38 
  -6   0  13    0.19    0.20 
   6   0 -13    0.02    0.14 
   6   0 -13    0.13    0.18 
  -5   0  13   29.23    1.22 
   5   0 -13   30.44    1.20 
   5   0 -13   31.56    1.22 
  -4   0  13    0.84    0.29 
   4   0 -13    0.45    0.20 
  -4   0  13    0.84    0.23 
   4   0 -13    0.68    0.23 
   3   0 -13   28.12    1.16 
   3   0 -13   30.48    1.14 
  -3   0  13   28.66    1.09 
  -3   0  13   26.63    1.17 
  -2   0  13    2.15    0.35 
  -2   0  13    2.52    0.43 
   2   0 -13    2.09    0.35 
   2   0 -13    2.27    0.39 
   1   0 -13    6.59    0.54 
  -1   0  13    7.87    0.55 
  -1   0  13    7.78    0.59 
   1   0 -13    6.54    0.48 
   0   0 -13    0.89    0.24 
   0   0 -13    0.43    0.17 
   0   0  13    0.44    0.20 
   1   0  13   22.16    0.99 
  -1   0 -13   19.64    0.99 
  -1   0 -13   20.34    0.94 
   2   0  13    1.58    0.34 
  -2   0 -13    0.80    0.25 
  -3   0 -13    8.85    0.67 
   3   0  13   10.18    0.70 
   4   0  13    5.48    0.64 
  -4   0 -13    5.55    0.68 
  -5   0 -13    1.43    0.36 
   5   0  13    1.30    0.35 
   7  -1 -13   -0.11    0.15 
   7  -1 -13    0.12    0.17 
  -7  -1  13    0.11    0.20 
  -7   1  13   -0.05    0.21 
   7   1 -13    0.09    0.18 
   6  -1 -13    5.42    0.61 
  -6  -1  13    4.05    0.49 
   6  -1 -13    5.20    0.60 
   6   1 -13    4.66    0.53 
  -6   1  13    3.97    0.55 
   5  -1 -13    1.94    0.38 
   5  -1 -13    1.53    0.33 
  -5  -1  13    1.89    0.34 
  -5   1  13    1.44    0.37 
   5   1 -13    1.44    0.35 
  -5   1  13    1.91    0.34 
   4  -1 -13   31.74    1.26 
  -4  -1  13   31.84    1.25 
   4  -1 -13   32.26    1.26 
   4   1 -13   30.67    1.23 
  -4   1  13   32.76    1.23 
  -4   1  13   31.15    1.28 
   3  -1 -13    2.63    0.43 
  -3  -1  13    2.85    0.44 
   3  -1 -13    2.55    0.40 
  -3   1  13    2.28    0.37 
   3   1 -13    2.04    0.35 
  -3   1  13    2.32    0.40 
  -2  -1  13   14.47    0.80 
   2  -1 -13   14.45    0.76 
   2  -1 -13   13.74    0.78 
  -2  -1  13   14.55    0.68 
  -2   1  13   14.11    0.77 
  -2   1  13   13.70    0.82 
   2   1 -13   13.20    0.76 
  -1  -1  13    1.39    0.29 
   1  -1 -13    0.59    0.22 
   1  -1 -13    0.91    0.28 
  -1  -1  13    1.05    0.30 
  -1   1  13    0.69    0.26 
   1   1 -13    1.06    0.27 
   0  -1 -13   29.11    1.23 
   0  -1 -13   31.09    1.21 
   0  -1  13   30.54    1.26 
   0  -1  13   30.92    1.16 
   0   1 -13   27.47    1.21 
   0   1  13   30.68    1.24 
  -1  -1 -13    2.19    0.39 
  -1  -1 -13    2.29    0.39 
   1  -1  13    2.59    0.40 
  -1   1 -13    2.69    0.43 
   1   1  13    2.75    0.43 
  -2  -1 -13   20.07    0.94 
   2  -1  13   18.94    0.94 
  -2  -1 -13   18.68    0.97 
   2   1  13   19.74    0.99 
  -2   1 -13   18.28    0.98 
   3  -1  13    9.94    0.67 
  -3  -1 -13    8.91    0.66 
  -3   1 -13    8.79    0.67 
   3   1  13   10.44    0.72 
  -4  -1 -13    8.05    0.64 
   4  -1  13    8.81    0.67 
  -4   1 -13    8.63    0.68 
   4   1  13    8.62    0.66 
   5  -1  13    1.75    0.41 
  -5  -1 -13    1.08    0.31 
   5   1  13    1.64    0.40 
  -5   1 -13    1.80    0.41 
   7  -2 -13    3.74    0.52 
   7  -2 -13    4.25    0.59 
  -7   2  13    3.51    0.54 
   6  -2 -13    0.75    0.26 
  -6  -2  13    1.17    0.27 
   6  -2 -13    1.05    0.31 
  -6   2  13    0.95    0.31 
  -6   2  13    1.56    0.34 
   5  -2 -13    8.78    0.62 
   5  -2 -13    8.07    0.62 
  -5  -2  13    7.67    0.55 
  -5   2  13    7.85    0.58 
  -5   2  13    9.08    0.66 
   4  -2 -13    4.00    0.52 
   4  -2 -13    3.11    0.46 
  -4  -2  13    3.67    0.47 
  -4   2  13    3.42    0.45 
   3  -2 -13   22.12    1.04 
  -3  -2  13   20.39    0.95 
   3  -2 -13   21.27    1.02 
  -3   2  13   21.50    0.99 
   3   2 -13   21.58    0.98 
  -2  -2  13    0.38    0.23 
   2  -2 -13   -0.12    0.14 
   2  -2 -13   -0.03    0.13 
   2  -2 -13    0.01    0.13 
  -2   2  13   -0.04    0.18 
   2   2 -13    0.13    0.16 
   1  -2 -13   29.32    1.23 
   1  -2 -13   28.07    1.23 
  -1  -2  13   29.28    1.23 
  -1  -2  13   31.51    1.09 
  -1   2  13   31.46    1.27 
   1   2 -13   30.62    1.25 
   0  -2  13    4.29    0.46 
   0  -2 -13    3.17    0.48 
   0  -2  13    3.52    0.49 
   0  -2 -13    2.97    0.46 
   0   2 -13    4.10    0.54 
   0   2  13    4.32    0.55 
  -1  -2 -13   17.94    0.94 
   1  -2  13   18.11    0.84 
  -1  -2 -13   18.40    0.95 
   1  -2  13   18.32    0.97 
   1   2  13   19.78    0.99 
  -1   2 -13   18.94    0.98 
  -2  -2 -13    4.06    0.54 
   2  -2  13    4.62    0.52 
  -2  -2 -13    4.49    0.59 
   2   2  13    4.13    0.57 
  -2   2 -13    3.22    0.50 
   3  -2  13   12.36    0.75 
  -3  -2 -13   11.73    0.76 
   3   2  13   12.95    0.81 
  -3   2 -13   12.41    0.81 
  -4  -2 -13    1.74    0.36 
   4  -2  13    1.64    0.36 
   4   2  13    2.00    0.42 
  -4   2 -13    2.02    0.42 
   6  -3 -13    2.86    0.49 
   6  -3 -13    2.79    0.47 
  -6   3  13    2.44    0.42 
   5  -3 -13    0.65    0.25 
   5  -3 -13    0.51    0.24 
  -5  -3  13    0.31    0.19 
  -5   3  13    0.52    0.24 
   4  -3 -13   28.21    1.24 
   4  -3 -13   26.73    1.19 
  -4  -3  13   25.28    1.02 
  -4   3  13   24.45    1.12 
  -3  -3  13    0.11    0.18 
   3  -3 -13    0.07    0.15 
   3  -3 -13   -0.03    0.15 
   3  -3 -13    0.22    0.20 
  -3   3  13    0.03    0.18 
   2  -3 -13   14.09    0.82 
   2  -3 -13   13.82    0.83 
   2  -3 -13   14.76    0.85 
  -2  -3  13   13.89    0.77 
  -2   3  13   14.49    0.83 
   2   3 -13   15.57    1.25 
   1  -3 -13    1.84    0.41 
  -1  -3  13    1.30    0.33 
   1  -3 -13    1.53    0.35 
   1  -3 -13    2.19    0.43 
  -1   3  13    1.86    0.39 
   1   3 -13    1.48    0.34 
   0  -3 -13   10.29    0.72 
   0  -3 -13   10.73    0.72 
   0  -3 -13   11.23    0.72 
   0  -3  13   10.67    0.72 
   0   3 -13   11.54    0.74 
   0   3  13   11.28    0.74 
  -1  -3 -13    0.23    0.21 
  -1  -3 -13    0.69    0.28 
  -1  -3 -13    0.43    0.22 
   1  -3  13    0.60    0.29 
   1  -3  13    0.35    0.18 
  -1   3 -13    0.34    0.24 
   1   3  13    0.32    0.26 
  -2  -3 -13    5.57    0.67 
   2  -3  13    6.12    0.48 
  -2  -3 -13    5.94    0.54 
   2  -3  13    5.98    0.69 
   2   3  13    5.34    0.64 
  -2   3 -13    5.54    0.65 
   3  -3  13    3.71    0.50 
  -3  -3 -13    3.50    0.50 
  -3   3 -13    3.78    0.56 
   3   3  13    3.17    0.50 
   4  -4 -13    0.66    0.27 
   4  -4 -13    0.98    0.34 
   4  -4 -13    0.33    0.22 
  -4   4  13    0.70    0.29 
   3  -4 -13   10.24    0.76 
   3  -4 -13   10.84    0.77 
  -3  -4  13    9.74    0.60 
   3  -4 -13   10.28    0.74 
  -3   4  13   10.62    0.74 
  -2  -4  13    0.03    0.17 
   2  -4 -13    0.40    0.27 
   2  -4 -13    0.35    0.23 
   2  -4 -13    0.28    0.22 
  -2   4  13    0.35    0.24 
  -1  -4  13    2.90    0.43 
   1  -4 -13    4.12    0.56 
   1  -4 -13    3.02    0.50 
   1  -4 -13    3.91    0.57 
  -1   4  13    3.38    0.50 
   0  -4 -13    2.20    0.43 
   0  -4  13    2.67    0.44 
   0  -4 -13    2.71    0.48 
   0  -4 -13    3.15    0.48 
   0   4  13    2.11    0.42 
   0   4 -13    2.55    0.44 
  -1  -4 -13    9.38    0.74 
  -1  -4 -13    8.57    0.69 
   1  -4  13    8.71    0.69 
  -1  -4 -13    9.36    0.67 
  -1   4 -13    8.63    0.69 
   1   4  13    9.99    0.72 
   6   0 -14   25.98    1.12 
  -6   0  14   23.16    1.12 
   6   0 -14   23.97    1.09 
  -5   0  14    6.04    0.68 
   5   0 -14    5.31    0.60 
   5   0 -14    5.70    0.63 
   4   0 -14    8.44    0.59 
   4   0 -14    7.84    0.60 
  -4   0  14    7.97    0.65 
  -3   0  14    0.03    0.19 
   3   0 -14    0.13    0.18 
  -3   0  14    0.02    0.17 
   3   0 -14   -0.03    0.14 
   2   0 -14   28.15    1.13 
  -2   0  14   27.19    1.21 
   2   0 -14   26.27    1.19 
  -2   0  14   30.62    1.17 
   1   0 -14    3.50    0.50 
  -1   0  14    3.22    0.45 
  -1   0  14    2.86    0.55 
   0   0 -14    7.39    0.60 
   0   0  14    7.64    0.59 
   1   0  14    9.10    0.66 
  -1   0 -14   10.03    0.72 
   2   0  14   13.93    0.83 
  -2   0 -14   12.76    0.83 
  -3   0 -14   12.91    0.85 
   3   0  14   14.26    0.87 
   4   0  14    7.69    0.66 
  -4   0 -14    7.64    0.65 
  -6  -1  14    4.25    0.54 
   6  -1 -14    2.73    0.45 
   6  -1 -14    4.11    0.57 
  -6   1  14    4.13    0.59 
  -5  -1  14    9.91    0.68 
   5  -1 -14   11.05    0.72 
   5  -1 -14   10.29    0.69 
  -5   1  14   10.23    0.73 
  -5   1  14   10.18    0.73 
   4  -1 -14    0.89    0.27 
   4  -1 -14    0.97    0.30 
  -4  -1  14    0.91    0.31 
  -4   1  14    1.03    0.31 
  -4   1  14    1.11    0.29 
   4   1 -14    1.42    0.32 
   3  -1 -14   15.24    0.82 
  -3  -1  14   13.51    0.82 
   3  -1 -14   15.22    0.85 
  -3   1  14   14.88    0.81 
  -3   1  14   13.79    0.83 
   3   1 -14   12.97    0.78 
  -2  -1  14    5.49    0.44 
   2  -1 -14    5.40    0.60 
   2  -1 -14    5.47    0.63 
  -2  -1  14    4.52    0.57 
  -2   1  14    6.41    0.56 
   2   1 -14    5.81    0.63 
  -1  -1  14    9.38    0.59 
  -1  -1  14    9.86    0.72 
   1  -1 -14    8.88    0.66 
   1  -1 -14   10.31    0.66 
  -1   1  14    9.58    0.68 
   1   1 -14    9.34    0.67 
   0  -1  14   13.33    0.84 
   0  -1 -14   14.27    0.79 
   0  -1 -14   14.04    0.84 
   0  -1  14   14.40    0.77 
   0   1  14   15.22    0.85 
   0   1 -14   12.24    0.79 
  -1  -1 -14    1.83    0.40 
  -1  -1 -14    1.17    0.30 
   1  -1  14    1.22    0.31 
   1   1  14    1.36    0.35 
  -1   1 -14    0.97    0.29 
  -2  -1 -14    7.77    0.64 
  -2  -1 -14    8.81    0.64 
   2  -1  14    9.80    0.68 
  -2   1 -14    9.27    0.70 
   2   1  14    9.30    0.70 
  -3  -1 -14    5.60    0.65 
   3  -1  14    8.30    0.65 
   3   1  14    8.22    0.67 
  -3   1 -14    7.52    0.65 
  -5  -2  14    2.96    0.43 
   5  -2 -14    3.24    0.50 
   5  -2 -14    3.15    0.53 
  -5   2  14    3.59    0.50 
   4  -2 -14    5.65    0.67 
   4  -2 -14    6.02    0.67 
  -4  -2  14    5.99    0.53 
  -4   2  14    4.25    0.54 
   3  -2 -14    1.82    0.36 
   3  -2 -14    2.32    0.42 
   3   2 -14    1.91    0.37 
  -3   2  14    2.08    0.41 
   2  -2 -14   11.43    0.75 
   2  -2 -14    9.77    0.69 
  -2  -2  14   10.08    0.70 
   2   2 -14    9.48    0.68 
  -2   2  14   10.04    0.70 
  -1  -2  14    6.89    0.61 
   1  -2 -14    8.16    0.62 
   1  -2 -14    7.61    0.62 
   1   2 -14    7.70    0.62 
  -1   2  14    9.25    0.68 
   0  -2 -14    0.45    0.24 
   0  -2  14    0.41    0.19 
   0  -2 -14    0.87    0.28 
   0  -2  14    0.26    0.27 
   0   2  14    0.60    0.27 
   0   2 -14    0.57    0.24 
  -1  -2 -14   20.95    1.05 
   1  -2  14   19.26    1.06 
  -1  -2 -14   19.84    1.04 
   1  -2  14   20.60    0.92 
   1   2  14   21.61    1.08 
  -1   2 -14   19.64    1.04 
   2  -2  14    7.01    0.55 
  -2  -2 -14    5.66    0.65 
  -2  -2 -14    6.35    0.70 
  -2   2 -14    5.67    0.70 
   2   2  14    7.09    0.63 
  -3  -2 -14    1.97    0.41 
   3  -2  14    2.19    0.42 
  -3   2 -14    2.08    0.44 
   3   2  14    2.31    0.45 
   4  -3 -14    0.18    0.20 
   4  -3 -14    0.10    0.18 
   4  -3 -14    0.09    0.20 
  -4  -3  14    0.01    0.18 
  -4   3  14   -0.05    0.20 
   3  -3 -14    4.58    0.62 
  -3  -3  14    3.64    0.48 
   3  -3 -14    4.53    0.60 
   3  -3 -14    3.98    0.57 
  -3   3  14    3.74    0.55 
   2  -3 -14    3.51    0.53 
  -2  -3  14    2.89    0.47 
   2  -3 -14    3.22    0.51 
   2  -3 -14    3.09    0.49 
  -2   3  14    3.45    0.51 
   1  -3 -14    6.93    1.04 
  -1  -3  14    7.16    0.60 
   1  -3 -14    6.65    0.59 
   1  -3 -14    7.52    0.63 
   1   3 -14    6.62    0.59 
  -1   3  14    6.00    0.68 
   0  -3 -14    9.55    0.70 
   0  -3  14    8.63    0.69 
   0  -3 -14   10.53    0.75 
   0   3  14    9.70    0.73 
   0   3 -14    8.69    0.68 
   1  -3  14    4.39    0.62 
  -1  -3 -14    5.85    0.68 
  -1  -3 -14    4.20    0.59 
  -1   3 -14    4.63    0.62 
   1   3  14    4.28    0.60 
   5   0 -15    2.12    0.42 
   5   0 -15    1.51    0.32 
  -5   0  15    1.23    0.36 
   4   0 -15   31.25    1.34 
  -4   0  15   31.39    1.34 
  -3   0  15    6.24    0.71 
  -3   0  15    8.39    0.59 
   3   0 -15    6.25    0.57 
  -2   0  15    4.50    0.54 
   2   0 -15    4.32    0.57 
  -2   0  15    4.05    0.57 
   1   0 -15    2.77    0.49 
  -1   0  15    3.39    0.48 
   0   0  15    2.70    0.44 
   0   0 -15    2.77    0.48 
   1   0  15    1.10    0.33 
  -1   0 -15    0.59    0.27 
   2   0  15    0.00    0.22 
  -2   0 -15    0.01    0.18 
   5  -1 -15    6.00    0.66 
  -5  -1  15    7.09    0.74 
   5  -1 -15    5.51    0.66 
  -5   1  15    7.07    0.76 
   4  -1 -15    7.70    0.63 
   4  -1 -15    8.67    0.68 
  -4  -1  15    9.91    0.72 
  -4   1  15    7.41    0.79 
  -4   1  15    9.78    0.67 
   4   1 -15    9.40    0.68 
  -3  -1  15    6.98    0.75 
   3  -1 -15    5.11    0.60 
   3  -1 -15    5.39    0.66 
   3   1 -15    6.61    0.58 
  -3   1  15    6.72    0.58 
  -2  -1  15    7.24    0.76 
   2  -1 -15    6.30    0.67 
   2  -1 -15    6.62    0.60 
  -2   1  15    7.37    0.61 
   2   1 -15    7.42    0.61 
   1  -1 -15    1.87    0.41 
  -1  -1  15    2.13    0.37 
   1  -1 -15    2.14    0.41 
  -1  -1  15    3.48    0.56 
  -1   1  15    2.93    0.47 
   1   1 -15    2.75    0.47 
   0  -1 -15   13.09    0.86 
   0  -1 -15   14.78    0.84 
   0  -1  15   15.54    0.84 
   0   1  15   14.93    0.89 
   0   1 -15   14.41    0.89 
  -1  -1 -15    3.49    0.55 
  -1  -1 -15    3.53    0.50 
   1  -1  15    4.39    0.56 
  -1   1 -15    3.60    0.54 
   1   1  15    5.10    0.65 
   2  -1  15    0.90    0.30 
  -2  -1 -15    0.60    0.26 
  -2   1 -15    0.61    0.28 
   2   1  15    1.03    0.34 
   4  -2 -15    1.98    0.41 
  -4  -2  15    2.03    0.41 
   4  -2 -15    2.49    0.47 
  -4   2  15    2.26    0.43 
  -3  -2  15    5.50    0.63 
   3  -2 -15    4.47    0.57 
   3  -2 -15    4.43    0.59 
   3   2 -15    5.68    0.66 
  -3   2  15    3.86    0.56 
   2  -2 -15    0.07    0.19 
  -2  -2  15    0.22    0.24 
   2  -2 -15   -0.18    0.16 
   2   2 -15    0.07    0.19 
  -2   2  15    0.12    0.23 
   1  -2 -15    8.96    0.71 
   1  -2 -15    9.16    0.69 
  -1  -2  15   10.02    0.74 
   1   2 -15   11.39    0.77 
  -1   2  15    9.95    0.74 
   0  -2 -15    4.50    0.62 
   0  -2 -15    4.48    0.60 
   0  -2  15    4.12    0.62 
   0   2  15    5.20    0.65 
   0   2 -15    4.39    0.59 
  -1  -2 -15    5.59    0.68 
  -1  -2 -15    5.44    0.67 
   1  -2  15    6.01    0.52 
  -1   2 -15    4.45    0.59 
   1   2  15    5.16    0.63 
   2   0 -16   25.03    1.23 
  -2   0  16   27.55    1.16 
   0   0   0    0.00    0.00 
;
_shelx_hkl_checksum              19645
loop_
_space_group_symop_operation_xyz
'x, y, z'
'-x, y+1/2, -z'
loop_
_atom_site_label
_atom_site_type_symbol
_atom_site_fract_x
_atom_site_fract_y
_atom_site_fract_z
_atom_site_U_iso_or_equiv
_atom_site_adp_type
_atom_site_occupancy
_atom_site_site_symmetry_order
_atom_site_calc_flag
_atom_site_refinement_flags_posn
_atom_site_refinement_flags_adp
O1 O 0.49807(14) 0.5172(4) 0.13954(11) 0.0270(3) Uani 1 1 d . .
C1 C 0.4323(2) 0.7628(4) 0.11478(17) 0.0262(4) Uani 1 1 d . .
H1A H 0.4010 0.8102 0.0318 0.031 Uiso 1 1 calc R U
H1B H 0.4766 0.8981 0.1675 0.031 Uiso 1 1 calc R U
C2 C 0.3345(2) 0.5709(4) 0.16285(15) 0.0190(4) Uani 1 1 d . .
C3 C 0.2050(2) 0.4390(4) 0.07932(16) 0.0232(4) Uani 1 1 d . .
F1 F 0.19286(18) 0.2024(3) 0.10939(11) 0.0339(3) Uani 1 1 d . .
F2 F 0.05622(13) 0.5411(3) 0.08090(10) 0.0298(3) Uani 1 1 d . .
F3 F 0.23546(16) 0.4440(3) -0.03160(10) 0.0327(3) Uani 1 1 d . .
C4 C 0.3068(2) 0.5661(3) 0.28868(15) 0.0170(4) Uani 1 1 d . .
C5 C 0.3736(2) 0.3757(4) 0.36150(16) 0.0183(4) Uani 1 1 d . .
H5 H 0.4378 0.2517 0.3313 0.022 Uiso 1 1 calc R U
C6 C 0.3470(2) 0.3659(4) 0.47771(16) 0.0180(4) Uani 1 1 d . .
H6 H 0.3928 0.2354 0.5266 0.022 Uiso 1 1 calc R U
C7 C 0.25257(19) 0.5482(4) 0.52309(14) 0.0161(4) Uani 1 1 d . .
C8 C 0.1859(2) 0.7393(4) 0.45044(16) 0.0185(4) Uani 1 1 d . .
H8 H 0.1216 0.8635 0.4804 0.022 Uiso 1 1 calc R U
C9 C 0.2136(2) 0.7477(4) 0.33383(16) 0.0189(4) Uani 1 1 d . .
H9 H 0.1685 0.8785 0.2848 0.023 Uiso 1 1 calc R U
S1 S 0.22700(5) 0.51552(9) 0.67154(3) 0.01884(11) Uani 1 1 d . .
C10 C 0.1287(3) 0.7967(4) 0.70485(18) 0.0282(5) Uani 1 1 d . .
H10A H 0.1964 0.9367 0.6872 0.042 Uiso 1 1 calc R U
H10B H 0.1160 0.7991 0.7881 0.042 Uiso 1 1 calc R U
H10C H 0.0198 0.8078 0.6574 0.042 Uiso 1 1 calc R U
loop_
_atom_site_aniso_label
_atom_site_aniso_U_11
_atom_site_aniso_U_22
_atom_site_aniso_U_33
_atom_site_aniso_U_23
_atom_site_aniso_U_13
_atom_site_aniso_U_12
O1 0.0175(5) 0.0427(8) 0.0215(6) -0.0021(8) 0.0048(4) 0.0035(8)
C1 0.0232(9) 0.0367(12) 0.0192(9) 0.0010(8) 0.0049(7) -0.0069(9)
C2 0.0168(7) 0.0247(11) 0.0157(8) -0.0002(6) 0.0027(6) 0.0014(7)
C3 0.0236(9) 0.0296(10) 0.0158(8) 0.0016(7) 0.0009(7) -0.0018(8)
F1 0.0457(8) 0.0269(7) 0.0259(6) -0.0015(5) -0.0061(5) -0.0076(6)
F2 0.0170(5) 0.0456(8) 0.0252(5) 0.0039(6) -0.0024(4) -0.0001(6)
F3 0.0326(6) 0.0509(9) 0.0142(5) -0.0044(5) 0.0019(4) -0.0067(6)
C4 0.0145(7) 0.0214(10) 0.0148(7) -0.0004(6) 0.0011(6) -0.0016(6)
C5 0.0170(7) 0.0191(9) 0.0187(8) -0.0014(7) 0.0016(6) 0.0020(7)
C6 0.0177(8) 0.0179(9) 0.0176(8) 0.0004(7) -0.0005(6) 0.0009(7)
C7 0.0134(6) 0.0198(10) 0.0147(7) -0.0015(6) 0.0007(5) -0.0030(7)
C8 0.0176(8) 0.0187(9) 0.0193(8) 0.0000(7) 0.0032(6) 0.0035(7)
C9 0.0188(8) 0.0189(9) 0.0184(8) 0.0033(7) 0.0010(6) 0.0026(7)
S1 0.01983(18) 0.0220(2) 0.01475(18) 0.00168(18) 0.00280(13) 0.00050(19)
C10 0.0332(10) 0.0321(12) 0.0208(10) -0.0011(8) 0.0082(8) 0.0109(9)
loop_
_atom_type_symbol
_atom_type_description
_atom_type_scat_dispersion_real
_atom_type_scat_dispersion_imag
_atom_type_scat_source
C C 0.0033 0.0016 'International Tables Vol C Tables 4.2.6.8 and 6.1.1.4'
H H 0.0000 0.0000 'International Tables Vol C Tables 4.2.6.8 and 6.1.1.4'
O O 0.0106 0.0060 'International Tables Vol C Tables 4.2.6.8 and 6.1.1.4'
F F 0.0171 0.0103 'International Tables Vol C Tables 4.2.6.8 and 6.1.1.4'
S S 0.1246 0.1234 'International Tables Vol C Tables 4.2.6.8 and 6.1.1.4'
loop_
_geom_angle_atom_site_label_1
_geom_angle_atom_site_label_2
_geom_angle_atom_site_label_3
_geom_angle
C2 O1 C1 61.24(13)
O1 C1 C2 58.69(12)
O1 C1 H1A 117.9
C2 C1 H1A 117.9
O1 C1 H1B 117.9
C2 C1 H1B 117.9
H1A C1 H1B 115.1
O1 C2 C1 60.06(14)
O1 C2 C4 116.72(14)
C1 C2 C4 122.76(17)
O1 C2 C3 112.04(16)
C1 C2 C3 117.86(16)
C4 C2 C3 114.91(15)
F3 C3 F1 107.31(17)
F3 C3 F2 107.19(15)
F1 C3 F2 107.07(17)
F3 C3 C2 113.11(16)
F1 C3 C2 111.19(16)
F2 C3 C2 110.68(17)
C9 C4 C5 119.35(16)
C9 C4 C2 120.95(16)
C5 C4 C2 119.69(16)
C6 C5 C4 120.52(17)
C6 C5 H5 119.7
C4 C5 H5 119.7
C5 C6 C7 120.15(17)
C5 C6 H6 119.9
C7 C6 H6 119.9
C8 C7 C6 119.43(16)
C8 C7 S1 124.62(14)
C6 C7 S1 115.95(14)
C9 C8 C7 120.00(16)
C9 C8 H8 120.0
C7 C8 H8 120.0
C4 C9 C8 120.55(17)
C4 C9 H9 119.7
C8 C9 H9 119.7
C7 S1 C10 103.87(10)
S1 C10 H10A 109.5
S1 C10 H10B 109.5
H10A C10 H10B 109.5
S1 C10 H10C 109.5
H10A C10 H10C 109.5
H10B C10 H10C 109.5
loop_
_geom_bond_atom_site_label_1
_geom_bond_atom_site_label_2
_geom_bond_distance
O1 C2 1.432(2)
O1 C1 1.453(3)
C1 C2 1.470(3)
C1 H1A 0.9900
C1 H1B 0.9900
C2 C4 1.500(2)
C2 C3 1.510(3)
C3 F3 1.337(2)
C3 F1 1.339(3)
C3 F2 1.341(2)
C4 C9 1.392(3)
C4 C5 1.396(3)
C5 C6 1.388(3)
C5 H5 0.9500
C6 C7 1.402(3)
C6 H6 0.9500
C7 C8 1.397(3)
C7 S1 1.7622(17)
C8 C9 1.395(2)
C8 H8 0.9500
C9 H9 0.9500
S1 C10 1.793(2)
C10 H10A 0.9800
C10 H10B 0.9800
C10 H10C 0.9800
loop_
_geom_hbond_atom_site_label_D
_geom_hbond_atom_site_label_H
_geom_hbond_atom_site_label_A
_geom_hbond_distance_DH
_geom_hbond_distance_HA
_geom_hbond_distance_DA
_geom_hbond_angle_DHA
_geom_hbond_site_symmetry_A
C1 H1A O1 0.99 2.51 3.362(2) 143.9 2_655
