#------------------------------------------------------------------------------
#$Date: 2019-11-25 18:04:21 +0200 (Mon, 25 Nov 2019) $
#$Revision: 241494 $
#$URL: file:///home/coder/svn-repositories/cod/cif/4/13/12/4131245.cif $
#------------------------------------------------------------------------------
#
# This file is available in the Crystallography Open Database (COD),
# http://www.crystallography.net/
#
# All data on this site have been placed in the public domain by the
# contributors.
#
data_4131245
loop_
_publ_author_name
'Slavney, Adam H.'
'Leppert, Linn'
'Bartesaghi, Davide'
'Gold-Parker, Aryeh'
'Toney, Michael F.'
'Savenije, Tom J.'
'Neaton, Jeffrey B.'
'Karunadasa, Hemamala I.'
_publ_section_title
;
 Defect-Induced Band-Edge Reconstruction of a Bismuth-Halide Double
 Perovskite for Visible-Light Absorption.
;
_journal_issue                   14
_journal_name_full               'Journal of the American Chemical Society'
_journal_page_first              5015
_journal_page_last               5018
_journal_paper_doi               10.1021/jacs.7b01629
_journal_volume                  139
_journal_year                    2017
_chemical_formula_moiety         'Bi1 Br6 Tl0.8, 2(C N H6), 0.2(Ag)'
_chemical_formula_sum            'C2 H12 Ag0.2 Bi Br6 N2 Tl0.8'
_chemical_formula_weight         937.61
_space_group_crystal_system      cubic
_space_group_IT_number           225
_space_group_name_Hall           '-F 4 2 3'
_space_group_name_H-M_alt        'F m -3 m'
_atom_sites_solution_primary     'intrinsic phasing'
_atom_sites_solution_secondary   difmap
_audit_creation_date             2016-09-13
_audit_creation_method
;
Olex2 1.2
(compiled 2016.09.09 svn.r3337 for OlexSys, GUI svn.r5227)
;
_cell_angle_alpha                90
_cell_angle_beta                 90
_cell_angle_gamma                90
_cell_formula_units_Z            4
_cell_length_a                   11.8941(5)
_cell_length_b                   11.8941(5)
_cell_length_c                   11.8941(5)
_cell_measurement_reflns_used    3647
_cell_measurement_temperature    298(2)
_cell_measurement_theta_max      25.19
_cell_measurement_theta_min      2.87
_cell_volume                     1682.65(12)
_computing_cell_refinement       'SAINT v8.34A (Bruker, 2013)'
_computing_data_collection       'Bruker APEX2 Bruker-AXS, Madison WI'
_computing_data_reduction        'SAINT v8.34A (Bruker, 2013)'
_computing_molecular_graphics    'Olex2 (Dolomanov et al., 2009)'
_computing_publication_material  'Olex2 (Dolomanov et al., 2009)'
_computing_structure_refinement  'ShelXL (Sheldrick, 2015)'
_computing_structure_solution    'SHELXT 2014/4 Bruker-AXS, Madison WI'
_diffrn_ambient_temperature      298
_diffrn_detector                 'CMOS area detector'
_diffrn_detector_area_resol_mean 10.42
_diffrn_detector_type            'PHOTON 100 Detector'
_diffrn_measured_fraction_theta_full 1.000
_diffrn_measured_fraction_theta_max 1.000
_diffrn_measurement_device_type  'Bruker D8 with PHOTON 100 detector'
_diffrn_measurement_method       '\f and \w scans'
_diffrn_radiation_monochromator  'silicon 111'
_diffrn_radiation_probe          x-ray
_diffrn_radiation_type           synchrotron
_diffrn_radiation_wavelength     0.6888
_diffrn_reflns_av_R_equivalents  0.0312
_diffrn_reflns_av_unetI/netI     0.0087
_diffrn_reflns_Laue_measured_fraction_full 1.000
_diffrn_reflns_Laue_measured_fraction_max 1.000
_diffrn_reflns_limit_h_max       14
_diffrn_reflns_limit_h_min       -14
_diffrn_reflns_limit_k_max       14
_diffrn_reflns_limit_k_min       -14
_diffrn_reflns_limit_l_max       14
_diffrn_reflns_limit_l_min       -14
_diffrn_reflns_number            6706
_diffrn_reflns_point_group_measured_fraction_full 1.000
_diffrn_reflns_point_group_measured_fraction_max 1.000
_diffrn_reflns_theta_full        24.411
_diffrn_reflns_theta_max         25.373
_diffrn_reflns_theta_min         2.875
_diffrn_source
;
Advanced Light Source, station 11.3.1
;
_diffrn_standards_number         0
_exptl_absorpt_coefficient_mu    29.852
_exptl_absorpt_correction_T_max  0.4289
_exptl_absorpt_correction_T_min  0.3395
_exptl_absorpt_correction_type   multi-scan
_exptl_absorpt_process_details
;
SADABS-2014/5 (Bruker,2014/5) was used for absorption correction.
wR2(int) was 0.1154 before and 0.0462 after correction.
The Ratio of minimum to maximum transmission is 0.7916.
The \l/2 correction factor is Not present.
;
_exptl_crystal_colour            red
_exptl_crystal_colour_primary    red
_exptl_crystal_density_diffrn    3.702
_exptl_crystal_description       octahedral
_exptl_crystal_F_000             1571
_exptl_crystal_size_max          0.05
_exptl_crystal_size_mid          0.05
_exptl_crystal_size_min          0.05
_refine_diff_density_max         1.345
_refine_diff_density_min         -0.821
_refine_diff_density_rms         0.150
_refine_ls_extinction_coef       0.00023(6)
_refine_ls_extinction_expression Fc^*^=kFc[1+0.001xFc^2^\l^3^/sin(2\q)]^-1/4^
_refine_ls_extinction_method     'SHELXL-2014/7 (Sheldrick 2014'
_refine_ls_goodness_of_fit_ref   1.200
_refine_ls_hydrogen_treatment    undef
_refine_ls_matrix_type           full
_refine_ls_number_parameters     10
_refine_ls_number_reflns         121
_refine_ls_number_restraints     2
_refine_ls_restrained_S_all      1.189
_refine_ls_R_factor_all          0.0310
_refine_ls_R_factor_gt           0.0299
_refine_ls_shift/su_max          0.000
_refine_ls_shift/su_mean         0.000
_refine_ls_structure_factor_coef Fsqd
_refine_ls_weighting_details
'w=1/[\s^2^(Fo^2^)+(0.0273P)^2^+54.5446P] where P=(Fo^2^+2Fc^2^)/3'
_refine_ls_weighting_scheme      calc
_refine_ls_wR_factor_gt          0.0728
_refine_ls_wR_factor_ref         0.0736
_reflns_Friedel_coverage         0.000
_reflns_number_gt                116
_reflns_number_total             121
_reflns_threshold_expression     'I > 2\s(I)'
_iucr_refine_instructions_details
;

    t1_a.res created by SHELXL-2014/7

TITL t1_a.res in Fm-3m
REM Old TITL t1 in Fm-3m
REM SHELXT solution in Fm-3m
REM R1 0.198, Rweak 0.003, Alpha 0.019, Orientation as input
REM Formula found by SHELXT: N3 Br
CELL 0.6888 11.8941 11.8941 11.8941 90 90 90
ZERR 4 0.0005 0.0005 0.0005 0 0 0
LATT 4
SYMM -X,-Y,+Z
SYMM -X,+Y,-Z
SYMM +X,-Y,-Z
SYMM +Z,+X,+Y
SYMM +Z,-X,-Y
SYMM -Z,-X,+Y
SYMM -Z,+X,-Y
SYMM +Y,+Z,+X
SYMM -Y,+Z,-X
SYMM +Y,-Z,-X
SYMM -Y,-Z,+X
SYMM +Y,+X,-Z
SYMM -Y,-X,-Z
SYMM +Y,-X,+Z
SYMM -Y,+X,+Z
SYMM +X,+Z,-Y
SYMM -X,+Z,+Y
SYMM -X,-Z,-Y
SYMM +X,-Z,+Y
SYMM +Z,+Y,-X
SYMM +Z,-Y,+X
SYMM -Z,+Y,+X
SYMM -Z,-Y,-X
SFAC Ag Bi Br C N Tl
DISP Bi -3.305 10.114 40403.189
DISP Br -0.175 2.43 9154.452
DISP C 0.003 0.001 10.836
DISP N 0.006 0.003 18.314
DISP Tl -2.243 9.26 36946.837
UNIT 0.84 4 24 8 8 3.16
EQIV $1 1-Z,0.5+X,1.5-Y
EQIV $2 1-Z,+Y,1-X
EQIV $3 +X,+Z,+Y
EQIV $4 +X,1.5-Z,1.5-Y
EQIV $5 0.5-X,1.5-Z,+Y
EQIV $6 1-Z,1-X,+Y
EQIV $7 -0.5+Y,+Z,0.5+X
EQIV $8 -0.5+Z,1.5-Y,1-X
EQIV $9 -0.5+Y,1.5-Z,1-X
EQIV $10 -0.5+Z,+Y,0.5+X
EQIV $11 -0.5+Y,1-X,1.5-Z
EQIV $12 0.5-X,1.5-Y,+Z
EQIV $13 +X,1.5-Y,1.5-Z
EQIV $14 1-Y,1.5-Z,0.5+X
EQIV $15 1-Y,0.5+X,1.5-Z
EQIV $16 0.5-X,+Z,1.5-Y
EQIV $17 1-Y,1-X,+Z
EQIV $18 0.5-X,+Y,1.5-Z
EQIV $19 -0.5+Z,1-X,1.5-Y
EQIV $20 1-Y,+Z,1-X
EQIV $21 1-Z,1.5-Y,0.5+X
EQIV $22 -0.5+Y,0.5+X,+Z
EQIV $23 -0.5+Z,0.5+X,+Y
DFIX 1.5 C1_$19 N1_$6
DFIX 1.5 N1_$19 C1_$6
EADP C1 N1
EADP Tl1 Ag1
EXYZ Tl1 Ag1
EXYZ C1 N1
 
L.S. 25
PLAN  5
TEMP 24.85
BIND N1 C1_$13
FREE N1 N1_$14
FREE N1 N1_$15
FREE N1 N1_$17
FREE N1 N1_$20
FREE N1 N1_$21
FREE N1 N1_$10
FREE N1 N1_$7
FREE N1 N1_$23
FREE N1 N1_$22
FREE N1 N1_$1
FREE N1 N1_$2
FREE N1 N1_$8
FREE N1 N1_$9
FREE N1 N1_$11
FREE N1 N1_$19
FREE N1 N1_$6
FREE N1 N1_$16
FREE N1 N1_$4
FREE N1 N1_$5
FREE N1 N1_$3
FREE N1 N1_$13
FREE N1 N1_$12
FREE N1 N1_$18
BIND C1 N1_$13
FREE C1 C1_$19
FREE C1 C1_$16
FREE C1 C1_$4
FREE C1 C1_$1
FREE C1 C1_$6
FREE C1 C1_$5
FREE C1 C1_$3
FREE C1 C1_$23
FREE C1 C1_$22
FREE C1 C1_$15
FREE C1 C1_$14
FREE C1 C1_$21
FREE C1 C1_$10
FREE C1 C1_$7
FREE C1 C1_$17
FREE C1 C1_$20
FREE C1 C1_$2
FREE C1 C1_$8
FREE C1 C1_$9
FREE C1 C1_$11
FREE C1 C1_$13
FREE C1 C1_$12
FREE C1 C1_$18
BOND $H
LIST 4
fmap 2
acta
REM <olex2.extras>
REM <HklSrc "%.\\t1_a.hkl">
REM </olex2.extras>
 
WGHT    0.027300   54.544601
EXTI    0.000228
FVAR       0.10115   0.80061
Bi1  2    0.500000    0.500000    0.500000    10.02083    0.04194    0.04194 =
         0.04194    0.00000    0.00000    0.00000
PART 1
Tl1  6    0.500000    1.000000    0.500000    20.02083    0.05596    0.05596 =
         0.05596    0.00000    0.00000    0.00000
PART 0
Br1  3    0.500000    0.737310    0.500000    10.12500    0.17495    0.04739 =
         0.17495    0.00000    0.00000    0.00000
 
PART 1
C1    4    0.250000    0.750000    0.687062    10.04167    0.13646
PART 0
PART 2
N1   5    0.250000    0.750000    0.687062    10.04167    0.13646
 
AG    1    0.500000    1.000000    0.500000   -20.02083    0.05596    0.05596 =
         0.05596    0.00000    0.00000    0.00000
HKLF 4
 
REM  t1_a.res in Fm-3m
REM R1 =  0.0299 for     116 Fo > 4sig(Fo)  and  0.0310 for all     121 data
REM     10 parameters refined using      2 restraints
 
END  
     
WGHT      0.0273     54.5376 

REM Highest difference peak  1.345,  deepest hole -0.821,  1-sigma level  0.150
Q1    1   0.5909  1.0000  0.5000  10.12500  0.05    1.35
Q2    1   0.2958  0.7958  0.7042  10.16667  0.05    0.52
Q3    1   0.5000  0.7118  0.4092  10.50000  0.05    0.49
Q4    1   0.4168  0.5000  0.5000  10.12500  0.05    0.48
Q5    1   0.6604  0.6857  0.5000  10.50000  0.05    0.34

  REM The information below was added by Olex2.
  REM
  REM R1 = 0.0299 for 116 Fo > 4sig(Fo) and 0.0310 for all 6706 data
  REM n/a parameters refined using n/a restraints
  REM Highest difference peak 1.35, deepest hole -0.82
  REM Mean Shift 0, Max Shift 0.000.
  
  REM +++ Tabular Listing of Refinement Information +++
  REM R1_all = 0.0310
  REM R1_gt = 0.0299
  REM wR_ref = 0.0736
  REM GOOF = 1.200
  REM Shift_max = 0.000
  REM Shift_mean = 0
  REM Reflections_all = 6706
  REM Reflections_gt = 116
  REM Parameters = n/a
  REM Hole = -0.82
  REM Peak = 1.35
  REM Flack = n/a
  
  
;
_cod_data_source_file            ja7b01629_si_003.cif
_cod_data_source_block           t1_a
_cod_depositor_comments
;
The following automatic conversions were performed:

data item '_atom_sites_solution_secondary' value 'diffmap' was
changed to 'difmap'.

Automatic conversion script
Id: cif_fix_values 6909 2019-04-08 15:41:33Z antanas 
;
_cod_original_cell_volume        1682.7(2)
_cod_database_code               4131245
_shelx_space_group_comment
;
The symmetry employed for this shelxl refinement is uniquely defined
by the following loop, which should always be used as a source of
symmetry information in preference to the above space-group names.
They are only intended as comments.
;
_shelx_shelxl_version_number     2014/7
loop_
_space_group_symop_operation_xyz
'x, y, z'
'-x, -y, z'
'-x, y, -z'
'x, -y, -z'
'z, x, y'
'z, -x, -y'
'-z, -x, y'
'-z, x, -y'
'y, z, x'
'-y, z, -x'
'y, -z, -x'
'-y, -z, x'
'y, x, -z'
'-y, -x, -z'
'y, -x, z'
'-y, x, z'
'x, z, -y'
'-x, z, y'
'-x, -z, -y'
'x, -z, y'
'z, y, -x'
'z, -y, x'
'-z, y, x'
'-z, -y, -x'
'x, y+1/2, z+1/2'
'-x, -y+1/2, z+1/2'
'-x, y+1/2, -z+1/2'
'x, -y+1/2, -z+1/2'
'z, x+1/2, y+1/2'
'z, -x+1/2, -y+1/2'
'-z, -x+1/2, y+1/2'
'-z, x+1/2, -y+1/2'
'y, z+1/2, x+1/2'
'-y, z+1/2, -x+1/2'
'y, -z+1/2, -x+1/2'
'-y, -z+1/2, x+1/2'
'y, x+1/2, -z+1/2'
'-y, -x+1/2, -z+1/2'
'y, -x+1/2, z+1/2'
'-y, x+1/2, z+1/2'
'x, z+1/2, -y+1/2'
'-x, z+1/2, y+1/2'
'-x, -z+1/2, -y+1/2'
'x, -z+1/2, y+1/2'
'z, y+1/2, -x+1/2'
'z, -y+1/2, x+1/2'
'-z, y+1/2, x+1/2'
'-z, -y+1/2, -x+1/2'
'x+1/2, y, z+1/2'
'-x+1/2, -y, z+1/2'
'-x+1/2, y, -z+1/2'
'x+1/2, -y, -z+1/2'
'z+1/2, x, y+1/2'
'z+1/2, -x, -y+1/2'
'-z+1/2, -x, y+1/2'
'-z+1/2, x, -y+1/2'
'y+1/2, z, x+1/2'
'-y+1/2, z, -x+1/2'
'y+1/2, -z, -x+1/2'
'-y+1/2, -z, x+1/2'
'y+1/2, x, -z+1/2'
'-y+1/2, -x, -z+1/2'
'y+1/2, -x, z+1/2'
'-y+1/2, x, z+1/2'
'x+1/2, z, -y+1/2'
'-x+1/2, z, y+1/2'
'-x+1/2, -z, -y+1/2'
'x+1/2, -z, y+1/2'
'z+1/2, y, -x+1/2'
'z+1/2, -y, x+1/2'
'-z+1/2, y, x+1/2'
'-z+1/2, -y, -x+1/2'
'x+1/2, y+1/2, z'
'-x+1/2, -y+1/2, z'
'-x+1/2, y+1/2, -z'
'x+1/2, -y+1/2, -z'
'z+1/2, x+1/2, y'
'z+1/2, -x+1/2, -y'
'-z+1/2, -x+1/2, y'
'-z+1/2, x+1/2, -y'
'y+1/2, z+1/2, x'
'-y+1/2, z+1/2, -x'
'y+1/2, -z+1/2, -x'
'-y+1/2, -z+1/2, x'
'y+1/2, x+1/2, -z'
'-y+1/2, -x+1/2, -z'
'y+1/2, -x+1/2, z'
'-y+1/2, x+1/2, z'
'x+1/2, z+1/2, -y'
'-x+1/2, z+1/2, y'
'-x+1/2, -z+1/2, -y'
'x+1/2, -z+1/2, y'
'z+1/2, y+1/2, -x'
'z+1/2, -y+1/2, x'
'-z+1/2, y+1/2, x'
'-z+1/2, -y+1/2, -x'
'-x, -y, -z'
'x, y, -z'
'x, -y, z'
'-x, y, z'
'-z, -x, -y'
'-z, x, y'
'z, x, -y'
'z, -x, y'
'-y, -z, -x'
'y, -z, x'
'-y, z, x'
'y, z, -x'
'-y, -x, z'
'y, x, z'
'-y, x, -z'
'y, -x, -z'
'-x, -z, y'
'x, -z, -y'
'x, z, y'
'-x, z, -y'
'-z, -y, x'
'-z, y, -x'
'z, -y, -x'
'z, y, x'
'-x, -y+1/2, -z+1/2'
'x, y+1/2, -z+1/2'
'x, -y+1/2, z+1/2'
'-x, y+1/2, z+1/2'
'-z, -x+1/2, -y+1/2'
'-z, x+1/2, y+1/2'
'z, x+1/2, -y+1/2'
'z, -x+1/2, y+1/2'
'-y, -z+1/2, -x+1/2'
'y, -z+1/2, x+1/2'
'-y, z+1/2, x+1/2'
'y, z+1/2, -x+1/2'
'-y, -x+1/2, z+1/2'
'y, x+1/2, z+1/2'
'-y, x+1/2, -z+1/2'
'y, -x+1/2, -z+1/2'
'-x, -z+1/2, y+1/2'
'x, -z+1/2, -y+1/2'
'x, z+1/2, y+1/2'
'-x, z+1/2, -y+1/2'
'-z, -y+1/2, x+1/2'
'-z, y+1/2, -x+1/2'
'z, -y+1/2, -x+1/2'
'z, y+1/2, x+1/2'
'-x+1/2, -y, -z+1/2'
'x+1/2, y, -z+1/2'
'x+1/2, -y, z+1/2'
'-x+1/2, y, z+1/2'
'-z+1/2, -x, -y+1/2'
'-z+1/2, x, y+1/2'
'z+1/2, x, -y+1/2'
'z+1/2, -x, y+1/2'
'-y+1/2, -z, -x+1/2'
'y+1/2, -z, x+1/2'
'-y+1/2, z, x+1/2'
'y+1/2, z, -x+1/2'
'-y+1/2, -x, z+1/2'
'y+1/2, x, z+1/2'
'-y+1/2, x, -z+1/2'
'y+1/2, -x, -z+1/2'
'-x+1/2, -z, y+1/2'
'x+1/2, -z, -y+1/2'
'x+1/2, z, y+1/2'
'-x+1/2, z, -y+1/2'
'-z+1/2, -y, x+1/2'
'-z+1/2, y, -x+1/2'
'z+1/2, -y, -x+1/2'
'z+1/2, y, x+1/2'
'-x+1/2, -y+1/2, -z'
'x+1/2, y+1/2, -z'
'x+1/2, -y+1/2, z'
'-x+1/2, y+1/2, z'
'-z+1/2, -x+1/2, -y'
'-z+1/2, x+1/2, y'
'z+1/2, x+1/2, -y'
'z+1/2, -x+1/2, y'
'-y+1/2, -z+1/2, -x'
'y+1/2, -z+1/2, x'
'-y+1/2, z+1/2, x'
'y+1/2, z+1/2, -x'
'-y+1/2, -x+1/2, z'
'y+1/2, x+1/2, z'
'-y+1/2, x+1/2, -z'
'y+1/2, -x+1/2, -z'
'-x+1/2, -z+1/2, y'
'x+1/2, -z+1/2, -y'
'x+1/2, z+1/2, y'
'-x+1/2, z+1/2, -y'
'-z+1/2, -y+1/2, x'
'-z+1/2, y+1/2, -x'
'z+1/2, -y+1/2, -x'
'z+1/2, y+1/2, x'
loop_
_atom_site_label
_atom_site_type_symbol
_atom_site_fract_x
_atom_site_fract_y
_atom_site_fract_z
_atom_site_U_iso_or_equiv
_atom_site_adp_type
_atom_site_occupancy
_atom_site_site_symmetry_order
_atom_site_calc_flag
_atom_site_refinement_flags_posn
_atom_site_refinement_flags_adp
_atom_site_refinement_flags_occupancy
_atom_site_disorder_assembly
_atom_site_disorder_group
Bi1 Bi 0.5000 0.5000 0.5000 0.0419(6) Uani 1 48 d S T P . .
Tl1 Tl 0.5000 1.0000 0.5000 0.0560(9) Uani 0.800(17) 48 d S T P . 1
Br1 Br 0.5000 0.7373(2) 0.5000 0.1324(15) Uani 1 8 d S T P . .
C1 C 0.2500 0.7500 0.6871(6) 0.14(3) Uiso 0.1667 4 d DS T P A 1
N1 N 0.2500 0.7500 0.6871(6) 0.14(3) Uiso 0.1667 4 d DS T P . 2
Ag1 Ag 0.5000 1.0000 0.5000 0.0560(9) Uani 0.199(17) 48 d S T P . 2
loop_
_atom_site_aniso_label
_atom_site_aniso_U_11
_atom_site_aniso_U_22
_atom_site_aniso_U_33
_atom_site_aniso_U_23
_atom_site_aniso_U_13
_atom_site_aniso_U_12
Bi1 0.0419(6) 0.0419(6) 0.0419(6) 0.000 0.000 0.000
Tl1 0.0560(9) 0.0560(9) 0.0560(9) 0.000 0.000 0.000
Br1 0.175(2) 0.0474(15) 0.175(2) 0.000 0.000 0.000
Ag1 0.0560(9) 0.0560(9) 0.0560(9) 0.000 0.000 0.000
loop_
_atom_type_symbol
_atom_type_description
_atom_type_scat_dispersion_real
_atom_type_scat_dispersion_imag
_atom_type_scat_source
Ag Ag -0.8971 1.1015 'Calculated using XDISP in WinGX (Farrugia, 1999)'
Bi Bi -3.3050 10.1140 'Calculated using XDISP in WinGX (Farrugia, 1999)'
Br Br -0.1750 2.4300 'Calculated using XDISP in WinGX (Farrugia, 1999)'
C C 0.0030 0.0010 'Calculated using XDISP in WinGX (Farrugia, 1999)'
N N 0.0060 0.0030 'Calculated using XDISP in WinGX (Farrugia, 1999)'
Tl Tl -2.2430 9.2600 'Calculated using XDISP in WinGX (Farrugia, 1999)'
loop_
_geom_angle_atom_site_label_1
_geom_angle_atom_site_label_2
_geom_angle_atom_site_label_3
_geom_angle
_geom_angle_site_symmetry_1
_geom_angle_site_symmetry_3
Br1 Bi1 Br1 90.0 . 105_666
Br1 Bi1 Br1 180.0 5 101_666
Br1 Bi1 Br1 90.0 5 9
Br1 Bi1 Br1 90.0 97_666 101_666
Br1 Bi1 Br1 180.0 105_666 9
Br1 Bi1 Br1 90.0 97_666 9
Br1 Bi1 Br1 90.0 . 5
Br1 Bi1 Br1 180.0 . 97_666
Br1 Bi1 Br1 90.0 105_666 5
Br1 Bi1 Br1 90.0 . 9
Br1 Bi1 Br1 90.0 97_666 5
Br1 Bi1 Br1 90.0 105_666 97_666
Br1 Bi1 Br1 90.0 . 101_666
Br1 Bi1 Br1 90.0 105_666 101_666
Br1 Bi1 Br1 90.0 101_666 9
Br1 Tl1 Br1 180.0 29_554 125_666
Br1 Tl1 Br1 90.0 97_676 29_554
Br1 Tl1 Br1 90.0 81_455 125_666
Br1 Tl1 Br1 90.0 29_554 .
Br1 Tl1 Br1 90.0 177_666 125_666
Br1 Tl1 Br1 90.0 81_455 97_676
Br1 Tl1 Br1 90.0 177_666 .
Br1 Tl1 Br1 90.0 81_455 .
Br1 Tl1 Br1 180.0 97_676 .
Br1 Tl1 Br1 90.0 177_666 29_554
Br1 Tl1 Br1 90.0 125_666 .
Br1 Tl1 Br1 90.0 97_676 125_666
Br1 Tl1 Br1 180.0 177_666 81_455
Br1 Tl1 Br1 90.0 81_455 29_554
Br1 Tl1 Br1 90.0 177_666 97_676
Bi1 Br1 Tl1 180.0 . .
loop_
_geom_bond_atom_site_label_1
_geom_bond_atom_site_label_2
_geom_bond_distance
_geom_bond_site_symmetry_2
Bi1 Br1 2.823(3) .
Bi1 Br1 2.823(3) 97_666
Bi1 Br1 2.823(3) 105_666
Bi1 Br1 2.823(3) 101_666
Bi1 Br1 2.823(3) 5
Bi1 Br1 2.823(3) 9
Tl1 Br1 3.124(3) .
Tl1 Br1 3.124(3) 177_666
Tl1 Br1 3.124(3) 29_554
Tl1 Br1 3.124(3) 125_666
Tl1 Br1 3.124(3) 97_676
Tl1 Br1 3.124(3) 81_455
C1 N1 1.497(15) 28_566
N1 C1 1.497(15) 28_566
loop_
_refln_index_h
_refln_index_k
_refln_index_l
_refln_F_squared_meas
_refln_F_squared_sigma
1 1 1 71.39 3.1
1 1 1 69.89 2.2
-1 -1 -1 73.19 3.1
-1 -1 1 72.59 2.4
-1 1 -1 69.19 2.9
-1 1 1 69.59 3.2
1 -1 -1 69.19 3.3
1 -1 1 71.19 2.8
1 1 -1 68.69 2.4
-1 1 -1 71.99 2.4
1 -1 -1 68.99 2
1 1 -1 73.09 2.4
-1 -1 1 65.29 1.9
-1 1 -1 70.99 2.4
-1 1 1 70.59 2.3
1 1 -1 70.79 2.6
-1 1 -1 65.69 2.1
-1 1 1 67.39 2.5
-1 -1 -1 70.09 2.2
-2 0 0 4496.75 109.89
0 2 -2 1448.46 35.7
-2 2 0 1475.75 36.1
0 2 -2 1512.15 36.9
2 2 0 1514.55 36.3
2 0 2 1442.56 35.9
-2 -2 0 1451.55 37.4
-2 0 -2 1474.15 37.6
0 -2 -2 1460.45 37.7
0 -2 2 1459.15 36
0 -2 2 1461.65 36
0 2 2 1492.85 37.8
2 -2 0 1522.55 38.5
2 -2 0 1459.75 37.9
2 0 -2 1470.55 37.3
0 2 2 1464.15 36.4
2 2 0 1492.35 36.2
-2 0 2 1448.46 36.1
-2 -2 0 1469.95 36.1
2 0 2 1435.96 37.4
-2 0 -2 1479.05 36.6
0 -2 -2 1396.16 35.6
0 2 -2 1493.15 36.4
2 0 -2 1504.35 36.3
0 -2 -2 1439.06 36.2
-2 2 0 1480.95 36.4
-2 2 0 1486.25 36.4
-2 0 -2 1482.15 36.2
-2 0 2 1461.65 36.1
2 2 0 1492.65 37.5
-2 2 2 143.19 4.7
2 2 2 142.89 4.4
-2 2 2 140.69 5
-2 2 -2 136.69 4.3
-2 2 -2 141.99 4.9
2 -2 -2 141.49 4.1
2 2 -2 141.79 4.8
2 2 2 146.29 4.4
-2 2 -2 143.79 4.9
-2 -2 -2 139.49 6.1
-2 2 2 146.79 6.5
-2 -2 -2 140.89 4.5
-2 -2 2 142.39 4
2 -2 2 143.79 5.6
2 2 -2 154.18 4.9
2 2 2 154.28 6.2
-2 -2 2 145.69 4.9
-2 2 -2 142.99 5.8
2 -2 -2 134.79 6.3
-1 3 1 0.9 1
-1 3 -1 1 1.1
3 1 1 -0.8 1.5
-3 1 1 0.8 0.7
-1 -1 3 0.9 0.9
-1 1 3 0.6 1
3 1 -1 -0.3 1.5
1 3 1 1.7 1
-3 -1 -1 1.6 0.9
-3 -1 1 -0.4 0.7
-3 1 -1 0.5 0.8
-3 1 1 0 0.9
-1 -3 -1 0.6 0.8
3 1 1 0.7 0.5
-1 3 -1 -1.2 1.4
-1 3 1 0.2 1.7
1 -3 -1 1.2 1.5
1 -3 1 0.9 1.5
1 -1 -3 0.1 1.4
1 -1 3 0.8 1
1 1 -3 0.2 0.7
1 1 3 1.4 1.5
1 3 -1 1.1 1.2
1 3 1 1.7 1.7
3 -1 -1 0.5 1.5
3 -1 1 -2.1 1.5
-3 1 -1 1.4 1.4
-1 -1 -3 1.4 0.9
-1 1 -3 0.4 1
-1 3 -1 0 0.8
-1 3 1 1.3 0.6
1 -1 -3 0.3 0.7
1 1 -3 1.1 1
1 3 -1 1 0.9
1 3 1 0.9 0.6
3 -1 -1 1.4 0.9
3 1 -1 1.2 1
3 1 1 0.7 0.9
-1 1 3 -0.5 1.2
-3 -1 1 0.6 0.6
-3 1 -1 1.4 0.7
-3 -1 -1 0.9 1.6
-3 -1 1 1.9 1.5
-3 1 -1 3 1.9
-3 1 1 1.3 1.8
-1 -3 -1 -1.2 1.4
-1 -3 1 0.9 1.1
-1 -1 -3 1.3 1.5
-1 -1 3 0.8 0.9
-1 1 -3 1.2 1.1
1 1 3 0.5 0.9
1 3 -1 1.1 1.2
-1 1 -3 1 0.6
-1 1 3 0.7 1.1
-1 3 -1 0.4 0.9
1 -1 3 -0.6 0.8
-1 -1 3 0.4 0.6
-1 -3 1 1 0.6
-1 -1 -3 0.8 0.8
-1 3 1 0.9 1.3
-1 -3 3 20 0.8
3 -3 -1 18.6 3.5
3 -1 -3 24.3 3.5
-3 -3 -1 18.9 1.7
-3 -3 1 18.5 1.6
-3 -1 -3 22.1 1.9
-3 -1 3 19.4 1.6
-3 1 -3 21.3 1.8
-3 1 3 20 2.2
-3 3 -1 20.2 2.2
-3 3 1 19.7 2.3
-1 -3 -3 19.8 1.8
3 -3 -1 22.5 3.6
-3 3 -1 21.5 3.3
-1 -3 -3 22.5 3.2
-1 -3 3 21 1.2
-1 3 3 26.9 3.5
1 -3 -3 31.1 3.6
1 -3 3 20.3 2.2
1 3 3 24.2 3.3
3 -1 3 20.3 2.9
-3 -1 -3 22.3 2.4
-3 1 -3 19.2 2.4
-3 3 -1 27.2 2.5
-1 3 -3 23.3 2.2
1 -3 -3 18.1 1
1 3 -3 20.2 2.2
3 -3 -1 20.4 1.7
3 -1 -3 23.9 1.9
3 1 -3 22.6 2.2
3 3 -1 21.9 2.1
3 3 1 20.1 1.9
3 3 -1 25.5 2.3
3 3 1 20.6 1.8
3 -3 1 28.6 3.4
3 -1 -3 24.6 3.5
-3 -3 -1 18.9 3
-3 -3 1 18.3 2.7
-3 -1 -3 23.1 3.2
-3 -1 3 18.6 2.6
-3 1 -3 27.7 3.2
3 3 -1 23 2.9
3 3 1 19.3 3.1
-3 -1 3 20.5 1.8
-3 1 3 21.8 1.8
-3 3 -1 20.4 1.9
3 1 -3 21.2 2.7
3 1 3 24 3.4
-3 3 1 20.1 1.8
-1 3 -3 16.8 2.5
-1 3 3 19.1 2.2
1 3 -3 23.1 2.8
1 3 3 22.9 2.1
3 -1 3 22.9 1.5
3 1 3 19.5 1.7
-1 3 -3 21.8 1.4
-3 -3 -3 22.8 3.5
3 3 3 20.1 2
-3 3 3 21.4 2.3
3 3 3 21.4 2
-3 3 -3 22.8 3.3
-3 3 3 24.3 3.9
3 -3 -3 27.1 4.1
3 -3 3 20.7 3.1
3 3 -3 19.7 2.4
3 3 -3 24.2 2.5
-3 -3 3 21.7 1.5
3 3 3 26.4 3.9
-3 3 3 23.6 3
-3 -3 3 20.9 2.1
-3 3 -3 22.8 2.8
3 -3 -3 21.7 1.7
-3 -3 3 23.1 2.5
-3 -3 -3 21.7 2.2
-3 3 -3 21.1 2.7
-3 3 -3 22.6 2
0 4 0 9999 241.58
0 0 4 9828.02 247.88
0 -4 0 9433.36 240.48
0 0 -4 9851.31 247.48
4 0 0 9345.57 243.68
-2 4 0 3387.96 84.99
-4 2 0 3377.36 84.89
0 -2 4 3386.36 81.29
0 2 4 3437.56 84.09
2 -4 0 3290.07 84.49
-4 0 -2 3298.27 84.39
-4 0 2 3385.66 84.29
-2 -4 0 3312.37 83.59
-2 0 -4 3295.07 82.19
0 4 -2 3324.67 81.89
2 0 -4 3296.27 81.89
4 2 0 3372.26 82.19
0 -4 2 3267.37 82.49
0 4 -2 3445.36 82.99
0 4 2 3401.56 84.39
2 4 0 3354.06 82.09
0 -2 -4 3296.67 81.39
0 2 -4 3340.57 82.09
2 4 0 3470.35 81.79
4 0 -2 3397.96 82.09
0 -2 -4 3382.06 83.99
-4 0 -2 3325.47 81.89
-4 0 2 3259.57 81.79
-2 -4 0 3278.47 81.59
-2 4 0 3302.37 82.29
0 -2 -4 3305.57 81.79
-4 -2 0 3316.47 81.79
-4 2 0 3336.87 82.09
-2 0 -4 3213.48 81.59
-2 0 4 3402.16 81.89
0 -4 -2 3268.17 81.79
0 -2 4 3471.65 82.09
0 2 4 3425.76 82.19
-2 0 4 3359.56 81.89
0 4 -2 3371.86 82.59
4 2 0 3288.07 83.89
-2 0 4 3224.48 83.29
2 0 -4 3278.87 83.19
2 0 4 3306.47 83.29
4 -2 0 3439.26 84.59
0 4 2 3430.96 82.19
2 0 4 3376.16 81.69
4 2 0 3326.87 81.59
0 -4 -2 3403.86 84.39
-2 4 0 3343.87 81.99
-2 0 -4 3348.17 83.59
2 4 0 3485.55 83.89
4 0 -2 3389.06 84.09
4 0 2 3376.76 84.19
-4 -2 0 3347.67 83.99
-4 0 -2 3447.76 82.99
-2 4 0 3305.17 81.79
2 4 2 1322.87 34.9
4 -2 -2 1310.17 35.9
2 -4 2 1329.97 34.2
-2 -2 -4 1246.88 32.3
4 2 -2 1268.27 32.5
4 2 2 1279.57 32.4
2 -4 2 1294.97 34.4
2 2 -4 1277.37 32.1
2 4 -2 1286.37 33.1
4 -2 -2 1299.87 35.2
4 -2 2 1295.67 34.5
4 2 -2 1311.17 33.8
4 -2 -2 1243.88 32.1
2 -2 -4 1224.28 34.5
2 -2 4 1283.87 33.1
2 4 2 1254.27 31.7
2 2 -4 1247.68 31.9
2 2 4 1315.57 34.6
-4 -2 2 1289.97 32
-4 2 -2 1315.57 32.2
-4 2 2 1304.37 32.2
-2 -2 4 1304.77 32.4
-2 2 4 1291.37 32.5
2 -4 -2 1286.17 31.4
2 -2 -4 1278.77 31.8
2 2 -4 1274.57 32.5
2 4 -2 1293.47 32.4
2 4 -2 1278.97 33
2 4 2 1269.37 32.4
4 2 2 1222.28 31.6
-2 -4 -2 1294.47 34.7
-2 -4 2 1257.27 32.9
-2 -2 -4 1302.37 34.7
-2 2 -4 1277.47 33.4
-2 2 4 1255.67 34.7
-2 4 2 1311.67 35.5
2 -4 -2 1290.47 35.3
-4 -2 2 1308.97 34.1
-4 2 -2 1317.47 35.1
-4 -2 -2 1313.57 32.3
-4 -2 2 1256.97 31.9
-4 2 -2 1276.67 32.3
-4 2 2 1270.57 32.6
-2 -4 -2 1254.17 32.2
-2 -4 2 1218.08 31.5
-2 -2 -4 1270.37 32.2
-2 -2 4 1238.48 31.3
-2 2 -4 1213.28 31.6
-2 2 4 1252.97 32.9
-2 4 -2 1293.67 32.2
-2 4 2 1259.07 33.1
-2 4 -2 1315.17 32.7
-2 4 2 1317.47 32.6
2 -2 4 1303.57 32.2
2 2 4 1247.28 32.3
-2 2 -4 1330.77 32.8
-2 4 -2 1262.57 32.5
4 2 2 1303.67 34.8
-4 2 -2 1290.77 33.1
-4 -2 -2 1273.57 34.8
4 0 4 5271.27 125.99
4 4 0 5227.98 125.99
4 0 -4 5122.99 125.89
-4 0 4 4935.71 123.39
-4 4 0 5044.2 123.89
-4 -4 0 4768.92 123.09
-4 -4 0 4852.01 125.69
-4 0 -4 5225.78 126.29
0 -4 -4 4999.3 126.39
0 4 -4 4878.21 123.89
4 0 -4 5076.99 123.59
4 4 0 4988.1 123.59
0 4 4 5227.68 126.79
4 0 -4 5239.68 126.59
-4 4 0 4932.71 124.09
-4 0 4 5081.59 123.39
-4 4 0 4884.31 123.19
4 4 0 5189.88 123.59
4 -4 0 5130.79 127.69
-4 0 -4 5111.79 124.39
4 -4 0 5222.58 126.99
-4 0 -4 5058.69 123.39
4 2 4 2402.66 62.19
4 4 -2 2444.06 61.09
2 -4 -4 2346.87 58.19
4 4 -2 2321.87 59.99
4 4 2 2348.76 59.09
-4 2 -4 2333.17 58.99
-4 2 4 2400.46 59.89
-4 4 -2 2435.56 59.49
-4 4 2 2440.46 60.09
-2 -4 -4 2355.06 59.29
-2 -4 4 2217.48 57.89
-2 4 -4 2359.06 58.69
-2 4 4 2462.85 60.59
-4 -4 2 2353.56 58.69
-4 4 -2 2417.56 59.49
-4 -2 4 2355.66 58.69
-2 4 -4 2486.15 60.69
4 -2 -4 2454.45 62.89
4 -2 4 2509.85 61.69
4 2 -4 2398.06 60.49
4 -4 -2 2499.55 63.49
4 -4 2 2454.85 62.19
4 4 2 2483.95 62.39
4 2 -4 2431.86 59.69
4 4 -2 2101.59 60.19
4 4 2 2308.47 59.19
-4 -4 -2 2395.36 59.29
2 4 -4 2382.46 59.59
2 4 4 2352.56 58.59
4 -4 -2 2416.36 58.89
2 -4 4 2467.25 60.39
4 -2 -4 2547.15 63.29
-2 -4 -4 2351.76 62.29
-2 -4 4 2358.86 58.49
-2 4 4 2485.25 63.09
2 -4 -4 2363.36 62.69
4 -2 -4 2350.76 58.99
-4 -4 -2 2384.96 62.39
-4 -4 2 2426.76 60.89
-4 -2 -4 2398.26 62.59
-4 -2 4 2368.36 60.79
-4 2 -4 2398.46 61.89
-4 4 -2 2407.86 62.69
-4 -2 -4 2316.17 59.19
2 4 -4 2326.67 58.49
2 4 4 2524.05 62.69
4 -4 -2 2380.66 63.49
-4 -2 4 2313.87 59.09
-4 2 4 2408.86 59.39
-4 -2 -4 2377.56 60.19
-4 4 2 2364.46 59.39
-4 4 -2 2412.56 60.09
-2 4 4 2420.16 59.79
2 4 4 2394.16 59.49
4 -2 4 2382.26 58.79
4 2 4 2444.96 58.99
-4 2 -4 2390.16 60.19
-2 4 -4 2399.06 59.69
-4 -4 4 2968.9 73.79
-4 -4 -4 2967.6 77.29
4 4 4 2906.11 73.59
4 4 4 3054.09 77.29
-4 4 -4 3012.9 74.69
4 -4 -4 3046.3 78.19
4 4 -4 2943.11 74.19
-4 4 -4 2976.7 76.79
-4 4 4 3101.79 78.59
-4 4 -4 2980.8 73.49
4 -4 4 3065.09 76.19
-4 -4 4 2894.71 72.69
-4 4 4 2984.3 74.19
-4 4 4 2928.81 74.69
-4 -4 4 3007.1 74.79
-4 -4 -4 2899.91 73.69
4 -4 -4 2947.21 73.09
4 4 -4 3016.5 74.49
4 4 4 2988.5 73.59
1 -1 5 151.98 5.3
1 1 5 147.89 5.2
-1 5 1 149.69 5.4
1 1 -5 158.08 5.3
1 5 -1 150.38 5.1
-1 5 -1 150.08 5.7
-5 -1 1 150.98 4.4
-5 1 1 145.89 4.5
-1 -1 5 154.68 5.4
-1 1 5 150.38 5.3
1 -1 -5 156.18 5.1
-1 -1 -5 153.58 6.8
1 5 1 150.78 4.6
5 -1 -1 145.29 5.3
5 -1 1 153.58 5.5
5 1 -1 152.28 5.5
5 1 1 150.58 5.5
1 -5 -1 148.19 7.2
1 -5 1 146.19 6.7
1 -1 -5 139.19 6.2
1 -1 5 150.98 5.8
1 1 -5 152.28 5.3
1 1 5 144.29 6.6
1 5 -1 151.88 6.6
1 5 1 162.78 7.3
5 -1 -1 141.79 7.4
5 -1 1 156.68 7.5
5 1 -1 162.38 7.2
5 1 1 159.28 7.4
1 5 -1 152.98 5.7
1 5 1 147.29 5.4
5 1 1 147.59 4.1
-5 1 1 145.79 7.5
-1 -5 -1 151.08 7
-1 -5 1 148.39 6.3
-5 -1 -1 145.19 5.2
-5 -1 1 152.18 5.2
-5 1 -1 149.59 5.3
-5 1 1 144.79 5.4
-1 -5 -1 145.09 5
-1 -5 1 148.69 4.7
-1 -1 -5 145.49 4.8
-1 1 -5 151.58 4.5
-1 5 -1 152.98 5.7
1 -1 -5 146.09 4.8
1 1 -5 152.28 4.3
-1 -1 -5 148.89 5.2
-1 1 -5 147.99 5.4
-1 5 -1 148.49 5
-1 5 1 146.69 4.5
-1 1 -5 144.49 5.9
-5 -1 -1 160.38 7.5
-5 -1 1 144.99 7.2
-5 1 -1 132.39 7.3
-1 -1 5 144.49 5.4
-1 5 -1 145.59 7.2
-1 1 5 145.59 6.5
-1 5 1 163.78 7.7
-1 5 -3 54.69 3.1
-3 5 1 60.89 3.3
-3 1 -5 54.49 2.7
3 1 5 55.29 3
5 3 1 51.79 2.7
-1 -5 3 47.6 3.3
-5 -3 1 49 2.8
1 -5 -3 52.59 5.3
1 -3 5 51.29 2.9
-1 -5 3 51.09 2.2
-1 3 5 53.19 3.4
-3 5 1 57.49 5.7
-3 5 1 54.59 3.3
5 3 1 51.89 4.8
-5 -1 -3 54.19 3.1
5 -1 3 53.89 4.8
5 1 -3 60.69 4.6
1 5 3 57.09 3.3
-5 -3 1 48.3 4.5
-5 3 -1 51.29 5.2
-1 -3 -5 52.19 2.9
-3 1 -5 53.89 4.4
3 1 5 53.79 4.8
-3 -5 -1 57.89 5
1 5 3 52.99 1.9
3 -1 -5 56.19 3.1
-1 -3 -5 53.59 4.8
5 -3 -1 54.79 3.1
-1 3 5 56.59 4.9
5 3 1 51.29 3.3
5 -3 -1 49.1 5.4
-3 5 1 48.8 3.8
3 -5 1 49.1 4.9
3 -5 1 51.49 4.9
3 5 -1 54.99 4.5
-5 -1 -3 56.19 5.2
-3 1 -5 42.2 4.9
-1 5 -3 51.69 3.1
1 3 -5 49.99 3.2
-5 1 3 52.89 2.9
5 -1 3 55.39 2.1
1 -3 5 44.9 4.4
3 5 -1 52.39 3.6
-3 -5 -1 51.49 2.9
-3 -1 5 47.6 3.5
-5 3 -1 50.19 4
3 5 -1 58.69 3.2
-5 3 -1 51.99 3.8
3 -1 -5 48.2 4.7
-3 -1 5 54.89 2.9
-1 -3 -5 59.59 2.8
1 5 3 59.39 5.4
1 -5 -3 52.79 3.2
5 1 -3 57.39 3.4
-5 1 3 54.49 3.4
-5 3 -1 55.39 2.8
3 -1 5 56.69 4.2
1 3 5 58.19 4.9
-5 -3 -1 52.39 5.1
3 5 1 51.09 3.2
-1 -3 5 58.39 3.3
1 5 -3 55.99 3.5
-3 1 5 54.99 5
-3 -5 1 53.29 2.7
-1 -5 -3 59.99 5.3
5 -3 1 51.69 5.1
5 -1 -3 60.59 5.1
-5 -1 3 53.49 2.8
-3 1 5 46.2 3.6
-1 5 3 49 3.4
1 5 -3 57.39 4
3 -1 5 55.29 2.9
3 1 -5 51.99 3.9
3 5 1 55.29 2.9
5 3 -1 58.39 4.9
-5 3 1 50.89 2.7
1 -5 3 57.39 4
-3 -1 -5 47.8 3.4
-5 -1 3 61.89 4.9
-5 1 -3 56.39 5.1
1 5 -3 55.79 3.3
-3 -5 1 55.49 4.3
3 5 1 52.39 4.7
-1 3 -5 55.39 2.1
1 -3 -5 53.19 3
3 1 -5 50.99 3.9
5 1 3 51.39 5
-5 3 1 56.79 3.6
3 -5 -1 54.29 5.2
5 1 3 51.99 2.3
-1 5 3 52.09 5.6
-3 1 5 53.09 3.6
-1 -5 -3 53.79 3
1 -5 3 57.49 4
-3 5 -1 55.29 3.3
5 3 -1 52.49 3.3
3 1 -5 59.19 3.3
-1 3 -5 60.29 3.3
5 3 -1 50.59 3.3
1 -3 -5 54.29 5
-3 -1 -5 50.09 4.6
-1 3 -5 52.39 3.3
5 -1 -3 49.4 3
-3 -1 -5 54.79 3.1
-3 5 -1 58.39 3.7
-5 -1 3 49.3 2.9
-5 1 -3 51.59 3.1
-5 1 -3 49 4
-3 5 -1 53.79 3.3
1 -3 -5 54.29 2.4
-3 -3 -5 21.9 2.6
-3 3 5 20 3.1
-3 -5 -3 17.8 2.4
-3 -5 3 22.9 1.8
3 -5 -3 21.5 4.5
-3 -3 5 19.3 1.7
-3 3 -5 17.9 2
-5 -3 -3 17.9 4.1
-5 -3 3 22.7 3.6
-5 3 -3 19.2 4
-3 -5 -3 27.8 4.4
-3 -5 3 20.7 2.8
-3 -3 -5 22.3 4.1
-3 3 -5 21.5 3.3
-5 -3 -3 18.7 2.4
-5 -3 3 17.3 2.1
-5 3 -3 20.3 2.6
-5 3 3 18 2.6
-5 3 -3 17 3.1
-3 -3 -5 23.5 2.9
-3 3 -5 20.8 2.9
-3 5 -3 25.3 3.1
3 -5 -3 18.2 1.6
3 -3 -5 15.7 2.1
3 3 -5 20.3 2.6
3 5 -3 17.3 2.4
3 5 3 16.6 1.9
5 -3 -3 19.3 2.2
-3 3 5 18 4.3
-3 5 3 24.7 4.7
-5 -3 3 23.7 2.4
-5 3 3 23.2 2.7
-3 -3 5 19.8 2.5
-3 3 5 19 2.6
-3 5 -3 20.7 3.1
-3 5 -3 17.5 2.2
-3 5 3 21.1 3.2
-3 5 3 16 2.4
3 -3 5 20.4 2.4
3 3 5 21.3 2.7
3 5 -3 20.8 3.1
5 3 3 24.2 2.1
5 -3 -3 21.7 4.5
5 -3 -3 22.6 4.3
5 3 -3 23 2.9
5 3 3 18.2 2.4
3 -5 3 23.3 4.1
3 -5 3 23.1 3.6
3 -3 -5 17.4 3.6
5 3 -3 19.9 3.1
5 3 3 18.6 3.8
3 -3 5 22 3.1
3 3 -5 17.7 2.4
3 3 -5 18.1 2.1
3 3 5 23.3 4.1
3 5 -3 17.9 2.8
3 5 3 20.1 4.2
5 -3 3 26.5 4.1
-5 5 1 109.59 4.7
-5 5 -1 117.99 4.9
5 -1 5 113.59 4.2
5 1 5 118.09 4.4
-5 -5 -1 104.09 7
-5 -5 1 100.99 6.7
-5 -1 -5 111.99 7.4
-5 1 -5 104.49 7.2
-1 -5 -5 103.89 7.3
-1 5 5 108.79 7.5
1 -5 -5 114.39 7.6
1 -5 5 114.89 4.9
-1 -5 5 112.29 5
-1 5 -5 110.39 4
5 -5 -1 106.59 8.2
5 -5 -1 112.79 7.9
5 -5 1 107.29 7.9
5 -5 1 111.79 7.9
5 -1 -5 106.39 7.3
5 -1 -5 106.39 7.3
5 -1 5 119.49 7.2
5 1 -5 117.69 7.1
5 1 -5 118.89 6.6
5 1 5 119.19 7.1
5 5 -1 124.29 7.1
5 5 1 105.69 7.1
1 -5 5 114.09 4.8
1 5 5 116.89 7.5
-5 -1 -5 112.59 6.1
-5 1 -5 119.69 5.9
-5 5 -1 108.39 5.8
-1 5 -5 103.89 5
1 5 -5 111.19 5.3
1 5 5 110.79 3.5
1 -5 -5 112.79 4.8
-1 5 5 111.09 5.3
1 5 5 113.89 5.3
-5 -5 -1 114.49 4.7
-5 -1 -5 106.29 4.7
-5 -1 5 117.89 4.7
-5 1 -5 113.59 4.7
-5 1 5 108.99 5.3
-5 -1 5 113.99 4.8
-5 1 5 112.69 4.8
-5 5 -1 121.29 5.5
-5 5 1 113.19 5.6
-1 -5 -5 115.99 4.8
5 1 -5 111.09 5.2
5 5 -1 117.69 5.1
5 5 1 108.99 4.9
5 5 1 106.79 4.8
5 -1 -5 119.59 5
5 -5 -1 114.09 4.8
5 5 -1 109.49 5.4
-5 -3 5 68.09 3.3
-5 3 -5 61.89 3.6
-5 5 3 61.49 4.6
-3 -5 -5 62.49 3.8
-3 -5 5 61.49 2.3
-3 5 -5 65.69 3.5
-5 3 5 58.29 4.7
3 5 5 69.19 4.1
5 -3 5 68.49 3.4
5 3 5 65.79 3.7
5 5 -3 68.09 4.7
3 5 -5 62.69 3.2
-5 -3 5 66.19 3.9
-5 3 5 62.49 4
-5 5 -3 59.99 4.4
-5 5 3 61.39 4.1
-3 -5 5 69.19 4.1
-3 5 5 63.59 4.3
-5 -5 -3 64.79 6.5
-5 -5 3 64.79 5
-5 -3 -5 65.39 6.4
-5 -3 5 63.79 5
-5 3 -5 61.39 6
-5 5 -3 66.39 6.2
-3 -5 -5 64.19 6.1
-3 -5 5 66.79 3.3
-3 5 5 67.19 5.4
-5 5 -3 61.29 4
5 3 5 73.89 6.5
5 5 -3 64.99 5.2
5 5 3 70.69 6.7
-5 3 -5 65.39 4.7
-5 5 -3 63.29 4.9
-3 5 -5 65.79 4.2
3 -5 -5 65.19 2.8
3 5 -5 64.09 4.4
3 5 5 64.79 3.3
5 -5 -3 62.99 3.3
5 -3 -5 68.89 3.7
5 3 -5 68.39 4.3
5 5 -3 71.49 4.3
5 5 3 64.89 3.9
-5 -3 -5 67.89 3.8
5 -3 -5 69.49 6.8
5 -3 5 60.39 5.7
5 3 -5 65.59 4.7
-5 -5 -3 68.79 3.9
-5 -5 3 64.09 3.3
5 -5 -3 66.19 6.9
5 -5 -3 53.89 7
5 -5 3 61.09 6.2
5 -3 -5 64.19 7.2
3 5 5 70.09 6.6
3 -5 5 68.79 5.2
-3 5 5 76.19 7.1
3 -5 -5 64.79 6.6
5 -5 5 58.79 6.1
-5 -5 5 64.79 4.1
5 -5 -5 59.59 8.1
5 5 5 61.09 3.9
-5 -5 -5 66.89 6.8
-5 -5 5 61.29 5
-5 5 -5 61.29 6.6
5 -5 -5 68.99 3.4
5 5 -5 63.89 4.4
5 5 5 55.29 3.8
-5 5 5 59.29 5
5 -5 5 56.29 3.7
-5 5 -5 62.79 5
5 5 -5 57.29 4.7
5 5 5 55.09 6.6
-5 -5 5 58.59 3.1
-5 5 5 55.79 4.2
-5 -5 -5 56.69 3.9
-5 5 -5 64.29 4
0 6 0 1657.23 42.1
0 6 0 1682.63 43.1
0 -6 0 1697.23 45.1
0 0 6 1696.83 42.8
6 0 0 1713.33 43.1
0 0 6 1747.63 44.1
0 0 -6 1626.04 42.6
-6 0 0 1692.03 42.8
0 -6 0 1660.13 42.4
0 0 -6 1674.93 42
0 0 -6 1674.03 44
6 0 0 1792.42 46
-6 0 0 1732.83 46.2
0 6 0 1764.22 45.6
0 2 6 613.34 18.5
-6 0 2 578.94 16.1
2 6 0 600.44 16.5
0 2 6 599.14 16.3
-6 0 -2 581.54 16.1
-2 6 0 505.95 17.7
0 -2 -6 596.04 15.8
0 2 -6 570.44 14.7
6 0 2 622.84 19.2
-6 0 2 621.44 19.7
-6 2 0 578.04 14.9
-2 0 6 586.04 16.2
0 6 -2 603.54 16.9
0 6 2 572.04 16.4
2 0 6 526.75 16.7
6 0 -2 576.84 16.1
6 0 2 589.64 16.5
-6 0 2 603.94 15.3
-2 6 0 594.24 16.4
-6 -2 0 603.34 19.1
-6 2 0 574.04 19.5
-2 0 -6 572.34 18.1
-2 0 6 590.54 17.7
-2 0 -6 571.54 16.5
0 6 -2 598.04 16
0 6 2 575.84 14.7
2 0 -6 599.84 16.1
6 -2 0 566.34 16.3
6 2 0 604.24 16.5
6 -2 0 599.04 19.1
6 2 0 586.84 18.7
0 -2 6 616.24 15.9
0 2 -6 587.74 15.8
0 -2 6 593.04 16.1
0 -6 -2 597.84 18.9
0 -6 2 576.14 17.4
0 6 -2 576.14 18
0 6 2 642.34 19.4
2 0 -6 592.74 17.5
2 0 6 592.94 17.7
-6 0 -2 601.64 19.3
-2 -6 0 591.34 15.7
-2 -6 0 590.74 18.3
-2 6 0 574.04 19.3
0 -2 -6 552.84 18.1
2 0 -6 584.74 15.3
-6 2 0 598.84 16.3
-2 0 -6 573.34 15.6
2 -6 0 557.44 18.6
2 6 0 638.74 18.7
6 0 -2 571.44 18.6
0 2 -6 588.34 16.3
2 6 0 581.54 15.7
0 -6 2 594.14 15.4
-6 -2 0 570.24 15.9
0 -6 -2 582.74 16
0 -2 -6 602.74 15.7
-2 6 0 593.14 15.8
6 2 2 88.89 4.4
6 2 -2 90.29 4.5
6 2 2 94.29 6.6
2 2 -6 88.09 3.8
2 2 -6 83.69 3.9
2 2 -6 86.79 2.9
6 2 -2 92.29 6.1
2 -2 6 89.99 4.8
-6 -2 -2 88.09 4.2
-6 -2 2 84.69 3.9
-6 2 -2 85.89 4.2
-6 2 2 90.19 4.5
-2 -6 -2 83.69 4
-2 -6 2 96.09 3.5
-2 -2 -6 80.19 4
-2 2 -6 86.69 3.4
-2 6 -2 95.19 4.6
-2 6 2 83.99 5.2
2 -6 -2 79.09 6.1
-2 -2 6 89.29 4.3
-2 2 6 82.09 4.2
2 -2 -6 91.79 3.8
2 6 2 92.69 4.5
6 -2 2 85.79 2.8
-2 2 6 92.99 6.1
2 2 6 95.79 6
2 6 -2 90.29 5.3
2 6 2 83.19 6.3
-2 6 2 89.49 6.9
6 2 2 86.89 3.1
2 -6 2 81.49 5.7
2 -6 2 86.49 6.1
2 -2 -6 83.09 5.8
-2 2 -6 89.59 4.5
-2 6 -2 87.39 4.1
2 6 -2 87.39 4.7
6 -2 -2 90.99 6.6
6 -2 2 89.19 6.5
-6 -2 2 88.19 3.5
-6 2 2 90.89 3.8
-2 -6 -2 86.69 6.2
-2 -6 2 83.69 5
-2 -2 -6 86.09 6
-2 2 -6 79.19 4.8
-6 2 -2 82.79 6.7
-6 2 2 93.69 7.4
-2 -2 -6 86.89 4.2
-6 -2 -2 91.69 6.5
-6 -2 2 89.49 6.4
2 -2 -6 84.79 3.9
-2 6 -2 94.49 4.8
-2 6 2 95.09 4.6
2 -2 6 88.49 4.1
2 2 6 89.69 4.2
2 2 -6 91.39 4.3
2 6 -2 82.89 4.2
2 6 2 85.29 3.4
6 -2 -2 86.79 4.2
-6 2 -2 90.09 5.4
0 -4 -6 1204.58 30.7
6 4 0 1242.98 32.1
4 -6 0 1194.98 35.7
4 6 0 1239.78 34.6
6 0 -4 1221.18 34.7
0 4 6 1244.88 35
4 -6 0 1251.57 36.2
-6 0 -4 1204.48 35.3
-6 0 4 1172.68 35
-4 -6 0 1238.48 34.4
0 -4 -6 1226.48 35
-4 -6 0 1200.18 31.2
-4 6 0 1188.08 31.7
0 -4 6 1250.77 31.8
0 4 6 1242.28 32.1
4 6 0 1242.08 32.1
-6 0 -4 1252.77 33.4
-4 6 0 1232.28 32
-6 4 0 1225.48 32.1
0 4 -6 1245.78 32.1
4 6 0 1245.58 32.8
6 0 -4 1219.78 31.8
-6 0 4 1246.18 31.3
-6 0 -4 1203.08 31.6
-6 0 4 1184.68 31.6
6 0 4 1198.38 30.4
4 0 -6 1197.38 31.7
6 -4 0 1245.98 31.9
0 -6 4 1202.68 30.3
-6 -4 0 1249.28 34.9
-4 0 -6 1143.69 34.3
0 -6 -4 1255.87 35.5
0 -6 4 1223.78 31.9
0 -6 4 1213.18 32.4
0 6 4 1300.77 35.8
4 0 -6 1224.58 34.1
4 0 -6 1205.98 34
4 0 6 1252.97 34.4
-6 4 0 1220.78 31.1
6 4 0 1234.98 34.6
-4 0 6 1226.38 31.8
6 0 4 1256.37 34.9
0 6 4 1224.28 32.1
-6 -4 0 1217.58 31.4
0 6 -4 1246.78 32
-4 0 -6 1205.58 31.4
-4 0 6 1239.08 31.7
0 -6 -4 1272.27 31.8
6 -4 0 1230.58 35.5
4 0 6 1210.98 31.2
6 4 0 1202.28 31.6
0 6 -4 1209.98 33
-4 0 -6 1257.17 32.6
-4 6 0 1206.08 32.3
0 -4 -6 1218.58 31.5
-2 -4 -6 556.04 15.5
2 -4 6 563.54 16
-6 4 -2 563.04 19.6
2 6 4 558.64 19
-6 4 -2 552.94 17
2 -6 -4 551.54 15.8
-2 -4 -6 543.75 15.4
2 6 4 559.34 15.9
-4 -6 -2 550.14 18.6
-4 2 -6 560.04 16.5
-2 6 -4 536.35 15.8
-2 -4 -6 537.35 18.7
2 6 4 541.25 14.3
4 -2 -6 536.45 15.4
6 4 2 548.25 18.8
6 -4 -2 510.85 16.1
6 2 -4 569.14 16.2
6 4 2 573.54 15.9
4 -6 2 552.14 19.3
4 -6 2 548.35 18.7
4 6 -2 573.14 17.7
-4 6 2 551.74 15.7
4 6 -2 542.25 15.8
-2 4 6 559.34 16
6 4 2 566.14 15.1
-4 -2 6 553.44 14.9
-4 2 -6 559.54 15.1
-6 2 4 567.04 15.5
4 2 6 564.94 18.6
6 -2 4 572.34 18.7
-6 -4 2 524.15 15.1
-6 4 -2 575.64 15.5
4 6 -2 552.54 16.5
-4 -2 6 577.74 15.8
6 -2 4 562.84 14.5
-2 6 -4 545.75 16.8
-6 -4 2 585.94 18.4
-4 6 2 587.24 16.8
6 -4 -2 563.64 20.6
6 -4 -2 571.64 19.8
4 -2 -6 560.94 18.9
-6 -2 -4 529.45 18.8
-4 2 -6 532.45 17.7
-2 -6 4 534.85 14.2
-2 -6 4 540.55 15.5
6 2 -4 564.94 17.7
-4 6 2 538.65 20
-2 4 6 570.84 19.3
2 -6 -4 508.05 18.9
2 -4 6 570.04 15.6
-6 -2 -4 554.64 15.7
2 4 -6 560.04 16
-6 4 -2 537.85 15.8
-6 2 4 555.44 16.2
-4 -6 -2 539.55 15.4
-2 6 -4 550.54 15.4
-4 2 6 556.84 16.4
2 6 -4 560.34 17.1
-6 2 -4 559.64 19.1
4 2 -6 556.34 15.9
6 -4 2 561.04 18.8
2 -4 -6 560.54 14.5
-6 -2 4 515.75 15.3
2 4 6 554.24 18.8
-2 6 4 558.14 16.1
-4 -6 2 545.95 17.4
6 2 4 547.95 18.7
4 6 2 590.04 19.1
-2 -4 6 551.74 15.8
6 -2 -4 562.14 19.4
4 2 -6 565.54 17
2 4 6 583.74 16
-6 4 2 529.45 15.2
2 6 -4 547.45 15.8
-4 2 6 555.44 15.7
-4 6 -2 551.74 16
6 4 -2 566.04 16
-6 2 -4 547.95 16.9
-6 -4 -2 537.35 18.9
4 2 -6 569.84 16.4
-2 4 -6 555.34 16.1
-4 -2 -6 541.55 19.1
-6 -2 4 562.64 18.2
4 -6 -2 587.44 14.9
-4 -2 -6 550.24 16.3
-2 6 4 596.04 20.1
6 -2 -4 564.44 15.6
2 -6 4 536.25 17.8
2 -6 4 562.74 17.2
2 6 -4 575.14 16
4 -2 6 480.35 15.8
6 2 4 550.04 14.7
-6 -4 -2 556.44 15.6
6 2 4 557.24 15.9
-2 -6 -4 538.45 18.9
-6 4 2 550.64 16.3
-4 -2 -6 541.95 15.5
-2 -6 -4 569.74 15.6
6 -2 -4 567.84 20
4 6 2 556.14 15.3
-2 4 -6 549.05 16.4
-4 6 -2 560.24 16
4 -6 -2 560.64 19.5
-4 6 -2 554.84 16.1
-2 4 -6 543.25 14.5
2 -4 -6 559.34 15.5
4 -2 6 569.94 17.7
-4 -6 2 549.54 14.9
6 4 -2 583.74 18.1
4 6 2 551.84 15.7
2 -4 -6 563.14 19.3
-6 -2 4 555.24 15.2
-6 2 -4 572.94 15.7
-6 -4 4 882.01 25.8
-4 -6 -4 846.02 27.2
4 4 6 897.61 27.1
-6 -4 -4 838.22 27.3
-4 6 4 844.52 23.8
-6 4 -4 887.01 27.5
6 -4 4 865.81 22.7
6 4 4 884.61 23
4 6 4 845.32 22.8
6 -4 -4 854.31 23.9
6 4 -4 880.61 23.9
4 -4 6 893.01 23.3
4 4 6 881.51 23.6
4 6 -4 867.51 25
-6 -4 4 884.51 23.3
-6 4 4 881.31 23.6
-4 -4 6 889.01 23.7
-4 4 6 892.71 23.9
-4 6 -4 866.61 24.6
-6 4 -4 896.51 24.9
-4 4 -6 890.71 24.4
-4 6 -4 834.22 24.1
4 -6 -4 862.71 22.2
4 -4 -6 902.01 22.9
4 4 -6 882.21 24
4 6 -4 873.21 23.9
-6 -4 -4 861.41 23.4
-6 -4 4 857.91 22.8
-6 4 -4 864.51 23.4
-6 4 4 865.91 24.4
-4 -6 -4 849.41 23.3
-4 -6 4 871.71 22.3
-4 -4 -6 884.11 23.4
-4 -4 6 848.62 22
-4 4 -6 865.51 22.9
-4 4 6 868.31 24.9
-4 6 -4 851.31 23.5
-4 6 4 883.21 25
6 4 4 900.61 23.7
-4 -6 4 869.51 24.4
-4 -4 -6 884.81 27.4
-4 4 -6 856.21 26.2
-4 4 6 873.71 28
-4 6 4 859.61 28.3
4 -6 -4 866.71 27.9
4 -6 4 849.32 27
4 -6 4 902.81 26.3
4 4 -6 859.21 23.4
4 4 -6 888.31 23.1
6 -4 -4 834.62 28.2
6 -4 -4 894.91 28.1
6 -4 4 878.31 26.8
6 4 -4 893.01 25.6
6 4 4 882.81 27.1
4 -4 -6 853.21 27.5
4 -4 6 915.31 25.6
4 6 4 904.21 27.5
4 6 4 888.61 23.6
4 6 -4 892.21 24.6
0 -6 6 358.26 11
-6 0 6 353.56 11
0 6 6 356.86 14.6
6 -6 0 342.27 15.3
6 0 6 344.97 13.7
6 6 0 327.77 13.6
6 6 0 337.47 11.2
-6 6 0 333.17 10.6
-6 6 0 334.47 11.4
-6 0 -6 332.47 14
-6 0 6 343.07 10.7
-6 0 -6 338.67 12.1
-6 6 0 351.26 12.1
0 6 -6 338.27 11.1
-6 -6 0 330.37 10.4
-6 0 -6 343.67 10.7
0 -6 -6 330.07 14.1
6 0 -6 340.17 11
6 6 0 327.87 10.8
6 -6 0 367.46 15.2
6 0 -6 353.86 14.6
6 0 -6 344.37 13.6
0 6 6 342.57 11.2
-6 -6 0 337.67 13.8
0 -6 -6 332.57 10.6
6 0 6 353.56 10.1
2 6 6 163.68 5.2
6 2 -6 168.18 6.9
-6 -2 -6 160.48 9.9
6 -2 -6 177.18 6.7
-6 -6 2 161.98 8.7
6 -6 -2 168.28 6.4
-6 -6 -2 155.38 9.4
-6 -2 6 173.88 6.4
-6 2 -6 172.98 6.5
-6 2 6 168.48 7.3
-6 6 -2 159.08 7.1
6 6 -2 167.88 7
6 6 2 169.98 6.7
-2 6 -6 164.98 6
2 -6 -6 164.18 6.5
6 -2 -6 173.78 10.4
6 -2 6 180.38 9.5
2 6 -6 162.18 6.8
-6 -6 -2 164.18 6.4
-6 -6 2 164.78 6.1
-6 -2 -6 164.58 6.7
-6 -2 6 164.58 6.5
-6 2 6 162.28 6.5
-6 6 -2 171.68 7
-6 6 2 158.18 6.7
-2 -6 6 170.18 6.8
-2 6 6 170.78 7.2
2 -6 6 168.48 6.6
2 6 6 168.98 7.1
6 -2 6 160.58 5.9
6 2 6 162.98 6.3
6 6 -2 164.08 7.5
-6 -2 -6 170.28 8.2
6 2 -6 167.98 9.2
6 2 -6 167.98 8.4
6 2 6 168.38 9.4
6 6 -2 160.18 8.8
6 6 2 176.78 10
2 -6 -6 160.28 9.9
2 -6 6 160.98 7.6
2 -6 6 174.88 7.2
2 6 6 166.58 10.1
6 -6 -2 187.88 11.1
-6 6 2 164.98 7.6
-2 -6 -6 172.08 6.7
6 6 2 161.98 6.5
-6 2 -6 161.08 8
-6 6 -2 167.38 7.6
-2 6 -6 160.58 7
6 -6 -2 174.78 10.5
6 -2 -6 163.98 10
-2 -6 -6 167.68 9.6
-2 6 6 174.18 10.4
-6 2 -6 177.18 9.9
-6 6 4 302.47 11.2
-4 -6 -6 320.07 10.2
-4 6 -6 302.77 10.1
-4 6 6 286.37 11.4
-6 4 -6 297.47 13.8
-4 -6 -6 300.37 13.9
-4 -6 6 295.67 9.4
-6 6 -4 314.87 10.4
-6 4 -6 301.77 9.9
-6 4 6 294.87 11.1
-4 -6 6 303.07 10.2
-4 6 6 295.07 10.5
4 -6 6 295.27 10
4 6 6 302.47 10.4
6 -4 6 315.97 9.6
-6 -4 -6 302.27 10.1
-6 -4 6 292.67 9.1
-6 -6 -4 300.67 10.1
-6 -6 4 298.27 9.2
6 6 4 303.37 10
-6 -4 6 320.07 10.1
-6 4 6 299.97 10.3
-6 6 -4 303.17 11.2
-6 6 4 310.27 10.5
6 6 4 314.97 10.1
-6 -6 4 285.67 11.8
-6 -4 -6 294.47 13.8
-6 -4 6 288.27 11.8
6 -6 -4 309.67 9.3
6 -4 -6 312.27 9.8
6 4 -6 312.17 10.5
-4 6 6 309.27 14.8
4 -6 -6 279.57 14.1
4 -6 6 293.27 13.2
4 -6 6 301.77 12
4 6 -6 295.37 9.2
4 6 6 302.47 13.9
6 -6 -4 304.87 14.5
6 -6 -4 302.87 14.7
6 -6 4 296.57 13
6 -4 -6 294.97 14.5
6 -4 -6 320.77 14.8
6 -4 6 298.07 13
6 4 -6 305.47 11.3
6 4 6 317.57 13.8
6 6 -4 337.07 12.5
6 6 4 301.37 13.5
-6 -6 -4 295.37 13.9
-6 6 -4 304.87 11.2
-4 6 -6 304.67 11
4 -6 -6 318.17 8.8
4 6 -6 301.57 10.5
4 6 6 310.37 9.5
-6 -6 4 305.57 10.1
-6 4 -6 300.57 11.3
6 6 -4 295.07 10.5
6 4 6 306.67 10.2
6 4 6 304.77 9.8
-6 6 -6 154.68 7
6 -6 6 168.48 6.7
-6 -6 -6 163.78 10.8
6 6 -6 161.08 8.2
6 6 6 172.08 10.9
-6 -6 6 159.78 5.8
-6 6 -6 140.19 10.5
6 -6 -6 170.78 11.7
6 -6 -6 162.08 11.8
6 -6 6 171.08 9.8
-6 6 -6 169.18 8.3
-6 -6 -6 156.38 6.8
6 6 6 161.28 6.9
6 -6 -6 157.28 6.4
6 6 -6 165.28 7.4
-6 -6 6 150.38 6.8
-6 6 6 160.58 7.4
-6 6 6 165.28 8.3
6 6 6 159.08 6.8
-6 -6 6 144.09 8.4
7 1 1 9.2 3.6
-7 1 1 17.3 2.6
-1 -7 -1 12.2 2
-1 -7 1 13.3 1.7
1 -1 7 16.9 2.8
1 -1 -7 18.8 3.4
-1 1 7 16.6 3.3
-1 7 -1 15 3.9
-1 7 1 9.3 3.9
1 -7 -1 15.5 3.9
7 1 -1 19.1 4.2
-1 1 -7 16.6 2.9
-7 -1 -1 16.4 4.3
-7 -1 1 11.6 3.7
-7 1 -1 11.8 3.9
-7 1 1 14.8 4.1
1 -7 1 15.6 3.2
-1 -7 1 18.6 3.3
-1 -1 -7 17.8 3.6
-1 -1 7 16.7 2.8
-1 -1 -7 12 2.1
-1 1 -7 10.5 2.2
-1 7 -1 13.3 2
-1 7 1 13.9 2
1 -1 -7 15.4 2.1
1 1 -7 13.8 2.2
1 7 -1 13 1.9
1 7 1 15.2 1.8
7 -1 -1 13.2 2.1
7 -1 1 12.4 2.3
7 1 -1 16.3 2.4
7 1 1 15.3 2.4
1 1 7 18.5 2.5
1 7 -1 18.1 2.8
1 7 1 15.4 2.5
7 -1 1 16.6 4
1 -1 7 13.5 2.2
-1 -7 -1 18.9 3.7
-7 -1 -1 15 2.3
-7 -1 1 14.2 1.4
-7 1 1 15.3 1.6
-1 -1 7 15.9 2.3
-1 1 7 15.6 2.5
-1 7 -1 11.9 2.5
-1 7 1 12.8 2.4
1 1 -7 17 2.7
1 1 7 16.9 3.6
1 7 -1 16.6 3.5
1 7 1 15.8 3.7
7 -1 -1 13 3.9
1 -1 -7 15.4 1.9
-7 -1 1 14.2 2.3
-7 1 -1 11.6 2.2
-1 -1 -7 11.6 1.8
-1 1 -7 15.6 1.9
1 -7 -1 14.2 2.2
1 1 -7 14.1 1.5
1 -3 7 13.9 2.2
-3 1 -7 14.5 1.9
7 -3 -1 9.9 2.2
-1 -3 -7 10.5 3.5
1 -7 -3 14.3 2.3
7 3 1 8.8 2.3
-1 -3 -7 17.6 2.3
-7 1 3 9.5 2.2
7 3 1 19.5 2.4
-3 -7 -1 16.9 3.7
1 -3 7 10.1 2.1
-3 7 1 11.5 2.9
-1 -3 -7 12.1 2.1
3 7 -1 14.9 2.7
-1 -7 3 14.1 2.8
3 -7 1 7.7 3.4
3 1 7 13.4 2.4
-3 1 -7 14.6 2.8
-1 7 -3 12 2.3
-3 1 -7 14.8 3.4
3 -1 -7 11.4 2.2
-7 -1 -3 14.7 2.5
-1 3 7 14.4 3.7
7 1 -3 11.1 3.7
3 7 -1 9.2 2.1
-3 -7 -1 16.8 2.2
1 3 -7 11.6 2.3
3 1 7 18.3 4
7 -3 -1 11.1 3.9
-7 3 -1 15.1 1.8
7 1 -3 16 2.6
7 3 1 9.9 3.9
-3 -1 7 15.3 2.5
-3 7 1 16.8 2.3
-7 1 3 14.4 4.5
-7 -3 1 17.8 3.8
1 7 3 12.2 4.4
3 -1 -7 9.5 3.4
-1 -7 3 10.3 1.5
-7 3 -1 15.2 4.7
7 -1 3 13.3 3.8
-3 7 1 12.1 2.5
1 -7 -3 16.8 4.2
-7 -3 1 8.4 1.8
-7 3 -1 13 2.5
-7 -3 1 13.9 1.8
-3 7 1 15.1 4.8
1 7 3 15 2.5
-1 7 -3 7.4 2.6
-1 3 7 11.8 2.4
3 7 -1 11.9 3.4
-7 -1 -3 15.7 4.4
-7 1 3 11.9 2
1 7 -3 17.4 3.4
3 1 -7 14.3 2.5
3 -7 -1 12.9 4
7 -3 1 12.9 4.1
-3 7 -1 12.9 2.4
-3 1 7 17.1 4.1
-1 -7 -3 19.1 4.2
3 7 1 12 4
7 3 -1 10.5 2.4
-7 -3 -1 13.6 2.2
1 -7 3 12 3
7 -1 -3 12.2 4.2
-1 -3 7 12.7 2.3
-7 1 -3 11.4 2.3
-1 3 -7 13.6 2.5
1 3 7 15.3 4.3
-7 -1 3 12.8 2.1
3 -1 7 16 3.6
-3 -1 -7 11.5 3.7
7 -1 -3 14.8 2.4
7 3 -1 18.6 4.3
7 1 3 13.7 2.5
3 1 -7 15.6 2.8
7 -3 1 14.2 2.5
-1 3 -7 12.8 2.3
-7 -3 -1 14.7 4
1 3 7 14.7 2.5
-7 3 1 8.4 2.4
-1 7 3 9.7 4
-7 3 1 14.8 2
-3 -1 -7 14 2
-3 1 7 12.5 2.4
-1 -7 -3 13.1 2.2
-1 7 3 11 2.4
1 7 -3 15.3 3
-3 -7 1 15.9 3.5
-1 3 -7 14 1.6
3 7 1 12.9 2.5
-3 -1 -7 12.7 2.5
1 -3 -7 13.9 1.9
3 -1 7 15.8 2.3
3 1 -7 15 3.2
1 -3 -7 14.8 2.3
-7 1 -3 9.5 4
3 7 1 13.2 2
-7 -1 3 13.9 2
-7 3 1 7.8 4.2
-3 7 -1 12.9 2.5
1 -3 -7 8.6 3.6
7 1 3 14 4.2
1 7 -3 12 2.2
-7 -1 3 16.4 4.1
-3 7 -1 16.3 3
-3 -7 1 12.6 2.2
-7 -3 -3 6.6 4
-3 -3 -7 3.8 2.2
3 -7 3 8.9 3.7
3 -7 3 8.4 3.7
-7 -3 3 2.2 3.2
3 -7 -3 9.4 3.8
7 3 -3 1.4 2
7 -3 3 4.1 1.2
3 3 -7 5.4 1.3
3 3 -7 4.9 1.4
-7 3 3 7.2 2
-3 -3 7 0.7 1.8
3 7 -3 4.1 2.6
7 3 3 5.9 1.6
-7 3 -3 8 4.2
-3 -7 -3 3 3.5
-3 -7 3 1.7 2.4
-3 -3 -7 5.2 3.5
-3 3 -7 6.2 2.9
-3 3 7 11.6 4.1
-3 7 3 4 4.1
3 7 3 3.6 3.7
7 -3 -3 3.1 4.4
-3 3 -7 4.5 2.3
7 -3 -3 3.8 1.9
7 3 3 3.2 2.1
7 3 3 6.3 3.7
3 -3 7 3.9 2.5
-3 3 7 9.5 2.4
-3 7 -3 6.6 2.5
-3 7 3 6.8 2.3
3 -3 7 3.6 1.8
7 -3 -3 -1.7 4
7 -3 3 6 3.7
7 3 -3 5.3 3
3 -3 -7 5.2 1.9
3 -7 -3 7.4 1.1
3 -3 -7 3.9 1.7
3 3 -7 2.1 2.1
3 7 -3 5.5 2.3
3 7 3 4.3 1.6
-7 3 -3 4.3 3.1
-3 7 -3 4 2.2
-3 7 3 5.8 2.9
-3 7 -3 5.5 2.2
3 3 7 8.2 2.3
-3 -3 -7 3 1.9
3 -3 -7 2.6 3.2
-7 -3 -3 6.2 2
-7 -3 3 7.2 1.9
-7 3 -3 4.5 2.2
-7 3 3 6.2 2.5
-7 -3 3 6.2 1.7
3 7 3 7.5 2.2
-3 -7 3 4.7 1.4
3 7 -3 5.6 2.9
-3 3 -7 4.8 1.5
3 3 7 2.3 3.6
-3 -7 -3 5.3 1.8
-5 1 -7 2.7 3.7
-5 -1 7 7.1 2.3
7 -5 -1 6.8 4.7
7 1 -5 6.3 3.6
5 7 -1 7.9 3.9
7 -1 5 0.7 3.4
-1 5 7 2.9 4
7 -5 -1 9.8 2.3
1 -7 -5 0.3 1.8
-7 -1 -5 1.7 3.8
-7 1 5 4.3 2.3
5 1 7 1.3 3.8
-7 5 -1 4 2.2
-1 -7 5 3.4 1.1
-1 -5 -7 8.6 3.8
-1 -7 5 5.6 1.8
1 5 -7 3.6 2.1
5 7 -1 4.9 2
-7 -1 -5 4 1.9
-7 1 5 3.3 1.9
7 1 -5 1.8 2.3
7 -5 -1 5.4 4.2
1 -5 7 2.6 1.5
1 -7 -5 6.7 4
-5 7 1 1.6 2.5
-5 1 -7 3.3 1.7
7 -1 5 3.9 1.4
1 -5 7 4.1 1.5
1 -5 7 5.6 2.1
5 -1 -7 5.3 3.6
-7 5 -1 3.9 2.8
-1 -5 -7 5.8 2.1
-5 -1 7 4.1 2.1
-1 7 -5 -1.1 3
-7 5 -1 2.2 2.1
-5 7 1 3.8 2.2
1 7 5 2.6 2.2
5 7 -1 7 2.6
5 1 7 3.3 1.9
7 5 1 5.4 4
7 5 1 4.9 2.1
-5 -7 -1 5.6 1.9
-7 -5 1 6.9 3.7
-7 -5 1 5.2 1.9
5 -1 -7 4.3 2.2
-1 7 -5 5.9 2.3
5 -1 -7 7.1 3.8
7 5 1 3.6 2.1
-5 1 -7 4 2.5
-1 5 7 5.5 2.5
-1 -5 -7 4 1.7
1 7 5 5.2 4.2
1 -5 -7 4.1 1.4
1 -7 5 1.2 2.4
5 -1 7 -1.1 3.2
7 -1 -5 1.5 3.8
-5 7 -1 1.1 2.6
-5 1 7 3.6 2
1 -7 5 8.9 2.5
-5 -7 1 0.5 1.6
1 5 7 2.7 2.4
-7 -1 5 3.8 1.9
-7 -5 -1 2.5 1.9
-5 -1 -7 4 3.5
-7 1 -5 5 3.7
7 -1 -5 4.8 2.2
-5 -1 -7 0.4 1.7
7 -1 -5 6.2 4.2
1 -5 -7 -0.3 3.5
-1 7 5 1.6 2.2
-1 -7 -5 2.7 1.9
-7 1 -5 0.8 2.7
-5 7 -1 3.2 2.4
5 7 1 6.4 2.2
-1 5 -7 5.9 2.5
1 7 -5 5.4 2.9
-1 -7 -5 1.2 3.2
-5 7 -1 3.9 2.2
-7 1 -5 3.5 2
-1 -5 7 1.5 2.3
-5 -7 1 5.3 3.5
7 5 -1 6 2.2
-1 7 5 6.4 4.3
5 -1 7 3.7 2
5 7 1 6.6 2.3
1 -5 -7 4.8 2.1
7 1 5 2.3 1.5
-7 -5 -1 5.4 3.6
1 5 7 2.8 3.8
5 -7 -1 10.2 4.5
5 -7 -1 3.2 4.2
-7 5 1 5.1 2.7
-5 1 7 5.7 2.5
-7 5 1 1.9 1.7
7 1 5 1.5 3.4
-7 -1 5 6.8 1.9
7 5 -1 6.1 3.9
5 1 -7 1.8 2.9
-7 -1 5 5.1 3.7
5 1 -7 -2 2.8
5 1 -7 3.8 2.1
7 5 -1 4.1 2.4
7 -5 1 1.4 3.8
1 7 -5 3.7 2.1
-5 -1 -7 0.3 2.4
-7 5 -3 3.8 2.3
5 3 7 -2.3 3.7
-7 5 -3 2.2 2.9
-3 -7 5 1.3 1.9
-5 3 -7 1.8 2.6
3 -7 -5 -0.3 3.8
3 5 -7 -1.3 2.1
-5 -3 7 3.4 1.7
-5 7 3 4.5 3.1
-7 -5 3 4.3 3.6
5 3 7 3.4 2.1
-3 5 7 8.7 4.4
-5 3 -7 1.6 1.9
3 -5 7 3.1 2.4
-5 3 -7 2.8 3.6
-7 3 5 3.5 2.6
5 -7 3 4.1 4.3
5 -7 3 3 4
5 7 -3 8.7 3.3
-7 -3 -5 2.5 2.1
7 -5 -3 -7.5 4.2
7 -5 -3 12.2 4.7
7 -3 5 -0.2 3.8
7 3 -5 0.4 3.1
-7 3 5 3.3 2.1
-7 -5 3 1.7 2
-3 -7 5 5.5 1.2
-3 7 -5 5.4 2.3
-5 -3 7 0.7 2.1
7 -5 -3 3 1.8
-3 7 -5 -0.5 3.1
-3 5 7 3 2.5
3 -5 7 5.4 2.1
3 7 5 3.4 2.2
-7 -5 3 1.3 1.8
3 7 5 1.6 1.4
7 5 3 4.7 2
-3 7 -5 3.9 2.2
5 7 -3 1.6 2.6
-5 -7 -3 1.8 1.9
-7 5 -3 2.6 2.6
-7 5 -3 -5.4 3.9
5 7 -3 1.3 2.3
7 -3 5 2.8 1.5
-3 -5 -7 1 3.9
7 5 3 2.7 2.2
-3 -5 -7 3.6 1.9
-5 7 3 2.2 2.4
3 7 5 2.2 4
7 5 3 -0.4 3.6
-7 -3 -5 4.9 4.6
5 -3 -7 0.8 2
-5 -7 -3 3.7 4.2
7 3 -5 1.5 2.2
5 7 3 0 2.2
-7 -3 5 5.3 3.9
-3 5 -7 5.1 3
5 -3 7 4.4 2
-5 -7 3 -0.6 3
7 5 -3 1.4 2.5
3 5 7 3.9 4.1
-7 3 -5 -0.1 4.1
5 -3 7 -3.6 3.1
7 3 5 4.4 1.8
-5 3 7 2 2.2
3 5 7 2.8 2.3
7 -3 -5 1.7 5.1
7 -3 -5 0.1 4.4
5 3 -7 4.9 2.3
7 5 -3 3.1 3.6
-7 3 -5 7 3.1
-5 7 -3 4.4 2.6
-7 5 3 2.6 2.6
3 7 -5 4.3 2.3
5 3 -7 -1.6 2.8
5 -7 -3 -2.4 4
-5 3 7 1.3 2.7
-3 7 5 -0.4 2.3
3 7 -5 -1 2.8
5 7 3 0.5 3.9
-7 -3 5 5.5 2
-7 3 -5 5 2.1
5 3 -7 4.7 2.5
3 -7 5 5.3 3.2
3 7 -5 -0.9 2.1
-5 7 -3 0.6 2.2
7 -5 3 8.3 4.1
-3 5 -7 3.9 2.4
3 -5 -7 4.2 1.4
3 -5 -7 5.2 2.3
3 -5 -7 4 4
-7 -5 -3 3.4 3.9
5 7 3 2.7 1.9
-7 -5 -3 2 1.9
-5 -3 -7 1.6 4
7 3 5 2.8 2
-3 -7 -5 2.8 3.7
-5 -3 -7 2.3 2
-3 7 5 8.9 5
5 -7 -3 2.6 1.4
3 -7 5 -2.2 2.9
-3 -7 -5 0.7 1.8
7 -3 -5 6.1 2.1
-7 5 3 1 2
-5 -3 -7 5.6 2.8
-7 -3 5 2.3 1.8
7 3 5 3.8 3.9
-5 7 -3 0.6 2.5
-3 5 -7 7 1.8
-3 -5 7 3.3 2.2
-5 -5 -7 9.9 2.5
-5 5 -7 11.9 2.4
7 5 -5 13.8 4.1
-7 -5 -5 14.8 5.2
-7 -5 5 22.2 4.7
-7 5 -5 14.6 4.9
-5 -7 -5 24.9 5.5
-5 -7 5 11.2 3.2
-5 -5 -7 18 5.4
-5 5 -7 12 4.6
-5 5 7 7.6 5.1
-5 7 5 1.3 5.2
5 -7 -5 5.9 4.9
5 -7 5 8.5 5
5 -7 5 16.6 4.7
7 5 5 11.6 4.9
-7 5 -5 13.6 2.9
-7 5 5 14.5 3.6
-5 -7 -5 15.6 2.8
-5 -7 5 14.7 2
5 7 -5 9.3 3.5
5 7 5 18.6 5.4
7 -5 -5 8.2 5.2
7 -5 -5 7.3 5.1
7 -5 5 16.3 4.8
-7 -5 -5 16.4 2.8
-7 -5 5 14.4 2.5
5 -5 7 13.1 2.6
5 5 7 17.6 3
-7 5 -5 13.1 3.5
-5 5 -7 12 3.3
-5 7 -5 4.7 2.8
5 -7 -5 14.3 2
-5 5 7 8.4 3.5
-7 -5 5 11.5 2.6
-7 5 5 13.9 2.9
5 7 -5 15.6 3.1
7 -5 -5 11.3 2.4
7 5 -5 13.2 3
7 5 5 13.8 2.6
5 5 7 8.3 2.3
-5 7 -5 15.5 3.9
-5 7 5 15.1 3.3
5 7 5 14.1 3.1
5 -5 -7 18.1 2.6
5 5 -7 11.7 2.7
5 -5 -7 13.4 5.1
5 -5 7 18.5 4.2
5 5 -7 14.2 2.7
5 5 -7 12.3 2.6
5 5 7 17.6 5.1
-5 7 -5 13.7 3.1
-5 7 5 9.9 3.6
-5 -7 5 11 2.7
-5 -5 7 16.4 2.8
-5 5 7 13.1 3.1
7 5 5 13.8 2.7
7 -5 5 12.2 2.3
-7 7 1 -3.1 2.8
-7 7 -1 0.8 2.4
-7 1 7 2.6 2.6
-7 -1 7 2.1 2.1
-7 1 7 0 2
-7 7 -1 -2.8 2.2
-1 -7 -7 1.3 2.2
1 -7 -7 -2.1 2
-7 1 -7 0.2 1.9
1 -7 7 -3.9 2.2
1 7 7 0.3 2.3
7 7 -1 1.2 2.9
7 7 1 0.9 2.3
7 -1 -7 2.9 4.7
7 -1 7 -5.3 3.4
7 1 -7 5.7 4.3
7 1 -7 -6.9 3.6
7 1 7 0.7 3.9
7 7 -1 1 4
7 7 1 -0.8 4.4
-7 -1 -7 -8.5 2.8
-7 1 -7 -6 3
-7 7 -1 3.1 3.1
-1 7 -7 0.4 2.4
-7 -7 -1 -0.8 4.3
-7 -7 1 -2.3 3.6
-7 -1 -7 -6.6 3.9
-7 1 -7 0.9 4.4
-1 -7 -7 -3.9 3.8
-1 7 7 2.1 4.3
-7 7 1 6.4 2.3
-1 -7 7 -1.1 2.3
-1 7 7 0.4 2.3
-7 -7 -1 0.2 2
-7 -7 1 -2.1 1.9
1 -7 -7 1 4.1
1 -7 7 1.9 1.7
1 -7 7 -2.4 1.7
1 7 7 4 4
7 -7 -1 -5.9 5.1
7 -7 -1 -1.2 4.6
7 -7 1 -2.5 5.3
7 -7 1 -6 4
7 -1 -7 1.8 5.7
7 -1 -7 -1.9 1.9
7 1 -7 -1.1 2.1
7 7 -1 -0.9 2.2
7 7 1 -0.9 2.1
1 7 -7 4.3 2.6
7 -7 -1 0.7 2
-7 -1 7 -1 2.3
-7 -1 -7 0.9 2.3
-7 -7 3 -0.8 4.1
-7 -7 -3 4.2 4.5
3 -7 7 4.3 2.3
3 7 7 3.2 2.5
7 -3 7 1.5 1.9
7 3 7 1.8 2.1
7 7 -3 0.8 2.9
-3 -7 7 1 2.4
-3 7 7 -1.1 2.3
7 7 3 -0.2 4.3
7 3 -7 0.8 3.5
-7 -3 -7 -1.8 2.3
-7 -3 7 -0.4 2.1
-7 3 -7 2.4 3.4
-7 7 -3 0.8 2.9
7 -3 7 -2.5 4.1
7 3 -7 -3.4 3.8
3 7 7 -0.8 1.6
7 -7 -3 0.4 1.9
7 -3 -7 1.8 2.2
7 3 -7 -2.7 2.3
7 7 -3 0.6 2.4
7 7 -3 -1.7 3.8
-7 -7 -3 2.9 2.4
-7 -7 3 1 2
7 -3 -7 -3.3 4.4
-7 -3 -7 3.1 4.3
-7 3 -7 4.9 4.6
-3 -7 -7 0.3 4.1
-3 7 -7 -1.2 2.5
3 7 -7 -1.8 2.1
7 -7 -3 -5.8 4.1
7 -3 -7 0.5 4.7
7 -7 3 -2.4 4.7
3 -7 7 2.3 2.9
3 7 7 -5.7 4.3
7 -7 -3 -0.3 4.8
3 -7 -7 2.8 4.6
3 -7 -7 -2 2.1
-7 3 7 2.2 2.6
-7 7 -3 1.4 3
-7 7 3 -0.4 2.3
-7 3 -7 1.6 2.2
-7 3 7 1.3 2.8
-7 7 -3 -2.7 2.2
-7 7 3 -2.7 2.9
-3 -7 -7 2.8 2.2
-3 7 -7 4 2.3
-7 -3 7 1.6 2.2
7 3 7 -0.4 4.3
7 7 3 -0.1 2.2
-3 7 7 -0.3 4.9
7 -7 3 -1.4 4.7
3 -7 7 -1.9 3.6
7 7 3 0.6 2.3
5 -7 7 8.8 5.3
5 -7 -7 -1.3 5.2
5 7 -7 8.4 3.1
5 7 -7 7 2
-5 7 7 3.5 5.7
-7 7 5 -0.1 2.9
-5 -7 -7 4.6 2.5
-5 7 -7 2.3 2.5
-7 -7 5 6.8 2.7
5 -7 7 1.3 4
7 5 7 -3.9 4.2
7 7 -5 -0.3 4.3
-5 -7 -7 3.1 4.7
7 5 7 -0.2 2.2
7 7 5 4 2.6
-7 7 -5 7 3.1
7 5 -7 7.7 2.9
7 5 7 3.5 2.6
7 7 -5 6.2 2.8
7 7 5 4.2 2.5
-7 -5 7 5.6 2.4
-5 7 -7 5 3.1
-5 -7 7 5.6 2.8
-5 7 7 2.5 2.8
5 -7 7 0.4 2.2
5 7 7 1.3 2.4
7 -5 7 8.1 2.3
7 5 -7 6.8 3.6
-7 5 -7 9.7 3.5
-7 7 -5 -2.2 3
7 7 5 12.9 5.8
5 7 7 3.6 2.2
7 -7 -5 5.2 2.2
7 -5 -7 5.5 2.4
-7 -7 5 3.7 4.5
-7 -5 -7 4.6 5.4
-7 5 -7 7.9 5.4
-7 7 5 2.3 2.8
-7 -7 -5 5.6 5
-7 -7 -5 6.2 2.7
-7 -7 5 2.1 2.2
-7 -5 -7 4.3 2.5
-7 -5 7 11.5 2.4
5 7 7 22.9 5.9
7 -7 -5 5.3 5.5
7 -7 -5 6.1 5.8
7 -7 5 7.6 5.5
7 -7 5 6.7 5
7 -5 -7 -6.2 5.4
7 -5 -7 4.4 5.7
7 -5 7 13.7 4.9
-7 5 7 5.6 2.8
-7 5 7 7 3.6
-7 5 -7 7.1 2.7
-7 7 -7 1 2.8
-7 -7 7 4.3 2.3
-7 7 -7 4.8 3.5
7 -7 -7 1.1 2.6
7 7 -7 3.4 2.8
7 7 7 4.3 2.7
-7 -7 7 5.3 3.1
-7 7 7 1.4 2.7
-7 -7 -7 3.4 2.6
-7 -7 -7 8.4 5.5
7 -7 -7 2 5.5
7 -7 -7 3.9 6.6
7 -7 7 -3 4.8
7 7 7 -2.7 5.6
7 7 7 6.2 3.1
-7 7 7 8.6 3.8
7 -7 7 9.7 2.7
0 8 0 2210.68 55.89
0 -8 0 2120.49 55.49
-8 0 0 2056.09 51.99
-8 0 0 1832.12 58.69
0 0 8 2082.99 52.09
0 -8 0 2063.59 51.59
0 0 -8 2082.79 51.19
0 0 -8 2057.79 53.99
0 0 8 2142.89 53.89
0 0 -8 2041.2 51.89
0 8 0 2009.4 51.19
8 0 0 2051.19 52.29
0 8 0 2111.79 52.59
8 0 0 1962.3 58.09
-8 0 2 1241.18 33
0 8 2 1276.17 32.1
2 0 -8 1282.67 33.1
-2 0 -8 1304.07 33.4
8 2 0 1256.27 33.5
-2 0 8 1282.47 35.2
0 -8 2 1274.97 35.4
0 8 -2 1319.17 36.4
-8 2 0 1292.17 33.3
-2 0 -8 1242.98 32.5
0 -8 -2 1262.27 32.8
8 -2 0 1221.38 33.3
-8 0 -2 1283.17 37.7
-8 0 2 1073.99 38.9
-2 -8 0 1286.17 36.2
-2 8 0 1349.66 37.8
0 -2 -8 1321.47 36.4
0 -2 8 1262.77 33.2
0 2 -8 1264.97 33.2
0 2 8 1313.37 36
2 -8 0 1272.17 36.6
2 8 0 1347.87 36.9
8 0 -2 1066.59 38.3
-8 0 2 1279.87 31.7
0 2 -8 1232.08 31.4
0 -2 8 1274.37 33
0 8 -2 1230.98 32.7
8 0 2 1294.47 36.9
-2 8 0 1263.57 33.5
2 8 0 1245.68 33.5
-8 2 0 1223.28 37.6
-2 0 -8 1240.98 35.6
-8 0 -2 1275.17 33.1
-2 8 0 1273.67 32.6
0 2 -8 1247.18 33.2
2 8 0 1268.97 32.4
8 0 -2 1294.67 33.3
8 0 2 1281.97 33.4
-8 -2 0 1295.07 33
-2 0 8 1274.17 33.2
0 8 -2 1262.87 33.9
0 8 2 1294.77 33.5
2 0 8 1265.97 32.9
8 -2 0 1294.27 36.8
-2 -8 0 1245.88 32.5
2 0 -8 1246.08 32
2 0 -8 1242.88 34.6
2 0 8 1288.87 35.3
0 2 8 1281.27 33.2
0 -2 -8 1273.07 32.6
-2 8 -2 771.12 21.6
-8 2 2 752.62 19.7
2 8 2 764.12 21.2
-8 -2 2 744.43 20.5
-8 2 -2 752.32 20.9
-8 2 2 732.03 21
-2 -8 -2 748.03 20.6
-2 -2 8 751.12 20.8
-2 2 -8 723.83 19.5
8 2 -2 741.53 21.1
8 2 2 772.72 21.3
-2 2 8 775.12 21.1
-2 8 -2 747.93 21.4
-8 -2 2 776.62 19.7
2 8 -2 748.93 20.6
2 -8 -2 727.63 20.7
2 -2 -8 757.92 20.2
2 2 -8 743.13 19
-2 -2 -8 728.03 20.3
-2 -8 -2 747.13 25.1
-2 -8 2 753.12 22.8
-2 2 -8 721.03 22
-2 2 8 763.22 24
-2 8 2 736.23 25.2
2 -8 -2 728.93 24.4
2 -8 2 711.73 23.2
2 -2 -8 751.92 23.7
2 -2 8 787.92 22
2 2 -8 760.52 20.6
2 2 -8 735.73 20.7
2 2 8 774.82 23.8
2 8 -2 784.82 23.5
2 8 2 766.82 25.3
8 -2 -2 764.22 24.7
8 -2 2 748.63 24.2
8 2 -2 755.92 24
2 8 -2 728.83 21.5
-8 -2 -2 752.32 20.7
-2 8 2 763.82 21.2
8 -2 -2 776.12 20.9
2 2 8 737.13 20.7
-2 -2 -8 798.02 24.4
2 8 2 737.43 19.6
-2 8 -2 729.23 20.7
-2 8 2 772.52 19.7
2 -2 -8 735.43 20.3
2 2 -8 749.03 21.1
-8 -2 -2 778.82 25.2
-8 -2 2 763.32 24.7
-8 2 -2 754.22 25.4
-8 2 2 750.22 25.5
8 -2 2 768.42 21.3
-2 -2 -8 756.92 21
8 2 2 788.22 24.6
2 -2 8 767.02 20.7
-2 2 -8 752.92 21.3
0 -4 -8 1305.47 33.8
0 4 8 1358.06 38.2
8 -4 0 1278.17 38.3
-4 8 0 1269.17 35
4 -8 0 1272.27 38.5
0 -4 -8 1293.77 33.3
4 0 8 1329.67 37
4 8 0 1289.97 33.7
8 0 -4 1348.17 34.3
-8 4 0 1280.07 32.9
-4 0 8 1333.87 34.1
0 -8 4 1264.17 32.6
-4 -8 0 1271.47 33.4
4 0 8 1297.77 33.6
8 4 0 1259.07 33.7
4 8 0 1275.67 34.6
4 0 -8 1263.07 36.3
4 0 -8 1306.67 36.9
8 0 4 1359.86 38
-8 0 4 1318.27 34.2
0 4 8 1291.17 34.3
4 -8 0 1340.97 39.3
-8 0 -4 1273.77 38.4
-4 -8 0 1306.67 37.3
0 -4 -8 1218.78 37.3
0 -8 -4 1327.67 33.9
8 4 0 1279.77 34.3
-8 4 0 1276.97 39.5
-4 0 -8 1231.68 37.1
8 4 0 1356.76 37.8
0 -8 -4 1244.78 37.8
0 -8 4 1260.17 35.2
0 4 -8 1283.77 34.3
-4 0 -8 1340.27 34.8
0 8 -4 1285.17 34
4 0 -8 1341.17 34.2
8 -4 0 1283.57 34.2
-8 -4 0 1328.47 33.9
0 8 4 1277.27 34.4
-4 0 -8 1300.67 33.6
-8 -4 0 1289.07 38.1
-8 0 -4 1310.97 34
4 8 0 1366.76 37.9
-8 0 4 1294.37 33.3
-4 8 0 1298.97 34.3
0 -4 8 1283.97 33.9
0 8 -4 1300.97 35.3
0 8 4 1298.67 38.5
8 0 4 1315.37 34.6
-8 4 0 1304.57 34.5
-4 2 -8 891.71 25.1
4 2 8 871.11 23.9
-4 2 -8 860.81 26.8
-2 8 -4 900.71 25.4
-8 2 4 883.41 23.9
8 -4 -2 861.91 29.8
2 -4 8 912.61 24.5
8 2 -4 873.61 24.3
4 8 -2 887.41 24.2
-8 -2 -4 860.11 28.5
-4 8 2 900.51 25.7
-2 -4 -8 829.92 23.7
-4 -8 -2 874.11 28
-2 8 -4 900.11 24.5
4 -8 2 861.81 27.8
-8 -4 2 871.61 23.7
4 8 -2 897.81 27.1
-4 2 -8 890.51 23.4
4 -8 2 927.71 28.6
2 8 4 903.41 28.6
8 -2 4 900.01 28
8 -4 -2 884.61 24.1
-2 8 -4 853.41 24.3
4 -2 -8 917.31 24
-2 -4 -8 856.01 27.8
4 -2 -8 854.21 27.6
-2 -8 4 875.01 25.2
-2 4 8 932.01 24.8
-4 8 2 913.71 24.6
-8 4 -2 881.11 29.2
-8 4 -2 927.81 23.6
2 -8 -4 862.21 28.5
-4 -2 8 867.11 24.1
2 -4 8 877.41 24
-8 2 4 879.61 24.6
-4 -8 -2 883.11 23.9
-2 4 8 899.91 28.4
8 4 2 919.31 24.6
-4 8 2 877.61 29.4
8 2 -4 931.61 27.5
4 8 -2 886.31 25.2
-2 -4 -8 882.31 24.1
4 2 8 906.61 27.5
-8 -4 2 907.41 23.4
2 4 -8 870.41 24.5
8 4 2 892.01 27.9
8 -4 -2 879.41 28.5
-2 -8 4 852.41 22.7
8 4 2 907.21 23.4
-8 4 -2 864.51 24.4
2 -8 -4 896.31 24.1
2 8 4 903.31 24.7
-8 -2 -4 864.41 24.1
-8 -4 2 877.91 28
-4 -8 2 864.31 26.6
4 -8 -2 879.71 28.7
4 8 2 892.91 23.6
-8 2 -4 881.21 26.2
-8 2 -4 882.71 24.1
-2 8 4 913.81 24.8
2 8 -4 869.71 25.5
2 -8 4 879.41 26.3
-4 2 8 865.81 24.2
-4 8 -2 881.51 24.5
4 2 -8 887.61 24.9
-2 4 -8 894.31 24.7
2 -4 -8 891.91 23.2
-2 8 4 920.01 29.4
-2 -4 8 869.51 24.1
-8 4 2 871.51 23.4
4 -2 8 901.81 26.4
2 4 8 883.31 24.3
-4 -2 -8 873.31 28.2
4 8 2 850.31 24.3
-8 -4 -2 908.31 28.5
4 -8 -2 902.01 23.1
4 -2 8 904.51 23.8
8 -2 -4 896.31 28.2
-2 -8 -4 883.81 24
-4 8 -2 872.91 24.6
2 -8 4 901.41 26.9
2 4 8 895.21 28
-4 -8 2 872.41 23.3
-4 8 -2 880.01 24.9
2 8 -4 895.51 25.7
-8 -2 4 868.21 28
-2 4 -8 907.51 25
8 4 -2 904.61 24.6
2 -4 -8 877.41 28.3
-4 -2 -8 878.21 23.9
4 2 -8 842.32 24.7
-4 2 8 884.31 28.3
-2 -8 -4 898.41 28.6
-2 4 -8 857.51 22.5
2 -4 -8 880.51 23.9
4 8 2 925.31 28.3
8 -2 -4 876.61 29.6
2 8 -4 876.21 24.2
-4 -2 -8 910.11 25.1
-8 -2 4 887.61 23.5
8 2 4 907.41 28.1
4 2 -8 888.41 24.4
-8 -2 4 915.81 24
8 4 -2 880.51 27.5
-8 2 -4 879.61 28.8
-8 4 2 875.41 24.7
8 -2 -4 917.01 24.3
-8 -4 -2 870.11 24
8 2 4 859.81 24.4
8 -4 2 892.11 27.9
-8 4 4 823.02 22.6
4 -4 -8 799.62 22.2
8 4 -4 811.82 25.6
8 4 4 818.42 26.7
-4 -4 8 796.02 22.6
4 8 4 876.31 27.7
-4 -8 4 820.52 24.2
-4 -4 -8 787.72 26.8
-8 -4 4 823.62 26.4
-8 4 -4 826.02 27.8
-4 -8 -4 779.82 26.7
-4 4 -8 830.92 23.6
-4 8 -4 834.02 23.5
-4 4 -8 799.92 22
-4 8 -4 847.02 24.1
8 4 4 829.12 23.1
8 -4 4 808.42 26.3
-8 -4 4 801.22 22.1
4 -8 4 809.92 26.1
4 -4 -8 802.52 27.2
-4 8 4 802.32 23.2
4 -4 8 823.92 22.4
4 4 8 809.72 22.8
4 8 -4 808.22 24.2
4 4 -8 844.82 23.2
-4 4 -8 821.32 25.4
-4 4 8 827.72 27.8
-4 8 4 854.61 28.4
4 -8 -4 770.82 27.1
-4 4 8 789.92 23.1
4 8 -4 840.02 24.7
-8 -4 4 835.32 22.3
-8 4 -4 840.22 22.9
-8 4 4 832.12 23.6
-4 -8 -4 838.12 22.6
-4 -8 4 803.32 21.3
8 -4 -4 842.12 22.5
-4 -4 -8 820.12 23.5
4 8 -4 841.62 23.3
-4 8 4 827.92 24.4
8 4 -4 832.42 23.4
-8 -4 -4 819.72 22.7
4 8 4 865.41 23.2
8 -4 4 785.92 21.2
8 4 4 807.22 21.7
-8 4 -4 867.41 24.9
-8 -4 -4 785.82 27.2
8 -4 -4 841.52 27.5
-4 8 -4 819.22 23.3
4 -4 8 834.62 24.6
4 8 4 807.02 21.7
4 4 8 851.41 27
4 -8 4 813.62 26.5
-4 -4 -8 816.92 22.5
8 -4 -4 768.62 28.3
8 0 -6 493.45 20
-8 0 -6 490.55 19.6
-6 8 0 538.85 15.7
-8 6 0 535.35 16.4
0 -8 -6 514.95 15.3
0 -6 8 507.15 15.5
-8 0 -6 516.05 15.4
8 -6 0 496.65 19.6
0 8 -6 504.45 15.6
6 0 -8 521.05 15.5
0 6 8 509.75 15.9
6 8 0 515.05 16.2
-8 0 -6 508.05 17.4
-6 8 0 514.85 16.7
6 0 8 515.05 15
8 6 0 535.25 15.9
-8 0 6 502.15 15.1
8 0 6 507.25 14.1
-6 0 -8 522.35 16.9
0 8 6 519.85 15.9
6 0 -8 479.65 18.6
6 0 -8 528.25 18.9
-8 0 6 543.75 15.9
-6 -8 0 543.85 15.1
-6 8 0 530.65 16.7
-8 6 0 492.05 15
-6 0 8 526.55 15.4
-6 0 -8 520.45 15.2
-6 0 8 505.55 15.8
6 -8 0 518.85 20.7
6 8 0 519.65 19.1
8 -6 0 477.65 20.8
8 0 -6 523.05 19.2
8 0 6 507.05 19.3
8 6 0 534.65 19.2
0 6 -8 493.45 15.7
6 -8 0 545.05 20.7
-8 -6 0 507.35 15.1
0 8 -6 495.85 17.1
6 0 8 517.05 18.8
0 -8 6 512.85 15
0 -8 6 536.55 15.2
8 -6 0 506.45 15.6
0 -6 -8 508.05 15.2
0 -8 -6 480.15 19.2
6 8 0 498.35 15.4
8 0 -6 497.15 15.5
-6 -8 0 542.15 19.2
0 -6 -8 500.85 19.3
0 6 8 498.85 19.4
-6 0 -8 507.75 19.3
0 8 6 546.25 20.2
8 6 0 504.15 15.7
-8 -6 0 514.45 19.4
6 2 8 356.66 15.3
8 -6 -2 369.06 11.7
-6 -2 8 367.56 11.6
-8 6 -2 353.26 12.1
-8 2 6 352.16 12.4
-6 -8 -2 340.07 15.2
-6 2 -8 348.27 12.8
-2 8 -6 338.47 11.9
-2 -6 -8 347.97 15.3
-6 8 2 353.96 12.9
-2 -6 -8 358.06 11.6
6 -2 -8 329.67 15.4
6 2 8 361.86 11.4
-6 2 -8 355.36 11.3
6 8 -2 357.26 12
-6 -2 8 374.16 11.8
-2 8 -6 367.86 11.6
2 -8 -6 359.06 11.6
-2 6 8 367.96 16.1
-6 -8 -2 374.56 11.5
-2 -8 6 333.37 10.1
-2 -8 6 352.36 10.4
8 6 2 364.96 11.6
-8 -2 -6 347.47 11.7
-8 -6 2 372.66 11.5
-8 6 -2 350.16 13.6
2 -8 -6 336.77 15.5
6 -8 2 348.27 15.7
6 -8 2 375.26 17.1
-8 2 6 349.77 11.7
6 8 -2 381.06 15.4
-6 8 2 357.96 11.9
8 -6 -2 378.96 17.4
-2 6 8 360.26 12.4
2 -6 8 350.36 11.7
8 2 -6 356.66 14.4
6 8 -2 353.66 12.8
8 2 -6 356.06 11.9
8 -2 6 357.76 10.4
-8 6 -2 331.97 12.5
8 6 2 352.06 11.9
8 -2 6 369.06 15.1
8 6 2 366.96 15.4
2 8 6 374.86 16.1
2 6 -8 370.56 12.1
6 -2 -8 362.86 11.7
2 -6 8 348.97 11.2
2 -6 8 340.57 11.7
8 -6 -2 386.06 16.5
-2 8 -6 355.56 13.7
-6 2 -8 346.77 15.6
6 -2 -8 357.76 16
2 8 6 362.66 12.1
-8 -6 2 341.37 15.2
-8 -2 -6 350.36 16.1
2 6 8 343.47 10.3
-8 6 2 361.96 12.8
-2 -8 -6 372.76 11.7
-6 -8 2 358.66 14.7
-6 2 8 355.06 11.9
-8 -6 -2 351.56 11.5
-2 8 6 362.56 12.4
-6 -2 -8 354.56 11.6
-6 8 -2 338.17 12.2
6 2 -8 350.66 13.8
6 2 -8 374.76 13.5
6 2 -8 351.96 11.8
-2 -6 8 363.06 11.9
2 8 -6 347.97 11.9
8 -6 2 350.56 15.4
8 -2 -6 346.77 16.8
-8 2 -6 344.57 15.8
2 -8 6 357.06 12.8
2 -8 6 352.16 12.9
2 -6 -8 342.47 15.7
-6 -8 2 365.86 11.2
-6 8 -2 358.16 12.5
-2 6 -8 351.76 12.1
6 8 2 388.76 16
-2 6 -8 360.06 10.2
2 -6 -8 359.96 11.7
-8 -2 6 357.66 11.4
-8 -6 -2 343.87 15.6
8 6 -2 378.26 15.2
8 2 6 364.86 15.5
-2 8 6 357.06 16.5
-8 6 2 353.06 11.5
-6 2 8 360.26 12.7
2 6 8 351.36 12
6 -2 8 363.56 11.1
6 8 2 355.36 12
-8 2 -6 343.77 11.5
6 -2 8 367.86 15
6 8 2 347.97 11.5
8 6 -2 347.47 12.2
8 2 6 335.67 12
-8 -2 6 373.06 11.6
6 -8 -2 355.56 11
2 6 8 382.96 15.9
6 -8 -2 352.86 16.2
6 -8 -2 367.16 17
-8 2 -6 349.57 13.5
-6 8 -2 341.47 12.6
-2 -8 -6 350.16 15.4
-6 -2 -8 367.16 13.4
8 -2 -6 373.16 11.8
8 -2 -6 349.87 15.9
8 2 6 361.36 10.6
-6 -2 -8 338.57 16
6 -8 4 357.86 16.8
6 -8 4 358.36 16
-8 4 6 370.16 13.3
-6 -8 -4 345.97 15.9
4 8 6 387.96 16.5
-4 -6 -8 369.06 16.5
-4 6 8 391.46 17.6
-8 6 -4 383.66 12.7
-6 8 4 369.16 13.7
8 -6 -4 375.66 17
-4 -8 6 367.16 11.7
-8 6 -4 367.46 13.9
6 8 -4 362.96 12.4
8 -6 -4 343.07 17.3
-8 -6 4 374.96 11.6
-8 4 6 375.16 12.4
-4 8 -6 355.96 12.8
-6 8 4 366.46 12.5
-6 4 -8 369.66 13.2
-4 6 8 376.16 12.7
4 -6 8 350.86 11.7
8 -6 -4 372.26 11.5
6 8 -4 379.86 13.8
6 -4 -8 325.17 16.1
-4 -8 6 372.66 12.3
-8 6 -4 347.37 16.9
8 6 4 378.86 16.1
-6 4 -8 366.06 11.8
8 4 -6 349.77 12.3
4 -6 8 375.36 13.7
8 4 -6 363.06 14.5
6 8 -4 376.96 14.8
4 6 -8 361.56 12.4
-4 -6 -8 365.76 11.9
8 -4 6 393.46 16.1
-8 -4 -6 353.96 16.3
4 -8 -6 348.67 16.5
-8 -6 4 360.56 15.4
4 8 6 354.66 10.8
6 -4 -8 376.46 11.8
-6 4 -8 364.56 16.3
6 -4 -8 370.06 17.1
-6 -4 8 362.76 11.1
8 6 4 358.76 12.2
4 8 6 357.86 12.4
6 4 8 379.26 15.8
-8 -6 4 368.76 11.8
8 6 4 363.86 11.8
-6 -4 8 367.16 12.1
-6 -8 -4 373.76 11.9
6 4 8 379.06 12.1
-8 -4 -6 369.16 12.2
-4 8 -6 373.26 12.3
4 -8 -6 362.26 12.3
8 4 6 360.96 11.4
-6 8 -4 369.16 13.5
4 -6 -8 353.16 16.8
-4 8 6 367.36 12.7
8 6 -4 352.86 15.1
6 -8 -4 349.27 16.7
6 -8 -4 395.96 18
4 6 8 362.96 12.1
-4 -8 -6 348.77 11.8
-8 6 4 377.76 12.3
-6 8 -4 358.46 13
4 -8 6 351.66 15.3
4 -6 -8 376.86 10.7
4 -6 -8 379.56 12.3
-4 6 -8 360.26 11.3
6 4 -8 370.16 12.5
-4 -8 -6 346.77 15.9
8 6 -4 360.96 12.5
-4 8 6 352.56 16.9
-8 4 -6 369.96 12.1
-8 4 -6 357.66 17.2
6 8 4 361.66 12.2
4 8 -6 349.87 11.6
-8 6 4 368.56 13.3
-6 -4 -8 364.96 11.8
-6 -4 -8 337.87 15.9
6 -4 8 343.27 14.9
6 4 -8 354.26 12.9
6 4 -8 356.16 12.5
-8 -4 6 361.96 11.6
-4 -6 8 362.76 12.1
4 6 8 365.56 15.8
4 -8 6 384.56 14.5
-6 -8 4 367.76 11.1
-6 8 -4 370.86 12.8
6 8 4 382.96 16.3
-8 -6 -4 382.76 16.9
-6 -8 4 355.16 14.2
-6 4 8 358.36 12.3
-6 4 8 368.36 13.7
8 -4 -6 353.56 17.1
8 -4 -6 374.86 17.3
-8 -4 6 359.06 11.8
8 -6 4 386.06 16.3
6 -4 8 373.46 11.7
8 4 6 366.86 12.4
4 8 -6 372.76 12.4
-8 -6 -4 378.56 12
6 -8 -4 354.16 10.8
-8 -4 6 342.87 15.4
6 8 4 367.66 11.7
8 -4 -6 357.36 11.6
-8 4 -6 383.06 13.8
8 4 6 376.96 16.1
-4 6 -8 363.96 12.8
-8 -6 6 174.88 7.8
8 -6 -6 190.68 7.6
8 6 -6 187.18 8.4
8 -6 -6 179.58 13
8 6 6 194.58 7.9
-6 8 -6 189.38 8.7
-6 8 6 186.78 10.1
6 8 -6 201.48 8.8
8 -6 6 191.98 7.4
6 8 6 183.88 7.7
6 6 8 187.58 11.7
6 8 -6 196.58 9.9
8 6 6 192.88 8.2
-8 6 -6 182.38 8.3
-8 6 6 191.58 9.3
-6 -8 -6 197.48 8
-6 -8 6 180.88 6.7
-8 6 6 200.18 8.6
6 -8 6 203.28 13.2
6 -8 6 188.78 11.7
6 -6 -8 195.98 12.6
6 -6 8 173.88 13.4
6 6 -8 182.68 7.1
6 6 -8 189.18 7.2
-8 6 -6 188.58 9.5
-6 6 -8 179.98 8.8
6 8 6 183.78 12.1
8 -6 -6 177.08 13.2
-6 -6 -8 188.68 7.9
-6 6 -8 191.38 8.1
-6 6 8 186.48 10
8 6 6 182.28 11.8
6 6 8 184.18 7.9
-8 -6 6 196.18 7.6
6 -6 8 187.28 7.7
6 6 8 186.18 8.2
8 -6 6 195.68 12.2
8 6 -6 191.38 10.9
-6 -8 6 189.68 8
-6 -6 8 199.38 8.1
-8 -6 -6 198.78 12.3
-8 -6 6 201.98 11.7
-8 6 -6 205.48 13.7
-6 -8 -6 177.38 11.7
-6 -6 -8 166.08 12.2
-6 6 -8 193.38 19
6 -8 -6 186.98 12.6
-6 6 8 192.98 8.5
-6 8 6 204.98 8.8
-6 8 -6 188.48 9.2
6 -6 -8 201.68 7.7
6 8 6 187.98 8.2
-8 -6 -6 187.98 7.9
6 6 -8 177.78 8.4
8 -8 0 358.26 18.1
-8 -8 0 400.86 12.7
-8 0 -8 390.86 15
0 8 -8 374.06 13
8 0 -8 396.66 13.1
8 8 0 390.36 13.4
8 0 -8 392.96 18
8 0 -8 385.36 17
8 0 8 396.06 17.1
8 8 0 398.46 16.7
-8 0 -8 403.26 12.9
-8 0 8 396.16 13.4
8 -8 0 389.96 17.6
-8 -8 0 366.56 17
-8 0 -8 406.06 18.2
0 -8 -8 372.16 16.8
0 8 8 410.46 17.7
-8 8 0 412.46 14.1
0 -8 -8 405.96 12.8
-8 0 8 384.06 12.8
-8 8 0 397.26 13.1
0 -8 8 400.06 12.9
0 8 8 400.86 13.2
8 0 8 386.16 12.2
8 8 0 391.76 13.8
-8 -2 8 363.66 11.6
8 -2 8 333.57 10.6
8 2 8 325.97 10.9
8 8 -2 315.77 12.7
8 8 2 320.87 11.7
-8 -8 -2 327.37 15.8
-8 -8 2 328.17 15.1
-8 -2 -8 305.97 15.5
-8 2 -8 316.87 16.6
-2 -8 -8 329.67 15.6
-8 2 8 326.77 11.6
-8 8 -2 347.87 12.2
-2 -8 8 334.37 11.5
-2 8 8 312.47 11.7
2 -8 8 313.47 11.2
2 8 8 338.57 11.9
-8 -8 2 344.37 11.1
-8 -2 -8 338.57 11.6
-8 -2 8 339.87 11.6
-8 2 -8 310.07 11.2
-8 2 8 327.97 12.5
-8 8 -2 330.87 12.3
-8 8 2 324.47 12.5
-2 -8 -8 335.57 11.3
2 -8 -8 364.86 12
2 -8 -8 296.97 15.5
2 -8 8 339.47 11.2
2 -8 8 335.87 11.1
2 8 8 321.27 15.9
-8 -8 -2 334.97 11.2
-8 2 -8 318.77 12.9
-8 8 -2 332.37 13.6
-2 8 -8 323.97 11.9
2 8 -8 329.17 11.8
8 -8 -2 331.37 11.2
8 -2 -8 335.57 11.4
8 2 -8 330.27 11.6
8 8 -2 320.27 11.6
8 8 2 327.17 11.5
8 2 -8 338.27 14.6
8 2 8 314.57 14.9
8 8 -2 341.87 15.5
8 8 2 338.87 15.6
8 -8 -2 327.37 16.6
8 -8 2 311.97 17.1
8 -8 2 318.27 15.6
8 -2 -8 335.67 16.7
8 -2 -8 334.37 16.3
8 -2 8 322.37 14.8
8 2 -8 309.57 15.1
8 -8 -2 284.27 16.3
-2 8 8 350.96 17
-8 4 8 262.37 11.4
-8 8 -4 261.87 11
-8 -4 8 266.47 9.9
-8 4 -8 276.77 10.1
-8 -4 -8 242.28 14.5
-8 4 -8 255.77 14.7
-4 -8 -8 255.87 14
-4 8 8 253.97 15.2
4 -8 -8 240.08 14.8
4 -8 8 293.87 12.3
4 8 8 262.57 14.6
-8 -8 4 268.67 10.1
-8 -4 8 272.67 10
-8 4 8 263.87 10.4
-8 8 -4 275.77 11.8
-8 8 4 266.17 10.5
-4 -8 8 249.97 9.8
-8 -8 -4 262.57 14.3
-8 -8 4 254.27 13.4
8 -8 4 258.87 15.3
8 -8 4 270.37 14.4
8 -4 -8 218.58 15
8 -4 -8 259.77 14.8
8 -4 8 293.67 14.4
8 4 -8 249.08 13.3
8 4 -8 282.97 12.8
8 4 8 263.27 14.6
8 8 -4 270.67 13.6
8 8 4 256.27 14.6
8 4 8 267.27 9.7
8 8 4 264.77 10.3
-8 -8 4 283.87 9.4
-8 -4 -8 274.87 10.3
-8 4 -8 275.67 11.6
-8 8 -4 270.57 11.8
-4 8 -8 254.57 10.6
4 8 -8 273.57 10.5
8 -8 -4 274.37 9.5
8 -4 -8 264.67 10
8 4 -8 275.37 10.5
8 4 8 259.87 10.2
8 8 -4 275.57 10.6
8 8 4 256.07 10.1
8 -8 -4 251.57 15.2
-8 -8 -4 270.57 9.9
4 -8 -8 271.37 10
8 -8 -4 266.97 15.6
4 -8 8 267.27 9.8
4 8 8 261.37 10.3
-4 8 8 265.47 10.4
-4 -8 -8 266.67 10
-8 8 4 258.37 11.2
8 -4 8 262.57 9.3
8 -8 6 156.48 11.9
8 -8 -6 147.49 14.3
6 -8 8 171.28 13.2
-8 -6 -8 157.38 7.6
8 -8 6 153.08 13.6
-8 6 8 147.09 9.5
-8 8 -6 145.49 8.2
-8 8 6 155.08 9.1
-6 -8 -8 146.49 7.2
-6 8 -8 150.88 8.2
-6 8 8 153.38 7.7
8 -6 -8 124.49 12.1
8 -6 -8 153.88 14
6 -8 8 136.39 11.1
6 8 8 133.99 11.5
-8 8 -6 137.19 8.8
-6 8 -8 153.78 8.6
6 8 -8 156.18 8.1
6 8 8 156.28 7.2
8 -8 -6 150.78 7
8 -6 -8 153.98 7.4
8 6 -8 136.29 7.9
8 6 8 155.78 7.7
8 8 -6 143.49 8
-8 6 -8 144.19 7.9
-8 6 -8 125.89 8.6
-8 -8 -6 152.28 7.2
8 -6 8 175.58 12.2
8 6 -8 151.18 10.2
8 6 -8 150.08 9.9
8 6 8 149.69 11.7
8 8 -6 161.58 11.2
8 8 6 138.69 13
6 -8 8 145.79 7.1
6 8 8 151.68 7.8
8 -8 6 142.89 7.2
8 -6 8 149.29 7
8 6 8 163.88 7.8
8 8 6 155.18 7.9
-8 -8 6 156.08 7.6
-8 -6 8 160.58 7.5
-8 6 8 152.88 7.9
-8 8 6 160.98 8.2
-6 -8 8 157.98 7.6
-8 6 -8 150.88 13.6
8 8 6 143.89 7.6
-8 -8 -6 161.38 15.5
-8 -8 6 165.88 7.3
-8 8 8 92.79 8
8 -8 8 100.19 11.8
-8 -8 -8 92.29 6
-8 8 -8 91.89 7.8
8 -8 8 93.29 6.5
8 8 -8 106.29 6.9
-8 -8 8 96.79 6.3
8 8 8 107.49 7
8 8 8 110.09 7.1
-8 8 -8 93.49 7.7
-8 8 8 99.49 7.3
1 9 1 91.99 8.4
1 9 -1 97.09 8
1 -1 -9 88.99 7.2
1 1 9 93.89 7.2
1 1 -9 102.39 6.1
1 9 -1 94.79 5.7
1 -1 9 95.59 6.6
1 -9 -1 85.79 7.9
1 -9 1 91.89 7.1
1 1 9 93.49 5
-1 -1 9 100.29 5.3
1 9 1 92.19 5.4
-1 9 -1 95.19 5.7
-1 9 1 100.79 5.5
1 -1 9 87.19 4.9
9 1 -1 98.99 7.9
9 1 1 98.09 8
-1 9 -1 102.09 4.9
-1 9 1 98.29 4.4
1 -1 -9 102.99 5.1
-1 1 9 91.19 5
-9 -1 -1 92.19 8.5
-9 -1 1 99.59 8.3
-9 1 -1 94.69 9
-9 1 1 101.69 8.7
-1 -9 -1 78.89 7.1
-1 -9 1 87.59 7
-1 -1 -9 88.59 7.5
-1 -1 9 82.19 6.2
-1 1 -9 96.59 6.4
-1 1 9 96.69 7.2
-1 9 -1 87.79 8.3
9 -1 1 90.39 5.3
9 1 -1 96.09 5.4
9 1 1 101.49 5.4
-9 1 1 96.69 5.5
-1 -9 -1 97.49 4.8
-1 -9 1 94.29 4.5
-1 -1 -9 97.29 4.6
-1 1 -9 95.79 4.2
1 -9 -1 91.19 4.7
1 -9 1 94.29 4.6
1 -1 -9 98.29 4.5
1 1 -9 92.99 3.9
9 -1 -1 94.79 5.1
9 -1 -1 93.99 8.1
9 -1 1 93.59 7.7
-1 -1 -9 103.09 5.4
-1 1 -9 88.79 5.2
-9 -1 1 94.89 5
-9 1 -1 98.59 5.3
1 9 1 98.09 4.2
1 1 -9 94.89 5.3
1 9 -1 95.99 4.8
-9 -1 -1 95.29 5.2
-1 9 1 100.89 8.6
1 -9 -3 68.19 4.6
-9 -1 -3 62.39 7.7
-3 9 1 73.99 5.2
9 -1 3 61.09 4.7
-3 9 1 65.09 4.5
-1 -3 -9 72.59 4.7
-3 1 -9 73.19 5
-3 1 -9 65.49 6.4
1 3 -9 60.29 4.5
3 9 -1 57.89 4.4
-1 -9 3 60.39 5.9
-9 -3 1 63.99 7.7
-9 -1 -3 58.29 4.6
9 1 -3 69.99 4.7
-1 9 -3 70.99 4.6
1 9 3 80.89 8
3 -1 -9 60.79 6.5
-1 3 9 67.99 4.6
-1 9 -3 60.39 5.1
-3 9 1 68.19 6.2
-1 -3 -9 64.19 3.9
-3 -9 -1 62.59 7.2
-9 1 3 71.29 5.1
-3 9 1 58.39 8
-1 -3 -9 63.69 7.4
1 -9 -3 70.79 7.4
-1 3 9 67.99 7.9
-9 1 3 61.49 3.8
1 -3 9 68.69 4.7
9 3 1 60.69 4.7
3 1 9 61.89 4.6
3 -9 1 65.99 6.9
3 9 -1 58.09 7.2
3 -1 -9 67.19 4.5
3 9 -1 68.79 5.4
9 -1 3 68.59 7.4
9 1 -3 55.29 6.8
9 3 1 56.89 7.2
3 1 9 57.69 7
9 -3 -1 68.09 7.6
-3 -1 9 60.09 4.4
9 -3 -1 66.69 4.7
-9 1 3 63.89 7.8
-9 -3 1 67.89 4.4
-9 3 -1 65.69 4.9
1 9 3 72.49 5.1
1 -3 9 57.89 4.4
-3 1 -9 69.69 3.9
-9 3 -1 74.79 8.4
-1 -9 3 64.59 3.8
-3 -9 -1 63.59 3.9
-9 -3 1 70.19 3.4
3 -1 -9 65.09 4
9 -1 -3 62.89 4.4
-1 -9 -3 57.49 4.1
1 -3 -9 69.49 4.3
-3 1 9 62.89 7.1
9 1 3 75.19 7.5
3 1 -9 67.49 6.2
3 9 1 61.59 7.9
-1 3 -9 71.59 4.8
9 3 -1 66.09 7
1 9 -3 65.19 6.8
3 -1 9 69.39 6.3
1 3 9 60.69 7.3
3 -9 -1 59.79 7.3
-9 -1 3 70.89 4.5
-9 1 -3 67.09 4.5
-3 -9 1 57.49 6.4
3 9 1 64.79 4.1
-3 -9 1 63.89 4
-3 9 -1 65.09 4.6
-9 1 -3 69.99 8.5
3 1 -9 65.49 3.5
1 -3 -9 66.59 4.1
-9 -3 -1 60.39 4.3
1 9 -3 60.59 5.6
-9 3 1 67.09 5.2
-9 -3 -1 50.79 7.2
1 -9 3 68.59 3.7
-3 -1 -9 64.09 7.6
-9 3 1 66.09 8.1
-9 -1 3 67.69 7.5
-3 -1 -9 72.89 5
-1 3 -9 63.89 4.6
9 1 3 62.59 4.8
-9 -1 3 60.59 3.6
1 -3 -9 65.39 7.7
-3 9 -1 65.99 5.1
3 1 -9 65.99 5.5
-1 -3 9 66.59 4.6
9 3 -1 67.89 4.8
-3 -1 -9 68.49 4.3
-3 1 9 71.99 4.9
9 -1 -3 72.79 7.2
3 9 1 70.19 5.1
-9 -3 -1 62.49 2.9
-1 -9 -3 65.59 7.1
1 9 -3 58.69 4.5
-1 9 3 63.29 8
3 1 -9 65.79 4.8
1 -9 3 60.09 6.4
9 -3 1 62.39 4.8
9 -3 1 60.89 7.2
3 -1 9 67.89 4.7
1 3 9 64.29 4.8
-1 9 3 61.99 4.7
-3 9 -1 78.79 6
3 -3 -9 49.5 7.2
3 -9 3 49.8 7.5
3 3 -9 46.9 2.5
3 3 -9 47.1 2.5
3 3 9 51.39 7.4
3 9 -3 52.09 6.1
3 9 3 50.29 7.2
9 -3 -3 62.49 8.9
9 3 3 49.99 7.1
-9 -3 -3 46.6 4.2
-3 3 9 45.1 7.1
-3 -3 -9 56.59 4.8
3 -3 9 44.5 5.6
3 -9 3 45.8 6.5
3 9 -3 46.5 4
3 9 3 48.9 3.4
-3 9 3 46.4 7.9
3 -9 -3 45 7.2
-9 -3 3 47.3 4
-9 3 3 46.1 3.9
-3 -3 9 36.7 4.1
-3 3 9 38.7 4.1
-3 9 -3 50.09 5.2
-3 9 3 47.6 4.6
3 -3 9 43.9 3.8
3 3 9 48.8 4.3
3 9 -3 40.2 5.3
3 -3 -9 46 4
-9 -3 3 42.5 4
-9 3 -3 48.7 4.3
-9 3 3 43.4 4.9
-3 -9 -3 47.3 3.9
-3 -9 3 50.79 3.7
-3 -3 -9 41.3 3.7
-3 3 -9 39.2 3.4
-3 9 -3 46.4 5.6
9 -3 3 61.09 7
-3 3 -9 47 4.6
-3 9 -3 43.5 4.4
3 -3 -9 53.69 4
3 3 -9 50.19 4.3
9 3 -3 65.29 7.3
9 -3 -3 57.39 7.2
9 -3 -3 49.2 4.3
-9 -3 3 51.69 7.5
-9 3 -3 62.59 8.5
-3 -9 -3 46.6 7.1
-3 -9 3 52.89 6
-3 -3 -9 52.49 7.4
-3 3 -9 53.69 6.1
3 9 3 45.3 4.7
-9 -3 -3 52.49 8.2
9 3 3 52.89 4.6
9 3 -3 40.3 4.1
9 5 1 46.3 4.3
1 9 5 54.39 7.9
-1 9 -5 41.9 5.4
5 -9 1 53.49 7.8
5 -1 -9 48.2 6.8
-1 -9 5 47.7 5.7
-9 1 5 51.39 4.2
5 1 9 45.2 4.1
9 5 1 49.2 4.7
-5 1 -9 50.49 4.1
-1 5 9 43 4.4
-1 -9 5 47.7 3
1 -9 -5 46.6 4.2
5 9 -1 49 5.2
-1 -5 -9 46.2 4.4
-5 -1 9 49.1 4.7
1 5 -9 41 4.4
-5 1 -9 44.4 4.9
-9 -5 1 51.39 7.7
-9 5 -1 56.99 8.3
5 -1 -9 45.6 4.5
-9 5 -1 44.4 4.2
-9 -1 -5 39.4 4.4
9 1 -5 41.8 4.1
-9 5 -1 54.39 4.8
5 1 9 51.89 7
-9 -1 -5 42.6 7.1
9 -5 -1 47 7.3
-9 1 5 48.3 4.8
1 9 5 48.9 4.8
-5 -9 -1 52.79 4.1
9 -1 5 43.5 6.6
-5 9 1 45.2 4.7
9 1 -5 51.09 7.8
5 9 -1 44 4.3
1 -5 9 42.4 4.3
-1 9 -5 49.5 4.3
-5 -9 -1 56.39 7.6
5 -9 1 49.1 7.3
-1 -5 -9 48.1 7.3
-1 5 9 55.39 7.5
9 5 1 62.79 7.7
-9 -5 1 35.6 4.3
9 -5 -1 44.4 4.4
1 -9 -5 53.99 7.5
-5 9 1 44.3 5.1
9 -5 -1 38.2 7.5
5 9 -1 47.6 6.8
-5 9 1 45.1 5.3
5 -1 -9 49.4 7.5
-9 -5 1 42.9 4.1
-1 -5 -9 36.7 3.7
9 -1 -5 46.1 7
9 5 -1 41.2 4.4
-9 1 -5 39.6 4.4
9 -5 1 48.3 4.3
-9 5 1 47.2 3.8
5 -9 -1 52.79 7.8
9 1 5 46 7.2
-1 9 5 40.3 4.4
1 9 -5 45 5.4
-9 1 -5 46 7.4
1 5 9 45.6 4.8
1 9 -5 43.6 4.7
-5 -1 -9 49.2 7.2
5 1 -9 40.4 4.1
5 -9 -1 50.79 8
1 5 9 53.79 7.5
-1 -5 9 44.8 4.1
1 -9 5 42.4 5.3
1 -9 5 48.1 3.4
-5 9 -1 51.79 5.1
1 -9 5 49.6 6.2
-9 -1 5 53.19 8
-5 -9 1 43.3 4
-5 9 -1 53.29 5.2
9 -1 -5 58.79 8.6
-1 5 -9 39.6 4.3
1 -5 -9 51.09 3.8
-5 1 9 48.3 4.2
-1 -9 -5 45.5 4
5 9 1 46.5 4.3
5 9 1 54.89 4.9
5 1 -9 55.69 6.6
9 1 5 53.89 4.8
-9 5 1 44.5 4.8
-5 -1 -9 39.5 3.8
9 5 -1 42.5 6.9
-1 -9 -5 54.89 7.1
-1 9 5 49.4 7.5
5 -1 9 44.3 4.1
-5 9 -1 42.6 4.8
5 -1 9 46.7 10.5
5 1 -9 58.59 6.1
-5 -1 -9 40.7 5.4
1 -5 -9 42.4 4
-9 -1 5 44.1 4
-9 -5 -1 43.7 7.2
-5 -9 1 49.4 6.9
-9 -1 5 45.1 4.5
5 9 1 49.1 7.1
1 -5 -9 44 6.8
9 -1 -5 45.1 4.2
9 -5 1 55.99 7.5
-9 -5 -1 49.9 4.5
5 -9 3 44.4 7.4
5 -3 -9 37.1 4.2
-3 -5 -9 39.4 4.6
5 3 9 37.6 6.9
5 9 -3 37.5 4.5
-5 3 -9 35.6 3.9
5 9 -3 32.5 4.7
-3 -9 5 32.7 3
-9 3 5 35.7 4.7
3 -9 -5 31.9 4
-9 5 -3 31.2 5.2
-9 -3 -5 35.6 6.9
3 -5 9 38.4 5.3
3 -9 -5 30.6 6.5
9 -3 5 28.2 6
-5 -3 9 34.8 3.9
-9 -5 3 45.5 4.2
5 9 -3 42.2 6.4
3 -5 9 38.1 3.8
-3 -5 -9 42 4.3
-3 5 9 38.1 7.2
-9 5 -3 43.5 7.5
-5 9 3 33.7 4.2
-3 9 -5 40.4 4.7
3 5 -9 33.1 4.3
-3 9 -5 31.7 4.2
-9 5 -3 35.6 4.2
-5 -9 -3 36.1 6.6
9 5 3 46.5 7.3
5 -9 3 32.8 6.5
-9 -5 3 44.5 7.1
-9 -5 3 35.2 3.9
9 3 -5 41 6.1
5 -3 -9 27.7 6.1
3 9 5 32.7 4.1
9 3 -5 35.3 4.3
-9 -3 -5 29.8 3.7
9 5 3 34.9 4.2
-5 9 3 36.6 4.9
-5 3 -9 40 6.5
-5 3 -9 43.3 5.2
9 5 3 34.8 4.1
9 -5 -3 38.3 4.2
3 9 5 41.3 7.7
9 -5 -3 29.3 7.7
9 -5 -3 37.5 7.3
5 3 9 40.3 4.1
-3 9 -5 26.8 4.5
-9 3 5 38.2 4.1
-5 -9 -3 30.4 3.7
-3 5 9 39.6 4.7
-3 -5 -9 38 6.7
-9 -3 5 31.2 4
5 3 -9 38.2 4.7
-3 -9 -5 34.6 6.4
-3 5 -9 39 4.5
-3 9 5 62.29 9.4
-5 9 -3 33.7 4.3
3 -9 5 25.9 5.2
9 5 -3 41.9 6.5
-3 5 -9 41.2 3.5
-9 3 -5 35.2 4.6
-9 -3 5 40.1 3.9
3 5 9 38.6 6.8
-5 9 -3 38 5.1
3 -5 -9 35 6.4
9 3 5 38.4 4.2
-9 -5 -3 28.7 7.2
-5 -3 -9 32 6.8
-5 -9 3 41.6 6.2
3 -9 5 39.4 6
5 9 3 55.79 8.4
9 -3 -5 28.9 7.3
9 -3 -5 43.2 7.4
5 -9 -3 30.4 6.9
3 5 9 37.4 4.3
9 -3 -5 37.9 4
5 9 3 35 4.4
-3 9 5 37.8 4.8
-3 -5 9 32.4 4.2
5 -3 9 36.8 5.8
3 -5 -9 34.8 4.2
-9 -5 -3 34.7 4
-5 3 9 37.7 4.2
3 -5 -9 37.7 3.6
-9 -3 5 33.5 6.4
-9 3 -5 35.6 7.2
-9 5 3 36.3 4.8
-5 -3 -9 35.5 3.8
9 5 -3 36.1 4.4
-3 5 -9 25.3 4.6
3 9 -5 31.2 5.1
9 3 5 42.1 4.9
5 -9 -3 35.1 3.1
5 -3 9 37.6 3.9
-9 3 -5 37.7 5.4
-5 9 -3 33.9 4.4
5 3 -9 35.5 4.6
3 9 -5 40 5.1
-5 -3 -9 29.3 4.5
9 -5 3 46.8 7
-9 5 3 31.4 4
3 9 -5 35 3.9
5 9 3 31.7 3.7
5 3 -9 29.7 4.2
-5 -9 3 38.4 3.6
-3 -9 -5 35.9 4
9 3 5 44.7 6.9
-5 5 9 29.5 4.2
-9 -5 5 21.5 6.1
5 -9 5 21 6.5
-9 -5 5 24.4 3.4
-9 5 5 26.3 4
-5 -5 9 18.7 3.2
-5 -9 5 22.7 2.7
-5 -5 -9 24.6 3.4
-5 5 -9 20.6 3.1
-5 9 -5 28.3 4.3
-9 5 -5 27 4.9
5 9 -5 22.3 4.8
5 -9 5 15.8 5.9
5 -5 -9 24.8 6.5
5 -5 9 19.2 5.1
5 5 9 16.9 5.7
-9 -5 -5 19.2 6.6
-5 9 5 23.9 3.9
-5 5 -9 18.9 3.9
-5 9 -5 21.2 3.9
5 9 -5 27.1 5
5 -5 -9 31.3 4.1
5 5 -9 26.7 4
5 9 -5 21.7 3.7
9 -5 -5 24.1 3.4
9 5 -5 25.4 3.9
9 5 5 22.6 3.6
-5 -9 -5 21.1 6
-5 -9 5 24.7 7.8
-5 -5 -9 22.3 6.3
-5 5 -9 27.9 5.9
-5 9 5 26.9 7.6
-9 -5 -5 20.5 3.3
-9 -5 5 26.5 3.4
-9 5 -5 26.3 3.9
-9 5 5 20.4 4.2
-5 -9 -5 31 3.8
-9 5 -5 26.6 6.4
9 -5 5 21.2 5.5
5 -5 9 28.1 3.6
5 5 9 15.5 3.3
5 -9 -5 34.8 7.7
9 -5 5 24.6 2.9
9 5 5 25.9 3.6
-5 9 5 15.5 4.2
5 -5 -9 24.4 3.8
-5 5 9 26.9 7.1
5 9 5 16.8 3.5
5 9 5 26.7 7.2
9 5 5 21.7 5.9
9 5 -5 29 5.8
9 -5 -5 27.2 7.5
9 -5 -5 23.9 6.5
-5 9 -5 23.1 4.6
7 -9 1 21.2 7.1
-1 -7 -9 19.1 3.1
9 -7 -1 8.3 5.7
7 9 -1 15.1 3.3
9 -7 -1 18.1 3.3
-7 9 1 11.6 3.9
9 1 -7 20.7 6
-9 1 7 4.4 2.8
9 7 1 10.6 5.6
7 9 -1 18.9 5.8
9 -1 7 8.3 5.4
9 1 -7 20.6 7.2
7 1 9 15.2 5.7
-1 7 9 15.7 5.8
-9 -7 1 13.6 3
-1 -7 -9 11.2 5.1
-9 1 7 13.1 3.6
-7 -9 -1 19.6 3.2
9 7 1 12.3 3.5
-9 7 -1 15.3 3.5
7 9 -1 14.5 3.6
-7 -1 9 12.8 3
7 -1 -9 12.3 5.8
7 1 9 18.9 3.2
-7 1 -9 13.9 5.9
9 -7 -1 10.2 6.5
1 7 -9 16.7 3.6
-7 1 -9 21.3 4.5
-1 9 -7 13.7 3.3
-7 9 1 17.8 3.8
7 -1 -9 10.1 2.9
-1 7 9 13.2 3.4
1 -7 9 15.7 3.3
-7 1 -9 16.2 3.2
-9 7 -1 13 3.7
9 1 -7 13 3.2
1 -9 -7 14.4 5.6
7 -9 1 12 6.2
1 9 7 10.7 5.9
7 -1 -9 8.7 5.6
1 9 7 13.3 3.5
1 -9 -7 12.7 2.9
-9 -1 -7 10.1 2.9
-9 -1 -7 14 5.8
-1 -9 7 15 3.3
9 7 1 9.3 3
-7 -1 9 8.1 3.5
-9 -7 1 4.5 5.3
-7 -9 -1 20.5 6.4
9 -1 -7 27.5 7.4
-1 -7 9 15.6 3.1
9 -7 1 16.4 3.5
1 -9 7 16.5 3.6
-1 -9 -7 15.9 3
1 -7 -9 13.4 2.8
9 -1 -7 13.3 6
9 -7 1 21.8 7.1
-1 9 7 19.4 5.9
-9 -7 -1 11.8 2.8
9 7 -1 10 5.2
-7 1 9 7.3 3.7
-9 7 1 18.6 4
1 9 -7 13.8 3.2
7 9 1 9.6 5.5
7 9 1 9.6 2.8
9 -1 -7 13.3 3.2
-7 9 -1 16.6 3.9
1 -7 -9 15.6 5.2
1 7 9 18 3.5
-9 7 1 20.3 3.6
7 9 1 13.8 3.7
-7 1 9 15 3.2
-9 -7 -1 8.6 5.8
-7 -1 -9 14.9 3.1
7 1 -9 16.1 3.4
-7 -1 -9 10.9 4.4
7 -1 9 6.7 5.5
7 -9 -1 12.5 6.2
-9 1 -7 15.6 6.5
-9 -1 7 13.5 3.5
-1 9 7 12.4 3.4
-7 9 -1 15.9 3.7
7 -1 9 14.3 2.8
9 -7 1 17.1 6
9 7 -1 11.6 4
-1 7 -9 16.8 3.5
7 -9 -1 10.5 2.7
-7 -9 1 15.5 5.3
1 -9 7 20.1 3.5
-7 -1 -9 26.9 7.1
-9 -1 7 10.3 2.9
-9 1 -7 12.4 3.1
-9 1 -7 12.2 4.1
1 7 9 20.9 5.8
7 -9 -1 1.1 5.1
7 1 -9 7.7 5
9 7 -1 17.6 3.5
9 1 7 5.1 4.6
-1 -9 -7 19.2 5.8
-7 -9 1 18.4 3.1
7 1 -9 10.1 5.3
-7 9 -1 12.2 4.3
7 9 -3 11.1 4.3
9 -3 7 13.2 2.7
9 7 3 20.4 6.3
-7 9 3 2.3 3.6
7 -9 3 9.8 5.7
7 9 -3 16.9 6
-7 3 -9 5.6 3.8
-3 9 -7 11.3 3.4
9 7 3 14.5 3.5
-7 3 -9 13.3 6.5
-3 -7 -9 7.7 5.7
3 -7 9 7.4 3
-3 -7 -9 9.4 2.9
7 9 -3 10.5 3.1
-9 -7 3 11.8 5.5
-9 -3 -7 13.7 3.3
9 3 -7 10.6 3.2
3 7 -9 12.8 3.5
3 -9 -7 9.1 3
9 7 3 10.7 3.4
-3 7 9 15.9 6
9 3 -7 2.3 5.2
7 -3 -9 11.3 6.2
3 -7 9 11.6 3.6
9 -7 -3 20 6.6
-7 9 3 9 3
9 -7 -3 7.3 2.8
3 9 7 9.9 3.2
-7 -9 -3 8.1 2.9
-9 -7 3 17.3 3.2
-9 7 -3 10 4.2
-9 7 -3 15.3 4.3
9 -3 7 14.1 5.7
7 3 9 13.4 3.3
3 9 7 26.4 6.9
-9 7 -3 10 3.2
-9 -7 3 14.8 3.4
-3 -9 7 12.1 3.2
-7 3 -9 13.6 3
7 -3 -9 5 6.3
-7 -9 -3 10.1 5.6
-3 9 -7 13.9 3.8
-9 -3 -7 5.7 5.5
9 -7 -3 14.9 6.8
7 3 9 8.9 5.2
-3 7 9 12.8 3.3
-7 -3 9 14.2 3.2
3 -9 -7 5.8 5.1
7 -9 3 12.1 6.3
-9 3 7 12 3.7
-9 3 7 12 3.2
7 -3 -9 8.6 2.9
3 -7 9 18.4 5.5
9 3 7 12.7 5.6
3 -9 7 9.6 4.5
-7 9 -3 14.6 4.1
9 -3 -7 11.1 7.1
-9 3 -7 11.3 4.2
7 -9 -3 14.2 2.9
-3 -9 -7 15.8 2.9
7 9 3 7.7 3
3 7 9 12.8 2.5
-9 7 3 4.8 3.4
-9 -7 -3 21 6.7
-3 -9 -7 18.8 5.7
7 3 -9 12.7 3.2
7 9 3 13.2 6.1
3 -7 -9 5.9 2.6
-3 -7 9 11.8 3.4
-9 -3 7 10.2 3.2
7 9 3 16.8 3.7
3 7 9 10.4 3.3
9 3 7 15.8 3.3
-3 9 7 27.5 7.6
9 -7 3 25.2 6.2
9 -3 -7 11.7 3
-7 9 -3 8 4
-7 -3 -9 11.1 4.2
-7 -9 3 15.7 5.7
-9 -7 -3 11.6 3.1
7 -9 -3 22.4 6.9
3 9 -7 15.6 3.6
-3 9 7 10.2 3.3
-7 -3 -9 12.4 3.2
7 -3 9 18.8 3.2
9 7 -3 13.4 5.5
9 -3 -7 14.9 6.1
9 3 7 12.8 2.9
-9 -3 7 8.7 2.9
-9 7 3 11.7 3.4
7 -9 -3 6.5 5.9
-7 3 9 15.3 3.6
-7 3 9 10.9 4.4
7 -3 9 16 5.7
9 7 -3 12.1 3.2
-9 3 -7 10.9 5.8
3 7 9 2.4 5.7
3 -7 -9 14.4 6.4
-7 -9 3 19.2 3
-7 9 -3 13 3.9
-7 -3 -9 11.4 5.8
7 3 -9 10.8 4.3
-9 3 -7 10.3 3.1
-3 7 -9 13.3 3.6
-5 7 9 12.5 3.5
9 7 5 13.4 3.7
5 9 7 12 3.6
7 9 -5 7.5 3.1
9 7 5 14.5 3.4
-9 5 7 10.9 3.5
-9 -7 5 8.8 2.9
-9 7 -5 7.8 3.4
-7 9 5 6.6 4.2
-7 5 -9 14.2 3.8
-5 9 -7 8.2 3.8
5 7 -9 10.9 3.1
7 5 9 7.8 3
7 -5 -9 8.4 3.2
5 -9 -7 9.1 3.3
-7 -9 -5 11.8 6.4
-7 -5 9 13.1 3.3
9 5 -7 10.3 5.6
-5 -9 7 8.3 3
-7 5 -9 13.9 3.3
-5 -7 -9 14.1 3.2
-9 -7 5 10.1 3.2
-5 9 -7 9 3.8
-9 -5 -7 5.6 3
7 -5 -9 20.8 6.4
-7 9 5 4.9 3.2
-9 5 7 12.8 4.3
9 -5 7 16 3.1
-7 -9 -5 4.5 2.9
5 9 7 13.5 6.4
-5 -7 -9 1.5 6.5
-5 7 9 20.9 7.6
5 -7 9 15.6 3.4
5 -7 9 12.1 5.4
9 7 5 12.6 5.9
5 9 7 10 3.5
7 -9 5 7 6.5
7 -9 5 3.8 6
7 9 -5 16.2 5.9
9 -7 -5 7 7.3
7 5 9 7.9 2.9
9 5 -7 12.5 3.7
9 -5 7 18 6
9 -7 -5 11.4 3
7 5 9 2.6 5.7
-7 5 -9 1.3 6
-9 7 -5 5.1 4.2
-9 -7 5 13.5 6
7 -5 -9 20.5 7.5
9 5 7 15.3 6.5
7 -9 -5 20.4 7.6
-9 5 -7 0.9 6.1
-9 -7 -5 3.4 2.6
9 -5 -7 9.3 7.1
7 5 -9 8.7 4
5 -9 7 9 3.2
-9 -5 7 11 3.2
-9 7 5 14.4 3.7
-7 -9 5 11.4 3.4
-9 -5 7 10.8 3.1
-9 5 -7 9.4 3.5
9 7 -5 15.1 3.6
5 -7 -9 8.2 6.3
-7 -9 5 10 2.7
-7 9 -5 6 3.6
7 9 5 7.6 5.9
9 -7 5 0.7 5.5
-7 9 -5 8.3 3.9
-5 7 -9 10.3 3.8
-7 5 9 12.8 3.8
5 7 9 12.9 2.9
7 -9 -5 6.2 4.3
9 -5 -7 1.9 5.8
9 -7 5 13.2 3
9 5 7 16.5 3.5
7 -5 9 13 5.5
-7 9 -5 9 4.5
-9 7 5 7.7 4
-7 -5 -9 4.8 2.8
-5 9 7 8.5 3.6
-7 5 9 6.6 4.3
-5 -9 -7 5.1 2.6
7 -5 9 13.5 3.4
9 5 7 8 3.4
-9 5 -7 14.2 4.4
-7 -5 -9 -5.2 5.8
-5 -7 9 7.2 3
-5 9 7 15.1 7.5
5 -9 7 -4.9 5.7
5 7 9 9.9 3.3
7 9 5 10.4 3.4
7 9 5 19.3 3.4
5 7 9 -1.4 5.6
5 9 -7 7.3 3.3
9 7 -5 14.6 6.1
7 5 -9 11.1 3.3
-5 7 -9 12.8 3.3
5 -9 7 3.7 5.2
5 -7 -9 10.8 3.4
9 -5 -7 8.9 3.2
7 5 -9 10.6 4
7 -9 7 3.7 2.9
7 -7 9 11.4 3.2
7 7 9 -1 3
7 9 7 7.3 3.3
7 -7 -9 3.5 9.2
-7 -7 9 5.2 2.9
-7 7 9 9 3.6
-7 -9 7 6.8 3.4
9 7 7 7.5 3.4
-9 -7 -7 5.3 2.9
-7 9 7 9.9 3.6
9 7 -7 3 6
-7 7 -9 6 3.9
-7 9 -7 7.9 4.1
7 7 -9 4.3 3.2
7 7 9 2 3.1
7 -9 7 -1 5.8
-9 -7 7 -0.6 3
-9 7 7 2.5 3.5
-9 -7 7 10 4.4
-9 7 -7 3.7 3.5
-9 7 7 -2.1 3.7
-7 -9 -7 1.9 2.6
-7 7 -9 -0.4 3.3
-7 9 -7 10.1 4.1
-7 9 7 1 6.7
9 -7 7 7.8 6.4
-9 7 -7 -0.1 6.3
9 7 -7 -0.5 2.9
9 -7 7 12.9 3.3
7 -7 9 19.1 6.5
7 9 -7 0.7 3.3
7 9 7 11.7 3.5
9 -7 -7 0.1 3.2
9 7 7 6.1 3.5
-9 -7 7 12.3 7
9 1 -9 22.1 6.8
-9 9 -1 15.1 4.2
-9 1 9 14.6 4.5
9 9 1 7.3 6.8
9 -9 -1 16.4 3.8
9 -9 1 11.8 3.5
9 -1 -9 18.2 3.8
9 1 -9 12.8 3.4
-9 -9 -1 12.2 3.2
-9 9 1 15.5 4.2
9 9 -1 11.1 3.3
9 9 1 14.6 3.9
-9 1 -9 19.1 3.9
-1 -9 -9 13.6 3.1
1 -9 -9 14 3.3
9 -9 -1 6.6 6.2
9 -9 1 8.9 6.7
9 -1 -9 23.3 7.1
9 -1 -9 19.2 7.2
9 -1 9 1.5 5.9
9 1 -9 12.2 6.8
9 1 9 12 6.3
9 9 -1 4.9 6.3
-9 -1 9 15.3 3.5
-9 1 9 17.1 3.8
-9 9 -1 9 4
-9 9 1 14.5 3.8
-1 -9 9 10.9 3.3
-1 9 9 6.3 3.3
1 -9 9 12.5 3.3
1 9 9 12.7 3.5
9 -1 9 12.5 3.1
9 1 9 11 3.5
9 9 -1 13.2 4.7
9 9 1 17.7 4.7
1 9 -9 16 3.6
-1 9 9 13.5 7.1
-9 -1 -9 17.6 4.9
-9 1 -9 14.7 4.6
-1 9 -9 20.5 4.1
-9 -9 1 16 3.4
-9 -1 -9 9.1 3.3
-9 -1 9 21.7 4.5
-9 1 -9 14.2 7.2
1 9 9 8.8 6.5
-9 3 9 9.7 3.8
-9 -9 -3 16.5 3.3
-9 -9 3 9.4 3.2
-9 -3 -9 5.3 3.1
-9 -3 9 14.5 4.2
-9 3 -9 11.9 3.4
-9 3 9 8.4 4.7
-9 9 -3 18.4 4.4
-9 9 3 11.9 4.4
-3 -9 -9 10.5 3.3
9 9 3 13.9 3.8
-9 -9 3 12.3 6.6
-9 3 -9 11.8 7.5
9 -9 3 2.4 6.2
9 -3 -9 3.4 7.2
9 -3 -9 15.9 7.5
9 -3 9 1.4 6.1
-9 3 -9 6.8 4.1
-9 9 -3 4.8 4.4
-3 9 -9 7.6 3.6
3 9 -9 8.7 3.4
9 3 -9 13.1 11.8
9 3 9 14.9 6.3
9 9 -3 13 6.5
9 9 3 8.3 6.3
9 -9 -3 14 3.2
9 -3 -9 14 3.6
9 3 -9 8.3 3.3
9 3 9 13.3 3.9
9 9 -3 11.7 3.4
-9 -3 9 10.9 3.5
9 9 3 14.1 4.1
-9 9 -3 4 4.5
-9 9 3 10.3 4
-3 -9 9 11 3.3
-3 9 9 9.5 3.6
9 -3 9 2.1 3.1
3 -9 -9 8.7 3.4
3 -9 9 6.7 3
3 9 9 13.6 3.6
9 3 9 11.5 3.3
-9 -9 -5 3.4 2.6
-9 5 -9 6.3 4
-9 5 9 10.1 3.6
-9 9 5 3 3.7
-9 -9 5 10.2 7.9
-9 5 -9 35.9 8.9
9 -9 5 25.1 7.6
9 -5 -9 -4.7 8.1
9 -5 9 11.7 7
9 9 -5 10.8 7
9 -5 9 12.1 3.4
-9 9 -5 0.7 4.8
-5 9 -9 8.6 3.9
5 9 -9 8.8 3.4
9 -9 -5 5.7 3.3
9 -5 -9 11.2 3.8
9 5 -9 3.5 3
9 5 9 2.5 3.3
9 9 5 7.6 3.5
5 -9 -9 7.9 3.2
-5 -9 9 3.3 3.3
-5 9 9 7 3.5
5 -9 9 11.8 3.2
5 9 9 2.5 2.9
-9 5 9 6 4.6
9 5 9 8.1 3.5
9 9 5 19 4.2
-9 9 -5 2.7 3.6
-9 9 5 4.4 4.1
-5 -9 -9 7.8 3
-9 -9 5 4.8 3.4
-9 -5 -9 1.2 2.8
-9 5 -9 6.7 3.3
-9 -5 9 9.6 3.3
-9 -9 5 2.3 3.2
7 9 9 7.9 3.7
9 9 7 -1.9 3.7
-9 -7 -9 0.8 2.9
-9 7 -9 -5 3.9
-9 7 9 0.9 4.3
-9 7 -9 -2.2 10.1
9 7 -9 2.7 3.1
9 7 9 2.2 3.6
9 -9 7 13 7.3
-9 9 -7 -0.5 4.3
9 9 -7 4.5 3.3
9 -7 9 5.4 3.8
-9 -9 -7 6.7 3
7 -9 -9 2.9 3.4
-9 9 7 1.5 3.6
-7 -9 9 6.5 3.3
-9 9 -7 4.8 4.4
9 9 7 2.6 3.8
-7 9 -9 2.6 5
-9 7 -9 0.8 3.8
-7 -9 -9 5.4 3
-9 7 9 4.7 3.7
-7 9 9 3.1 3.5
7 -9 9 -0.5 3.3
9 -7 9 10.5 7.5
9 -9 7 6.7 3.6
9 7 9 9.1 4.2
-9 9 7 1.4 4.3
-7 9 -9 -3.2 3.4
-9 -9 7 5.8 3.7
7 9 -9 4.3 3.3
-10 0 0 323.67 11.3
10 0 0 351.66 15.3
0 10 0 345.57 15.3
-10 0 0 323.27 15.6
0 -10 0 345.77 14.8
0 0 -10 350.36 11.5
0 0 -10 337.67 13.6
0 0 10 340.67 13.5
0 0 10 340.97 11.2
0 10 0 337.67 11.9
10 0 0 335.77 11.5
0 10 0 318.77 10.5
0 -10 0 354.36 10.9
0 0 -10 343.57 10.4
-2 10 0 220.28 13.2
2 0 -10 203.98 10.5
10 2 0 225.58 12
2 0 10 234.78 11
10 -2 0 233.78 12.3
2 -10 0 210.38 11.6
2 10 0 213.48 11.8
-10 -2 0 206.38 8.2
-10 2 0 220.78 8.7
-2 0 -10 233.08 7.8
0 -10 -2 220.18 8.1
-10 0 -2 212.68 12.3
-10 0 2 208.08 12.9
-2 -10 0 220.98 11.6
-10 0 -2 220.98 8.5
-10 0 2 210.08 8.3
-2 -10 0 212.78 7.8
0 -2 -10 224.68 7.8
0 2 -10 209.58 6.7
2 -10 0 218.68 8.1
-2 0 10 228.58 11.1
10 0 -2 233.98 12
10 0 2 212.78 11.7
-10 -2 0 216.08 12.4
-10 2 0 221.88 12.9
-2 0 -10 214.98 11.1
2 10 0 204.28 8.9
0 -10 -2 205.28 11.3
0 -2 -10 220.78 8.5
0 2 -10 223.78 8.7
2 10 0 215.68 7.8
10 0 -2 216.48 8.4
10 0 2 212.58 8.7
0 -2 -10 203.48 11.2
0 -2 10 200.48 8.8
0 2 -10 216.68 9.1
0 2 10 224.58 11.5
-10 0 2 206.38 6.7
-2 10 0 218.98 9
0 -2 10 226.58 8.5
10 2 0 197.78 8.4
2 0 10 221.98 8.4
0 10 -2 204.18 9.1
0 10 2 208.48 9
-2 0 -10 222.38 8.9
0 2 10 217.78 8.5
0 -10 2 203.68 10.9
0 10 -2 229.68 12.4
0 10 2 221.88 12.6
2 0 -10 214.48 8.4
10 -2 0 213.58 8.6
0 10 -2 213.48 8.1
0 10 2 203.58 6.8
-2 0 10 217.38 8.5
0 -10 2 213.68 7.6
-2 -2 10 138.19 6.5
-2 -10 -2 149.69 10
2 -2 10 143.09 6.6
2 2 10 150.68 6.9
-2 -10 -2 138.99 6.3
-2 -10 2 140.39 6
2 10 -2 141.69 7.4
-10 2 -2 132.19 10.8
-10 2 2 136.69 11.2
2 10 2 148.59 10.5
10 -2 -2 152.48 10.4
10 -2 2 140.49 9.7
10 2 -2 131.69 9.4
10 2 2 140.29 9.9
2 -10 2 132.69 9.8
10 -2 -2 145.39 7
10 -2 2 146.79 7
10 2 -2 155.08 7.2
-10 -2 -2 133.79 10.9
-2 -2 -10 158.08 7.3
-2 2 -10 146.39 7
-2 10 -2 142.29 6.6
2 -2 -10 144.29 6.6
-2 -10 2 137.39 9.1
-2 -2 -10 142.19 10
2 10 2 151.48 7.1
-10 -2 -2 150.08 6.7
2 2 10 148.49 10.2
2 10 -2 147.69 9.9
10 2 2 146.39 6.9
-10 -2 2 130.99 10
-2 2 -10 158.38 5.7
2 -10 -2 144.89 6.3
2 -10 2 146.19 6.2
2 -2 -10 147.19 6.2
2 2 -10 134.79 4.9
2 2 -10 138.29 6.8
2 2 -10 145.59 7.3
2 10 -2 134.29 6.5
2 10 2 145.09 5.5
2 -2 10 139.59 8
-10 -2 2 152.68 6.7
-2 2 10 135.19 6.6
-2 10 -2 141.99 7.6
-2 10 2 143.99 7
-10 -2 2 139.69 5.3
-2 -2 -10 154.98 6.5
-10 2 -2 146.49 6.7
2 2 -10 154.08 7.2
-2 2 10 143.69 10.2
-2 10 2 142.79 10.9
-10 2 2 134.99 5.3
-10 2 2 145.99 7.1
2 -10 -2 132.29 10.3
2 -2 -10 148.29 9.4
-2 2 -10 150.78 8.6
4 0 -10 262.77 12.7
0 4 -10 275.07 9.9
0 -10 -4 227.38 12.8
-4 -10 0 268.37 9.1
0 10 -4 250.37 10.6
4 10 0 244.38 10
4 0 -10 241.08 11.8
0 4 10 278.77 13.9
-10 4 0 238.28 14.5
4 0 10 276.97 9.4
0 -4 -10 240.28 12.8
0 -10 4 243.98 11.3
10 0 -4 267.77 14
10 0 4 265.37 13.1
0 -10 4 267.47 8.5
4 0 -10 247.98 8.6
-4 -10 0 245.88 12.5
-10 0 -4 236.48 9.3
-10 0 4 249.18 9.6
-10 -4 0 261.77 9.5
-10 4 0 252.97 9.9
-4 10 0 256.27 10
10 4 0 266.97 10
4 10 0 247.98 9.4
10 0 -4 255.67 9.5
-10 -4 0 247.58 7.9
-4 0 10 256.27 9.6
0 -4 -10 268.87 9.5
-4 10 0 261.27 10.1
0 -4 10 267.27 9.6
0 4 10 248.68 9.7
4 10 0 282.77 14.2
-10 -4 0 252.07 13.4
10 -4 0 269.27 10
10 0 4 264.27 9.9
-4 0 -10 257.87 13.3
0 -10 -4 263.97 9.3
-10 0 -4 248.88 14.1
-10 0 4 247.68 14
-4 0 -10 244.28 9
-4 10 0 242.78 11
0 -4 -10 257.77 9.1
4 0 10 260.37 12.6
0 10 4 267.57 13.9
10 4 0 261.07 13.2
0 10 -4 258.67 9.5
-4 0 -10 263.47 10.4
0 10 4 246.68 9.8
4 -10 0 253.27 13.4
10 -4 0 270.77 13.4
4 0 -10 247.18 9.5
-10 -4 2 186.68 6.8
-2 4 10 194.08 12.3
-4 10 2 184.58 9.3
4 2 10 197.18 7.9
4 10 -2 184.98 7.9
4 -10 2 172.88 12.6
-2 -4 -10 174.58 7.5
4 -10 2 191.68 11.8
4 -2 -10 189.28 7.9
-2 -4 -10 181.18 8.2
10 -4 -2 189.88 7.9
2 10 4 180.38 11.9
4 -2 -10 180.08 11.2
10 4 2 189.78 8.1
-4 -2 10 182.08 7.7
10 -4 -2 187.88 11.6
-2 10 -4 185.18 9.1
10 -4 -2 162.88 12.6
-10 -2 -4 185.48 11.7
4 10 -2 181.58 8.8
-10 -4 2 163.88 11.2
-4 -10 -2 178.98 11
-4 10 2 207.48 13.1
-4 2 -10 196.68 11.1
10 -2 4 194.38 11.3
10 2 -4 192.28 11
-4 2 -10 182.08 8.6
4 -2 -10 198.18 7.5
-2 4 10 189.08 8.1
-10 2 4 186.78 7.5
-4 2 -10 187.98 7.2
10 2 -4 193.68 8
10 4 2 182.18 11.3
2 4 -10 181.18 8.1
-2 -4 -10 172.58 11.9
-10 -4 2 195.28 7.8
2 -4 10 189.08 8.1
-2 10 -4 185.18 8.1
-10 -2 -4 194.78 8
-2 -10 4 187.18 9.8
-4 10 2 186.58 8.2
2 -4 10 190.18 8.2
2 -10 -4 173.88 11.2
-10 2 4 188.58 8.3
2 10 4 170.38 8
-10 4 -2 197.88 8.5
-2 -10 4 188.88 6.8
10 -2 4 185.68 8.2
4 2 10 191.38 11.7
-10 4 -2 191.08 12.7
-4 -10 -2 210.78 7.9
2 -10 -4 179.48 7.6
4 2 -10 194.98 8.7
4 10 2 182.58 7.3
-10 4 2 194.38 8.7
-10 2 -4 173.58 11.8
-10 -2 4 191.58 7.3
-4 -2 -10 174.88 12
-4 -2 -10 176.68 7.5
2 10 -4 184.38 9.1
-10 2 -4 189.58 8.1
-4 10 -2 177.58 8.2
-10 -4 -2 197.48 7.9
-2 4 -10 184.28 8.3
10 2 4 183.68 8.1
2 4 10 193.48 8.1
10 4 -2 204.78 12
2 -4 -10 183.98 7.4
4 -2 10 201.28 10.2
-10 -4 -2 163.38 11.5
-4 10 -2 167.78 9.1
4 -10 -2 178.48 11.7
-10 -2 4 209.78 12.2
4 -2 10 191.88 7.7
4 2 -10 179.88 8.4
-4 2 10 192.08 8.1
-4 10 -2 182.98 8.4
-2 10 4 186.28 8.4
-10 4 2 179.18 6.9
2 -10 4 177.28 11.1
4 10 2 178.48 8.3
4 10 2 184.88 11.7
10 -2 -4 197.58 13.1
10 -2 -4 160.28 11.4
-4 2 10 175.28 11.7
-4 -2 -10 182.38 8.7
10 2 4 199.38 11.6
-2 10 4 175.68 12.5
2 10 -4 185.78 7.8
2 -10 4 190.28 11.1
4 2 -10 170.48 7.9
2 10 -4 175.88 10.6
10 -4 2 177.08 8
10 4 -2 177.38 8.1
-4 -10 2 187.08 7.2
2 -4 -10 180.68 11.2
-2 -4 10 183.88 8.1
2 4 10 198.88 11.9
2 -10 4 186.48 7.1
-2 -10 -4 183.08 11.4
10 -4 2 200.88 12.1
-10 -2 4 189.98 7.8
10 -2 -4 176.28 7.7
-2 -10 -4 200.98 7.9
-2 4 -10 180.68 8.5
2 -4 -10 194.88 7.6
4 2 -10 179.98 6.2
4 -10 -4 204.48 12.7
-4 4 -10 197.08 10.9
-4 10 -4 181.58 9.1
4 -10 4 164.98 11.5
10 4 4 201.68 12
10 -4 4 214.88 12.5
10 4 -4 207.78 11.9
-10 -4 -4 181.08 12.3
4 10 4 182.58 7
-10 4 -4 189.78 13.2
-4 -10 -4 178.98 11.4
-4 -10 4 187.38 10.4
-4 -4 -10 188.28 12.5
4 10 -4 209.98 11.4
-4 4 10 195.28 12.7
-4 10 4 238.78 14.4
-4 10 -4 186.58 9.6
-4 10 4 188.58 8.7
4 -10 4 184.68 12.2
4 -4 -10 185.18 12.7
4 -4 10 182.38 10.3
4 4 10 187.78 11.4
-4 10 -4 199.78 9.1
4 -4 -10 198.58 7.8
10 -4 -4 189.28 12.2
4 10 -4 196.18 8.4
4 -10 -4 205.88 8.4
-4 4 10 202.88 8.7
-10 -4 -4 198.98 8.2
-10 -4 4 203.68 8.1
-10 4 -4 194.48 8.2
-10 4 4 181.58 8.9
-4 -10 -4 192.28 8
-4 -10 4 191.78 7.2
-4 -4 -10 196.98 8.1
-4 4 -10 188.38 7.3
-10 4 4 212.08 8.1
-4 -4 10 190.38 8.1
4 -4 -10 202.38 8.1
10 -4 -4 185.88 13.8
-4 -4 -10 198.08 9.4
-4 4 -10 189.38 8.8
10 -4 -4 199.88 8.1
4 4 -10 191.38 8.3
4 -4 10 194.28 7.9
4 4 10 195.38 8.3
4 10 -4 203.18 9.9
4 10 4 206.08 8.6
-10 -4 4 196.88 12.3
10 4 -4 194.38 8.6
4 10 4 187.48 12.4
-10 -4 4 194.58 7.8
10 4 4 191.78 8.3
0 10 -6 130.09 6.9
-6 -10 0 134.79 6.6
0 -6 -10 123.99 11.2
6 10 0 156.88 10.9
-6 0 -10 144.79 6.8
-6 0 10 133.09 6.7
-10 0 6 147.19 6.7
-6 10 0 135.29 8.5
-10 -6 0 140.19 6.8
0 6 10 134.39 7.1
0 -10 6 150.38 8.8
10 6 0 147.19 7.5
10 -6 0 129.19 12
0 10 6 150.48 11.7
6 0 -10 117.29 9.7
6 10 0 139.89 8
-10 0 -6 138.29 6.9
6 0 10 137.99 6.7
0 -10 6 126.39 5.3
-10 0 6 139.09 7.5
-6 0 -10 148.29 8.5
-6 10 0 137.89 8.4
0 6 -10 131.09 7.3
10 6 0 141.89 10.9
6 -10 0 183.58 17.9
6 0 -10 144.19 7.1
0 10 6 133.69 7.3
-6 10 0 141.39 7.5
0 -6 10 139.39 6.7
6 10 0 135.99 6.8
10 0 -6 135.39 6.9
-10 0 -6 130.79 11.7
-6 -10 0 159.08 10.6
10 -6 0 138.79 10.5
0 6 10 136.69 11.7
6 0 10 124.69 9.9
6 -10 0 134.89 12.3
0 -6 -10 137.39 6.7
10 0 6 156.68 11.2
6 0 -10 137.39 10.9
-6 0 -10 136.09 11.3
0 -10 -6 125.29 10.2
-10 6 0 140.39 7.5
0 -10 -6 139.89 6.7
10 0 -6 136.39 12.5
0 10 -6 137.69 8.4
10 -6 0 137.09 7.1
10 0 6 136.69 7.2
10 0 -6 131.49 10.2
6 -2 -10 105.69 10.4
2 10 6 121.69 11.2
-10 -6 2 120.99 6.3
-6 2 -10 116.49 7.6
-2 -6 -10 111.19 9.8
-2 6 10 105.49 11.1
6 -2 -10 114.69 6.4
-10 -6 2 108.99 5.9
10 -2 6 117.59 9.8
6 2 10 111.69 6.3
-10 6 -2 122.59 7.4
-10 -6 2 113.59 10.3
10 6 2 112.09 7
10 6 2 103.49 9.7
2 -6 10 111.19 6.2
-10 2 6 110.09 6.4
6 -2 -10 107.89 11
10 2 -6 103.89 10
-6 -10 -2 112.69 6.1
2 6 -10 107.69 6.6
10 -6 -2 113.49 6.3
-10 -2 -6 103.69 6.4
-6 2 -10 118.59 6.3
10 6 2 108.19 6.4
2 -10 -6 111.79 6.1
-10 2 6 116.99 7.3
6 -10 2 107.39 10.9
6 10 -2 112.69 7.7
6 10 -2 106.09 6.5
-2 -6 -10 112.79 6.2
10 -6 -2 107.49 10.8
-2 10 -6 113.19 8.2
-6 2 -10 96.89 10.2
-6 -2 10 113.49 6.2
-2 6 10 111.99 6.5
6 2 10 116.19 10.1
10 -6 -2 96.89 12
-6 10 2 112.79 6.9
-2 -10 6 99.19 6.6
-6 10 2 117.89 8.4
2 -10 -6 107.39 10.2
10 2 -6 111.59 6.5
2 10 6 115.29 6.7
-10 -2 -6 112.29 10.7
6 10 -2 94.59 10.2
-10 6 -2 106.39 6.8
-2 10 -6 124.79 7
6 -10 2 115.49 10
-2 -6 -10 104.89 7.1
6 -10 -2 117.69 11.3
-10 -6 -2 117.29 6.4
-10 -2 6 105.69 6.1
10 -2 -6 123.59 11.3
-2 -10 -6 105.99 9.7
10 -2 -6 106.59 11.2
2 -10 6 114.19 8.7
-10 2 -6 103.59 10.5
6 2 -10 121.19 8.4
-2 6 -10 120.49 7.2
-2 10 6 121.49 7.1
6 -10 -2 121.29 5.9
2 6 10 110.39 6.4
6 -2 10 104.09 9.4
6 -2 10 112.49 6.1
-6 -10 2 112.69 5.8
6 10 2 127.29 10.9
-6 2 10 120.69 6.7
10 2 6 121.09 6.8
6 -10 -2 131.59 10.9
-6 -2 -10 119.29 8.1
6 10 2 106.89 6.5
6 10 2 113.79 6.2
-6 -2 -10 101.89 10.3
2 10 -6 119.69 6.9
10 6 -2 116.09 10.1
-10 6 2 112.59 6.4
-10 -2 6 84.59 10.8
-10 -6 -2 110.49 10.1
10 2 6 113.19 9.7
-6 10 -2 111.89 7.2
-10 6 2 108.79 7
-6 -2 -10 114.99 6.4
10 6 -2 115.39 6.5
-2 -10 -6 103.49 5.8
-2 10 6 118.59 11.5
2 -10 6 115.99 5.6
2 -6 -10 102.19 10.3
2 10 -6 99.59 8.1
-6 -10 2 126.69 10.3
-10 -2 6 112.99 6.5
-10 2 -6 110.39 6.4
2 6 10 85.49 9.6
6 2 -10 109.99 6.6
2 -6 -10 107.99 6
10 -6 2 103.39 6.4
-6 10 -2 122.29 7.9
10 -6 2 101.99 10.1
-6 10 -2 115.99 7.7
-2 -6 10 111.99 6.1
10 -2 -6 116.89 6.2
6 10 -4 104.59 6.6
-10 -6 4 117.29 6.3
6 -4 -10 121.19 6.7
4 -6 10 114.39 8.7
-10 4 6 106.59 7.7
-10 4 6 123.59 6.9
6 -10 4 116.69 11.1
10 6 4 100.69 10
-6 4 -10 116.09 10.7
10 -6 -4 111.49 6.2
10 -4 6 104.49 10
6 -10 4 124.19 11.1
-10 -6 4 116.39 6.4
-10 6 -4 106.59 11.7
-10 6 -4 105.79 7.1
10 6 4 115.59 6.8
10 4 -6 117.59 6.9
-6 -10 -4 119.19 6.3
-4 10 -6 113.59 7.4
-6 10 4 116.49 7.1
-6 10 4 108.19 7.9
6 4 10 104.69 10.6
6 -4 -10 143.39 12.2
-4 10 -6 119.49 8.5
6 -4 -10 79.09 11.2
6 10 -4 110.09 10.4
-10 -4 -6 113.19 6.3
10 4 -6 113.29 9.9
-6 4 -10 125.39 7.4
-4 6 10 124.29 6.9
-10 6 -4 106.49 8.1
-6 -10 -4 92.29 9.8
6 4 10 113.39 6.8
10 6 4 105.79 6.9
10 -6 -4 139.69 19.5
-10 -6 4 107.59 10.9
-6 4 -10 116.19 6.5
4 6 -10 98.39 6.5
4 10 6 100.99 10.6
-4 -6 -10 122.39 6.6
4 -6 10 112.69 6.3
-6 -4 10 105.69 6.2
6 10 -4 111.89 8.2
4 -10 -6 113.39 6.5
-4 6 10 122.79 11.3
-4 10 -6 126.09 8.2
10 -6 -4 114.39 11.7
4 10 6 117.29 6.7
-10 6 4 105.09 7.3
4 6 10 120.59 6.4
-6 -4 -10 112.99 6.6
10 4 6 138.69 7.3
4 -6 -10 117.09 6.4
-10 -6 -4 97.39 11.4
-4 10 6 123.69 12.7
4 -10 6 93.29 9.8
-10 -4 6 130.19 11.7
-4 6 -10 114.99 6.1
4 6 10 110.99 6.4
-6 4 10 114.79 7
-6 -10 4 126.99 6
4 10 -6 116.29 6.9
6 10 4 124.59 7
6 4 -10 114.09 6.5
-10 -6 -4 111.79 6.2
10 6 -4 116.19 6.8
4 -10 6 114.39 9.8
10 -6 4 134.19 11.1
10 6 -4 130.99 10.8
-6 10 -4 109.29 7.5
-10 4 -6 108.19 8.2
10 -4 -6 119.69 6.3
-4 6 -10 110.79 7.2
6 10 4 112.29 10.7
4 6 10 111.79 10.3
6 -10 -4 142.49 16.8
-6 -4 -10 101.59 10.6
6 10 4 109.39 6.2
-6 10 -4 118.29 7.9
-6 10 -4 126.49 7.9
-4 -6 10 108.39 6.2
10 -4 -6 95.69 11.9
4 -6 -10 121.99 6
4 10 -6 108.69 9.4
-6 -4 -10 119.29 8.4
6 4 -10 119.59 6.2
10 -4 -6 130.19 12.2
-10 -4 6 117.89 6.6
10 4 6 113.19 6.8
4 -6 -10 112.09 11.2
-4 -10 -6 111.79 6.1
6 -10 -4 108.49 12
-4 10 6 103.49 6.7
-10 6 4 117.49 6.8
10 4 6 116.29 10
-6 -10 4 101.89 9.9
6 -4 10 115.89 6.3
-10 4 -6 111.89 6.8
-4 -10 -6 111.09 11.9
-10 4 -6 97.79 11.9
-10 -4 6 115.29 6.4
6 -4 10 127.99 10.3
6 4 -10 104.39 6.2
-6 6 -10 80.19 6.4
10 6 6 81.59 6.2
-6 6 -10 92.39 11.9
6 10 -6 93.89 9.1
-6 10 6 85.59 6.6
-10 -6 -6 72.19 5.7
-10 -6 6 82.79 6.1
10 6 6 85.29 7.6
6 6 10 71.59 5.9
-10 -6 6 89.59 11.4
-10 6 -6 86.79 12.1
6 -10 6 56.79 12.8
-6 -6 -10 84.89 6.3
10 -6 -6 87.89 5.7
6 10 6 61.29 6
6 -6 -10 53.89 9.9
6 10 6 86.89 6.5
6 6 10 74.29 6
10 6 -6 82.39 10.9
-10 6 6 77.79 7.2
-6 -10 -6 75.49 5.3
6 -6 -10 78.99 6.2
10 -6 6 83.39 5.3
6 -6 10 52.99 9.8
-10 -6 6 77.99 5.9
-10 6 6 74.79 6.5
-6 -10 6 75.59 5.8
-10 6 -6 82.89 6.7
-6 6 10 67.89 6.3
-6 10 -6 72.09 7.8
6 10 -6 74.49 6
-10 6 -6 69.39 7.7
6 -10 6 87.99 10.2
-6 10 -6 76.59 6.6
6 6 10 75.99 10.1
6 -6 -10 91.69 5.9
6 6 -10 70.19 5.8
-6 6 -10 87.39 6.6
-6 10 -6 82.59 7.7
-6 -6 10 86.39 6.1
6 -6 10 92.39 6
10 6 -6 80.29 6.4
10 -6 6 66.59 9.4
-6 -10 6 73.59 9.4
8 0 10 121.69 11.4
-10 0 -8 118.39 12.9
0 -8 10 130.89 7.2
8 0 -10 106.09 11.3
10 0 8 106.09 10.3
0 10 8 134.89 13.9
0 -10 -8 140.59 7.3
-10 8 0 132.09 7.9
-8 0 10 135.29 7.3
0 -10 8 132.69 7.4
0 10 8 125.19 7.3
8 0 10 130.99 6.9
8 10 0 134.19 7.5
0 8 -10 128.39 7.5
8 -10 0 129.19 7.2
-8 0 -10 125.49 9
-8 0 -10 117.09 11.8
8 10 0 145.49 11.6
-10 0 -8 135.79 7.1
10 8 0 121.19 7.1
0 8 10 129.89 11.9
10 0 -8 129.99 7.3
10 -8 0 117.49 11.2
10 8 0 146.89 12.1
0 -8 -10 141.39 7.3
-8 10 0 142.19 8
-10 -8 0 131.89 6.7
8 -10 0 119.89 12.8
-8 0 -10 144.79 7.4
0 8 10 143.19 7.6
8 10 0 140.09 8.5
8 0 -10 148.09 12.4
-10 0 8 131.89 7.3
10 0 -8 108.99 12.3
-8 10 0 127.19 8.1
-10 -8 0 149.69 12.3
0 10 -8 122.59 7.3
8 0 -10 133.69 7.3
10 0 -8 117.29 11.5
10 8 0 138.19 8.8
-10 0 8 143.39 8.2
-10 8 0 124.59 7.9
-8 -10 0 130.59 6.9
-8 0 10 162.18 9.1
10 -8 0 137.99 7.3
10 2 -8 74.19 12
-10 -8 2 106.29 6.4
-8 10 2 107.99 7.4
8 -2 -10 99.39 11.8
-10 -2 -8 106.39 6.6
8 10 -2 119.29 7.2
-2 -10 8 112.79 6.5
8 2 10 98.29 11.3
8 -10 2 119.29 11.5
8 10 -2 88.79 11.2
-10 8 -2 119.39 8.5
-8 -10 -2 109.59 6.4
-10 8 -2 116.99 7.4
10 -2 8 89.39 10.9
2 10 8 119.09 7.1
-8 -2 10 112.79 6.7
10 2 -8 109.39 10.5
-8 10 2 110.69 8
-8 -2 10 114.59 8.2
2 -8 10 106.59 6.7
8 2 10 117.89 6.9
-8 2 -10 114.29 8
-2 10 -8 98.19 7.1
-2 8 10 98.99 11.4
8 -2 -10 112.09 6.8
-8 2 -10 118.19 12.7
10 -8 -2 107.99 6.6
8 -2 -10 105.49 12.3
2 -10 -8 112.29 6.5
10 8 2 110.69 6.9
-8 2 -10 114.59 6.8
-10 2 8 114.09 7.7
-2 -8 -10 123.39 6.5
10 8 2 92.89 10.8
-10 -8 2 115.99 11.1
-10 2 8 125.49 7.3
8 10 -2 105.59 8.1
10 8 2 104.09 8.1
10 2 -8 107.39 6.5
-2 8 10 108.59 7.1
2 8 -10 113.19 7.2
8 -2 10 99.69 6.3
8 2 -10 103.59 6.4
8 10 2 110.69 7.6
10 -8 2 108.59 7.1
8 10 2 95.19 12.1
-2 -10 -8 121.99 6.8
10 -2 -8 103.39 12.1
-8 10 -2 109.89 9
2 10 -8 129.09 7.2
10 -2 -8 106.49 6.6
-10 2 -8 121.29 7.1
-2 -8 10 105.69 6.4
8 10 2 109.19 6.8
10 8 -2 123.29 7.4
2 8 10 106.19 6.6
-8 10 -2 108.49 7.7
10 2 8 106.09 6.7
10 8 -2 105.59 11.6
8 -10 -2 115.89 12.2
10 -8 2 99.49 10.7
-10 2 -8 118.09 9.2
-10 -2 8 114.49 7.5
8 2 -10 111.69 10.5
-2 10 8 102.89 6.8
-8 2 10 107.69 6.8
-8 -2 -10 100.49 8.8
8 -10 -2 114.19 6.7
-8 2 10 132.79 10.8
-8 -10 2 90.99 11.1
-10 8 2 107.39 7.2
10 -2 -8 94.99 12.2
-8 -10 2 116.99 6.5
-8 10 -2 115.59 8.3
-10 -2 8 112.49 6.8
-8 -2 -10 124.89 11.4
2 -8 -10 110.39 6.4
-2 8 -10 117.89 7.2
-10 -8 -2 106.69 6.2
8 -2 10 77.89 10.1
10 2 8 105.09 10.2
-8 -2 -10 118.69 7
-10 2 -8 103.09 11.2
2 -10 8 105.29 6.7
-10 8 2 108.99 7.8
8 2 -10 79.89 9.8
-8 4 -10 91.19 6.8
4 -8 10 96.59 6
-10 8 -4 102.49 7.2
-10 -8 4 112.39 6.8
-8 -4 10 85.99 5.9
10 4 -8 82.59 8.5
-8 -10 -4 103.19 6
-10 4 8 88.39 7.7
8 10 -4 93.49 11.9
8 -4 -10 100.59 6.8
8 -4 -10 82.99 12.6
10 -4 8 99.39 11.5
-10 4 8 83.89 6.8
10 4 -8 108.49 11
-10 -8 4 91.69 6.7
8 -10 4 92.19 15.1
4 -10 -8 97.09 6.5
4 8 -10 99.99 6.5
-4 -10 8 69.99 8.3
-4 10 -8 96.19 7.4
4 10 8 97.09 6.5
-8 4 -10 106.89 12.6
10 -8 -4 102.29 6.3
10 8 4 93.89 7.6
10 4 -8 87.49 11.9
8 4 10 95.39 6.8
-8 10 4 108.69 8.5
-10 8 -4 98.29 8.9
10 8 4 114.69 7.1
8 10 -4 110.89 6.8
8 4 10 101.19 6.7
8 -4 -10 129.89 13.4
8 -10 4 88.69 11.8
-8 4 -10 91.39 8
-8 10 4 104.59 7.3
8 4 10 136.59 16.9
10 -4 -8 94.89 12.5
10 -4 -8 81.09 11.4
-4 8 -10 100.59 7.6
-10 8 4 101.59 7.2
4 -10 8 113.39 16.5
-4 -10 -8 101.19 6.4
10 -8 4 88.19 10.8
4 -10 8 101.99 6.4
-8 10 -4 96.29 8.4
10 4 8 91.49 6.5
10 8 -4 97.69 11.8
-10 4 -8 94.89 13.5
-10 -4 8 99.59 7.4
-10 4 -8 97.99 6.9
-8 -10 4 96.29 6.5
-10 8 4 93.89 7.4
-8 -4 -10 91.49 6.3
-10 4 -8 92.99 8
-8 4 10 97.79 8.7
8 10 4 92.19 7
10 8 -4 97.09 6.7
4 8 10 101.49 6.7
8 -4 10 81.09 10.6
10 -4 -8 105.39 6.5
-8 10 -4 114.19 8.2
8 -4 10 97.29 6.1
4 -8 -10 96.19 6.3
-8 4 10 101.39 6.4
8 -10 -4 108.69 6.1
-8 -10 4 103.29 11.8
8 10 4 88.79 6.7
4 10 -8 97.09 6.6
-4 -8 10 86.59 6.5
-8 10 -4 107.19 8.5
-10 -4 8 96.79 6.4
-10 8 -6 63.99 7
-8 10 6 55.29 7.1
10 8 6 69.49 6.9
-10 -8 6 69.19 6.1
-8 6 -10 75.19 7.1
10 8 6 61.89 6.2
-8 6 -10 39.7 10.4
6 10 8 63.99 6.1
8 -6 -10 88.29 8.4
-10 6 8 63.59 7.7
6 8 -10 65.09 5.5
-10 8 -6 58.09 7.8
-8 6 -10 61.29 6.6
-6 10 -8 68.89 6.5
-6 -10 8 66.79 6
-6 8 10 65.79 6.2
-6 10 -8 65.09 8.3
8 6 10 66.49 6.6
6 -8 10 69.19 5.7
8 10 -6 66.99 6.3
-10 -6 -8 59.79 5.3
8 6 10 51.89 6.1
10 6 -8 59.79 6
-10 6 8 59.69 6.6
-6 -8 -10 63.79 5.8
-8 10 6 67.19 7.1
8 -10 6 53.49 9.4
10 -6 8 51.29 9.2
-8 -10 -6 78.79 5.5
-10 -8 6 71.69 6.8
6 -10 -8 64.39 5.7
-10 -8 -6 59.99 5.4
-10 6 -8 58.39 6.7
-8 -6 -10 67.59 5.4
-6 -8 10 59.09 5.3
8 10 6 69.79 6.7
8 6 -10 64.19 6
-6 -10 -8 68.19 5.6
6 -8 -10 58.19 5.8
-10 8 6 71.89 6.7
-10 6 -8 60.49 7.2
-8 10 -6 43.3 8.4
-6 10 8 66.09 6.1
6 -10 8 66.29 5.9
-10 -6 8 73.79 6.2
8 -6 10 79.69 6.1
-8 -10 6 61.79 5.7
-10 8 6 67.89 6.9
10 6 8 63.59 6.3
6 8 10 66.89 6.1
-8 10 -6 58.39 7.9
-6 8 -10 64.29 6.5
-10 6 -8 56.39 12
8 -6 10 48.6 8.6
8 10 6 65.89 6.5
10 -6 -8 73.29 6.5
10 -8 6 68.09 10.1
10 8 -6 60.79 5.8
-8 6 10 60.79 6.9
6 10 -8 60.89 5.5
-10 10 0 64.89 7.3
0 10 10 48 5.6
10 10 0 55.49 7.1
-10 0 -10 72.29 7.8
-10 10 0 43.6 6
10 0 -10 47.9 5.2
10 10 0 62.69 6.1
-10 0 -10 65.79 6.4
10 -10 0 67.49 6.2
-10 0 10 48.9 6.6
0 -10 10 55.29 5.5
-10 -10 0 58.89 5.9
-10 0 10 58.09 5.9
10 10 0 31.9 8.1
0 -10 -10 52.79 5.3
10 0 -10 64.99 10.1
0 10 -10 57.19 5.7
10 0 -10 41.2 8.6
-10 -2 10 54.09 5.9
2 -10 10 52.59 5.6
-10 10 -2 70.99 8.4
-10 10 2 59.39 6.8
-10 -2 -10 61.29 6.1
-10 -2 10 64.89 7.2
-10 2 10 46.6 6
-10 2 -10 35.3 6.1
-2 10 -10 42.5 5.6
-2 -10 10 49.8 5.4
-2 10 10 45.7 5.5
-10 -10 -2 54.09 5.2
-10 -10 2 48.3 6
-10 2 10 59.79 8
-10 10 -2 63.09 7.3
-10 2 -10 55.99 6.2
-2 -10 -10 49 5.3
2 -10 -10 49.8 5.6
10 -2 -10 52.59 10.3
10 -2 10 44.4 9.5
10 10 -2 56.39 9.8
-10 10 2 55.89 7.1
-10 2 -10 47.5 10.5
10 -2 -10 33.2 8.9
2 10 10 56.29 5.9
10 10 -2 45 6.8
10 10 2 71.89 8
10 10 2 48.5 6.3
10 2 -10 50.49 5.4
2 10 -10 53.39 6
10 -10 -2 48.5 6
10 -2 -10 58.29 5.7
10 10 4 54.49 6.4
10 10 -4 49.4 5.6
-10 4 -10 42.4 6.5
-10 10 -4 36.4 6.4
-4 10 -10 43.2 5.7
4 10 -10 42.1 5.4
10 -4 -10 36.7 5.3
10 4 -10 42.2 5.5
-10 4 10 35.8 5.4
-10 10 -4 51.39 8
-10 10 4 33.1 5.7
-4 -10 10 44.4 5.1
4 -10 10 43.5 5.6
4 10 10 46.7 5.7
10 10 4 56.59 7.2
-10 4 -10 37.9 5.1
-10 10 -4 40.4 6.3
-10 10 4 38.9 5.8
-10 -10 -4 43.9 5.1
-10 -10 4 62.99 6.8
-10 -4 -10 58.89 5.9
10 -4 10 16.8 8.2
10 10 -4 61.29 16.5
-4 -10 -10 46.1 5.2
4 -10 -10 48 6
10 4 10 59.39 6.6
-10 -10 4 51.79 6.2
-10 -4 10 34.4 4.9
-1 -11 1 9.8 4.5
-11 1 1 8.8 2.8
-1 -11 -1 7.5 2.4
-1 -11 1 6.6 2.3
-1 -1 -11 7.9 2.4
-1 1 -11 8.2 2.3
1 -11 -1 8.1 2.4
1 -11 1 8.6 2.5
-1 -1 -11 10 2.9
-1 1 -11 4.8 2.9
-11 -1 -1 7.1 5.7
-11 -1 1 5.7 5.5
-11 1 -1 4.8 5.4
-11 1 1 10.9 5.9
-1 -11 -1 10.4 5.1
-11 -1 -1 8.3 2.9
-11 -1 1 7.1 2.7
-11 1 -1 3.8 2.6
1 -1 -11 7.1 2.1
1 1 -11 6 1.9
-1 11 -1 8.6 2.7
-1 11 1 5.1 2.4
-1 -1 11 6.3 2.7
-1 1 11 8.4 3.1
-1 11 -1 12.1 3.6
-1 11 1 10.8 3.2
1 -1 11 12 2.9
1 1 11 16 3.4
1 11 -1 7.3 3.2
1 11 1 12.4 3.2
11 1 1 7.6 5.4
11 1 -1 13 3.2
-1 -1 -11 18.3 5.3
-1 -1 11 12.7 4.5
-1 1 -11 3.2 4.1
-1 1 11 8.9 4.9
-1 11 -1 10.3 5.7
-1 11 1 11.9 6
1 -11 -1 14 5.4
1 -11 1 11.8 5.2
1 -1 -11 10 3
1 1 -11 9.1 2.8
1 11 -1 14.5 2.8
1 11 1 11.1 2.5
11 -1 -1 7.1 2.9
11 -1 1 5.3 2.7
1 1 -11 12.1 3.9
11 1 1 5.1 2.8
11 -1 1 7.3 5.2
11 1 -1 9.3 5.5
1 1 11 7 4.5
1 11 -1 6.3 5.2
1 11 1 9.3 5.4
11 -1 -1 4.8 4.9
1 -1 11 13.5 4.1
1 -1 -11 12.8 4.8
-1 3 11 -0.2 4.3
-11 1 3 5.9 2.4
-3 1 -11 7.9 2.3
3 -1 -11 2.8 2.7
3 -11 1 6.4 4.9
1 -11 -3 6 2.8
-3 1 -11 8.9 3.4
11 1 -3 3.7 2.8
-1 11 -3 1.7 3
-11 -1 -3 4.7 2.8
-11 -3 1 2.8 2.7
-11 3 -1 3.9 2.8
11 -1 3 9 3
3 11 -1 6.1 2.7
11 3 1 5.1 5.2
-1 3 11 1.1 2.6
-3 11 1 11.5 6.1
1 3 -11 -0.9 2.7
-11 3 -1 6.3 6
-3 11 1 8.3 3
-3 -1 11 3.7 2.7
11 3 1 7.2 2.9
1 -11 -3 14.7 5.7
-1 11 -3 0.5 2.5
-11 1 3 12.7 6.2
1 11 3 -2.1 5.9
3 -1 -11 4 4.3
11 -3 -1 6.2 2.5
-1 -3 -11 8.9 5.6
11 -1 3 9.9 5.3
3 1 11 4.1 4.8
11 -3 -1 -3 4.9
1 -3 11 9.7 3.5
11 1 -3 2.5 5.2
-1 -3 -11 9.1 3.1
3 -1 -11 5.5 2.3
3 11 -1 8 5.2
-11 -3 1 12.2 5.7
-1 -11 3 5.4 2.2
-1 -3 -11 2.2 2.3
-3 11 1 6.8 3.1
-3 1 -11 14.2 5.2
1 11 3 1.9 2.8
1 -3 11 4.5 2.6
-1 -11 3 -2.1 4.5
3 11 -1 2.3 3
-3 -11 -1 3.1 2.4
-11 1 3 8.3 3.1
3 1 11 1.9 2.5
3 -11 1 0 2.7
-3 -11 -1 -2.1 4.7
-11 -1 -3 5.5 5.6
3 1 -11 4.4 2.7
-3 1 11 -1.2 2.6
3 1 -11 4.4 2.2
3 -1 11 3.3 4.5
1 11 -3 2.5 3.3
-1 -11 -3 -0.8 4.5
11 -3 1 -6.2 4.3
1 11 -3 4.6 2.7
-1 -11 -3 2.7 2.4
-11 3 1 3.7 2.7
-11 -3 -1 3.3 2.6
11 -1 -3 3.8 5.7
3 1 -11 -1.3 4.2
-11 -3 -1 -7.8 4.6
1 -11 3 4.7 2.3
-11 -1 3 4.9 2.3
11 3 -1 8.9 5.3
1 -3 -11 3.1 2.6
3 -11 -1 2.2 2.6
-3 1 11 7.8 5.4
-1 -3 11 4 2.8
-1 3 -11 1.4 2.7
11 1 3 5.2 2.7
1 3 11 5.4 5.4
-3 -1 -11 2 3.1
3 11 1 2.5 2.9
-11 -1 3 4.4 5.8
-11 1 -3 3 5.5
1 11 -3 7.3 5.6
-11 1 -3 1.3 2.4
1 -11 3 0.6 4.7
11 1 3 -0.4 5.1
3 1 -11 4.4 3.6
-1 3 -11 6.9 3.3
3 11 1 3.7 2.4
1 -3 -11 0.7 4.4
11 -3 1 4 2.8
11 3 -1 5.4 2.7
-1 11 3 4.4 3
-3 11 -1 9.8 3.2
-3 -11 1 3.6 2.4
-3 -11 1 2 4.7
1 -3 -11 2.3 2.6
11 -1 -3 1.3 2.5
1 3 11 6.9 2.9
-1 11 3 5.7 6.2
3 -1 11 2.4 2.4
-3 11 -1 3.1 2.6
3 11 1 2.2 6.1
3 -11 -1 -9.4 5.1
-3 -1 -11 11.2 5.9
-11 3 1 9.4 6.7
-3 -1 -11 2.4 2.2
-11 -1 3 5.4 2.7
-3 -11 -3 4.7 2.5
-3 -11 3 5.2 2.3
-3 -3 -11 2.5 2.4
3 -11 -3 1.5 2.3
3 -3 -11 2.3 2.4
-3 11 3 3.5 3
-3 3 11 0.6 2.6
-11 -3 -3 2 2.5
-11 -3 3 2 2.6
3 -3 -11 -1.4 5.1
-11 3 3 1.1 2.9
3 -3 11 2.9 2.6
3 -11 3 8.1 5.6
-11 3 -3 -0.2 2.7
-11 -3 3 -5.6 2.2
-11 3 3 -2 2.6
-3 11 3 6.6 6.3
3 -11 -3 7 5.7
11 3 -3 8.5 5.7
11 3 3 10.5 5.5
-3 -11 -3 6.9 5.1
3 3 11 -6.2 2.2
-3 -3 -11 3 5
-3 3 -11 -6.6 4.3
3 11 -3 -1.6 4.8
3 3 -11 4.1 2.7
11 -3 -3 8.8 5.4
-3 -3 11 2.7 2.8
3 -11 3 -2.3 6.1
3 11 3 9.3 5.5
3 -3 11 1.1 4.1
-11 -3 -3 9.3 5.6
-11 -3 3 -3.6 5.6
-11 3 -3 9.1 5.8
11 -3 -3 1.8 2.2
11 -3 3 -0.5 2.6
11 3 -3 3.8 2.8
11 3 3 4.9 2.6
11 -3 3 -4.6 4.6
-3 11 -3 3 3.1
-3 -11 3 -2.1 4.6
-3 -3 -11 -0.8 3.1
3 11 -3 -2.2 3
3 11 3 -0.3 2.5
3 -3 -11 -1.5 2.5
-3 3 -11 0.5 3
3 11 -3 4.3 2.7
3 11 3 6.2 2.4
-3 11 -3 -1.1 2.7
3 3 11 -5.3 5
-3 3 11 0.5 5.6
-1 -5 -11 2.1 2.3
-5 11 1 -1.5 3.5
-1 -5 -11 5.4 3.4
5 11 -1 -0.6 5.9
-11 -5 1 -1.8 6.2
-11 5 -1 2.7 6.1
-5 1 -11 -6.6 2.7
-1 11 -5 -4.8 2.6
11 5 1 -2.4 5.2
5 -1 -11 2.5 3
-5 -11 -1 -7.2 4.9
11 -5 -1 -2.7 2.5
11 -5 -1 -5.5 6.5
11 1 -5 -3.3 2.4
11 5 1 -1.3 2.6
-5 1 -11 -1.7 5.3
1 11 5 -1.9 2.6
-1 -5 -11 1.2 5.8
-1 11 -5 3.8 3.7
1 -5 11 -2 2.8
11 -1 5 1.7 5
5 -1 -11 5.5 5.2
-1 -11 5 1.5 2.2
-5 1 -11 -6.5 2.4
-11 1 5 5.8 3
5 -1 -11 -0.1 5.8
-5 11 1 -0.2 2.9
1 5 -11 -0.4 2.8
-1 5 11 -2 2.6
-11 -1 -5 -6.9 5.9
11 -5 -1 2.2 5.7
5 11 -1 -1.8 3.1
-5 -11 -1 5.5 2.9
11 1 -5 -5.3 4.6
1 -11 -5 1.3 2.3
-1 5 11 -5.3 5.2
5 -1 -11 0.9 2.4
5 11 -1 1.3 2.8
5 1 11 0.8 2.5
5 -11 1 16.8 6.4
-11 -5 1 3 2.5
5 -11 1 -7.2 5.8
-5 -1 11 4.5 2.9
-11 1 5 0.7 3.2
-11 -5 1 -4 2.3
-11 5 -1 -2.2 2.8
1 -11 -5 0.7 5.3
5 1 11 1.9 5.4
1 11 5 5.8 6.3
11 -1 5 0.7 2.7
-11 -1 -5 -0.1 2.6
5 -1 11 -0.7 2.5
5 11 1 -4.9 2.9
-5 11 -1 1.2 3.5
-11 -1 5 4.1 2.9
-5 1 11 3.6 2.9
1 5 11 -6.7 5.3
11 5 -1 -0.2 2.8
-1 11 5 2.7 5.8
11 -1 -5 -2.1 5.1
1 -11 5 9 5.5
-1 -5 11 2.7 3
-1 5 -11 -1.5 2.7
5 -11 -1 -7.1 5.5
-5 -11 1 -0.9 2.3
-5 11 -1 0.5 3.8
-11 5 1 0.4 3.1
11 -1 -5 0 2.7
5 -11 -1 -8.5 6.3
5 1 -11 -2.5 2.3
1 -5 -11 -3.6 4.9
5 11 1 3.3 6
1 11 -5 -2.3 3.2
-5 -1 -11 -0.8 5.6
1 -11 5 -1.5 2
-11 -1 5 -1.4 6.4
-11 1 -5 3.8 5.5
5 1 -11 3.7 2.7
-5 -11 1 -5.4 4.9
-1 -11 -5 -4.3 5
11 1 5 -0.5 5.4
1 -5 -11 -4 2.8
-5 -1 -11 -0.8 3.2
-1 11 5 -1.4 2.6
5 11 1 -2.4 2.7
-11 -5 -1 6.3 5.7
1 11 -5 1.2 2.9
11 -5 1 3.8 5.2
-11 1 -5 -0.5 2.4
-1 -11 -5 -0.4 2.3
11 -5 1 2.5 2.8
1 5 11 3.8 2.7
5 -1 11 -4.6 4.8
5 1 -11 -6.3 4
1 -5 -11 3.4 2.7
11 1 5 3.7 2.8
-11 -5 -1 1 2.6
-11 -1 5 7 2.7
11 -1 -5 9.8 6.3
-11 5 1 1.5 2.9
-5 -1 -11 -3.2 2.4
-5 11 -1 4.5 3.3
11 5 -1 10.3 5.7
3 5 -11 -1.7 2.6
11 5 3 -10.6 4.8
-11 5 -3 3.7 6.4
-3 -5 -11 2.6 2.4
-3 -5 -11 -1.2 6.2
-3 5 11 0.4 6.9
-11 -5 3 -3.4 5.7
11 -5 -3 -0.4 2.6
5 -3 -11 3.1 6.7
3 -5 11 -0.6 2.5
-11 5 -3 -2.2 2.8
3 -5 11 -0.1 4
-11 -5 3 1.9 2.5
-5 -11 -3 -2.1 2.4
5 -11 3 -15.1 5.3
-11 3 5 2.8 3.1
-3 11 -5 -0.7 2.9
3 11 5 1.1 2.9
-3 -11 5 2.5 2.4
3 -11 -5 -1.7 2.4
11 -3 5 3.7 5.1
5 -3 -11 -4.2 2.5
11 -3 5 1.7 2.9
-3 -5 -11 -1.6 3.6
5 11 -3 7 6
-5 -3 11 1.2 2.7
5 3 11 1.5 2.9
-3 11 -5 -6 3.5
5 11 -3 -4.4 3
5 11 -3 -1.2 3
-5 3 -11 -1.6 2.7
5 3 11 11.3 6
3 11 5 -2.4 5.6
5 -3 -11 -0.9 5.6
11 3 -5 10.2 5.7
11 3 -5 1.3 2.8
-11 3 5 -2 3.5
5 -3 -11 2.3 3
-11 -5 3 0 2.5
-11 -3 -5 0.5 2.3
11 -5 -3 -4.3 5.9
-5 11 3 3.3 3.4
-5 3 -11 -0.7 3.1
-3 5 11 1.7 2.8
11 5 3 -0.9 2.8
5 -11 3 -2.4 6.7
-5 3 11 0.6 2.7
11 3 5 3.4 5.4
-11 -3 5 3 2.8
-3 -11 -5 -5 6
-11 5 3 0.7 2.9
3 -11 5 -1 7.1
11 -3 -5 13 6.8
3 5 11 4.1 2.9
-11 5 3 -2.3 2.8
-5 -3 -11 -1 6.3
11 5 -3 -0.7 5.9
-3 -11 -5 -1.2 2.1
3 -5 -11 8 5.6
3 11 -5 -5.2 3.3
-3 5 -11 2.9 3
11 3 5 1.1 2.7
5 3 -11 -1.6 3.1
3 -5 -11 1.5 3
-5 11 -3 -5.2 3.1
5 3 -11 0.7 3
11 -3 -5 4 5.8
-5 -11 3 2.3 2.5
-5 11 -3 -1.4 3.8
3 -5 -11 3.9 2.7
-5 -3 -11 -9.3 3.6
5 11 3 4.5 6
-5 11 -3 -4.7 2.9
3 11 -5 -0.7 2.6
-11 -5 -3 1.9 2.6
-5 -3 -11 4.7 2.6
5 11 3 0.5 3.1
11 -5 3 -4.6 2.7
11 5 -3 3.3 2.8
-11 -5 -3 2.4 6.2
3 -11 5 2.8 5.8
3 5 11 -2.7 5.6
-11 3 -5 2.3 3
-11 -3 5 0.8 6
5 3 -11 -2.7 2.5
5 -3 11 1.1 2.4
5 11 3 0.5 2.6
-11 -3 5 0.5 2.7
-3 11 5 -0.7 2.8
3 -11 5 0.6 2.6
-5 -11 3 9.1 5.6
-3 11 5 5.4 6.5
5 -11 -3 -1.6 6.3
-3 -5 11 -2.3 2.7
11 -3 -5 0.2 2.5
11 -5 3 -0.6 5.5
5 -5 -11 -2.1 2.5
5 11 5 5.8 3.3
5 5 11 4.9 3.2
5 5 -11 2.8 2.9
-5 5 -11 4.1 3.5
5 5 11 13.6 6.6
-5 11 -5 6.5 3.7
5 -5 -11 -0.6 3.1
-11 -5 5 4.2 3.1
11 5 5 2.2 2.9
-5 -5 -11 5.7 4.2
-5 -5 -11 22 11.8
11 5 -5 0.8 3.1
-5 -11 5 -0.7 2.8
-5 -5 -11 3.5 2.9
-5 5 11 -2.4 6.8
-11 -5 5 1.2 6.7
-5 11 5 -3.5 3
5 -5 11 3.1 2.9
-11 5 -5 2.3 2.9
-11 5 5 1.5 3.6
-5 -11 5 2.2 5.6
-11 -5 5 -1 3
-5 11 -5 2 4.4
5 -11 -5 -4 2.7
-5 5 11 3.8 3.2
-5 5 -11 0.6 6.1
5 -11 5 -16.9 5.7
5 -11 5 8.8 6.2
5 -5 -11 7.2 6.6
5 -5 11 -1.3 5.2
11 -5 -5 -2.2 2.8
5 11 -5 0.6 5.8
11 -5 -5 3.1 7.4
11 -5 5 -2.3 5.6
5 11 -5 5.1 3.3
-11 -5 -5 -1.2 2.7
5 11 -5 4.1 4.4
-5 -11 -5 0.2 2.7
-11 5 5 0.5 3.3
-5 5 -11 6.7 3.3
-5 11 -5 -1.3 3.4
11 5 -5 -3.7 5.5
-5 -5 11 1.3 2.8
11 7 1 5.2 5.2
7 11 -1 8.9 6.7
11 7 1 -0.7 2.8
7 -1 -11 1.3 6.2
-11 -1 -7 2.2 3
-11 1 7 6.9 3.3
1 7 -11 1.7 3
-11 7 -1 -0.4 3.1
7 -1 -11 -1 3
-1 -7 -11 0.2 2.5
-7 11 1 4.1 3.4
7 1 11 -2.2 5.6
-7 -11 -1 2.2 3
-1 11 -7 4.7 3.3
1 -7 11 -0.1 2.7
-7 -1 11 -1.5 2.6
-7 1 -11 2.7 2.8
-7 1 -11 3.4 6.8
1 -11 -7 0.2 2.8
-1 7 11 0.4 6.6
-7 11 1 3.4 4.3
-7 1 -11 6.4 4
11 7 1 -4.7 6.3
1 11 7 -2 3
11 -7 -1 1.4 2.7
11 -1 7 10.9 5.9
11 1 -7 -2 7.2
11 1 -7 6.5 6.4
7 -11 1 2.2 7.4
7 1 11 3.3 3
-11 7 -1 -5.6 4.3
11 -1 7 0.1 3.2
-11 -7 1 0.4 2.8
-1 7 11 -1.8 2.9
7 -1 -11 -2.7 6.5
7 11 -1 -1.1 2.8
-11 1 7 -3 3.3
-11 -7 1 -5.5 3.2
11 1 -7 -1.3 2.7
7 11 -1 2.1 3.8
-1 -7 11 0.6 2.6
7 -11 -1 0.6 2.9
1 -7 -11 -3.2 2.7
-11 1 -7 0.9 2.9
11 -1 -7 5.4 2.8
-11 7 1 2.6 3.6
-7 -1 -11 1.2 6.5
-7 11 -1 -4.1 3.8
7 11 1 -3.3 3.1
-7 11 -1 4.3 3.5
11 -7 1 -6.8 9.7
11 7 -1 3.9 6
7 11 1 2 3.3
-7 -11 1 0.3 2.8
1 11 -7 0.1 2.8
7 11 1 -6.4 6.3
7 1 -11 -0.6 3
11 -1 -7 -6.8 6.5
-1 7 -11 -1.9 2.8
-7 1 11 6.8 3.1
-7 -1 -11 -1.1 4
11 1 7 -2.9 6
11 -7 1 -2.3 2.8
-7 11 -1 -1 4.5
1 7 11 -4.2 6.5
11 7 -1 5.5 3.3
7 -1 11 -1.2 2.9
-11 -7 -1 -1.2 2.8
-11 -1 7 -2.8 2.9
-11 7 1 -4.6 3.2
7 -1 11 -0.7 6.4
7 1 -11 0.8 5.6
7 1 -11 -5.2 6.2
11 1 7 2 3.2
1 -11 7 -1.2 7.3
-1 -11 -7 2.2 2.9
-7 -11 1 -12 6
11 -1 -7 6.4 7
-7 -1 -11 -3.9 2.8
-11 -1 7 -5 3.4
1 7 11 1.1 2.9
7 -11 -1 11.3 7.3
-1 11 7 -2.6 2.8
11 7 3 0.6 3.1
11 3 -7 12.5 6.7
-3 7 11 0.8 7
-7 3 -11 11.7 7.6
11 -7 -3 3.2 3.1
3 -11 -7 2.6 2.9
-11 7 -3 5.7 3.4
-11 3 7 -3.5 3.5
-11 -7 3 7.6 3.3
-7 11 3 -0.2 3.6
-7 -3 11 -1.1 3.1
-11 -7 3 6 3.4
-11 3 7 1.2 3.6
7 3 11 0.1 3.1
3 7 -11 -2 3
-7 3 -11 -1.4 4.1
-3 11 -7 -0.3 3.2
7 -3 -11 1.7 7.1
3 11 7 -3 2.8
-3 -7 -11 -2 2.6
-3 7 11 1.9 3.1
7 -3 -11 6.2 3.3
7 3 11 -0.6 5.8
7 11 -3 -0.8 3
7 -3 -11 0.7 7.6
7 11 -3 3.2 6.9
-7 -11 -3 0.5 3
7 -11 3 -0.6 7.3
3 -7 11 0.6 2.8
7 11 -3 4.6 4
-7 3 -11 2.7 3.1
11 -3 7 4.6 6.4
-11 -7 -3 -3.1 2.7
-7 -11 3 1.5 3.2
7 11 3 -0.4 3.4
-11 -3 7 6.5 3.3
3 7 11 6.6 3.4
-7 3 11 -1.5 3.1
-7 -3 -11 2.8 4.5
11 -3 -7 -10.3 7.5
-7 -3 -11 -2.7 7.4
11 7 -3 3.2 3.6
-11 7 3 -3.6 3.3
3 -7 -11 1.9 2.8
-11 7 3 0.4 3.6
-3 -7 11 -0.3 2.9
7 11 3 5.1 7.2
7 -3 11 1.8 2.8
-3 7 -11 3.5 3.3
-11 -3 7 4.5 3.4
-3 11 7 4.7 5.1
7 11 3 -3.9 2.9
11 -3 -7 -4.9 2.8
11 3 7 3.8 3.1
-11 3 -7 6 3.1
3 7 11 -0.9 7.3
11 7 -3 8.8 6.6
-7 11 -3 1.8 3.8
3 11 -7 5.6 3.3
-7 11 -3 -2.9 3.9
11 -3 -7 9.4 7.3
-7 11 -3 -2.3 3.8
11 -7 3 20.4 7.6
3 -11 7 3.9 5.9
3 -11 7 6.8 4.6
7 3 -11 2.7 2.9
11 -7 3 2.3 3.2
-3 -11 -7 0.6 2.3
-7 -3 -11 2.3 3
7 -3 11 5.8 6.1
3 -11 7 7.4 10.9
-7 -11 -5 2.5 2.7
7 5 11 4.8 3.3
-11 5 7 2.6 4.2
11 -5 7 -1.5 6.9
7 -5 -11 6 7.9
5 -11 -7 6 2.9
-11 -7 5 0.1 3.3
-7 5 -11 16.5 8.5
-11 7 -5 0.7 4.2
7 5 11 0 3.4
-7 5 -11 2.9 3.8
-11 -7 5 2.7 3.4
-5 11 -7 5.9 3.8
-11 7 -5 1.3 3.3
-7 -5 11 3.7 3.2
11 7 5 7.4 3.4
-5 -11 7 -2.1 2.8
-5 7 11 -0.3 3
5 11 7 5 3.4
11 -7 -5 2.6 3.3
-7 11 5 2.2 4.2
-7 5 -11 5.2 3.6
-11 -5 -7 0.6 2.8
-7 11 5 3.7 3.9
-5 11 -7 16.5 5.5
7 -5 -11 7.9 9.4
7 -5 -11 -0.4 3
5 -7 11 8.9 3.2
11 5 -7 1.8 3.4
7 -11 5 3.3 7
7 -5 -11 7.2 3.9
5 7 -11 1.6 3.4
7 11 -5 6.2 3.4
-5 -7 -11 6.2 3
-11 5 7 2.5 3.6
11 5 -7 15.3 7.4
7 -5 11 -0.2 2.9
11 5 7 4.8 3
-11 5 -7 0.6 9.7
-7 11 -5 5.3 4.8
-5 -7 11 4.1 3.2
-5 11 7 5.2 3.3
11 -5 -7 1.3 2.8
-7 -11 5 7.1 4.5
-7 11 -5 1.7 4.5
-11 -7 -5 1.2 2.9
7 -5 11 3.9 6.9
-11 5 -7 1.3 4.4
5 -11 7 -3.6 10.7
7 11 5 0.8 3.6
11 7 -5 -6.6 7.2
-5 7 -11 0.7 3.5
-5 -11 -7 1.6 2.6
5 11 -7 1.4 3.4
5 -11 7 1.5 8.5
7 5 -11 1.5 2.8
5 7 11 2 3.3
7 11 5 1.1 3.4
11 7 -5 4.4 3.5
-7 5 11 -2.4 3.6
-11 -5 7 5.8 3.4
-11 7 5 1.5 3.7
-7 -5 -11 7.5 3.7
5 -7 -11 -0.5 3.2
-11 7 5 0.4 3.9
-7 11 -5 -2.2 4.4
-11 5 -7 4.2 3.4
-11 -5 7 11.2 4
7 7 11 9.3 4.6
-11 -7 7 1.3 3.6
7 -7 -11 -0.9 3.2
-11 7 -7 -7 4.4
-7 -7 11 0.8 3.2
-7 7 -11 -1.6 3.4
-7 -11 7 3.8 3.3
11 -7 -7 9.7 4
-11 -7 -7 4.3 3
-11 7 7 -7.7 3.5
-7 -7 -11 2.6 2.8
7 11 7 0.4 4.2
7 11 -7 1.1 3.3
-7 11 7 1 3.5
11 7 -7 5 3.4
11 7 7 -0.8 3.5
7 7 11 2.8 3.6
-11 7 7 10.4 4.7
-7 -11 -7 0.5 2.6
7 -7 11 6.4 3.6
-7 11 -7 -1.1 3.8
7 7 -11 2 3.2
-7 11 -7 5.8 5.2
7 -11 7 0.6 3.5
-7 7 11 7.2 3.3
7 -11 -7 4.6 3.1
1 -11 -9 3.4 2.9
-11 -9 1 3 3.3
-9 11 1 3.7 4.2
-11 1 9 1.6 4.4
9 -1 -11 -6.6 7.6
-9 11 1 1.5 3.7
1 9 -11 -2 3.1
1 11 9 -1.9 2.8
9 11 -1 1 4.7
-1 9 11 -0.4 2.8
-9 1 -11 0.3 4.6
-1 11 -9 5.6 3.5
-11 -1 -9 5.1 3.5
11 9 1 13.7 5.9
1 -9 11 1.1 3
11 9 1 4.3 3.8
-9 -11 -1 5.5 3.6
-11 9 -1 2.1 3.9
-9 1 -11 -4.6 8.3
9 11 -1 9.1 7.8
-1 -9 -11 2.1 2.8
9 -1 -11 9 3.6
11 1 -9 0 8.3
-9 -1 11 12.9 5.7
9 -11 1 8.3 3.6
9 -1 -11 14.1 8.8
-11 1 9 1.1 3.6
-1 -11 9 1.9 3
11 1 -9 6 3.3
11 1 -9 13.3 8.1
-9 -1 11 -6.1 2.8
11 -9 -1 4.7 3.5
9 11 -1 0.9 3.4
-9 1 -11 -2.8 3.2
-11 -1 9 4.2 3.7
9 11 1 10.7 5
-11 1 -9 6.3 5.7
9 11 1 2.7 3.4
11 -1 -9 0.4 3
1 -9 -11 0.2 2.8
11 1 9 3.1 3.5
11 -1 -9 0.3 7.9
11 -1 -9 8.8 8.2
-11 9 1 -2.1 3.4
1 11 -9 -4.9 3
-1 -9 11 4.2 3.4
9 1 -11 2.6 4.9
-1 9 -11 2 3.2
11 -9 1 2.7 3.3
9 -11 -1 0.6 3.6
11 9 -1 0.7 4.2
-9 -11 1 -0.9 3.1
-1 -11 -9 -1.5 2.6
-1 11 9 6.9 3.4
-9 1 11 8.1 5.3
9 -1 11 2.3 7
-9 11 -1 -2 4.2
-11 -1 9 7.2 4.7
11 9 -1 -1.9 6.9
1 9 11 1 2.9
-9 1 11 6.8 3.8
-9 -1 -11 1.3 3.5
1 -11 9 -2.7 3
-9 11 -1 -0.5 4.1
-11 9 1 -3.8 4.2
9 -3 -11 7.4 8.8
-9 3 -11 3.7 4.2
-9 -11 -3 -0.9 2.7
11 3 -9 5.7 3.4
-9 11 3 3.6 4.1
-3 -9 -11 4.8 3.1
-3 11 -9 -2.5 3.3
-9 3 -11 6.8 3.7
-3 9 11 -0.3 3
3 11 9 3 3.3
3 -11 -9 1.6 2.8
9 11 -3 8.9 5.4
-9 11 3 5.9 4.4
-11 -3 -9 6.9 3.3
11 -9 -3 3.7 3.7
3 9 -11 -0.7 2.8
-11 3 9 8.7 5
9 11 -3 2.5 8.7
-11 9 -3 0.8 3.9
-9 3 -11 -0.4 9.3
9 -3 -11 -7.8 8.1
3 -9 11 0.3 2.9
11 9 3 -5 3.1
-3 -11 9 0 2.9
9 -3 -11 2.1 3.6
-11 -9 3 4.2 3.8
9 11 -3 0.1 3.4
-9 -3 11 7.8 4
-11 -9 3 -4.2 3.5
-11 3 9 0.2 3.8
3 11 -9 1.7 3.4
-9 -3 -11 4 3.6
-11 3 -9 6.3 4.4
9 -3 11 -4.9 7
9 11 3 5.7 4.5
-9 -11 3 1.9 3.6
-9 11 -3 -6.9 4.8
-9 11 -3 0.1 5
3 -9 -11 2.3 3
-3 -9 11 4.7 2.8
-9 3 11 6.4 5.1
-11 -3 9 1.9 3.5
3 9 11 4.5 3.5
-3 -11 -9 -2.7 2.7
9 3 -11 6.9 3.4
11 9 -3 -1.6 8.2
9 11 3 0.5 3.5
11 -3 -9 -0.1 3.3
-3 9 -11 0.4 3
11 3 9 1.6 3.2
-11 3 -9 2.6 4.9
-11 -3 9 10.3 4.9
-11 9 3 0.8 4.4
-11 -9 -3 4.5 3.2
-9 3 11 -2.2 4.3
11 9 -3 -1.2 3.6
-3 11 9 2.9 3.1
3 -11 9 -1.2 2.8
-11 9 3 -1.3 3.7
11 -9 3 -4.9 3.4
0 -12 0 339.47 11.3
-12 0 0 311.47 16.6
-12 0 0 335.17 11.9
0 0 -12 335.07 10.8
0 12 0 335.47 17.4
12 0 0 351.76 16.1
0 12 0 320.87 12.4
12 0 0 310.67 11.7
0 0 12 337.87 14.9
0 0 -12 354.46 12.4
0 12 0 313.97 11.1
0 0 12 337.37 11.7
0 -12 0 313.67 15.6
0 0 -12 333.77 14.9
2 -12 0 273.07 9.9
-12 0 -2 271.97 10.2
-12 0 2 259.57 10.2
0 -2 12 262.37 12.3
-12 0 2 227.88 14.7
-2 -12 0 256.17 13.6
0 -2 12 260.47 10.1
0 2 12 256.57 10
-2 0 -12 271.97 10.9
0 12 -2 264.07 10.2
2 0 -12 283.07 10.7
-12 0 -2 259.67 15
12 0 -2 273.47 10.4
12 0 2 272.07 10.4
0 -12 -2 263.07 9.6
-2 12 0 269.87 16.3
0 -2 -12 289.87 14.8
0 -12 2 255.67 13.8
0 12 -2 253.47 15
0 12 2 273.97 15.3
2 0 -12 257.77 13
12 -2 0 246.68 13.8
12 2 0 251.87 14
-12 2 0 237.68 15.4
-2 0 12 255.77 13.9
-2 12 0 279.87 11.2
-2 12 0 253.27 10.1
0 -2 -12 253.07 10.6
12 -2 0 264.67 10.2
12 2 0 266.47 10.4
2 12 0 255.37 9.6
-2 -12 0 263.07 9.7
2 12 0 265.97 11
0 -12 2 269.97 9.5
0 2 -12 272.97 11.7
0 2 12 268.97 14.5
2 -12 0 258.67 14.6
2 12 0 292.27 15.6
12 0 -2 258.27 14.7
12 0 2 259.97 14.1
-12 -2 0 280.57 15.1
-2 0 12 267.77 10.1
0 12 -2 260.47 11.2
0 12 2 267.97 10.9
2 0 12 272.77 10
-12 -2 0 277.07 10.1
-12 2 0 277.27 10.6
-2 0 -12 273.57 9.6
0 2 -12 278.27 10.8
2 0 -12 281.67 9.3
0 -2 -12 255.37 9.7
2 -2 -12 212.88 12.9
2 -12 2 204.78 13
-12 2 2 220.98 9.6
2 -2 -12 219.98 8.6
-2 -12 2 218.38 8.4
-2 -2 -12 207.38 8.8
-2 -2 12 199.48 8.8
2 2 12 223.58 13.5
2 2 -12 209.88 10.2
2 12 2 234.88 15
12 -2 -2 191.58 13.4
12 -2 2 219.68 12.9
12 2 -2 233.68 13
12 2 2 213.68 13.2
-2 2 12 217.68 9.1
-2 12 -2 229.38 10.3
2 -2 12 228.78 11.8
-12 -2 -2 214.58 19.7
-12 2 2 187.98 14.1
-2 -12 -2 199.88 13.1
-2 -12 2 236.38 13
-2 -2 -12 199.08 13.5
-2 2 -12 197.08 11.7
-2 -12 -2 218.18 8.5
-2 12 -2 206.38 9.3
-12 2 -2 228.48 9.3
-2 12 2 229.38 9.9
2 -2 12 219.98 9.1
-2 -2 -12 227.48 10.1
-2 2 -12 231.38 9.8
2 12 2 261.87 10.5
12 -2 -2 217.38 9
12 -2 2 209.08 9.4
-2 2 -12 212.98 8.1
2 12 -2 221.48 14.1
-12 -2 -2 212.88 8.9
-12 -2 2 220.18 9
-2 2 12 238.08 14
-2 12 2 243.28 15
2 2 12 211.78 8.9
2 12 -2 216.08 10
2 12 2 213.88 9.4
2 -2 -12 211.58 9.3
2 2 -12 227.88 9.5
2 12 -2 205.48 8.9
12 2 2 217.88 9.1
2 -12 -2 220.28 8.8
2 -12 2 224.48 8.7
12 2 -2 206.68 9.2
0 4 12 221.48 14.6
-4 0 -12 216.98 13.7
0 -4 12 228.78 9.3
0 4 12 208.78 9.3
-4 12 0 231.88 10.3
4 -12 0 200.78 13.4
4 -12 0 221.28 15
0 12 -4 225.18 9.6
4 0 -12 237.18 9.7
12 -4 0 227.78 9.6
12 4 0 229.48 9.6
0 -12 4 194.88 16.8
0 12 4 197.28 14.5
4 12 0 235.18 10.3
0 -4 -12 227.68 9.8
0 4 -12 229.68 9.7
12 0 -4 206.98 13.2
12 0 4 215.28 13.3
-4 12 0 223.18 10.2
4 0 -12 228.68 12.6
-12 0 -4 231.28 9.4
-12 0 4 229.68 9.7
-4 -12 0 240.28 9.1
0 -4 -12 212.28 8.8
4 -12 0 230.48 9.5
0 -12 -4 224.68 9.1
0 -12 4 227.68 8.6
4 0 -12 217.08 8.4
-12 -4 0 271.47 9.8
-12 4 0 224.58 10.1
4 12 0 218.58 14.6
0 12 -4 214.58 10.4
0 12 4 238.28 9.9
0 -4 -12 213.18 14
12 0 4 247.08 9.9
-4 0 -12 225.08 9.1
4 0 12 234.28 14
-4 0 -12 233.38 10.1
-4 0 12 221.38 9.2
12 0 -4 235.78 9.6
4 0 -12 227.58 14.3
4 0 12 223.38 9.4
12 4 0 238.38 14.3
12 -4 0 197.68 13.4
-12 -2 -4 190.68 8.5
4 -2 -12 191.38 8.1
-2 -12 4 177.58 11.8
4 2 12 192.78 8.6
12 -4 -2 190.88 8.6
-12 -4 2 204.88 8.7
12 2 -4 178.78 12.9
2 4 -12 209.68 9
-12 2 4 184.28 9
2 -4 12 193.58 8.5
12 4 2 181.28 8.6
2 12 4 183.38 9
2 12 4 183.68 13.8
2 -4 12 174.28 9.1
-12 4 -2 199.68 9.2
4 -12 2 177.68 13.3
4 -12 2 200.68 14.8
4 12 -2 198.08 13.8
-2 -4 -12 206.28 9.8
-2 -4 -12 158.38 12.5
-4 12 2 190.48 9.3
4 12 -2 206.28 10.1
12 -2 4 186.48 8.7
12 2 -4 177.48 8.3
-2 -12 4 200.78 8
-4 -12 -2 181.78 8
-2 12 -4 194.08 10
-2 4 12 191.68 8.9
-4 2 -12 198.98 9.7
-2 12 -4 177.98 8.9
2 -12 -4 196.98 8.6
4 -2 -12 193.18 8.9
-4 12 2 173.88 15.4
-4 -2 12 201.78 8.8
12 4 2 192.98 13.4
12 -2 4 187.28 12.4
-2 -4 -12 208.18 8.6
4 12 -2 179.98 8.6
-4 2 -12 191.58 8.1
-2 4 12 197.38 14.1
4 2 12 181.88 13
4 -2 -12 170.18 12.5
12 4 -2 195.08 13.2
-12 2 -4 188.58 8.5
-12 -4 -2 198.98 8.7
2 -12 4 212.78 14.4
-12 -2 4 182.88 14.1
12 -2 -4 200.38 8.6
-2 4 -12 186.58 10
-12 -2 4 202.58 8.9
4 2 -12 187.48 8.7
2 -12 4 193.78 8
12 4 -2 197.18 8.8
4 -12 -2 195.78 8.6
12 -4 2 184.68 13.1
2 4 12 194.08 8.6
4 12 2 186.08 8
-2 4 -12 185.08 9.2
-12 4 2 190.38 9.1
4 12 2 199.48 9.5
-4 -2 -12 174.18 14
-4 12 -2 181.98 9.5
2 -4 -12 216.58 9
-2 -4 12 187.38 8.3
2 -12 4 202.08 12.8
2 12 -4 201.98 9
4 2 -12 195.28 10
12 -4 2 198.08 8.9
-4 -12 2 199.98 8.1
12 2 4 194.18 8.7
2 12 -4 179.58 9.7
-4 -12 2 179.48 12.6
4 -2 12 192.08 8.5
-4 -2 -12 199.18 10
2 4 12 172.68 13.5
2 -4 -12 186.18 13.4
-4 -2 -12 193.88 8.4
2 12 -4 184.88 13.4
-2 -12 -4 201.78 8.2
2 -4 -12 189.28 8.4
4 2 -12 190.18 9.9
4 12 2 216.58 14.1
12 -2 -4 186.98 13
-2 12 4 206.68 14.5
-4 12 -2 190.58 9.6
12 2 4 204.78 14.3
-4 2 12 183.98 8.5
-12 -2 4 177.18 8
-2 12 4 194.28 9.5
4 -4 -12 159.58 7.7
12 4 -4 132.49 12.3
4 12 -4 152.58 14.8
-12 -4 4 165.18 8.1
-4 4 12 165.38 14
-12 4 -4 151.98 7.9
-12 4 4 158.28 9.1
-4 -12 -4 169.08 7.6
-4 -12 4 171.38 16
4 12 -4 156.38 8.4
12 -4 -4 159.88 8
12 -4 4 165.18 10.5
12 4 4 152.18 8.2
-4 -12 4 162.68 7.4
4 4 12 154.08 7.9
4 12 -4 163.28 9.6
4 -12 4 140.39 12.8
-12 4 4 160.18 8
-4 -4 -12 155.18 9.4
4 -4 12 153.88 11.4
4 4 12 160.38 13.2
4 -4 -12 165.18 8.1
4 4 -12 156.78 8
4 12 4 163.28 8.6
4 -4 -12 129.99 11.7
4 -12 -4 152.78 7.7
-4 4 -12 149.88 12.2
-12 -4 4 144.39 7.6
-4 12 -4 151.58 8.5
-4 12 -4 150.68 8.8
-4 12 4 155.48 8.8
4 -4 12 151.08 7.5
-4 -4 -12 161.98 7.8
-4 -4 -12 153.28 13.7
4 -12 4 152.38 14.2
-4 4 -12 149.99 8.4
-12 6 0 127.59 8.3
0 -6 -12 132.69 12.3
12 6 0 148.39 12.9
-6 0 12 133.89 7.2
12 6 0 136.39 7.8
6 12 0 132.39 7.9
6 12 0 133.39 13.2
12 0 -6 133.39 7.2
6 0 -12 129.39 13
-6 12 0 140.79 9.5
-12 -6 0 138.59 7.4
6 0 -12 119.89 11.9
0 6 -12 128.99 7.5
6 0 12 99.69 11.8
-6 -12 0 136.89 7
0 -6 -12 136.99 7.4
-6 0 -12 137.59 7.3
0 -12 -6 125.59 7.9
-6 12 0 130.29 9.6
6 0 -12 149.19 7.1
6 0 -12 143.79 7.8
12 -6 0 133.39 7.3
0 6 12 100.69 12.2
-12 0 6 134.89 7.8
-6 0 -12 148.69 13.6
-6 0 -12 141.79 9
0 12 -6 144.59 8.1
0 12 -6 123.79 9.1
0 12 6 116.69 7.3
6 -12 0 147.89 13.2
6 0 12 137.49 7.3
-6 12 0 134.99 7.9
0 6 12 118.79 9.4
12 0 -6 129.49 13.5
12 0 -6 153.78 13.3
6 12 0 127.79 8.2
-12 0 6 131.99 7.6
-12 -2 -6 105.99 6.6
-12 2 6 113.69 7.5
-2 6 12 105.89 12.4
2 -12 -6 119.49 7
-2 -6 -12 115.69 6.9
12 2 -6 121.39 12.2
6 -12 2 98.99 12.7
12 -2 6 112.79 7
12 -6 -2 128.89 7.2
-6 12 2 96.79 9.6
-12 2 6 115.79 7.8
6 -2 -12 109.79 13.4
-6 12 2 113.09 7.8
-6 2 -12 111.79 12.8
-6 2 -12 131.59 7.2
6 2 12 100.79 11.7
6 -2 -12 123.69 7.4
6 -2 -12 119.99 6.9
2 -6 12 104.29 7
-12 -6 2 131.29 8.8
6 2 12 105.99 7
2 6 -12 114.89 7
2 12 6 100.99 7.3
12 6 2 106.69 7.4
-12 -6 2 108.69 6.6
-6 2 -12 110.49 7.8
6 12 -2 122.89 7.6
12 2 -6 117.09 7.5
-2 6 12 117.19 7
-12 6 -2 104.59 8.2
6 12 -2 121.79 8.7
-2 12 -6 117.49 7.8
-6 -12 -2 125.89 6.8
-12 -2 6 115.09 7.5
2 -6 -12 117.39 12.1
-12 2 -6 109.99 8.9
12 2 6 101.19 9.2
6 12 2 115.29 7.3
-6 -2 -12 126.99 7.4
2 12 -6 118.09 7.5
-6 -2 -12 82.79 11.7
-6 12 -2 128.39 8.1
2 -6 -12 117.09 7
6 12 2 101.29 7.6
-6 -2 -12 122.79 9.1
-12 -6 -2 127.09 10.2
-12 -2 6 114.89 7
6 2 -12 114.29 7.1
-12 6 2 115.19 8.1
-2 12 6 112.29 7.1
2 12 -6 104.99 8.2
-2 -12 -6 111.99 6.6
12 -2 -6 112.29 6.5
6 12 2 127.79 12.8
12 -2 -6 82.49 13.1
12 6 -2 106.49 12.1
-6 -12 2 119.79 6.7
-6 12 -2 118.09 9.4
2 -12 6 139.09 17.7
2 6 12 103.69 12.6
2 -12 6 120.99 13.4
2 6 12 106.99 7.7
6 -2 12 112.19 11.9
12 6 -2 104.09 7.2
6 -2 12 101.69 6.6
2 -12 6 93.99 7.1
12 -6 2 108.79 6.9
-2 -6 12 110.39 6.7
-2 6 -12 110.09 7.2
-6 12 -2 105.39 8.6
6 12 -4 100.09 8.5
-12 4 6 79.09 7.2
-12 4 6 100.69 7.5
-4 12 -6 95.79 7.7
6 4 12 98.29 7
4 -6 12 86.59 6.5
6 -4 -12 82.39 12.7
4 12 6 96.09 6.9
-6 4 -12 107.29 13.7
6 4 12 103.99 12.8
6 -4 -12 104.79 7.6
-6 -12 -4 106.39 6.1
12 -6 -4 102.69 6.8
-12 -4 -6 103.89 6.4
6 -12 4 109.39 13.1
-4 6 12 88.69 14.2
6 12 -4 92.49 7
4 6 -12 99.79 7
-6 -4 12 99.89 6.6
-6 4 -12 102.09 7.3
6 12 -4 81.69 13
-6 4 -12 82.79 7
-12 -6 4 96.49 7.1
4 -12 -6 99.19 6.3
-4 6 12 94.59 6.6
12 -4 6 92.49 7
6 -4 -12 101.89 7
6 -4 -12 80.29 11.6
12 6 4 100.39 6.9
12 4 -6 91.79 12.1
-12 6 -4 100.59 7.1
-4 -6 -12 99.79 7.1
-12 -6 4 100.69 7
12 4 -6 91.39 6.7
-12 -6 -4 92.69 6.7
4 -6 -12 107.69 6.8
4 -6 -12 88.89 11
-12 -4 6 96.19 6.9
4 12 -6 94.99 7.1
-6 12 -4 87.89 9
6 -4 12 100.29 6.6
-4 6 -12 118.49 7.5
12 4 6 111.99 10.3
-12 6 4 112.29 8.9
6 12 4 94.09 7.5
4 -12 6 97.59 12.8
4 12 -6 83.79 8.1
4 6 12 91.49 6.5
12 6 -4 106.19 12.3
-12 6 4 94.19 7.9
-6 -12 4 124.39 18.3
-12 -4 6 96.09 7.2
-6 -12 4 110.59 6.9
-6 12 -4 97.69 8.4
12 6 -4 95.29 6.8
-6 -4 -12 106.19 9.3
-6 -4 -12 114.69 7.1
-12 4 -6 84.59 7.6
-4 -12 -6 105.19 6.5
12 -4 -6 96.19 6.4
-4 12 6 103.19 7
-4 -6 12 106.89 6.8
6 4 -12 98.09 6.8
-6 12 -4 99.69 8.4
6 -4 12 73.89 13.3
4 -12 6 89.39 12.8
12 -6 4 102.19 6.8
6 12 6 60.29 6.8
6 -6 12 70.79 6.3
-6 12 6 53.29 6.2
-12 -6 6 79.79 6.8
6 6 -12 56.99 6.2
-12 -6 6 72.19 7.1
6 6 12 64.59 6.4
-12 6 6 65.49 7.4
-6 6 12 48.8 5.7
-6 12 -6 57.19 7.6
-6 -12 -6 70.29 5.7
6 -12 -6 58.89 5.6
-12 6 -6 65.69 6.9
6 6 12 79.89 7.3
6 12 -6 66.19 6.2
12 6 -6 58.69 5.8
12 6 -6 50.89 10.9
-12 6 6 72.79 7.5
-6 -6 12 50.59 5.3
-12 -6 -6 73.09 6.3
12 6 6 46.7 8.6
-6 6 -12 55.49 6.6
-6 12 -6 78.89 10.1
-6 -6 -12 74.09 5.8
8 0 -12 87.89 6.6
0 12 -8 85.29 7.2
8 12 0 94.09 13.3
8 0 12 87.09 7.1
-8 0 -12 73.49 12
-8 0 -12 97.79 8.9
0 8 12 87.79 6.6
0 8 -12 85.89 6.6
8 -12 0 102.09 7.4
8 12 0 86.19 7.1
12 0 -8 82.99 6.5
-12 0 -8 86.09 6.8
-12 0 8 80.39 7.8
-8 0 12 75.39 6.5
12 0 8 85.89 6.8
-12 -8 0 86.89 7
-12 8 0 86.49 7.6
-8 0 -12 88.49 6.9
0 -12 -8 96.69 6.6
8 0 -12 83.19 6.8
0 -8 12 88.79 6.2
12 -8 0 84.49 7.1
12 0 -8 72.79 12.5
12 0 -8 75.79 12.2
-12 0 8 87.49 7.3
-8 12 0 93.69 7.8
0 12 8 83.79 6.6
0 -8 -12 98.59 6.6
-8 -12 0 92.59 6.4
8 12 0 98.59 8.7
0 -12 8 92.09 6.6
8 0 12 100.89 12.7
-8 12 0 83.99 8.5
12 8 0 80.99 6.4
-12 2 8 74.09 7.3
-12 -2 -8 77.29 6.4
-8 12 2 76.29 7.4
-2 -12 8 83.69 6.4
-12 2 8 93.99 8.4
8 12 -2 59.99 10.9
12 8 2 81.09 6.8
8 -2 -12 83.59 6.9
2 8 -12 70.99 6.4
8 12 -2 75.49 6.9
2 12 8 69.19 6.1
12 -2 8 68.99 6
12 2 -8 73.79 6
8 2 12 79.89 7.2
-8 -12 -2 81.39 6.2
12 2 -8 60.89 11.8
-8 12 2 60.59 8.1
-8 2 -12 89.79 14.4
-12 -8 2 77.49 6.9
-12 8 -2 83.09 7.1
-2 -8 -12 92.89 6.4
8 -2 -12 80.09 12.7
12 2 -8 86.89 11.4
12 -8 -2 77.59 6.5
2 -12 -8 78.79 5.8
8 -2 -12 79.89 6.7
-2 12 -8 74.79 7.1
-8 2 -12 86.39 7.3
-8 2 -12 67.49 7.4
2 -8 12 76.69 5.7
8 -2 -12 55.09 11.5
-12 -8 2 85.99 7.1
-2 8 12 75.49 6.4
-8 -2 12 79.29 6.4
-12 -8 -2 81.29 6.4
-8 -2 -12 73.69 7.3
8 12 2 75.29 7
8 -2 12 85.59 6.8
12 2 8 76.39 6.5
-2 -8 12 70.29 5.6
-8 -12 2 78.69 6.5
-8 -2 -12 69.99 9.4
-2 8 -12 86.09 7.1
8 12 2 73.19 7.9
2 -12 8 65.19 6
-8 2 12 74.89 6.5
12 8 -2 77.09 6.5
-8 12 -2 68.39 8.5
8 2 -12 77.79 6.6
-12 -2 8 74.29 6.7
-2 12 8 73.49 6.2
-8 12 -2 71.09 7.6
-12 -2 8 70.49 7.8
2 8 12 66.69 6.2
-2 -12 -8 79.39 6
-12 2 -8 86.49 6.8
12 -8 2 80.99 6.8
8 -2 12 87.09 11.5
2 -8 -12 73.39 6.4
-12 8 2 74.89 7.2
2 12 -8 75.79 6.4
-1 -1 -13 51.19 6
-1 1 -13 42.5 5.3
-1 -1 13 42.3 5.2
-1 1 13 36.3 4.8
13 1 1 48 5.5
13 1 -1 36.2 4.6
-1 13 -1 40.4 5.6
1 -1 -13 36.1 5.1
1 1 13 33.2 4.6
1 13 -1 41.1 5.6
-1 -1 -13 43.3 5.1
-13 1 1 37 5
-1 -13 -1 39.8 4.9
1 -13 1 27.2 3.7
1 -1 -13 34.8 4
13 -1 -1 40.2 5.2
13 -1 1 40.4 4.8
-1 -13 1 40.3 8.6
-1 -1 -13 41.6 7.9
-1 -1 13 43.5 7.8
-1 1 -13 35.8 7
-1 1 13 36.8 8.3
-1 13 -1 64.09 10.3
-1 13 1 49.6 9.6
1 -13 1 38.9 10
1 -1 -13 45.7 8.1
1 -1 13 43 7.9
1 1 -13 27.7 6.4
1 1 13 43.5 8.2
1 13 -1 36.5 9.2
1 13 1 28.4 4.6
-1 1 -13 43.8 4.8
1 -13 -1 41.4 4.7
-1 -13 1 43.5 4.9
1 13 -1 45.6 5.5
-13 -1 1 38.6 5
-13 1 -1 31.1 4.3
1 13 1 51.09 9.8
1 1 -13 43.7 5.1
-1 13 -1 43.3 5.4
-1 13 1 45.4 5.6
1 -1 13 42.9 4.8
-13 -1 -1 42.7 5
13 1 -1 28.6 7.5
3 -1 -13 26 7.7
-1 -3 -13 38.8 9.1
-3 13 1 26.6 4.8
-13 -3 1 36.6 4.7
1 -13 -3 23.9 3.7
1 13 3 26.6 8.4
3 13 -1 35.2 8.4
3 -1 -13 36.6 4.8
13 1 -3 24.8 7.7
3 1 13 39 8.2
-3 -13 -1 20.8 3.5
-3 1 -13 29.9 7.9
13 3 1 14.2 5.2
-1 -13 3 23.6 7.5
-13 1 3 28 4.5
3 -1 -13 33.3 4.1
-1 -3 -13 38.8 5.4
-3 -1 13 28.5 4.1
-13 -1 -3 23.3 3.8
-1 13 -3 18.4 7.1
3 13 -1 27.2 4.3
-1 13 -3 27.9 4.3
1 13 3 22.7 4.7
13 -1 3 18.2 3.7
3 1 13 34.5 4.6
-13 3 -1 21.6 3.8
1 3 -13 37.2 5.1
3 -13 1 23.3 9.8
-3 1 -13 24.1 3.8
-1 3 13 37.2 8.3
-1 -13 3 32.1 4
13 -3 -1 34.5 4.7
1 -3 13 26.6 4.1
-1 -3 -13 16.5 3.5
-3 13 1 27.4 9.2
-3 1 -13 32.7 4.9
3 -13 1 29.8 4
13 1 -3 24 6.7
-1 3 13 29.4 5.1
-1 -3 13 18.5 4.2
13 -3 1 24.2 4.7
-3 -13 1 29.8 7.7
-1 -13 -3 24.8 3.9
3 13 1 28.1 4
3 13 1 56.79 9.6
-3 -1 -13 34 5.1
3 -13 -1 38.2 4.9
1 13 -3 35.8 5.5
1 3 13 32.6 4.7
3 13 1 27.6 7.1
-13 3 1 20.9 4.3
-3 13 -1 27.5 4.7
-3 -1 -13 32 9.1
-3 1 13 27.7 4.5
-3 1 13 11.5 7.9
-13 1 -3 26.7 4
-1 13 3 37.3 10.6
1 13 -3 10 7.6
-3 -13 1 25.8 3.8
-1 3 -13 28.7 5
3 -1 13 28.3 7.6
1 3 13 28.8 7.9
-1 13 3 26.9 4.7
1 -3 -13 14.5 7.4
13 -1 -3 23.4 4
3 -1 13 24 3.9
-3 -1 -13 24.5 3.8
1 -3 -13 30.7 4.8
3 1 -13 23 4.1
1 -3 -13 16.3 3.3
1 -13 3 31 3.8
13 3 -1 20.6 3.9
13 3 -1 34.5 8.1
-3 13 -1 28.2 4.9
13 1 3 17.1 4.2
-13 -3 -1 29.4 4.5
-13 -1 3 28.5 4.2
1 13 -3 28.3 4.4
3 -3 -13 21.3 7.6
3 3 13 20.5 4
-3 -3 -13 28.4 4.4
13 3 -3 28.2 7.7
3 -3 -13 19 3.7
-13 -3 -3 19.6 4
3 13 -3 10.4 8.2
3 3 13 14.2 7.9
-3 3 13 19.1 3.9
-3 13 -3 9.7 6.8
-3 13 3 10 3.8
3 -3 13 31.4 4.8
-3 -3 -13 21.9 8.4
-3 3 13 27.5 8.8
3 13 3 20.8 4.4
3 13 -3 19.7 4.7
-3 -13 3 28.3 4
-3 -3 -13 23.4 5
-3 3 -13 21 5.1
-3 13 -3 23.9 4.9
3 -3 -13 22.9 4.5
3 3 -13 17.5 3.9
3 13 -3 17.1 4.2
13 -3 -3 19.1 3.8
13 -3 3 22 4
13 3 -3 31 4.4
13 3 3 18.2 3.8
-13 3 -3 19.7 3.8
-13 3 3 20.2 3.9
-3 -13 -3 19.1 3.4
-13 -3 3 21.4 4.1
-3 -13 3 26.4 8
3 -13 3 19.3 3.6
-3 -3 13 22 3.8
3 -13 3 23.2 9.2
1 5 -13 8.4 3.6
1 -13 -5 16 3.4
13 -5 -1 13.4 3.5
-5 13 1 16.9 5.9
1 13 5 17.8 4.2
13 5 1 16.9 4
5 1 13 14.7 3.6
-1 -5 -13 27.7 8.9
5 -1 -13 22 3.9
5 -1 -13 6 8.5
-1 5 13 19.3 4
1 -5 13 18.6 4.1
-5 -13 -1 16.3 3.5
5 13 -1 9.1 4.2
-1 -5 -13 31.5 7.3
-13 -1 -5 20 4
-13 -5 1 12.5 3.5
-13 5 -1 16.3 4.1
-1 5 13 15 8.5
5 13 -1 16.1 4.1
-5 1 -13 20.6 8.7
5 -1 -13 14.3 7.2
-5 1 -13 23.1 4.7
-1 13 -5 14.5 4
5 1 13 26 7.8
5 -1 -13 25.8 4.6
5 13 -1 31.2 9.3
13 -1 5 18.2 3.9
-5 -1 13 15.2 3.6
13 1 -5 10.7 3.3
5 -13 1 2 8.5
-13 1 5 16.3 4.3
-1 13 -5 21.3 5
13 1 -5 26.8 7.9
-5 1 -13 19.7 4
-1 -5 -13 17.2 3.5
13 1 5 16.6 4
-13 -1 5 14.1 4
5 13 1 15.3 3.9
1 -13 5 22.2 3.7
-5 -1 -13 17.9 3.9
5 -1 13 7.4 7.5
1 13 -5 25.9 4.8
1 5 13 19 8.1
5 1 -13 14.1 4
-13 5 1 10.9 3.8
-1 -5 13 13.8 3.5
13 5 -1 12.1 3.5
-1 5 -13 13.2 4
5 13 1 15.9 8.8
-5 -1 -13 15.7 5
1 -5 -13 10.6 7.8
1 13 -5 14.3 4.7
-13 1 -5 11.6 3.6
13 -1 -5 12.8 3.4
-5 13 -1 24.4 5.4
5 13 1 19 4.7
-1 -13 -5 13.8 3.5
-1 13 5 26.4 4.6
-5 1 13 25.6 4.3
-13 -5 -1 18.6 3.8
5 -13 -1 13.2 4.1
-5 -13 1 20.1 3.8
-5 -1 -13 27.6 8.3
1 -5 -13 19.8 3.7
1 5 13 16.9 3.8
13 -5 1 8.8 3.4
5 -1 13 21.7 4.2
-5 3 -13 14.1 4.5
-3 13 -5 4.3 4.3
-5 3 -13 19.3 4.2
3 -13 -5 8.7 3.1
-3 13 -5 9.4 4
3 5 -13 10.7 3.8
5 13 -3 16.2 4.2
5 3 13 16.6 8.1
3 13 5 7.9 3.8
3 -5 13 13.4 3.5
-5 13 3 23.4 4.8
13 3 -5 1.1 7.8
5 -13 3 21.4 9.5
5 13 -3 0.3 8.3
5 -3 -13 15.2 10
-3 -5 -13 10 12.9
-3 5 13 10.2 3.3
5 13 -3 5.6 4.3
-13 -5 3 12.2 4
-13 5 -3 16.5 3.8
5 -3 -13 15.7 4.2
-3 -5 -13 19 3.6
13 -5 -3 14.5 3.8
-3 5 13 19.6 10.1
-5 -13 -3 14.3 3.5
-3 -5 -13 3.6 5.4
-5 -3 13 16.8 4.1
-13 3 5 7.9 4
13 -3 5 12.3 3.8
13 3 -5 11.5 3.5
5 -3 -13 17 3.9
13 5 3 12 3.6
5 -3 -13 7.6 7.4
5 3 13 18.1 4.1
-13 -3 -5 6.4 3.3
5 -3 13 12.3 4
3 5 13 13.1 4.1
-3 13 5 10.6 3.8
13 -5 3 8.8 3.7
13 5 -3 7.6 7.8
13 5 -3 12.9 3.6
5 -13 -3 9.9 3.6
-3 -5 13 9.6 3.3
-5 -13 3 -10.4 10.9
-5 -3 -13 9.3 3.3
-3 -13 -5 14.5 3.1
3 5 13 10.8 8.2
3 -13 5 12.9 3.6
-3 5 -13 14.7 4
3 13 -5 5.3 4.4
13 3 5 13.3 3.8
-13 -3 5 21.9 4.4
-13 -5 -3 10.7 3.2
3 13 -5 10.5 3.8
-5 13 -3 6.7 4.2
5 3 -13 16.4 4.1
-13 3 -5 15.1 3.9
-5 -13 3 23.5 4.1
13 -3 -5 12.5 4.7
3 -5 -13 22.6 8.7
-5 13 -3 15 4.8
3 -5 -13 17.6 3.7
-5 -3 -13 23.4 9.5
-5 3 13 14.3 3.8
-13 5 3 10.8 4.1
5 13 3 9.8 4
-5 -3 -13 3 4.8
5 -5 13 9.6 3.9
5 5 13 3.3 3.5
13 5 -5 8.6 8
5 13 5 9.7 4
-5 13 -5 4.6 4.4
-5 13 5 8.7 4.2
5 -5 -13 12.5 4
5 13 -5 4.6 4.6
-5 -13 -5 8.4 3.2
13 -5 5 9.2 3.5
13 5 -5 3.8 3.3
5 5 -13 10.1 3.7
13 5 5 10.2 3.8
-13 5 -5 7.2 3.6
-5 5 13 7.8 3.4
-13 -5 -5 3.3 3
-13 -5 5 6.4 3.8
13 -5 -5 14.7 4.1
5 -13 -5 10.3 3.5
-5 -5 -13 0.4 5.9
-5 5 -13 3.9 3.9
-5 13 -5 11.1 4.8
-5 -5 13 6.1 3.2
-13 5 5 5.9 3.7
5 -5 -13 6.8 8.5
-5 -5 -13 8.6 3.7
-13 -1 -7 0.3 3.3
-13 1 7 14.8 4.9
-7 1 -13 6.6 4
-13 -7 1 8.1 3.9
-13 7 -1 6.9 4
7 -1 -13 6.5 5.8
13 7 1 2.6 3.5
13 -7 -1 15.5 4.1
-1 13 -7 7.7 4.1
-1 -7 -13 10.4 3.5
7 13 -1 11.2 4.4
-1 7 13 5 3.4
1 -7 13 9 3.7
1 -13 -7 6.3 3.3
7 -1 -13 3.7 3.8
-7 -1 13 8.6 3.6
-7 1 -13 7.1 9.1
-7 13 1 6.8 4.7
7 13 -1 4.7 4.8
7 1 13 14.7 8.6
7 13 -1 8.8 8.9
13 1 -7 1.5 17
-7 1 -13 8.8 4.6
-13 1 7 8.9 7.1
1 13 7 7.6 3.6
13 1 -7 12.4 3.8
7 1 13 11.6 4.3
1 7 -13 9.3 3.8
13 -1 7 3.5 3.3
-7 13 1 7.9 4.5
-1 13 -7 4.6 4.7
-7 1 13 8.2 3.6
-1 13 7 5.1 3.3
1 13 -7 8.8 4.3
13 -7 1 10.9 3.6
7 1 -13 9.2 3.8
-7 -1 -13 11.1 3.9
1 7 13 16.1 4.1
7 -1 13 24.4 8.7
-13 -7 -1 13.8 3.5
-13 -1 7 10.5 4.9
13 1 7 4.3 3.6
-13 1 -7 8.4 3.6
-7 -1 -13 1.1 4.6
-7 -13 1 9.7 3.5
-13 7 1 0.9 3.7
-7 13 -1 5.7 6
-1 7 -13 6.4 3.6
1 -7 -13 4 3.4
7 -1 13 7.8 3.7
-7 13 -1 5.4 4.9
13 7 -1 13.5 3.8
-1 -7 13 5.5 3.3
7 13 1 6.8 4.5
7 13 1 2.6 4.1
13 -1 -7 5.7 3.5
-7 13 -1 1.3 5.2
-1 -13 -7 7.2 2.9
0 0 -14 74.99 6.5
0 0 -14 68.69 6.5
-14 0 0 64.79 5.7
0 0 14 66.29 5.5
14 0 0 68.59 6
0 14 0 60.69 6.5
0 -14 0 60.29 5.7
0 14 0 56.29 11.1
2 0 -14 63.29 6.6
14 -2 0 47.8 5.7
14 0 -2 57.79 5.5
0 -2 -14 56.59 6.6
-14 -2 0 52.09 5.4
0 2 -14 51.59 7.1
14 0 2 55.69 5.4
-2 14 0 51.79 10.4
-14 0 -2 61.79 5.8
-14 0 2 64.59 5.9
-2 -14 0 63.99 5.7
0 -2 -14 66.89 6.2
2 -14 0 57.69 5.9
-2 0 14 67.29 5.9
0 14 -2 56.59 6.5
0 -14 -2 62.29 5.8
2 0 14 52.89 5.9
0 2 14 59.69 5.8
2 14 0 47.4 10.4
-14 2 0 51.29 5.6
-2 0 -14 70.89 6.2
0 -2 -14 86.99 12.1
14 2 0 54.99 5.3
0 14 -2 46.1 5.6
2 14 0 51.79 5.8
0 14 -2 53.99 10.9
0 2 14 52.89 10.3
0 -14 2 57.29 5.5
0 14 2 58.99 6.6
-2 0 -14 55.39 6.7
-2 14 0 55.69 6.5
0 -2 14 54.19 5.2
-14 2 2 55.39 6.2
-14 -2 -2 55.79 5.3
2 14 -2 38.2 5.6
2 14 2 46.1 6.2
2 -2 14 41.5 5
-2 -2 -14 41.4 10
-2 2 -14 58.89 6.5
-2 14 -2 55.89 7.4
2 -2 -14 55.79 6.9
-2 -14 -2 56.89 6.3
-14 2 -2 53.09 5.8
14 -2 -2 57.59 5.4
14 -2 2 45.3 5.2
14 2 -2 50.19 5.3
14 2 2 55.69 5.6
-14 -2 2 56.49 5.6
2 2 14 48.3 5.3
-2 -2 -14 54.69 6.2
2 -14 -2 53.79 5.6
2 -14 2 49.99 5.3
-2 -2 -14 36.9 5.7
2 14 -2 60.79 6.7
-2 2 14 53.29 5.3
-2 14 -2 48.1 6
-2 14 2 51.29 6.5
-2 -2 14 48.4 5.1
2 -2 -14 48 5.9
2 14 -2 61.79 11.1
2 2 14 57.09 9.9
-2 -14 2 58.19 5.7
-2 2 14 30.2 10
2 -2 -14 44.5 9.7
4 0 14 54.89 5.7
4 14 0 48.3 11.4
14 0 -4 49.99 5.4
-4 0 -14 51.59 7.1
0 14 4 45.4 6.1
-14 -4 0 60.69 6
-14 4 0 47 5.7
-4 0 -14 67.09 6.7
4 14 0 51.69 6.3
0 4 14 85.69 13.4
-4 -14 0 47.4 5.5
0 -4 -14 60.69 6
-14 0 -4 54.19 5.6
0 -4 -14 41 9.4
-4 14 0 59.79 6.9
0 -4 14 62.39 5.6
0 4 14 59.39 5.6
0 14 -4 35.4 5.3
14 -4 0 58.99 5.9
14 4 0 52.29 5.8
0 4 -14 64.29 6.8
-4 0 14 48.5 5.6
0 -4 -14 48.8 6.8
0 -14 -4 50.09 5.2
-14 0 4 59.19 6.6
14 0 4 54.29 5.7
4 14 0 55.99 7.1
4 -14 2 33.7 10.4
4 2 14 21.4 8.8
4 14 -2 60.69 11.2
14 -4 -2 50.89 5.9
-4 2 -14 39.1 5.9
-4 -2 14 49 5.5
4 14 -2 53.49 6.9
-14 -4 2 47.3 6
14 2 -4 43.1 5.5
-2 -4 -14 43.5 5.6
2 14 4 44.2 6
2 4 -14 50.59 6.3
4 2 14 47 5.4
-2 14 -4 40.1 5.8
2 -14 -4 45.5 4.9
4 -2 -14 44.8 5.9
4 -2 -14 46.7 6.2
-2 4 14 48.4 5.7
2 -4 14 46.5 5.5
-4 14 2 42.3 6
4 14 -2 24.3 5
-2 4 14 52.59 11.3
-2 14 -4 57.69 7
14 4 2 43.1 5.4
-14 -2 -4 43.6 5.7
-4 -14 -2 47.7 5.7
-2 -4 -14 65.09 8.6
4 -14 2 48.7 5.5
-14 2 4 47.6 6.4
-14 4 -2 51.19 6
4 -2 14 52.79 5.8
-2 -4 14 50.89 5.1
2 14 -4 46.5 6.5
-4 14 -2 26 4.8
-14 2 -4 42.4 5.4
-14 4 2 35 5.1
2 -4 -14 42.8 5.1
-4 14 -2 48.7 6.5
2 4 14 49.7 5.3
-2 4 -14 48.6 6.3
4 -14 -2 42.6 5.6
-4 2 14 47.2 5.6
14 -2 -4 43 5.6
-2 14 4 46.1 6.3
14 2 4 46.9 5.7
2 -4 -14 12.8 11.5
-14 -4 -2 47.4 5.6
4 14 2 39 5.9
-14 -2 4 52.39 6.2
-4 -2 -14 44.5 6.4
-4 -2 -14 36.8 5
-2 -14 -4 49 5.5
2 14 -4 47.7 5.9
2 -14 4 46.1 5.1
4 2 -14 48.1 6.3
2 4 14 33.1 10
14 -4 2 45.3 5.6
14 4 -2 52.89 5.4
-4 -14 2 48.8 5.5
