#------------------------------------------------------------------------------
#$Date: 2019-11-25 20:13:13 +0200 (Mon, 25 Nov 2019) $
#$Revision: 241712 $
#$URL: file:///home/coder/svn-repositories/cod/cif/4/13/15/4131522.cif $
#------------------------------------------------------------------------------
#
# This file is available in the Crystallography Open Database (COD),
# http://www.crystallography.net/
#
# All data on this site have been placed in the public domain by the
# contributors.
#
data_4131522
loop_
_publ_author_name
'Kim, Woo Gyum'
'Kang, Mi Eun'
'Lee, Jae Bin'
'Jeon, Min Ho'
'Lee, Sungmin'
'Lee, Jungha'
'Choi, Bongseo'
'Cal, Pedro M. S. D.'
'Kang, Sebyung'
'Kee, Jung-Min'
'Bernardes, Gon\,calo J L'
'Rohde, Jan-Uwe'
'Choe, Wonyoung'
'Hong, Sung You'
_publ_section_title
;
 Nickel-Catalyzed Azide-Alkyne Cycloaddition To Access 1,5-Disubstituted
 1,2,3-Triazoles in Air and Water.
;
_journal_issue                   35
_journal_name_full               'Journal of the American Chemical Society'
_journal_page_first              12121
_journal_page_last               12124
_journal_paper_doi               10.1021/jacs.7b06338
_journal_volume                  139
_journal_year                    2017
_chemical_formula_sum            'C19 H15 N3'
_chemical_formula_weight         285.34
_chemical_name_common            GD-19
_chemical_name_systematic        GD-19
_space_group_crystal_system      monoclinic
_space_group_IT_number           4
_space_group_name_Hall           'P 2yb'
_space_group_name_H-M_alt        'P 1 21 1'
_atom_sites_solution_hydrogens   geom
_audit_creation_method           SHELXL-2014/7
_cell_angle_alpha                90
_cell_angle_beta                 104.96(3)
_cell_angle_gamma                90
_cell_formula_units_Z            2
_cell_length_a                   8.1940(16)
_cell_length_b                   6.0730(12)
_cell_length_c                   15.178(3)
_cell_measurement_reflns_used    2564
_cell_measurement_temperature    100(2)
_cell_measurement_theta_max      31.531
_cell_measurement_theta_min      2.573
_cell_volume                     729.7(3)
_computing_structure_refinement  'SHELXL-2014/7 (Sheldrick, 2014)'
_diffrn_ambient_temperature      100(2)
_diffrn_measured_fraction_theta_full 0.976
_diffrn_measured_fraction_theta_max 0.977
_diffrn_measurement_device_type  'Rayonix Ms225-HS'
_diffrn_measurement_method       'omega scan'
_diffrn_radiation_source         'Bending magnet'
_diffrn_radiation_type           Synchrotron
_diffrn_radiation_wavelength     0.660
_diffrn_reflns_av_R_equivalents  0.0971
_diffrn_reflns_av_unetI/netI     0.0780
_diffrn_reflns_Laue_measured_fraction_full 0.976
_diffrn_reflns_Laue_measured_fraction_max 0.977
_diffrn_reflns_limit_h_max       11
_diffrn_reflns_limit_h_min       -12
_diffrn_reflns_limit_k_max       8
_diffrn_reflns_limit_k_min       0
_diffrn_reflns_limit_l_max       22
_diffrn_reflns_limit_l_min       -22
_diffrn_reflns_number            4332
_diffrn_reflns_point_group_measured_fraction_full 0.538
_diffrn_reflns_point_group_measured_fraction_max 0.530
_diffrn_reflns_theta_full        25.242
_diffrn_reflns_theta_max         31.531
_diffrn_reflns_theta_min         2.573
_exptl_absorpt_coefficient_mu    0.079
_exptl_crystal_colour            clear
_exptl_crystal_density_diffrn    1.299
_exptl_crystal_description       rectangular
_exptl_crystal_F_000             310
_refine_diff_density_max         0.603
_refine_diff_density_min         -0.602
_refine_diff_density_rms         0.170
_refine_ls_abs_structure_details
;
No quotients, so Flack parameter determined by classical intensity fit
;
_refine_ls_abs_structure_Flack   -1(4)
_refine_ls_extinction_method     none
_refine_ls_goodness_of_fit_ref   1.203
_refine_ls_hydrogen_treatment    constr
_refine_ls_matrix_type           full
_refine_ls_number_parameters     199
_refine_ls_number_reflns         2564
_refine_ls_number_restraints     1
_refine_ls_restrained_S_all      1.203
_refine_ls_R_factor_all          0.0818
_refine_ls_R_factor_gt           0.0566
_refine_ls_shift/su_max          0.000
_refine_ls_shift/su_mean         0.000
_refine_ls_structure_factor_coef Fsqd
_refine_ls_weighting_details
'w=1/[\s^2^(Fo^2^)+(0.1468P)^2^+0.0224P] where P=(Fo^2^+2Fc^2^)/3'
_refine_ls_weighting_scheme      calc
_refine_ls_wR_factor_gt          0.1853
_refine_ls_wR_factor_ref         0.2176
_reflns_Friedel_coverage         0.000
_reflns_Friedel_fraction_full    0.000
_reflns_Friedel_fraction_max     0.000
_reflns_number_gt                2415
_reflns_number_total             2564
_reflns_threshold_expression     'I > 2\s(I)'
_cod_data_source_file            ja7b06338_si_003.cif
_cod_data_source_block           P21_a
_cod_original_sg_symbol_H-M      'P 21'
_cod_database_code               4131522
_shelx_shelxl_version_number     2014/7
_shelx_space_group_comment
;
The symmetry employed for this shelxl refinement is uniquely defined
by the following loop, which should always be used as a source of
symmetry information in preference to the above space-group names.
They are only intended as comments.
;
_shelx_res_file
;

    P21_a.res created by SHELXL-2014/7

TITL P21_a.res in P2(1)
CELL  0.71073   8.1940   6.0730  15.1780   90.000  104.956   90.000
ZERR    2.000   0.0016   0.0012   0.0030    0.000    0.030    0.000
LATT -1
SYMM -X, 1/2+Y, -Z
SFAC C  H  N
UNIT 38 40 6
L.S. 10
ACTA
BOND $H
FMAP 2
PLAN 5
LIST 6
WGHT    0.146800    0.022400
FVAR       2.88726
N1A   3    0.439333    0.251433    0.219632    11.00000    0.02934    0.04114 =
         0.02844   -0.00010    0.00867   -0.00081
N2A   3    0.567199    0.128176    0.207115    11.00000    0.03759    0.05432 =
         0.04465   -0.00064    0.01085    0.01028
C11C  1    0.622929    0.338092    0.459947    11.00000    0.02945    0.03000 =
         0.02650    0.00421    0.01124    0.00204
AFIX  43
H11C  2    0.596943    0.200447    0.479509    11.00000   -1.20000
AFIX   0
C9C   1    0.840364    0.396748    0.606296    11.00000    0.03757    0.04323 =
         0.02333    0.00342    0.01029    0.00873
AFIX  43
H9C   2    0.817342    0.259653    0.627608    11.00000   -1.20000
AFIX   0
C2C   1    0.542048    0.408600    0.374251    11.00000    0.02375    0.03588 =
         0.02530    0.00378    0.00718    0.00070
C1C   1    0.413462    0.264252    0.311377    11.00000    0.02880    0.04435 =
         0.02796    0.00343    0.00696   -0.00717
AFIX  23
H1C1  2    0.419542    0.117194    0.336963    11.00000   -1.20000
H1C2  2    0.301317    0.321689    0.307364    11.00000   -1.20000
AFIX   0
C5C   1    0.780470    0.683848    0.489743    11.00000    0.02534    0.03248 =
         0.02949   -0.00039    0.01313    0.00136
C10C  1    0.745952    0.471148    0.519691    11.00000    0.02475    0.03221 =
         0.02437    0.00213    0.01050    0.00483
C3C   1    0.576486    0.622455    0.345389    11.00000    0.03215    0.03559 =
         0.03034    0.00839    0.00628    0.00108
AFIX  43
H3C   2    0.519646    0.672073    0.287656    11.00000   -1.20000
AFIX   0
C6C   1    0.906999    0.815578    0.547342    11.00000    0.02842    0.04098 =
         0.03728   -0.00757    0.01377   -0.00466
AFIX  43
H6C   2    0.927392    0.956693    0.528895    11.00000   -1.20000
AFIX   0
C2A   1    0.364641    0.368664    0.143296    11.00000    0.03051    0.04148 =
         0.02707    0.00055    0.00935   -0.00094
C4C   1    0.691548    0.754877    0.401308    11.00000    0.03166    0.03301 =
         0.03333    0.00656    0.00872   -0.00024
AFIX  43
H4C   2    0.712422    0.894319    0.381349    11.00000   -1.20000
AFIX   0
C6B   1    0.073215    0.456444    0.158058    11.00000    0.03197    0.04855 =
         0.03453    0.00155    0.00812    0.00005
AFIX  43
H6B   2    0.066231    0.318026    0.183041    11.00000   -1.20000
AFIX   0
C4B   1   -0.053807    0.807411    0.108526    11.00000    0.05117    0.06013 =
         0.03536   -0.00442    0.00046    0.02304
AFIX  43
H4B   2   -0.144208    0.904325    0.101183    11.00000   -1.20000
AFIX   0
C1B   1    0.220231    0.518029    0.133407    11.00000    0.03291    0.03878 =
         0.02460    0.00063    0.00609    0.00005
C5B   1   -0.061737    0.600773    0.145386    11.00000    0.03585    0.06743 =
         0.04065   -0.00227    0.00622    0.01347
AFIX  43
H5B   2   -0.158810    0.558169    0.161866    11.00000   -1.20000
AFIX   0
C1A   1    0.454255    0.306587    0.081954    11.00000    0.04435    0.06915 =
         0.03256   -0.00082    0.01746    0.00582
AFIX  43
H1A   2    0.434644    0.357122    0.022293    11.00000   -1.20000
AFIX   0
C2B   1    0.226193    0.726455    0.094863    11.00000    0.05228    0.04528 =
         0.03418    0.00469    0.00808   -0.00312
AFIX  43
H2B   2    0.322137    0.769586    0.077370    11.00000   -1.20000
AFIX   0
C7C   1    0.998914    0.738071    0.629246    11.00000    0.03096    0.05958 =
         0.03403   -0.01362    0.01183   -0.00265
AFIX  43
H7C   2    1.083544    0.824661    0.665647    11.00000   -1.20000
AFIX   0
N3A   3    0.575353    0.160388    0.122306    11.00000    0.04546    0.07642 =
         0.04461   -0.00310    0.02005    0.01479
C8C   1    0.965976    0.526178    0.659089    11.00000    0.03664    0.05918 =
         0.02493   -0.00234    0.00670    0.00934
AFIX  43
H8C   2    1.029803    0.473704    0.714943    11.00000   -1.20000
AFIX   0
C3B   1    0.089795    0.869007    0.082617    11.00000    0.07012    0.04181 =
         0.03445    0.00226    0.00033    0.00967
AFIX  43
H3B   2    0.094860    1.006921    0.056820    11.00000   -1.20000
AFIX   0
HKLF 4

REM  P21_a.res in P2(1)
REM R1 =  0.0566 for    2415 Fo > 4sig(Fo)  and  0.0818 for all    2564 data
REM    199 parameters refined using      1 restraints

END

WGHT      0.1441      0.0279

REM Highest difference peak  0.603,  deepest hole -0.602,  1-sigma level  0.170
Q1    1  -0.0933  0.8891  0.0995  11.00000  0.05    0.60
Q2    1  -0.1381  0.3900  0.0685  11.00000  0.05    0.55
Q3    1   0.3560  0.6486  0.0838  11.00000  0.05    0.52
Q4    1  -0.1500  0.9095  0.0544  11.00000  0.05    0.51
Q5    1   0.6574  0.3532  0.3005  11.00000  0.05    0.49
;
_shelx_res_checksum              8923
_shelx_hkl_file
;
   0   0   2 1472.27   64.35
   0   0   6 1343.43   33.47
   0   0   7 3729.78   94.90
   0   0   8 3833.27   88.63
   0   0   9  718.95   20.51
   0   0  10  150.25    5.70
   0   0  11   65.67    2.97
   0   0  12  319.54   12.40
   0   0  13 1144.38   33.85
   0   0  14  113.43    4.48
   0   0  15  192.30    7.45
   0   0  16  419.40   14.05
   0   0  17  296.49   10.70
   0   0  18   16.03    1.60
   0   0  19   23.01    1.89
   0   0  20   24.23    2.50
   0   0  21    0.80    1.51
  -1   0 -20  219.79    9.52
  -1   0 -19    0.94    1.04
  -1   0 -18  180.61    7.40
  -1   0 -17   38.33    2.31
  -1   0 -16  176.60    7.31
  -1   0 -15  244.07    9.95
  -1   0 -14  469.61   16.26
  -1   0 -13   42.81    2.36
  -1   0 -12 1642.32   42.76
  -1   0 -11  633.24   20.93
  -1   0 -10  431.89   13.77
  -1   0  -9  591.80   16.08
  -1   0  -8  230.49    7.07
  -1   0  -7 1014.17   23.71
  -1   0  -6 1720.30   41.72
  -1   0  -5  533.49   16.03
  -1   0  -2   49.88    2.17
  -1   0  -1   -1.18    0.42
  -1   0   0 1003.00   28.43
  -1   0   3  628.34   15.70
  -1   0   4  944.87   26.50
  -1   0   5  907.48   24.89
  -1   0   6  406.90   12.54
  -1   0   7 1535.82   36.35
  -1   0   8   69.73    2.73
  -1   0   9 1847.68   45.02
  -1   0  10  986.17   25.13
  -1   0  11  223.09    7.40
  -1   0  12   54.45    2.59
  -1   0  13    8.44    1.13
  -1   0  14   52.90    2.83
  -1   0  15    0.05    0.71
  -1   0  16   52.14    3.16
  -1   0  17   29.23    2.12
  -1   0  18    5.94    1.18
  -1   0  19   56.71    3.44
  -1   0  20    3.96    1.13
  -2   0 -20    4.38    3.44
  -2   0 -19   93.35    4.43
  -2   0 -18  120.83    5.00
  -2   0 -17  131.20    5.56
  -2   0 -16  253.64    9.05
  -2   0 -15    3.72    0.85
  -2   0 -14  287.72   11.41
  -2   0 -13   22.39    1.84
  -2   0 -12  604.67   20.32
  -2   0 -11  367.30   13.06
  -2   0 -10    1.89    0.57
  -2   0  -9  593.31   19.38
  -2   0  -8    4.43    0.61
  -2   0  -7  718.25   19.52
  -2   0  -6  146.52    5.75
  -2   0  -5  268.20    9.19
  -2   0  -4   85.52    4.29
  -2   0  -3 1652.22   47.57
  -2   0  -2   -0.80    0.71
  -2   0  -1    1.46    0.47
  -2   0   3   -4.76    1.37
  -2   0   5 2016.79   50.11
  -2   0   6 1346.07   40.69
  -2   0   7 2279.34   55.44
  -2   0   8 2294.19   54.40
  -2   0   9 4806.66  107.54
  -2   0  10 4212.68   97.87
  -2   0  11 1479.30   41.44
  -2   0  12    2.78    0.75
  -2   0  13  125.55    5.52
  -2   0  14   54.07    3.25
  -2   0  15  474.13   17.16
  -2   0  16  158.22    6.65
  -2   0  17  697.78   26.97
  -2   0  18  718.95   22.63
  -2   0  19   18.57    1.70
  -2   0  20   25.22    2.17
  -2   0  21   12.87    2.03
  -2   0  22   32.53    3.49
  -3   0 -19    7.26    1.84
  -3   0 -18    9.00    1.74
  -3   0 -17   88.54    4.71
  -3   0 -16  153.55    6.79
  -3   0 -15    6.18    1.08
  -3   0 -14  514.49   16.74
  -3   0 -13  121.77    5.56
  -3   0 -12  416.19   14.00
  -3   0 -11  693.45   23.15
  -3   0 -10  258.35   10.42
  -3   0  -9 1205.58   35.92
  -3   0  -8  262.50    9.05
  -3   0  -7    0.66    0.52
  -3   0  -6    0.57    0.47
  -3   0  -5 1542.09   46.72
  -3   0  -4   -0.57    0.99
  -3   0  -3 1313.40   37.10
  -3   0  -2  851.29   27.06
  -3   0  -1   90.19    3.63
  -3   0   0    3.44    0.42
  -3   0   1 1433.24   36.87
  -3   0   2 2100.85   61.62
  -3   0   3  358.82   12.96
  -3   0   4  125.03    6.03
  -3   0   5   -2.12    1.56
  -3   0   6 5158.59  186.22
  -3   0   7 5452.44  115.46
  -3   0   8  360.51   12.68
  -3   0   9 1937.92   46.72
  -3   0  10 1841.65   51.29
  -3   0  11 1454.12   44.46
  -3   0  12  583.88   17.44
  -3   0  13  162.08    6.46
  -3   0  14  684.25   22.35
  -3   0  15  196.45    9.71
  -3   0  16    2.73    1.32
  -3   0  17    5.33    0.90
  -3   0  18   25.51    1.60
  -3   0  19   44.13    2.73
  -3   0  20   54.59    4.24
  -3   0  21    4.57    1.60
  -3   0  22  110.79    9.38
  -4   0 -18    1.60    1.70
  -4   0 -17    2.36    1.23
  -4   0 -16   55.58    3.21
  -4   0 -15  234.73    9.19
  -4   0 -14  205.13    8.63
  -4   0 -13   94.10    3.77
  -4   0 -12  157.04    6.36
  -4   0 -11  330.67   10.70
  -4   0 -10  951.94   26.26
  -4   0  -9  921.86   24.75
  -4   0  -8 2047.95   50.63
  -4   0  -7 4545.95  119.09
  -4   0  -6    1.60    0.47
  -4   0  -5    5.85    0.71
  -4   0  -4   67.61    3.21
  -4   0  -3  296.54    9.99
  -4   0  -2  538.11   16.12
  -4   0  -1  161.47    5.89
  -4   0   0   26.92    1.70
  -4   0   1  116.82    4.90
  -4   0   2   19.85    1.13
  -4   0   3   99.05    3.91
  -4   0   4  442.87   15.37
  -4   0   5 1326.50   50.68
  -4   0   6   17.63    1.60
  -4   0   7    5.47    0.90
  -4   0   8  173.92    6.65
  -4   0   9  440.28   14.71
  -4   0  10    4.81    1.04
  -4   0  11  191.88    8.16
  -4   0  12 1487.26   41.25
  -4   0  13 1435.17   35.64
  -4   0  14    3.11    0.94
  -4   0  15  198.01    7.78
  -4   0  16    2.40    1.08
  -4   0  17   16.41    1.46
  -4   0  18   24.04    1.93
  -4   0  19  164.77    7.35
  -4   0  20  197.02    8.53
  -4   0  21  310.07   11.83
  -4   0  22    3.35    1.23
  -5   0 -17    2.31    0.99
  -5   0 -16   24.19    2.55
  -5   0 -15   47.76    3.02
  -5   0 -14   -0.19    1.60
  -5   0 -13  314.83   11.60
  -5   0 -12   28.52    1.84
  -5   0 -11    0.94    0.66
  -5   0 -10   25.27    1.65
  -5   0  -9  688.73   21.92
  -5   0  -8   -0.33    1.60
  -5   0  -7  935.68   27.91
  -5   0  -6 1048.68   37.48
  -5   0  -5 2378.62   59.12
  -5   0  -4  187.07    6.65
  -5   0  -3   75.62    3.02
  -5   0  -2  371.83   12.12
  -5   0  -1    7.17    0.94
  -5   0   0 2369.81   56.90
  -5   0   1  211.35    7.26
  -5   0   2  281.45    9.66
  -5   0   3   52.71    3.21
  -5   0   4    2.03    0.66
  -5   0   5  584.45   17.87
  -5   0   6  413.69   15.04
  -5   0   7  146.10    5.56
  -5   0   8   14.00    1.60
  -5   0   9   12.45    1.79
  -5   0  10   15.65    1.27
  -5   0  11  905.97   25.51
  -5   0  12  463.57   15.18
  -5   0  13   33.52    2.36
  -5   0  14  304.27   11.31
  -5   0  15  295.88   11.55
  -5   0  16   51.95    3.49
  -5   0  17   28.24    3.35
  -5   0  18    2.07    1.04
  -5   0  19    1.04    1.13
  -5   0  20    1.56    2.03
  -5   0  21   79.25    5.37
  -5   0  22   13.58    3.25
  -6   0 -15   -0.14    1.51
  -6   0 -14    1.27    1.23
  -6   0 -13    2.31    0.90
  -6   0 -12    4.48    1.04
  -6   0 -11    8.67    1.32
  -6   0 -10    3.82    0.94
  -6   0  -9  600.10   20.70
  -6   0  -8   52.75    3.16
  -6   0  -7  189.05    7.83
  -6   0  -6  768.36   23.20
  -6   0  -5 4644.43  104.75
  -6   0  -4  203.52    7.50
  -6   0  -3 1089.18   27.20
  -6   0  -2  123.28    5.28
  -6   0  -1 1006.25   29.75
  -6   0   0 4407.30   97.78
  -6   0   1   19.19    1.56
  -6   0   2   80.57    3.91
  -6   0   3 2918.43   76.56
  -6   0   4   74.39    3.87
  -6   0   5   95.61    4.20
  -6   0   6   35.97    1.89
  -6   0   7   87.45    4.71
  -6   0   8 1381.61   42.15
  -6   0   9  906.02   27.20
  -6   0  10  152.04    8.06
  -6   0  11    0.00    0.80
  -6   0  12   69.77    3.82
  -6   0  13   99.99    5.23
  -6   0  14  340.81   12.16
  -6   0  15    7.07    1.37
  -6   0  16   98.25    5.94
  -6   0  17   21.73    1.56
  -6   0  18    3.54    1.18
  -6   0  19   95.70    4.53
  -6   0  20    4.95    1.60
  -6   0  21   50.26    4.15
  -7   0 -14    0.33    1.27
  -7   0 -13    5.66    1.18
  -7   0 -12   96.79    5.09
  -7   0 -11   64.78    3.63
  -7   0 -10   67.23    3.35
  -7   0  -9   52.19    3.54
  -7   0  -8    1.74    0.90
  -7   0  -7  815.22   26.87
  -7   0  -6  343.02   12.54
  -7   0  -5  537.02   17.77
  -7   0  -4   15.27    1.23
  -7   0  -3 2693.78   60.96
  -7   0  -2  420.06   14.24
  -7   0  -1   82.64    3.72
  -7   0   0   19.52    1.46
  -7   0   1  603.07   18.57
  -7   0   2  976.83   28.00
  -7   0   3 1147.35   30.41
  -7   0   4   23.48    1.60
  -7   0   5 1485.90   40.64
  -7   0   6    0.28    1.04
  -7   0   7  996.68   29.37
  -7   0   8  224.69    9.85
  -7   0   9   35.83    2.45
  -7   0  10 1054.67   33.57
  -7   0  11  324.12   13.34
  -7   0  12   27.63    2.03
  -7   0  13   16.36    1.84
  -7   0  14    4.38    1.56
  -7   0  15   57.70    3.35
  -7   0  16   98.20    4.48
  -7   0  17   11.55    1.60
  -7   0  18  333.83   12.30
  -7   0  19   19.38    1.84
  -7   0  20  146.52   10.61
  -8   0 -12    2.59    0.94
  -8   0 -11    0.19    1.04
  -8   0 -10    3.39    0.99
  -8   0  -9   20.41    2.17
  -8   0  -8    1.04    1.27
  -8   0  -7    3.16    0.75
  -8   0  -6   70.67    3.63
  -8   0  -5   58.32    3.63
  -8   0  -4   58.69    3.30
  -8   0  -3  120.78    5.52
  -8   0  -2 2720.04   67.75
  -8   0  -1   90.85    4.38
  -8   0   0  533.77   18.48
  -8   0   1  554.65   19.52
  -8   0   2  185.28    8.06
  -8   0   3  278.91   11.13
  -8   0   4  649.37   20.98
  -8   0   5  393.23   14.47
  -8   0   6  734.60   22.68
  -8   0   7   76.37    4.20
  -8   0   8   93.72    4.86
  -8   0   9   88.44    4.86
  -8   0  10  418.03   15.56
  -8   0  11  829.51   29.65
  -8   0  12  263.11    9.38
  -8   0  13  219.88    9.19
  -8   0  14  142.00    6.65
  -8   0  15   12.21    1.56
  -8   0  16   16.69    1.93
  -8   0  17   15.32    2.12
  -8   0  18  400.07   13.20
  -8   0  19  208.43    8.86
  -9   0 -10    0.28    1.08
  -9   0  -9    2.12    0.90
  -9   0  -8   43.56    2.73
  -9   0  -7  117.44    5.66
  -9   0  -6   33.85    2.40
  -9   0  -5   85.05    3.68
  -9   0  -4    0.09    0.90
  -9   0  -3   35.31    2.26
  -9   0  -2   10.42    1.27
  -9   0  -1   38.52    2.45
  -9   0   0  287.58   10.51
  -9   0   1   27.34    2.12
  -9   0   2    5.52    1.13
  -9   0   3   45.12    3.02
  -9   0   4    2.50    0.94
  -9   0   5  134.31    6.32
  -9   0   6    0.00    1.08
  -9   0   7 1219.44   32.86
  -9   0   8   51.76    3.21
  -9   0   9  140.91    5.75
  -9   0  10  232.56   10.65
  -9   0  11   21.21    2.12
  -9   0  12  124.89    6.27
  -9   0  13   27.25    2.36
  -9   0  14  122.48    5.99
  -9   0  15  107.39    5.85
  -9   0  16   64.82    4.43
  -9   0  17   24.89    2.03
  -9   0  18    0.75    1.23
 -10   0  -7   22.72    2.17
 -10   0  -6    2.31    1.56
 -10   0  -5    5.94    1.13
 -10   0  -4   10.14    1.41
 -10   0  -3   68.03    3.82
 -10   0  -2   30.27    2.07
 -10   0  -1   44.36    2.73
 -10   0   0   64.82    3.68
 -10   0   1   52.28    3.39
 -10   0   2    0.14    0.71
 -10   0   3   29.80    2.55
 -10   0   4  103.39    5.19
 -10   0   5    1.08    1.04
 -10   0   6   10.94    1.23
 -10   0   7   67.75    3.82
 -10   0   8  187.40    6.84
 -10   0   9    0.61    1.79
 -10   0  10    7.68    1.84
 -10   0  11   14.05    1.74
 -10   0  12    1.56    1.37
 -10   0  13   73.40    4.20
 -10   0  14    7.92    1.41
 -10   0  15  105.56    5.47
 -10   0  16   94.38    4.24
 -11   0  -3    0.85    1.18
 -11   0  -2   11.88    2.22
 -11   0  -1    5.70    1.51
 -11   0   0    3.77    1.27
 -11   0   1    5.09    1.41
 -11   0   2  103.25    6.03
 -11   0   3   26.21    2.40
 -11   0   4   72.46    3.91
 -11   0   5   -0.42    2.07
 -11   0   6   36.07    2.88
 -11   0   7   30.64    2.03
 -11   0   8    4.05    1.46
 -11   0   9   11.88    1.74
 -11   0  10    0.80    1.37
 -11   0  11   52.80    5.19
 -11   0  12    6.98    1.32
 -11   0  13   27.63    2.78
 -12   0   4   11.97    3.54
 -12   0   5   24.66    5.89
 -12   0   7   10.75    2.22
  11   1 -13   17.02    2.64
  11   1 -12    8.11    1.93
  11   1 -11   20.79    2.31
  11   1 -10  297.43   10.75
  11   1  -9  250.95   10.32
  11   1  -8  109.94    5.94
  11   1  -7    9.33    1.46
  11   1  -6   14.76    1.84
  11   1  -5    1.46    1.13
  11   1  -4   46.63    3.06
  11   1  -3  155.62    6.88
  11   1  -2   78.40    5.23
  11   1  -1  137.66    6.55
  11   1   0    1.46    1.84
  11   1   1   25.79    2.36
  11   1   2    6.08    4.38
  11   1   3   84.34    5.00
  10   1 -16   61.90    5.80
  10   1 -15  128.94    6.60
  10   1 -14   82.17    4.53
  10   1 -13   31.16    3.02
  10   1 -12  131.20    6.79
  10   1 -11   83.12    4.43
  10   1 -10   49.55    3.35
  10   1  -9   76.14    4.15
  10   1  -8  139.41    6.22
  10   1  -7  277.30   13.86
  10   1  -6  204.98    8.11
  10   1  -5   24.14    2.07
  10   1  -4   53.93    3.49
  10   1  -3   46.67    2.40
  10   1  -2  111.45    4.86
  10   1  -1  249.35    8.25
  10   1   0   39.13    2.07
  10   1   1  245.15    9.05
  10   1   2    7.40    1.32
  10   1   3   90.94    4.67
  10   1   4   68.74    4.01
  10   1   5   28.05    2.59
  10   1   6   85.14    3.72
   9   1 -18   17.58    2.12
   9   1 -17   40.26    3.72
   9   1 -16    5.94    1.41
   9   1 -15    6.93    1.27
   9   1 -14  108.43    5.80
   9   1 -13   47.38    3.11
   9   1 -12   51.10    3.44
   9   1 -11   81.89    3.91
   9   1 -10   12.63    1.41
   9   1  -9    3.02    1.04
   9   1  -8   53.74    2.97
   9   1  -7  249.21   10.32
   9   1  -6  342.88   12.45
   9   1  -5    0.66    0.99
   9   1  -4   53.37    2.83
   9   1  -3   76.23    3.91
   9   1  -2   37.67    2.26
   9   1  -1  147.37    6.55
   9   1   0  298.14   11.08
   9   1   1  881.79   31.45
   9   1   2  124.13    5.00
   9   1   3  123.19    4.48
   9   1   4   24.56    1.79
   9   1   5   32.77    2.31
   9   1   6   71.85    3.72
   9   1   7   66.66    5.47
   9   1   8   14.19    2.31
   9   1   9   14.85    1.89
   8   1 -19  447.40   15.23
   8   1 -18  179.53    7.31
   8   1 -17   55.06    3.21
   8   1 -16   20.41    1.79
   8   1 -15   14.19    1.37
   8   1 -14    8.58    1.51
   8   1 -13   40.26    2.64
   8   1 -12  102.16    5.04
   8   1 -11   53.46    3.44
   8   1 -10  114.70    5.23
   8   1  -9  115.27    5.66
   8   1  -8  294.32   10.28
   8   1  -7    5.61    1.04
   8   1  -6   68.12    3.77
   8   1  -5  129.93    5.99
   8   1  -4  219.65    8.16
   8   1  -3   43.47    2.55
   8   1  -2    8.06    1.13
   8   1  -1   48.51    2.22
   8   1   0  142.28    5.61
   8   1   1   27.25    2.12
   8   1   2  525.38   15.18
   8   1   3 1083.94   30.64
   8   1   4  173.16    7.54
   8   1   5  141.95    5.70
   8   1   6   79.72    3.63
   8   1   7   95.04    3.82
   8   1   8    8.82    1.37
   8   1   9  235.82    9.15
   8   1  10  171.18    6.36
   8   1  11   46.96    3.35
   8   1  12    4.48    1.56
   7   1 -20   37.72    3.02
   7   1 -19  163.87    8.91
   7   1 -18  238.69   10.23
   7   1 -17  158.08    6.13
   7   1 -16   28.85    2.07
   7   1 -15   13.67    1.41
   7   1 -14   28.52    2.83
   7   1 -13  104.57    5.52
   7   1 -12  267.64   11.50
   7   1 -11  422.60   16.03
   7   1 -10  165.76    6.84
   7   1  -9  443.20   15.27
   7   1  -8  504.78   16.78
   7   1  -7   60.82    2.88
   7   1  -6  797.82   26.50
   7   1  -5  652.24   21.40
   7   1  -4  270.56    9.66
   7   1  -3   38.14    1.98
   7   1  -2 1210.34   33.90
   7   1  -1  559.93   18.62
   7   1   0  129.41    5.61
   7   1   1 1229.86   34.60
   7   1   2  494.07   15.60
   7   1   3  509.77   17.49
   7   1   4 1296.33   35.92
   7   1   5   26.17    1.79
   7   1   6  128.09    5.52
   7   1   7  191.08    7.35
   7   1   8  315.07   11.50
   7   1   9  102.68    5.00
   7   1  10   49.27    2.31
   7   1  11  133.75    7.78
   7   1  12  158.92    7.92
   7   1  13   13.77    1.79
   7   1  14   13.72    4.76
   6   1 -21   19.33    2.40
   6   1 -20  102.11    4.53
   6   1 -19   46.96    3.35
   6   1 -18   85.90    3.72
   6   1 -17  493.65   17.30
   6   1 -16  989.28   33.33
   6   1 -15  546.88   17.73
   6   1 -14  221.86    9.00
   6   1 -13  335.76   11.55
   6   1 -12  290.93   10.89
   6   1 -11  421.99   15.09
   6   1 -10  360.04   12.40
   6   1  -9 1279.97   34.04
   6   1  -8 1677.68   49.88
   6   1  -7  302.48   10.65
   6   1  -6  679.63   19.23
   6   1  -5  360.61   12.54
   6   1  -4 1462.00   38.38
   6   1  -3  466.87   14.57
   6   1  -2  321.01   11.27
   6   1  -1  848.69   24.42
   6   1   0   10.94    1.04
   6   1   1  108.39    4.57
   6   1   2   45.02    2.26
   6   1   3   65.01    3.25
   6   1   4  285.79    9.19
   6   1   5  668.60   21.26
   6   1   6  401.67   13.62
   6   1   7   49.17    2.12
   6   1   8   59.40    3.25
   6   1   9  182.02    6.79
   6   1  10  117.01    4.81
   6   1  11  254.01    9.85
   6   1  12  110.37    5.09
   6   1  13   49.50    2.64
   6   1  14    6.60    1.23
   6   1  15    5.89    1.13
   5   1 -21   47.00    3.25
   5   1 -20  136.62    6.60
   5   1 -19    0.28    1.13
   5   1 -18   17.96    1.89
   5   1 -17   77.88    3.96
   5   1 -16  196.55    7.17
   5   1 -15   24.94    1.84
   5   1 -14   30.60    2.17
   5   1 -13  363.25   12.59
   5   1 -12  568.23   18.90
   5   1 -11  263.11    9.24
   5   1 -10  436.09   15.42
   5   1  -9  179.57    6.60
   5   1  -8  369.57   13.58
   5   1  -7  447.49   14.38
   5   1  -6  617.36   20.88
   5   1  -5  106.07    4.86
   5   1  -4  421.90   13.11
   5   1  -3  776.56   19.75
   5   1  -2  199.99    7.40
   5   1  -1 3128.31   70.76
   5   1   0 1025.86   30.74
   5   1   1  603.83   18.01
   5   1   2    0.80    0.42
   5   1   3   63.83    3.16
   5   1   4  151.14    6.22
   5   1   5  378.90   11.17
   5   1   6  776.85   22.72
   5   1   7  298.61   11.88
   5   1   8  155.15    5.94
   5   1   9   20.32    1.27
   5   1  10  164.72    6.36
   5   1  11   29.51    2.03
   5   1  12  127.90    5.42
   5   1  13   14.14    2.78
   5   1  14  111.45    4.38
   5   1  15   24.94    2.12
   5   1  16   10.75    1.60
   5   1  17   42.05    5.28
   4   1 -22    7.26    2.31
   4   1 -21   33.33    3.16
   4   1 -20  175.61    7.12
   4   1 -19   46.01    2.69
   4   1 -18  115.13    5.89
   4   1 -17   42.43    3.06
   4   1 -16   46.91    2.50
   4   1 -15   20.08    2.17
   4   1 -14  893.62   24.99
   4   1 -13  273.06    9.90
   4   1 -12 1312.78   37.67
   4   1 -11  222.85    9.00
   4   1 -10  233.32    7.78
   4   1  -9   52.42    2.92
   4   1  -8  484.31   15.46
   4   1  -7 8426.36  201.07
   4   1  -6 7680.20  190.18
   4   1  -5 3479.96   78.50
   4   1  -3  896.69   26.68
   4   1  -2 1697.43   49.74
   4   1  -1 2101.13   45.68
   4   1   0 1141.84   32.29
   4   1   1 2497.29   61.10
   4   1   2  739.79   19.75
   4   1   3 1644.63   40.97
   4   1   4 1053.82   28.52
   4   1   5  254.91    8.82
   4   1   6 1600.60   36.21
   4   1   7  798.39   24.42
   4   1   8  851.57   26.02
   4   1   9  947.84   25.88
   4   1  10   47.85    2.78
   4   1  11  185.47    7.12
   4   1  12   58.27    3.02
   4   1  13   59.26    2.92
   4   1  14  116.31    5.09
   4   1  15  259.44    9.33
   4   1  16   12.63    1.60
   4   1  17   34.18    2.26
   4   1  18   23.15    1.93
   3   1 -22   20.88    2.07
   3   1 -21   46.67    3.11
   3   1 -20   82.08    4.67
   3   1 -19  382.62   16.45
   3   1 -18   10.47    1.51
   3   1 -17  150.86    6.84
   3   1 -16  247.27    9.85
   3   1 -15   99.85    4.53
   3   1 -14   86.04    3.58
   3   1 -13    4.57    1.60
   3   1 -12  326.66   11.50
   3   1 -11  164.25    6.36
   3   1 -10  547.30   16.97
   3   1  -9   56.43    2.92
   3   1  -8 1337.72   33.76
   3   1  -7  123.47    5.61
   3   1  -6  601.28   15.04
   3   1  -5  369.09   11.41
   3   1  -3 5838.84  178.16
   3   1  -2   68.88    3.11
   3   1  -1 1123.78   29.89
   3   1   0 2958.08   72.60
   3   1   1 1617.15   39.08
   3   1   2 4232.53  127.01
   3   1   3 4924.94  222.19
   3   1   4  832.85   25.74
   3   1   5 1378.17   27.20
   3   1   6   84.72    3.77
   3   1   7  372.96    9.57
   3   1   8  263.91    8.67
   3   1   9 1930.94   47.47
   3   1  10  632.54   18.34
   3   1  11    3.58    0.75
   3   1  12  150.15    5.94
   3   1  13   48.18    2.64
   3   1  14    6.03    0.80
   3   1  15   68.97    4.67
   3   1  16    4.76    1.37
   3   1  17    4.53    1.18
   3   1  18    4.81    1.65
   3   1  19   30.22    2.31
   2   1 -22   18.95    5.00
   2   1 -21   25.13    2.12
   2   1 -20   25.08    1.89
   2   1 -19   17.25    1.89
   2   1 -18  416.57   14.24
   2   1 -17   84.06    4.10
   2   1 -16   69.63    3.63
   2   1 -15  168.87    6.60
   2   1 -14  938.93   28.00
   2   1 -13  440.66   13.91
   2   1 -12  284.52   11.31
   2   1 -11  428.68   15.56
   2   1 -10  235.49    7.40
   2   1  -9  535.28   14.85
   2   1  -8 2901.88   70.06
   2   1  -7 1974.17   51.39
   2   1  -6  468.33   12.30
   2   1  -5 1080.50   28.90
   2   1  -4 6546.05  290.74
   2   1   0 1148.25   29.32
   2   1   2 1291.19   32.25
   2   1   3 1969.88   47.62
   2   1   4  113.29    4.38
   2   1   5   37.39    1.60
   2   1   6 3071.84   71.52
   2   1   7  191.26    8.06
   2   1   8  348.96   10.56
   2   1   9  275.42    8.44
   2   1  10 2534.15   62.80
   2   1  11 1785.97   41.06
   2   1  12 1222.97   32.44
   2   1  13    2.07    1.13
   2   1  14   32.01    1.74
   2   1  15   44.41    2.50
   2   1  16   77.27    3.02
   2   1  17  134.97    5.94
   2   1  18   28.85    1.65
   2   1  19   94.10    4.38
   2   1  20    1.56    1.56
   1   1 -21  116.97    7.64
   1   1 -20   88.54    4.34
   1   1 -19    2.03    1.08
   1   1 -18   34.04    2.36
   1   1 -17   53.32    2.92
   1   1 -16  213.71    8.39
   1   1 -15   20.22    1.65
   1   1 -14  446.65   16.41
   1   1 -13   66.90    3.35
   1   1 -12  178.30    6.74
   1   1 -11  229.36    8.34
   1   1 -10 1082.06   27.44
   1   1  -9 1727.84   53.56
   1   1  -8   -1.70    1.65
   1   1  -7 1206.61   36.30
   1   1  -6  745.54   18.10
   1   1  -5  536.46   16.59
   1   1  -4 3327.17   89.29
   1   1  -3 1131.04   24.28
   1   1   5   94.48    3.54
   1   1   8 2017.31   49.22
   1   1   9  478.19   18.34
   1   1  10    0.42    0.90
   1   1  11 2563.57   64.49
   1   1  12 1279.59   35.17
   1   1  13   63.08    2.78
   1   1  14   71.94    3.44
   1   1  15   41.82    2.55
   1   1  16   45.49    2.92
   1   1  17   11.55    1.46
   1   1  18  180.94    6.69
   1   1  19    0.14    0.99
   1   1  20   52.19    4.29
   0   1 -21  327.09    9.71
   0   1 -20  229.17    9.33
   0   1 -19   88.49    4.38
   0   1 -18   19.28    2.03
   0   1 -17   94.43    4.20
   0   1 -16  219.27    7.35
   0   1 -15  131.82    5.23
   0   1 -14 1045.95   29.75
   0   1 -13 2432.75   66.47
   0   1 -12  224.93    8.44
   0   1 -11  678.17   19.33
   0   1 -10  325.96   10.94
   0   1  -9 2502.94   62.65
   0   1  -8 3075.37   75.90
   0   1  -7 4992.31  198.81
   0   1  -6 2507.38   67.46
   0   1   0   -0.09    0.24
   0   1   6 2563.01   67.23
   0   1   7 4234.32  147.99
   0   1   8   -1.93    1.04
   0   1   9 2515.39   70.86
   0   1  10  313.04   10.32
   0   1  11  667.23   22.44
   0   1  12  215.97    8.72
   0   1  13 2480.22   59.12
   0   1  14 1029.12   28.95
   0   1  15  128.33    5.14
   0   1  16  208.76    8.63
   0   1  17   91.79    3.58
   0   1  18   19.85    1.51
   0   1  19   91.84    5.33
   0   1  20  236.10    8.91
   0   1  21  319.07    9.81
  -1   1 -20   55.02    3.54
  -1   1 -19    1.65    1.13
  -1   1 -18  178.68    7.07
  -1   1 -17   13.62    1.46
  -1   1 -16   51.76    2.83
  -1   1 -15   38.23    2.26
  -1   1 -14   79.44    4.15
  -1   1 -13   68.69    3.25
  -1   1 -12 1332.16   35.97
  -1   1 -11 2708.97   60.63
  -1   1 -10  560.03   17.77
  -1   1  -9  495.77   14.85
  -1   1  -8 2120.18   48.09
  -1   1  -7 5734.83  241.05
  -1   1  -5   96.13    3.30
  -1   1   0  855.81   47.10
  -1   1   3 1184.60   35.03
  -1   1   4 3195.92   97.45
  -1   1   5   -1.51    1.18
  -1   1   6  789.24   22.96
  -1   1   7 1181.67   32.81
  -1   1   8 2545.56   72.60
  -1   1   9 1691.16   42.29
  -1   1  10 1094.79   26.54
  -1   1  11  249.30    9.19
  -1   1  12  174.43    6.27
  -1   1  13   75.01    4.53
  -1   1  14  450.89   16.59
  -1   1  15   19.99    1.60
  -1   1  16  210.08    8.58
  -1   1  17   55.02    3.21
  -1   1  18   35.41    2.31
  -1   1  19    2.26    1.13
  -1   1  20   93.96    4.48
  -1   1  21  108.53    5.09
  -2   1 -20    0.09    2.17
  -2   1 -19  110.27    5.19
  -2   1 -18   32.95    2.26
  -2   1 -17  145.20    5.75
  -2   1 -16   80.85    3.91
  -2   1 -15   47.24    2.83
  -2   1 -14   30.50    1.98
  -2   1 -13  193.01    6.08
  -2   1 -12 1447.14   40.97
  -2   1 -11 1904.35   46.20
  -2   1 -10 2751.87   68.78
  -2   1  -9  320.58   10.84
  -2   1  -8  381.26   12.40
  -2   1  -7  204.84    7.40
  -2   1  -6 3150.05   70.91
  -2   1  -5   36.82    1.93
  -2   1  -4  116.78    4.48
  -2   1  -3 1701.82   50.40
  -2   1  -2 1306.28   35.12
  -2   1   0 1098.79   25.79
  -2   1   4 6434.65  200.22
  -2   1   5 1081.21   32.81
  -2   1   6  483.37   16.41
  -2   1   7 2031.97   48.37
  -2   1   8 2943.13   76.00
  -2   1   9  516.99   16.64
  -2   1  10  289.99    9.52
  -2   1  11  476.30   15.79
  -2   1  12  294.04    9.90
  -2   1  13  433.96   13.11
  -2   1  14  973.63   26.92
  -2   1  15  173.30    6.13
  -2   1  16   73.12    3.82
  -2   1  17   86.89    4.34
  -2   1  18  419.30   15.65
  -2   1  19   19.52    1.65
  -2   1  20   25.13    2.07
  -2   1  21   26.45    2.69
  -2   1  22   15.84    2.07
  -3   1 -19   34.46    3.35
  -3   1 -18    3.72    1.27
  -3   1 -17   13.62    1.51
  -3   1 -16   93.86    5.04
  -3   1 -15  155.86    6.79
  -3   1 -14    7.26    0.99
  -3   1 -13   50.40    2.78
  -3   1 -12  170.47    6.18
  -3   1 -11    4.15    0.85
  -3   1 -10  669.36   19.38
  -3   1  -9 2060.26   51.39
  -3   1  -8  283.95    9.48
  -3   1  -7  400.02   13.39
  -3   1  -6   84.06    3.91
  -3   1  -5 1361.95   36.07
  -3   1  -4  827.67   25.08
  -3   1  -3 5314.17  139.97
  -3   1  -2 4374.95  102.16
  -3   1  -1 1664.06   46.01
  -3   1   0 3101.87   73.59
  -3   1   1 1220.76   31.26
  -3   1   2   69.63    3.11
  -3   1   5  383.76   12.68
  -3   1   6  598.12   18.15
  -3   1   7  127.29    5.42
  -3   1   8 1410.61   39.27
  -3   1   9   61.05    3.49
  -3   1  10  572.00   19.89
  -3   1  11  174.67    6.93
  -3   1  12  345.00   13.72
  -3   1  13  331.47   12.96
  -3   1  14   88.96    3.96
  -3   1  15  110.46    5.37
  -3   1  16  249.96   10.56
  -3   1  17  155.25    6.74
  -3   1  18   10.80    1.13
  -3   1  19  398.46   15.70
  -3   1  20   85.38    4.53
  -3   1  21   44.03    3.11
  -3   1  22   19.47    3.63
  -4   1 -18   55.49    4.81
  -4   1 -17   41.82    3.25
  -4   1 -16   14.38    1.51
  -4   1 -15  286.78   10.70
  -4   1 -14  126.21    6.03
  -4   1 -13   66.29    3.72
  -4   1 -12   63.27    3.02
  -4   1 -11  211.44    8.11
  -4   1 -10   50.68    2.73
  -4   1  -9 1060.80   29.89
  -4   1  -8  958.82   29.42
  -4   1  -7  856.38   25.13
  -4   1  -6 1743.97   46.67
  -4   1  -5  258.49    7.73
  -4   1  -4 1108.84   29.18
  -4   1  -3 1788.19   48.04
  -4   1  -2  766.71   21.31
  -4   1  -1 2652.44   64.12
  -4   1   0 1199.26   30.41
  -4   1   1 2233.47   57.70
  -4   1   2 1753.25   48.70
  -4   1   3  910.55   27.77
  -4   1   4 9999.00  230.68
  -4   1   5 2876.66   77.36
  -4   1   6 7893.58  176.27
  -4   1   7 9017.50  188.06
  -4   1   8  477.48   16.45
  -4   1   9   54.59    2.83
  -4   1  10  249.82    8.72
  -4   1  11  253.12   10.37
  -4   1  12 1411.74   41.49
  -4   1  13  303.99   12.12
  -4   1  14  929.78   32.34
  -4   1  15  111.07    5.61
  -4   1  16   51.48    2.92
  -4   1  17   45.35    2.78
  -4   1  18  122.10    5.89
  -4   1  19   49.55    3.25
  -4   1  20  184.33    8.58
  -4   1  21   29.32    2.69
  -4   1  22    7.64    1.60
  -5   1 -17   45.68    3.77
  -5   1 -16   13.86    1.65
  -5   1 -15   24.00    2.36
  -5   1 -14  131.58    6.22
  -5   1 -13   17.77    1.41
  -5   1 -12  151.14    5.94
  -5   1 -11   33.10    2.07
  -5   1 -10  190.70    7.45
  -5   1  -9   24.19    1.41
  -5   1  -8  178.49    6.74
  -5   1  -7  346.51   12.82
  -5   1  -6  906.82   26.12
  -5   1  -5  428.73   15.23
  -5   1  -4  161.28    7.12
  -5   1  -3   71.99    3.06
  -5   1  -2    1.18    0.66
  -5   1  -1  632.07   19.99
  -5   1   0 1094.36   31.87
  -5   1   1 3441.64   75.62
  -5   1   2  212.01    8.20
  -5   1   3  836.06   24.89
  -5   1   4  445.94   15.23
  -5   1   5  118.14    5.75
  -5   1   6  610.33   18.62
  -5   1   7  469.04   18.10
  -5   1   8  417.51   15.32
  -5   1   9  197.06    9.15
  -5   1  10  477.62   16.41
  -5   1  11  304.27   11.08
  -5   1  12  630.37   21.31
  -5   1  13  397.29   15.60
  -5   1  14   28.66    2.22
  -5   1  15   24.75    1.93
  -5   1  16  228.27    8.96
  -5   1  17   92.59    5.56
  -5   1  18   39.65    2.36
  -5   1  19    2.69    1.04
  -5   1  20  148.93    8.63
  -5   1  21   49.41    3.87
  -6   1 -15   10.42    2.36
  -6   1 -14    7.83    1.32
  -6   1 -13   57.99    3.30
  -6   1 -12  135.73    6.69
  -6   1 -11  285.27   16.12
  -6   1 -10  141.57    6.55
  -6   1  -9  206.82    8.20
  -6   1  -8   74.30    3.77
  -6   1  -7   59.26    3.68
  -6   1  -6  465.27   15.79
  -6   1  -5  777.13   21.83
  -6   1  -4  329.45   11.74
  -6   1  -3   75.90    3.39
  -6   1  -2   52.71    2.69
  -6   1  -1  119.46    5.66
  -6   1   0   12.21    1.18
  -6   1   1  902.67   25.08
  -6   1   2  379.61   14.85
  -6   1   3  434.25   16.17
  -6   1   4 1647.74   44.13
  -6   1   5  409.73   14.47
  -6   1   6  729.56   22.02
  -6   1   7  343.73   12.68
  -6   1   8 2002.18   52.80
  -6   1   9 1408.49   42.24
  -6   1  10  410.34   14.80
  -6   1  11  459.05   15.60
  -6   1  12  319.83   11.60
  -6   1  13  382.20   15.18
  -6   1  14  239.35    9.24
  -6   1  15  578.41   18.67
  -6   1  16 1023.55   38.61
  -6   1  17  541.22   22.77
  -6   1  18   84.62    4.05
  -6   1  19   45.49    3.21
  -6   1  20  116.02    5.14
  -6   1  21   95.04    5.52
  -7   1 -14   13.44    1.60
  -7   1 -13   19.00    1.84
  -7   1 -12  177.17    7.21
  -7   1 -11  164.77    7.50
  -7   1 -10   56.71    3.25
  -7   1  -9  121.87    4.34
  -7   1  -8  393.42   14.05
  -7   1  -7  211.02    8.11
  -7   1  -6  150.58    6.36
  -7   1  -5   33.28    2.22
  -7   1  -4 1538.13   46.77
  -7   1  -3  596.57   18.90
  -7   1  -2  594.68   19.99
  -7   1  -1 1576.46   46.81
  -7   1   0  153.79    6.41
  -7   1   1  678.64   23.86
  -7   1   2 1484.39   39.70
  -7   1   3   49.31    3.06
  -7   1   4  316.43   13.29
  -7   1   5  777.79   26.02
  -7   1   6  994.75   28.57
  -7   1   7   78.87    4.05
  -7   1   8  604.63   20.74
  -7   1   9  515.85   18.29
  -7   1  10  196.45    9.62
  -7   1  11  488.18   18.10
  -7   1  12  304.41   13.06
  -7   1  13  121.11    5.56
  -7   1  14   37.20    2.69
  -7   1  15   18.20    1.74
  -7   1  16   36.82    2.22
  -7   1  17  186.79    8.39
  -7   1  18  282.68    9.76
  -7   1  19  182.26    7.87
  -7   1  20   44.65    3.11
  -8   1 -12    8.67    1.46
  -8   1 -11   46.44    3.54
  -8   1 -10  197.39    7.59
  -8   1  -9  271.46    8.72
  -8   1  -8   10.14    1.32
  -8   1  -7  108.76    4.76
  -8   1  -6   97.87    4.48
  -8   1  -5  179.81    7.68
  -8   1  -4  214.08    8.86
  -8   1  -3 1305.19   37.48
  -8   1  -2  647.48   21.73
  -8   1  -1   31.92    2.07
  -8   1   0  182.59    7.50
  -8   1   1   65.53    3.44
  -8   1   2    8.96    1.08
  -8   1   3   57.80    3.30
  -8   1   4  260.85   10.32
  -8   1   5  146.34    6.88
  -8   1   6   88.87    4.48
  -8   1   7    6.36    1.08
  -8   1   8  361.36   12.82
  -8   1   9  132.38    6.46
  -8   1  10  146.71    6.93
  -8   1  11   62.75    3.44
  -8   1  12  126.25    5.37
  -8   1  13   46.48    3.11
  -8   1  14   10.18    1.70
  -8   1  15   16.50    1.98
  -8   1  16   20.27    2.17
  -8   1  17   64.45    4.24
  -8   1  18  192.68    8.72
  -8   1  19  545.70   17.16
  -9   1  -9   16.59    2.50
  -9   1  -8   17.30    2.03
  -9   1  -7   73.17    4.29
  -9   1  -6   80.10    4.53
  -9   1  -5   37.39    2.59
  -9   1  -4   25.41    2.22
  -9   1  -3  139.26    5.42
  -9   1  -2  137.71    6.79
  -9   1  -1  912.20   32.01
  -9   1   0  205.17    9.29
  -9   1   1   88.35    4.95
  -9   1   2   30.08    2.45
  -9   1   3   83.49    4.71
  -9   1   4   64.49    3.44
  -9   1   5    0.66    0.99
  -9   1   6  463.62   15.89
  -9   1   7  319.21   14.05
  -9   1   8   66.71    4.15
  -9   1   9    5.23    1.37
  -9   1  10   15.09    1.98
  -9   1  11   99.29    5.09
  -9   1  12   63.50    3.91
  -9   1  13   53.13    3.25
  -9   1  14  128.33    7.02
  -9   1  15   10.94    1.89
  -9   1  16    4.95    1.32
  -9   1  17   42.95    2.92
  -9   1  18   19.14    2.03
 -10   1  -6   76.61    6.51
 -10   1  -5   31.40    2.83
 -10   1  -4    5.00    1.27
 -10   1  -3    8.20    1.79
 -10   1  -2    1.74    0.99
 -10   1  -1    4.67    1.84
 -10   1   0    7.12    2.07
 -10   1   1    2.64    1.27
 -10   1   2    4.86    1.84
 -10   1   3    4.05    1.37
 -10   1   4   13.86    1.98
 -10   1   5   13.72    1.65
 -10   1   6    1.60    1.18
 -10   1   7    4.86    1.84
 -10   1   8   10.09    2.26
 -10   1   9   85.94    5.04
 -10   1  10   61.38    4.01
 -10   1  11   99.57    6.41
 -10   1  12  149.59    7.31
 -10   1  13   35.12    2.78
 -10   1  14   96.79    4.57
 -10   1  15  142.09    6.13
 -10   1  16   66.33    4.38
 -11   1  -3   85.80    5.66
 -11   1  -2    4.01    1.27
 -11   1  -1   26.17    2.92
 -11   1   0    2.78    2.22
 -11   1   1  166.09    7.68
 -11   1   2   83.96    6.18
 -11   1   3  189.38    8.34
 -11   1   4   57.19    3.44
 -11   1   5    2.73    1.23
 -11   1   6   14.57    1.74
 -11   1   7    9.43    1.93
 -11   1   8    8.44    2.22
 -11   1   9    4.05    1.51
 -11   1  10  330.67   17.54
 -11   1  11    5.89    1.32
 -11   1  12    7.97    2.17
 -11   1  13   24.94    3.96
  11   2 -12    9.33    1.93
  11   2 -11   48.70    3.21
  11   2 -10  309.46   12.21
  11   2  -9  104.52    7.45
  11   2  -8   42.10    2.97
  11   2  -7    5.61    1.56
  11   2  -6   31.63    2.40
  11   2  -5    9.00    1.51
  11   2  -4    6.27    3.49
  11   2  -3   96.74    5.33
  11   2  -2   24.85    1.98
  11   2  -1  140.58    7.78
  11   2   0  166.70    7.64
  11   2   1   33.90    2.83
  11   2   2   15.56    2.50
  10   2 -15    4.81    1.32
  10   2 -14   56.62    3.54
  10   2 -13   30.79    2.17
  10   2 -12   36.44    3.91
  10   2 -11   80.52    4.15
  10   2 -10   16.31    2.12
  10   2  -9  258.07   10.70
  10   2  -8  488.18   17.73
  10   2  -7   88.25    4.10
  10   2  -6   58.98    3.39
  10   2  -5   36.11    2.59
  10   2  -4   37.86    2.73
  10   2  -3   26.40    1.93
  10   2  -2  144.07    6.74
  10   2  -1  202.39    7.87
  10   2   0  131.63    6.08
  10   2   1  221.01    7.02
  10   2   2   33.43    2.40
  10   2   3   54.73    3.16
  10   2   4   25.51    1.79
  10   2   5   19.99    1.93
  10   2   6   28.66    2.55
   9   2 -17   30.13    2.36
   9   2 -16   26.92    2.40
   9   2 -15   36.11    3.16
   9   2 -14   40.12    2.26
   9   2 -13  100.51    5.23
   9   2 -12  124.51    6.03
   9   2 -11   26.02    2.36
   9   2 -10   60.25    3.63
   9   2  -9   71.99    3.35
   9   2  -8  291.97   12.49
   9   2  -7  911.25   23.95
   9   2  -6   78.02    4.34
   9   2  -5   39.08    2.59
   9   2  -4    4.67    1.08
   9   2  -3   16.12    1.32
   9   2  -2  103.53    5.14
   9   2  -1   54.55    2.26
   9   2   0  219.98    8.06
   9   2   1  186.08    6.27
   9   2   2   82.79    3.68
   9   2   3   97.31    4.20
   9   2   4   35.83    2.36
   9   2   5   39.08    2.69
   9   2   6   35.08    2.03
   9   2   7   31.82    1.98
   9   2   8  132.33    6.18
   9   2   9    0.28    1.84
   8   2 -19    8.30    2.73
   8   2 -18   30.60    3.49
   8   2 -17   30.08    2.45
   8   2 -16   26.83    1.84
   8   2 -15   58.74    3.11
   8   2 -14    2.36    0.90
   8   2 -13   12.02    2.55
   8   2 -12  251.00   10.37
   8   2 -11  242.75   10.65
   8   2 -10  168.35    6.60
   8   2  -9  120.03    6.03
   8   2  -8  202.06    8.11
   8   2  -7  183.58    7.35
   8   2  -6  534.00   19.38
   8   2  -5  217.01    8.96
   8   2  -4   76.47    3.77
   8   2  -3  239.35    9.15
   8   2  -2  147.61    6.69
   8   2  -1   13.62    1.08
   8   2   0  198.10    7.92
   8   2   1   26.35    1.74
   8   2   2   83.73    3.77
   8   2   3  239.92    7.54
   8   2   4   62.80    3.44
   8   2   5   68.31    3.39
   8   2   6  157.70    8.72
   8   2   7   82.88    3.72
   8   2   8   60.34    3.68
   8   2   9   43.33    3.30
   8   2  10  190.65    8.77
   8   2  11   77.74    3.96
   7   2 -20   64.92    4.53
   7   2 -19  121.82    5.28
   7   2 -18  164.68    7.17
   7   2 -17  193.48    7.50
   7   2 -16  206.78    8.77
   7   2 -15  128.14    5.47
   7   2 -14   76.00    3.35
   7   2 -13   57.14    2.92
   7   2 -12  229.40   10.04
   7   2 -11  112.30    5.80
   7   2 -10  545.98   19.19
   7   2  -9  858.41   24.94
   7   2  -8  221.34    8.20
   7   2  -7   50.26    2.73
   7   2  -6   42.90    2.26
   7   2  -5  381.78   11.97
   7   2  -4  431.75   14.47
   7   2  -3    6.74    0.94
   7   2  -2  268.63    9.00
   7   2  -1  145.30    5.94
   7   2   0  395.12   13.72
   7   2   1   74.35    2.83
   7   2   2  630.37   19.56
   7   2   3   70.91    3.21
   7   2   4   78.73    3.49
   7   2   5   28.48    1.74
   7   2   6   27.30    1.56
   7   2   7   14.47    1.32
   7   2   8   31.82    2.03
   7   2   9  145.96    6.41
   7   2  10   69.21    3.06
   7   2  11  188.77    9.29
   7   2  12   24.28    1.89
   7   2  13   85.05    4.20
   6   2 -20    1.04    1.18
   6   2 -19    5.23    1.41
   6   2 -18  186.36    7.26
   6   2 -17   98.72    5.00
   6   2 -16   77.22    4.10
   6   2 -15  198.01    7.78
   6   2 -14   85.52    4.15
   6   2 -13  325.01   12.26
   6   2 -12  321.01   11.03
   6   2 -11  393.42   13.06
   6   2 -10  170.57    6.79
   6   2  -9 1734.87   46.72
   6   2  -8 2999.00   78.64
   6   2  -7   90.42    4.10
   6   2  -6  331.00   12.21
   6   2  -5  365.51   10.84
   6   2  -4  492.94   14.76
   6   2  -3   90.52    3.91
   6   2  -2  192.91    6.79
   6   2  -1  565.50   16.59
   6   2   0  236.71    8.53
   6   2   1  101.45    3.87
   6   2   2  224.97    7.50
   6   2   3   10.61    1.23
   6   2   4  127.15    5.04
   6   2   5  429.49   14.00
   6   2   6   27.06    1.65
   6   2   7   62.65    2.78
   6   2   8   58.36    2.36
   6   2   9  113.34    4.71
   6   2  10   40.83    2.22
   6   2  11   46.01    2.50
   6   2  12   29.28    2.26
   6   2  13   33.61    2.17
   6   2  14    3.30    1.27
   6   2  15   25.41    2.50
   5   2 -21   91.32    4.38
   5   2 -20   14.38    1.89
   5   2 -19   84.81    4.24
   5   2 -18    8.91    1.18
   5   2 -17  139.36    6.32
   5   2 -16  318.04   12.12
   5   2 -15  784.58   25.27
   5   2 -14 1016.01   31.49
   5   2 -13  120.74    5.28
   5   2 -12   40.59    2.36
   5   2 -11  121.11    5.00
   5   2 -10   43.28    1.89
   5   2  -9 1049.62   29.56
   5   2  -8  700.66   21.69
   5   2  -7 3832.56   95.75
   5   2  -6 2194.43   55.30
   5   2  -5  823.75   28.57
   5   2  -4   40.54    1.93
   5   2  -3  126.11    5.23
   5   2  -2  491.20   15.13
   5   2  -1  212.90    7.50
   5   2   0 1722.56   45.26
   5   2   1   85.76    3.06
   5   2   2  450.13   13.48
   5   2   3   62.89    2.97
   5   2   4  215.40    7.07
   5   2   5  471.87   13.86
   5   2   6   71.71    3.06
   5   2   7    8.34    0.80
   5   2   8  150.06    5.61
   5   2   9  147.18    5.42
   5   2  10   23.20    1.60
   5   2  11    2.55    0.66
   5   2  12   20.18    1.74
   5   2  13  164.25    6.36
   5   2  14  153.74   10.32
   5   2  15  110.41    8.72
   5   2  16    8.49    1.32
   4   2 -21   39.46    2.88
   4   2 -20   50.73    2.83
   4   2 -19   12.92    1.46
   4   2 -18  114.28    5.99
   4   2 -17  155.01    7.17
   4   2 -16  102.49    5.04
   4   2 -15  777.93   22.30
   4   2 -14  676.95   20.55
   4   2 -13  826.44   22.44
   4   2 -12  372.39   12.78
   4   2 -11  355.56   11.55
   4   2 -10  169.48    6.74
   4   2  -9  271.60    9.38
   4   2  -8 1347.86   35.36
   4   2  -7   92.64    3.87
   4   2  -6 2912.49   70.43
   4   2  -5  605.33   19.99
   4   2  -4  932.23   26.35
   4   2  -3 1045.10   30.64
   4   2  -2  137.24    5.04
   4   2  -1  621.93   18.20
   4   2   0 1478.35   40.87
   4   2   1 4092.84  134.22
   4   2   2  635.70   18.20
   4   2   3  392.34   13.11
   4   2   4   99.10    4.15
   4   2   5  140.77    4.81
   4   2   6   90.38    3.44
   4   2   7  453.62   14.10
   4   2   8  256.80    8.77
   4   2   9  666.20   20.32
   4   2  10  445.75   15.09
   4   2  11  211.16    7.35
   4   2  12   62.80    3.16
   4   2  13   91.88    4.90
   4   2  14  304.46   10.37
   4   2  15   69.40    3.25
   4   2  16    7.97    1.37
   4   2  17  142.47    6.13
   3   2 -21   20.41    2.40
   3   2 -20   24.99    1.89
   3   2 -19   83.54    3.72
   3   2 -18   75.90    3.58
   3   2 -17  388.85   15.70
   3   2 -16  492.05   13.48
   3   2 -15  361.50   12.07
   3   2 -14  154.87    7.21
   3   2 -13  400.77   13.48
   3   2 -12 2691.24   64.07
   3   2 -11  845.39   23.86
   3   2 -10  185.80    6.55
   3   2  -9  283.24    9.00
   3   2  -8  152.28    5.28
   3   2  -7 1351.25   36.49
   3   2  -6  251.47    9.05
   3   2  -5 6713.55  264.81
   3   2  -4 3922.42   90.89
   3   2  -3  452.77   12.96
   3   2   0  309.27   10.84
   3   2   1 3772.92  174.39
   3   2   2 4570.32  188.34
   3   2   3 3640.68   82.17
   3   2   4  720.04   19.61
   3   2   5    0.80    0.33
   3   2   6  416.33   12.82
   3   2   7  189.38    7.26
   3   2   8  280.46    9.24
   3   2   9  416.80   14.76
   3   2  10  158.31    5.70
   3   2  11  204.98    6.13
   3   2  12  102.77    4.29
   3   2  13  149.68    5.80
   3   2  14   21.69    1.74
   3   2  15   84.62    3.87
   3   2  16  267.92    9.99
   3   2  17  144.40    6.65
   3   2  18   28.81    2.22
   2   2 -21   17.44    2.22
   2   2 -20  149.49    6.08
   2   2 -19    2.55    0.90
   2   2 -18    3.35    0.90
   2   2 -17  217.57    7.87
   2   2 -16  482.62   17.96
   2   2 -15  693.97   21.92
   2   2 -14  247.98    8.58
   2   2 -13  476.63   15.23
   2   2 -12  255.15    8.67
   2   2 -11  312.19   10.14
   2   2 -10  754.17   21.78
   2   2  -9  653.14   17.82
   2   2  -8  473.47   15.89
   2   2  -7  123.19    4.71
   2   2  -6 1049.10   29.28
   2   2  -5  419.26    9.10
   2   2  -4 1421.36   35.12
   2   2  -3 1042.55   24.56
   2   2  -2  676.81   15.23
   2   2  -1  841.06   27.77
   2   2   0  871.75   28.10
   2   2   4 2603.08   65.72
   2   2   5 4134.14   88.11
   2   2   6  330.20   10.65
   2   2   7  201.87    7.50
   2   2   8   80.52    3.68
   2   2   9  170.10    6.51
   2   2  10 1552.23   39.65
   2   2  11  172.22    6.46
   2   2  12 1194.36   32.62
   2   2  13   60.39    3.25
   2   2  14  406.53   12.82
   2   2  15   56.05    3.16
   2   2  16   33.71    2.12
   2   2  17   29.37    1.93
   2   2  18  169.53    7.35
   2   2  19   87.83    4.67
   1   2 -21    1.41    1.23
   1   2 -20   27.72    2.40
   1   2 -19    7.59    1.23
   1   2 -18   93.68    4.48
   1   2 -17  103.95    5.04
   1   2 -16    5.80    1.60
   1   2 -15    6.79    2.31
   1   2 -14  665.63   17.96
   1   2 -13  601.94   20.22
   1   2 -12  354.62   12.59
   1   2 -11  241.80    9.99
   1   2 -10  348.02   11.69
   1   2  -9 2913.05   75.15
   1   2  -8   98.81    4.10
   1   2  -7  224.31    7.12
   1   2  -6  652.20   18.20
   1   2  -5 1109.87   31.63
   1   2  -4 1864.14   45.59
   1   2  -3  450.89    9.29
   1   2   2 2345.86  106.36
   1   2   4 2747.34  100.04
   1   2   5  119.75    4.15
   1   2   6 1277.76   32.20
   1   2   7  395.64   11.79
   1   2   8 1491.18   34.42
   1   2   9  662.14   20.13
   1   2  10  463.15   16.22
   1   2  11 1273.32   34.32
   1   2  12 1150.23   35.97
   1   2  13  293.95   10.14
   1   2  14  881.27   26.87
   1   2  15   78.54    3.91
   1   2  16  266.32    9.66
   1   2  17   23.81    1.65
   1   2  18  172.50    7.92
   1   2  19   96.36    4.05
   1   2  20  135.59    7.83
   0   2 -20   16.92    1.60
   0   2 -19   24.70    1.93
   0   2 -18   13.53    1.41
   0   2 -17   68.50    3.63
   0   2 -16    7.31    1.13
   0   2 -15  248.88    8.86
   0   2 -14  536.27   18.39
   0   2 -13 2046.02   61.24
   0   2 -12   11.41    1.89
   0   2 -11  757.75   27.53
   0   2 -10 2036.73   50.59
   0   2  -9 1351.16   35.45
   0   2  -8  331.10   11.03
   0   2  -7 1327.16   36.21
   0   2  -5  206.49    6.51
   0   2  -4  692.98   21.12
   0   2  -3  102.40    4.15
   0   2  -1  525.42   16.50
   0   2   1  523.82   14.19
   0   2   3   94.90    3.35
   0   2   4  691.99   19.52
   0   2   5  202.82    7.83
   0   2   7 1305.24   36.54
   0   2   8  323.41   10.98
   0   2   9 1334.33   31.87
   0   2  10 2021.08   52.61
   0   2  11  711.36   19.47
   0   2  12  117.48    4.62
   0   2  13 2082.89   57.19
   0   2  14  483.56   11.97
   0   2  15  237.47    9.19
   0   2  16    6.74    1.08
   0   2  17   61.33    3.87
   0   2  18   10.18    1.41
   0   2  19    9.57    1.23
   0   2  20   14.05    2.88
   0   2  21  138.70    5.56
  -1   2 -20  169.34    6.55
  -1   2 -19  103.67    5.14
  -1   2 -18  183.11    8.82
  -1   2 -17   28.52    2.03
  -1   2 -16  282.30    9.24
  -1   2 -15   78.92    3.72
  -1   2 -14  940.86   29.18
  -1   2 -13  315.77   11.36
  -1   2 -12 1248.81   35.17
  -1   2 -11 1391.70   39.55
  -1   2 -10  490.49   14.10
  -1   2  -9   -0.14    0.94
  -1   2  -8 1586.36   48.13
  -1   2  -7  419.59   12.96
  -1   2  -6 1342.20   32.72
  -1   2  -5  119.94    3.82
  -1   2  -4 2867.84   67.09
  -1   2  -3 3187.76   94.85
  -1   2  -2 2300.46   59.17
  -1   2  -1 1916.28   35.22
  -1   2   2 3848.63  129.88
  -1   2   3  461.07   13.77
  -1   2   4 1901.62   46.96
  -1   2   5 1152.68   30.08
  -1   2   6  688.17   21.07
  -1   2   7  218.89    6.55
  -1   2   8   99.71    4.48
  -1   2   9 3144.34   73.40
  -1   2  10  344.58   10.47
  -1   2  11  234.07    8.39
  -1   2  12  357.07   12.73
  -1   2  13  602.36   17.49
  -1   2  14    2.45    2.26
  -1   2  15  600.76   20.13
  -1   2  16  131.01    7.64
  -1   2  17  105.08    4.90
  -1   2  18   95.75    4.38
  -1   2  19    6.08    1.41
  -1   2  20   26.17    2.36
  -1   2  21    1.08    1.84
  -2   2 -19  106.69    4.71
  -2   2 -18  204.47    7.73
  -2   2 -17   31.26    2.36
  -2   2 -16   34.93    2.69
  -2   2 -15   57.66    3.02
  -2   2 -14  436.89   14.43
  -2   2 -13   68.08    3.39
  -2   2 -12 1351.21   36.44
  -2   2 -11  190.04    7.97
  -2   2 -10 1733.45   43.56
  -2   2  -9  184.90    8.06
  -2   2  -8   84.62    3.72
  -2   2  -7  219.65    7.07
  -2   2  -6  350.71   11.55
  -2   2  -5   -2.83    1.23
  -2   2  -4 2789.25   77.84
  -2   2  -3 4135.13   98.15
  -2   2  -1 3888.42   91.37
  -2   2   0  959.77   28.99
  -2   2   1  914.79   27.39
  -2   2   2  724.09   20.70
  -2   2   3 1115.53   31.49
  -2   2   4 1503.39   42.19
  -2   2   5  445.18   12.30
  -2   2   6 1086.35   29.42
  -2   2   7  125.07    5.47
  -2   2   8  493.27   15.65
  -2   2   9  653.89   19.85
  -2   2  10    0.28    1.13
  -2   2  11  268.49   11.17
  -2   2  12  281.12   10.51
  -2   2  13  493.22   15.98
  -2   2  14  269.34    9.10
  -2   2  15  717.35   23.62
  -2   2  16  503.46   14.99
  -2   2  17  234.02    9.24
  -2   2  18    5.61    1.04
  -2   2  19    4.90    1.04
  -2   2  20  165.43    6.41
  -2   2  21   15.09    3.54
  -3   2 -18   34.04    3.11
  -3   2 -17  183.30    9.52
  -3   2 -16  302.10   10.70
  -3   2 -15  107.72    4.86
  -3   2 -14   21.64    1.37
  -3   2 -13  167.13    6.93
  -3   2 -12  132.81    4.86
  -3   2 -11  236.29    9.33
  -3   2 -10  187.30    7.50
  -3   2  -9  469.61   17.54
  -3   2  -8  331.14   11.13
  -3   2  -7  205.69    7.40
  -3   2  -6  442.64   13.44
  -3   2  -5    0.61    0.47
  -3   2  -4  772.93   23.53
  -3   2  -3 4102.46  101.50
  -3   2  -2 5038.70  130.26
  -3   2  -1 4441.76  118.00
  -3   2   0  339.25   14.38
  -3   2   1   -1.32    0.99
  -3   2   2   -2.73    1.41
  -3   2   3    0.28    1.27
  -3   2   4   -2.07    1.18
  -3   2   5    8.53    2.83
  -3   2   6  272.31   12.73
  -3   2   7 1464.07   37.72
  -3   2   8  162.04    6.27
  -3   2   9  300.59   10.09
  -3   2  10  212.48    7.78
  -3   2  11  942.09   30.60
  -3   2  12 2969.82   72.41
  -3   2  13  443.77   14.66
  -3   2  14  171.37    8.11
  -3   2  15  389.51   14.57
  -3   2  16  529.34   21.73
  -3   2  17  421.90   14.43
  -3   2  18   79.58    3.63
  -3   2  19   88.40    4.05
  -3   2  20   27.91    2.31
  -3   2  21   49.41    3.06
  -4   2 -17  185.61   12.02
  -4   2 -16   11.64    1.37
  -4   2 -15   84.95    4.43
  -4   2 -14  373.38   12.68
  -4   2 -13  111.73    5.66
  -4   2 -12   81.09    3.91
  -4   2 -11  251.33    7.68
  -4   2 -10  575.92   19.99
  -4   2  -9  847.19   22.25
  -4   2  -8  316.57   11.60
  -4   2  -7  566.11   16.78
  -4   2  -6  103.81    4.81
  -4   2  -5  157.98    6.18
  -4   2  -4  116.64    4.81
  -4   2  -3  436.27   13.34
  -4   2  -2  728.05   23.90
  -4   2  -1 4427.99  103.95
  -4   2   0 1646.75   44.79
  -4   2   1  706.46   22.21
  -4   2   2  148.55    5.75
  -4   2   3 1148.72   34.32
  -4   2   4 1042.22   29.80
  -4   2   5  686.71   21.36
  -4   2   6 3269.14   85.19
  -4   2   7  106.12    5.19
  -4   2   8 1436.73   39.37
  -4   2   9  294.89    9.99
  -4   2  10  198.38    8.58
  -4   2  11  433.16   15.13
  -4   2  12  433.49   14.10
  -4   2  13  949.39   31.02
  -4   2  14  781.61   24.99
  -4   2  15  871.46   29.23
  -4   2  16  115.60    6.41
  -4   2  17  169.58    6.93
  -4   2  18  125.73    4.90
  -4   2  19   14.90    1.70
  -4   2  20   55.63    2.97
  -4   2  21   42.81    2.83
  -5   2 -16   11.83    2.69
  -5   2 -15  125.40    6.69
  -5   2 -14  190.32    8.34
  -5   2 -13  201.87    7.92
  -5   2 -12   26.26    1.56
  -5   2 -11    2.12    1.04
  -5   2 -10   29.04    1.93
  -5   2  -9  194.52    8.25
  -5   2  -8  200.46    8.77
  -5   2  -7    9.95    1.18
  -5   2  -6  103.81    5.04
  -5   2  -5  609.95   18.62
  -5   2  -4  273.48    9.81
  -5   2  -3   78.54    3.49
  -5   2  -2  533.49   16.59
  -5   2  -1   99.71    4.20
  -5   2   0 1959.42   50.16
  -5   2   1  252.41    9.62
  -5   2   2  545.27   16.64
  -5   2   3  141.67    6.03
  -5   2   4   45.92    2.50
  -5   2   5  896.07   29.70
  -5   2   6 2623.49   65.15
  -5   2   7 4575.08  113.71
  -5   2   8  882.68   29.04
  -5   2   9 1269.55   39.08
  -5   2  10   54.92    3.11
  -5   2  11  156.85    6.41
  -5   2  12   50.11    2.59
  -5   2  13  147.04    6.32
  -5   2  14 1211.42   35.41
  -5   2  15  920.21   31.73
  -5   2  16  382.77   11.74
  -5   2  17  156.94    7.92
  -5   2  18   12.12    2.03
  -5   2  19   88.91    4.48
  -5   2  20   20.41    2.22
  -5   2  21  106.07    5.61
  -6   2 -15   28.85    3.16
  -6   2 -14    3.91    1.18
  -6   2 -13   39.70    2.88
  -6   2 -12   34.70    2.73
  -6   2 -11   63.03    3.72
  -6   2 -10   47.10    2.97
  -6   2  -9  143.13    5.61
  -6   2  -8   81.70    4.38
  -6   2  -7   83.82    4.34
  -6   2  -6   36.07    1.89
  -6   2  -5  640.13   19.61
  -6   2  -4  189.43    7.54
  -6   2  -3   16.36    1.56
  -6   2  -2  318.04   11.17
  -6   2  -1  125.26    4.90
  -6   2   0  319.21   11.64
  -6   2   1  736.44   23.38
  -6   2   2  241.14    9.66
  -6   2   3  116.31    5.61
  -6   2   4  629.24   19.94
  -6   2   5  473.52   15.18
  -6   2   6  419.49   15.89
  -6   2   7  119.56    5.19
  -6   2   8 4114.53   97.40
  -6   2   9 2463.81   68.08
  -6   2  10  235.16    9.52
  -6   2  11  512.79   17.82
  -6   2  12  401.20   13.44
  -6   2  13  414.31   14.94
  -6   2  14   98.81    4.57
  -6   2  15  239.78   11.46
  -6   2  16  106.59    5.70
  -6   2  17  118.71    5.80
  -6   2  18  224.45    9.33
  -6   2  19    5.70    1.32
  -6   2  20    1.56    1.27
  -7   2 -13  111.12    5.09
  -7   2 -12   34.89    2.45
  -7   2 -11  235.06    8.96
  -7   2 -10   86.46    3.91
  -7   2  -9  188.15    7.35
  -7   2  -8   39.32    2.36
  -7   2  -7   20.18    1.60
  -7   2  -6   40.64    2.55
  -7   2  -5   40.73    2.64
  -7   2  -4  119.28    5.09
  -7   2  -3  106.45    4.95
  -7   2  -2  922.47   29.47
  -7   2  -1  114.84    5.23
  -7   2   0  579.12   19.56
  -7   2   1  220.07    9.15
  -7   2   2  400.59   15.37
  -7   2   3    9.81    1.37
  -7   2   4  644.65   19.89
  -7   2   5  598.69   20.27
  -7   2   6   67.94    3.58
  -7   2   7   85.61    4.10
  -7   2   8  319.50   11.83
  -7   2   9 1260.41   36.77
  -7   2  10  744.17   24.04
  -7   2  11  138.75    6.55
  -7   2  12  305.83   11.93
  -7   2  13   76.47    4.15
  -7   2  14   86.46    5.09
  -7   2  15  157.70    6.88
  -7   2  16  239.68    9.81
  -7   2  17  236.52    9.43
  -7   2  18  200.69    9.95
  -7   2  19  162.08    8.49
  -7   2  20   78.35    4.48
  -8   2 -11  101.31    4.67
  -8   2 -10  251.00   10.04
  -8   2  -9   50.87    3.16
  -8   2  -8   77.32    3.87
  -8   2  -7  112.06    5.56
  -8   2  -6  214.08    9.24
  -8   2  -5   95.99    4.38
  -8   2  -4   85.38    4.38
  -8   2  -3  328.88   13.48
  -8   2  -2  122.95    5.19
  -8   2  -1   37.43    2.45
  -8   2   0  290.65   11.60
  -8   2   1   20.18    1.65
  -8   2   2  226.15    9.33
  -8   2   3  365.18   13.95
  -8   2   4  109.42    5.61
  -8   2   5  312.10   12.63
  -8   2   6  739.22   21.78
  -8   2   7  268.63   10.94
  -8   2   8  276.55   11.03
  -8   2   9  163.50    7.87
  -8   2  10  229.88    9.10
  -8   2  11  337.98   14.52
  -8   2  12  322.33   13.06
  -8   2  13   15.42    2.03
  -8   2  14    2.50    1.93
  -8   2  15   70.95    4.67
  -8   2  16   31.30    2.88
  -8   2  17   37.53    3.30
  -8   2  18   33.19    2.78
  -8   2  19   15.23    2.55
  -9   2  -9    0.47    1.04
  -9   2  -8  165.43    8.77
  -9   2  -7   46.01    2.92
  -9   2  -6   39.70    2.73
  -9   2  -5   51.15    3.30
  -9   2  -4   46.20    2.40
  -9   2  -3  140.91    6.08
  -9   2  -2  107.06    4.90
  -9   2  -1  243.03    8.91
  -9   2   0  315.87   11.31
  -9   2   1   70.67    3.91
  -9   2   2  128.56    6.55
  -9   2   3   21.54    1.84
  -9   2   4    7.35    1.23
  -9   2   5   55.16    3.54
  -9   2   6  108.29    5.09
  -9   2   7 1235.37   39.88
  -9   2   8  390.69   13.29
  -9   2   9   97.35    5.00
  -9   2  10   80.38    4.76
  -9   2  11   31.07    2.78
  -9   2  12  166.89    7.40
  -9   2  13  136.72    6.51
  -9   2  14   55.25    3.68
  -9   2  15   45.64    3.06
  -9   2  16   35.55    3.16
  -9   2  17   34.56    3.91
 -10   2  -6   36.16    3.06
 -10   2  -5   26.40    2.55
 -10   2  -4   35.83    2.64
 -10   2  -3   73.40    4.34
 -10   2  -2   51.20    3.87
 -10   2  -1  308.04   11.36
 -10   2   0  194.09    8.34
 -10   2   1  278.29   12.12
 -10   2   2  194.52    8.82
 -10   2   3   35.97    3.25
 -10   2   4   47.99    3.21
 -10   2   5   49.50    3.16
 -10   2   6   88.87    5.09
 -10   2   7  118.43    6.03
 -10   2   8  644.18   21.97
 -10   2   9  354.15   13.44
 -10   2  10   30.83    2.64
 -10   2  11  107.16    6.27
 -10   2  12   52.47    3.91
 -10   2  13   33.05    3.16
 -10   2  14   69.63    4.86
 -10   2  15    2.40    2.03
 -11   2  -2   17.07    3.82
 -11   2  -1   44.46    6.69
 -11   2   0  228.89    9.24
 -11   2   1  191.17    8.01
 -11   2   2   33.47    3.21
 -11   2   3  138.98    7.45
 -11   2   4    6.88    1.51
 -11   2   5   11.55    1.89
 -11   2   6   44.50    2.97
 -11   2   7   10.04    1.70
 -11   2   8   55.58    4.15
 -11   2   9  138.79    8.44
 -11   2  10  420.06   17.87
 -11   2  11   65.25    3.87
 -11   2  12   17.73    3.63
  11   3 -10   23.29    2.64
  11   3  -9   19.75    1.74
  11   3  -8   42.52    5.70
  11   3  -7   64.49    5.94
  11   3  -6   29.65    5.61
  11   3  -5   48.56    3.21
  11   3  -4    8.82    1.60
  11   3  -3   12.07    1.84
  11   3  -2   68.78    4.86
  10   3 -14   90.99    4.53
  10   3 -13  165.85    6.69
  10   3 -12  122.81    5.56
  10   3 -11  102.59    8.72
  10   3 -10    8.82    1.18
  10   3  -9   92.64    4.53
  10   3  -8   25.41    1.84
  10   3  -7   24.66    1.84
  10   3  -6   23.86    2.22
  10   3  -5   66.29    4.05
  10   3  -4    8.91    1.23
  10   3  -3   91.88    5.47
  10   3  -2   10.18    1.27
  10   3  -1   13.20    1.27
  10   3   0   16.50    2.07
  10   3   1   35.64    2.73
  10   3   2   53.60    2.92
  10   3   3   30.83    3.16
  10   3   4   37.67    2.78
   9   3 -16    6.03    0.94
   9   3 -15   42.10    3.35
   9   3 -14   20.98    1.98
   9   3 -13  100.75    4.53
   9   3 -12  139.08    6.27
   9   3 -11  167.03    7.02
   9   3 -10  107.06    5.47
   9   3  -9   58.69    2.73
   9   3  -8  187.30    8.30
   9   3  -7   45.35    2.36
   9   3  -6   31.35    2.07
   9   3  -5   99.19    3.77
   9   3  -4   58.13    3.54
   9   3  -3   10.98    1.37
   9   3  -2    3.21    0.71
   9   3  -1   27.77    1.60
   9   3   0   28.90    1.79
   9   3   1    1.08    0.61
   9   3   2   25.74    1.74
   9   3   3   23.48    1.70
   9   3   4    5.00    0.90
   9   3   5    8.82    1.08
   9   3   6   60.82    4.05
   9   3   7   29.51    2.59
   9   3   8    5.23    1.70
   8   3 -18    6.27    0.99
   8   3 -17   32.20    2.31
   8   3 -16   24.80    2.45
   8   3 -15   41.30    2.64
   8   3 -14   69.54    3.30
   8   3 -13  158.97    7.35
   8   3 -12   85.05    4.86
   8   3 -11  777.36   23.48
   8   3 -10  455.42   15.27
   8   3  -9  109.71    4.76
   8   3  -8  247.41    8.39
   8   3  -7  293.57   11.74
   8   3  -6  606.80   16.78
   8   3  -5  164.72    6.18
   8   3  -4  164.77    5.99
   8   3  -3  203.05    9.15
   8   3  -2  110.70    5.09
   8   3  -1   37.53    2.03
   8   3   0   59.64    2.73
   8   3   1   55.39    2.83
   8   3   2  109.33    4.10
   8   3   3   36.63    2.12
   8   3   4  119.37    4.34
   8   3   5    7.97    0.85
   8   3   6   13.48    1.32
   8   3   7    4.05    0.90
   8   3   8   10.37    1.27
   8   3   9    7.73    1.37
   8   3  10    3.77    1.04
   7   3 -19   44.46    3.96
   7   3 -18   85.14    4.24
   7   3 -17    1.60    0.90
   7   3 -16   10.70    1.65
   7   3 -15   12.40    1.27
   7   3 -14   74.02    3.35
   7   3 -13   52.80    2.55
   7   3 -12   14.94    1.18
   7   3 -11  236.95    7.83
   7   3 -10  131.86    4.81
   7   3  -9  191.26    8.34
   7   3  -8  389.93   13.67
   7   3  -7   33.90    2.07
   7   3  -6  282.02   11.50
   7   3  -5  500.96   21.17
   7   3  -4  715.75   22.49
   7   3  -3   90.14    3.91
   7   3  -2   14.24    1.08
   7   3  -1  282.35   11.03
   7   3   0   78.78    2.88
   7   3   1  134.93    7.21
   7   3   2   25.32    1.46
   7   3   3   20.84    1.56
   7   3   4   47.33    2.64
   7   3   5  154.92    5.89
   7   3   6   47.76    2.07
   7   3   7   69.40    3.72
   7   3   8    1.65    0.75
   7   3   9   12.92    1.23
   7   3  10   11.69    1.32
   7   3  11   12.35    1.51
   7   3  12   54.78    3.44
   6   3 -20    3.39    1.70
   6   3 -19   15.13    2.22
   6   3 -18   19.33    1.56
   6   3 -17   96.32    5.85
   6   3 -16  128.75    7.07
   6   3 -15   43.42    2.31
   6   3 -14   91.22    5.52
   6   3 -13  125.83    5.04
   6   3 -12   60.20    3.30
   6   3 -11   28.71    1.60
   6   3 -10  194.52    5.94
   6   3  -9   83.26    4.29
   6   3  -8  308.42    9.43
   6   3  -7  601.52   19.05
   6   3  -6   10.89    1.04
   6   3  -5  419.11   14.76
   6   3  -4  724.85   22.06
   6   3  -3  760.82   24.56
   6   3  -2 1594.85   48.56
   6   3  -1   70.62    2.92
   6   3   0 1077.16   28.57
   6   3   1  205.17    6.93
   6   3   2  181.84    6.60
   6   3   3  194.85    5.28
   6   3   4  138.89    5.14
   6   3   5  205.08    7.21
   6   3   6  143.51    5.56
   6   3   7   81.04    3.91
   6   3   8   46.34    2.59
   6   3   9    7.35    1.37
   6   3  10  131.82    5.00
   6   3  11   34.46    2.07
   6   3  12   85.90    5.42
   6   3  13  133.51    6.13
   6   3  14   -0.28    0.99
   5   3 -20  292.01   13.34
   5   3 -19   45.31    3.63
   5   3 -18   78.31    5.70
   5   3 -17   68.12    3.54
   5   3 -16  164.63    7.26
   5   3 -15   21.64    1.70
   5   3 -14  317.85   10.80
   5   3 -13  217.85    7.40
   5   3 -12   56.86    3.16
   5   3 -11  497.94   17.07
   5   3 -10  487.90   15.65
   5   3  -9  407.00   11.69
   5   3  -8   98.34    3.77
   5   3  -7  788.68   22.49
   5   3  -6  471.35   15.65
   5   3  -5  261.93    7.17
   5   3  -4  210.22    6.84
   5   3  -3  210.97    6.60
   5   3  -2  538.11   17.82
   5   3  -1  207.29    9.24
   5   3   0  549.04   15.37
   5   3   1  353.82   12.96
   5   3   2  657.99   18.86
   5   3   3   61.15    2.92
   5   3   4  228.04    6.93
   5   3   5  142.28    5.33
   5   3   6  122.15    4.10
   5   3   7  213.00    7.59
   5   3   8  155.91    5.99
   5   3   9  127.86    5.04
   5   3  10   66.90    3.21
   5   3  11   15.04    1.32
   5   3  12  283.95   11.60
   5   3  13   64.73    3.44
   5   3  14  116.87    4.90
   5   3  15  126.82    5.42
   4   3 -20  210.41    7.87
   4   3 -19  361.41   13.53
   4   3 -18  230.87   11.41
   4   3 -17   19.14    1.65
   4   3 -16  119.37    7.83
   4   3 -15  131.06    5.33
   4   3 -14  110.70    4.53
   4   3 -13  961.93   32.39
   4   3 -12  317.19   10.51
   4   3 -11  263.44    9.15
   4   3 -10   23.86    1.27
   4   3  -9  376.78   12.45
   4   3  -8  481.53   15.79
   4   3  -7   39.55    1.93
   4   3  -6  154.54    5.42
   4   3  -5  159.35    4.01
   4   3  -4  316.53   10.65
   4   3  -3  855.25   24.89
   4   3  -2  342.08   10.18
   4   3  -1 1087.95   27.34
   4   3   0 1063.30   20.46
   4   3   1 1391.09   37.20
   4   3   2 1343.29   32.86
   4   3   3   92.36    3.91
   4   3   4  292.01    8.77
   4   3   5  193.90    6.74
   4   3   6  630.13   16.36
   4   3   7   23.20    1.37
   4   3   8   19.23    1.32
   4   3   9  300.12    9.57
   4   3  10  199.47    6.60
   4   3  11  107.49    4.76
   4   3  12   63.93    2.78
   4   3  13  410.82   12.54
   4   3  14  165.05    6.27
   4   3  15  150.01    7.40
   4   3  16   72.51    3.58
   4   3  17  154.35    6.27
   3   3 -21    8.67    1.23
   3   3 -20  116.82    4.76
   3   3 -19   15.09    1.32
   3   3 -18  158.55    6.79
   3   3 -17  413.41   14.10
   3   3 -16  318.93   11.79
   3   3 -15   87.36    3.82
   3   3 -14  356.79   12.07
   3   3 -13  529.67   15.65
   3   3 -12  835.02   24.66
   3   3 -11  251.80    7.83
   3   3 -10 1707.57   40.73
   3   3  -9  132.10    4.57
   3   3  -8   33.43    1.56
   3   3  -7 1070.37   26.73
   3   3  -6 2091.84   52.75
   3   3  -5  212.90    6.84
   3   3  -4   30.88    1.60
   3   3  -3  936.29   22.39
   3   3  -2  125.12    3.35
   3   3  -1  551.31   15.46
   3   3   0 1022.66   29.14
   3   3   1  797.12   20.46
   3   3   2  342.79    8.82
   3   3   3  355.33    9.90
   3   3   4  599.96   16.92
   3   3   5  266.98    8.58
   3   3   6  872.93   20.98
   3   3   7  466.68   13.77
   3   3   8  477.34   15.65
   3   3   9  827.01   21.40
   3   3  10  307.05    9.66
   3   3  11  324.17   10.80
   3   3  12  295.83    9.15
   3   3  13  183.44    6.36
   3   3  14   10.70    1.23
   3   3  15  175.47    6.46
   3   3  16  319.64   10.04
   3   3  17   65.06    3.39
   3   3  18  112.44    4.90
   2   3 -20   43.75    3.87
   2   3 -19   74.25    4.20
   2   3 -18   60.82    3.39
   2   3 -17  260.43    9.85
   2   3 -16  489.31   16.22
   2   3 -15   10.47    0.94
   2   3 -14  482.15   14.85
   2   3 -13  246.42    9.81
   2   3 -12  192.54    7.68
   2   3 -11 2397.43   55.39
   2   3 -10 1087.72   31.45
   2   3  -9  675.63   21.17
   2   3  -8 1203.79   32.34
   2   3  -7  291.35    9.85
   2   3  -6  233.88    8.25
   2   3  -5 1054.20   26.64
   2   3  -4  552.11   15.70
   2   3  -3  898.15   23.34
   2   3   2  899.04   21.83
   2   3   3  700.33   21.36
   2   3   4  989.80   25.98
   2   3   5   68.03    2.69
   2   3   6   44.83    2.12
   2   3   7   57.52    2.92
   2   3   8    0.33    0.42
   2   3   9  398.75   13.44
   2   3  10   24.37    1.41
   2   3  11   21.73    1.32
   2   3  12   22.63    1.60
   2   3  13  221.86    9.00
   2   3  14  178.96    7.83
   2   3  15  144.50    5.47
   2   3  16   68.17    3.39
   2   3  17   20.60    1.70
   2   3  18  240.11    8.67
   2   3  19  165.38    7.02
   1   3 -20    2.36    1.18
   1   3 -19    1.89    0.99
   1   3 -18   55.39    3.25
   1   3 -17   73.83    3.25
   1   3 -16   46.91    2.64
   1   3 -15  259.01   11.50
   1   3 -14  264.43    9.05
   1   3 -13  420.86   13.15
   1   3 -12   56.53    2.78
   1   3 -11  679.73   20.22
   1   3 -10 2196.13   54.45
   1   3  -9  607.17   17.02
   1   3  -8  575.26   17.30
   1   3  -7  391.25   13.01
   1   3  -6 1160.79   29.94
   1   3  -5 1016.67   26.26
   1   3  -4 2280.47   50.44
   1   3  -3 2739.56  134.13
   1   3  -2  700.71   18.01
   1   3   2  478.66   14.00
   1   3   3 2482.01   91.27
   1   3   4  472.67   11.46
   1   3   5   57.99    2.36
   1   3   6    2.40    0.38
   1   3   7  914.51   28.38
   1   3   8  712.40   23.10
   1   3   9  141.10    5.56
   1   3  10  411.81   11.55
   1   3  11   84.34    3.63
   1   3  12  108.72    4.57
   1   3  13   62.32    3.11
   1   3  14  243.83    8.63
   1   3  15   53.13    2.92
   1   3  16  171.75    7.68
   1   3  17  104.09    4.38
   1   3  18   11.17    1.32
   1   3  19  130.83    6.93
   0   3 -20   22.91    2.55
   0   3 -19   27.16    2.64
   0   3 -18   10.61    1.27
   0   3 -17   29.37    2.03
   0   3 -16   18.53    1.46
   0   3 -15  120.45    5.14
   0   3 -14   35.17    2.03
   0   3 -13  159.02    6.46
   0   3 -12  216.06    8.25
   0   3 -11  113.19    5.09
   0   3 -10  481.44   14.61
   0   3  -9  385.36   13.25
   0   3  -8 1061.50   29.89
   0   3  -7 2803.91   68.60
   0   3  -6  368.29   12.12
   0   3  -5 1177.20   31.73
   0   3  -4  188.11    7.02
   0   3  -3  312.66   10.23
   0   3  -1  363.62   10.61
   0   3   0    0.28    0.28
   0   3   1  318.41   10.23
   0   3   2 5363.20  146.19
   0   3   3  315.11   10.37
   0   3   4  181.93    6.32
   0   3   5 1120.48   35.97
   0   3   6  381.96   12.45
   0   3   7 2850.26   69.49
   0   3   8 1041.56   28.43
   0   3   9  373.29   12.45
   0   3  10  434.86   12.78
   0   3  11  100.28    4.57
   0   3  12  206.78    8.96
   0   3  13  141.81    5.52
   0   3  14   34.98    2.22
   0   3  15  117.91    5.37
   0   3  16   18.29    1.60
   0   3  17   28.24    2.17
   0   3  18    9.85    1.32
   0   3  19   24.42    1.84
   0   3  20   38.47    3.11
  -1   3 -19  154.49    7.59
  -1   3 -18   11.69    1.51
  -1   3 -17   23.53    2.07
  -1   3 -16   12.45    2.03
  -1   3 -15   60.53    3.35
  -1   3 -14  279.85   10.84
  -1   3 -13   71.09    3.35
  -1   3 -12  116.16    5.00
  -1   3 -11   95.70    4.24
  -1   3 -10  495.77   16.50
  -1   3  -9  153.55    6.69
  -1   3  -8  732.29   21.03
  -1   3  -7 1018.89   29.32
  -1   3  -6    2.40    0.42
  -1   3  -5   59.35    2.50
  -1   3  -4  514.20   11.46
  -1   3  -3 2634.81   59.40
  -1   3  -2  504.49   13.48
  -1   3  -1 1512.06   40.17
  -1   3   0 1254.80   34.37
  -1   3   1 3323.92   79.77
  -1   3   2  731.96   20.74
  -1   3   3 2591.43   62.18
  -1   3   4 2326.58   64.49
  -1   3   5 1064.85   28.52
  -1   3   6 1220.38   33.14
  -1   3   7  401.34   14.19
  -1   3   8  620.75   18.48
  -1   3   9  612.88   16.26
  -1   3  10 2152.47   57.80
  -1   3  11  714.52   19.05
  -1   3  12   59.21    3.30
  -1   3  13  412.89   15.56
  -1   3  14  270.00   10.84
  -1   3  15  266.98   10.65
  -1   3  16   46.91    2.59
  -1   3  17   69.44    3.54
  -1   3  18   57.52    3.11
  -1   3  19    1.93    1.04
  -1   3  20    2.03    1.93
  -2   3 -19  190.79    7.59
  -2   3 -18  290.03    9.66
  -2   3 -17   24.75    1.79
  -2   3 -16   75.24    3.87
  -2   3 -15  169.30    6.84
  -2   3 -14  163.73    6.74
  -2   3 -13   13.29    1.98
  -2   3 -12   17.54    1.89
  -2   3 -11   27.86    1.65
  -2   3 -10   29.28    1.93
  -2   3  -9  499.83   16.17
  -2   3  -8    0.94    0.52
  -2   3  -7   67.61    3.02
  -2   3  -6   48.28    2.17
  -2   3  -5   74.82    3.49
  -2   3  -4 1197.37   32.01
  -2   3  -3  754.40   23.20
  -2   3  -2  974.85   28.66
  -2   3  -1 2176.47   56.10
  -2   3   0 1547.14   42.10
  -2   3   1 3581.70   81.98
  -2   3   2 2560.51   74.49
  -2   3   3  959.67   25.98
  -2   3   4  605.66   18.10
  -2   3   5 1075.93   26.40
  -2   3   6  240.30    8.39
  -2   3   7  313.09   10.94
  -2   3   8 1262.24   35.55
  -2   3   9  686.14   22.16
  -2   3  10 1171.26   32.81
  -2   3  11 2763.98   78.50
  -2   3  12  210.59    8.72
  -2   3  13  273.91   10.98
  -2   3  14  535.09   19.52
  -2   3  15   11.88    1.51
  -2   3  16  526.04   20.41
  -2   3  17  285.32   11.31
  -2   3  18   64.54    3.77
  -2   3  19   80.76    4.34
  -2   3  20   44.98    3.21
  -3   3 -18  129.32    5.85
  -3   3 -17   75.76    4.05
  -3   3 -16  393.66   13.86
  -3   3 -15  215.50    8.20
  -3   3 -14   15.13    1.46
  -3   3 -13  230.21    8.25
  -3   3 -12  378.62   12.35
  -3   3 -11  432.64   13.81
  -3   3 -10  453.95   14.38
  -3   3  -9  820.69   28.38
  -3   3  -8   91.93    6.46
  -3   3  -7  588.88   17.44
  -3   3  -6 1013.98   27.82
  -3   3  -5  309.88    9.57
  -3   3  -4  709.76   21.21
  -3   3  -3  417.79   14.80
  -3   3  -2  382.39   13.29
  -3   3  -1  983.29   28.19
  -3   3   0 1164.33   35.55
  -3   3   1  613.77   19.52
  -3   3   2  147.04    5.75
  -3   3   3 1077.34   26.54
  -3   3   4   35.50    1.79
  -3   3   5  237.89    9.29
  -3   3   6 2372.68   61.43
  -3   3   7 1226.93   35.88
  -3   3   8   36.49    2.03
  -3   3   9  145.96    6.51
  -3   3  10 2105.61   56.86
  -3   3  11  309.69   10.47
  -3   3  12 1031.19   28.38
  -3   3  13  622.64   18.67
  -3   3  14  395.54   14.47
  -3   3  15  114.18    5.52
  -3   3  16  380.50   12.49
  -3   3  17  487.99   22.72
  -3   3  18   26.31    2.78
  -3   3  19    7.68    2.12
  -3   3  20  124.27    5.99
  -3   3  21    8.63    2.03
  -4   3 -17  192.68    7.97
  -4   3 -16   91.46    4.24
  -4   3 -15  186.46    6.65
  -4   3 -14  214.79    8.44
  -4   3 -13  546.22   19.85
  -4   3 -12   82.64    4.34
  -4   3 -11  143.60    6.60
  -4   3 -10  284.99   11.22
  -4   3  -9  438.87   15.37
  -4   3  -8   27.96    1.93
  -4   3  -7   34.84    2.03
  -4   3  -6  822.25   25.60
  -4   3  -5  261.37    9.48
  -4   3  -4    5.66    1.46
  -4   3  -3    5.33    1.27
  -4   3  -2 1676.93   45.49
  -4   3  -1 1657.97   44.27
  -4   3   0 1236.98   34.70
  -4   3   1 1257.81   32.77
  -4   3   2  408.74   14.05
  -4   3   3 1035.06   27.53
  -4   3   4  377.63   13.20
  -4   3   5  192.96    6.69
  -4   3   6  175.33    6.36
  -4   3   7   48.61    2.45
  -4   3   8  575.96   19.28
  -4   3   9  460.27   14.71
  -4   3  10   31.73    2.22
  -4   3  11    1.98    1.37
  -4   3  12    4.05    1.51
  -4   3  13 1231.84   39.51
  -4   3  14  147.09    6.32
  -4   3  15  162.32    8.49
  -4   3  16  141.90    5.75
  -4   3  17   21.78    1.84
  -4   3  18  267.78   11.83
  -4   3  19  406.38   17.35
  -4   3  20  243.36    9.57
  -5   3 -15  163.31    7.35
  -5   3 -14  165.57    7.97
  -5   3 -13   81.37    4.43
  -5   3 -12  389.46   14.28
  -5   3 -11   19.33    1.70
  -5   3 -10   90.85    4.15
  -5   3  -9  179.24    7.68
  -5   3  -8  230.39    9.05
  -5   3  -7  304.08   10.80
  -5   3  -6  166.99    6.08
  -5   3  -5  189.90    6.98
  -5   3  -4  302.62    9.33
  -5   3  -3   79.63    3.87
  -5   3  -2  830.21   25.36
  -5   3  -1  448.63   16.12
  -5   3   0  686.52   24.33
  -5   3   1  234.50    9.38
  -5   3   2  654.51   22.77
  -5   3   3  264.48   10.37
  -5   3   4  279.61    9.33
  -5   3   5  328.13   12.40
  -5   3   6  602.84   19.33
  -5   3   7 1048.40   34.37
  -5   3   8  132.71    5.70
  -5   3   9  547.11   17.58
  -5   3  10  700.85   21.07
  -5   3  11  782.03   24.70
  -5   3  12   81.04    4.38
  -5   3  13  297.72   11.41
  -5   3  14  417.65   15.23
  -5   3  15   27.34    2.22
  -5   3  16  187.87    7.59
  -5   3  17   86.75    4.53
  -5   3  18   98.01    3.96
  -5   3  19   54.36    3.06
  -5   3  20  338.21   11.50
  -6   3 -14    0.05    1.41
  -6   3 -13  188.48    7.92
  -6   3 -12  124.13    5.85
  -6   3 -11   47.99    3.02
  -6   3 -10  188.11    8.72
  -6   3  -9   14.71    1.32
  -6   3  -8   68.97    3.68
  -6   3  -7  125.55    5.37
  -6   3  -6  213.94    8.67
  -6   3  -5  308.37   12.26
  -6   3  -4  211.58    8.34
  -6   3  -3  278.29    9.38
  -6   3  -2  250.01    9.57
  -6   3  -1  270.75    9.76
  -6   3   0 1430.03   41.49
  -6   3   1   94.85    4.38
  -6   3   2 2205.23   57.80
  -6   3   3  992.15   31.59
  -6   3   4  946.28   30.31
  -6   3   5  562.81   20.46
  -6   3   6   17.21    1.41
  -6   3   7  787.31   24.28
  -6   3   8  442.21   16.12
  -6   3   9  119.98    5.85
  -6   3  10  298.09   12.30
  -6   3  11   43.47    2.73
  -6   3  12   80.57    4.90
  -6   3  13  180.04    9.48
  -6   3  14  119.04    5.56
  -6   3  15   55.11    3.11
  -6   3  16  160.62    7.83
  -6   3  17  126.39    6.46
  -6   3  18   26.07    2.22
  -6   3  19   18.20    1.70
  -6   3  20    3.49    3.06
  -7   3 -12   77.18    4.53
  -7   3 -11   20.27    1.84
  -7   3 -10   19.14    1.79
  -7   3  -9   18.57    2.12
  -7   3  -8    1.18    1.60
  -7   3  -7  107.35    5.00
  -7   3  -6   70.86    3.91
  -7   3  -5  236.24    9.05
  -7   3  -4   72.84    3.87
  -7   3  -3   28.38    2.03
  -7   3  -2   38.56    2.22
  -7   3  -1  205.31    8.30
  -7   3   0  117.39    5.23
  -7   3   1  404.55   14.71
  -7   3   2   23.24    2.92
  -7   3   3  129.22    5.56
  -7   3   4 1045.14   32.48
  -7   3   5  714.90   20.74
  -7   3   6  410.30   16.59
  -7   3   7   56.62    3.30
  -7   3   8  564.04   20.04
  -7   3   9  274.95   11.83
  -7   3  10  190.93    8.49
  -7   3  11  336.89   14.99
  -7   3  12   21.59    1.89
  -7   3  13   66.52    4.15
  -7   3  14  103.34    5.09
  -7   3  15   13.91    1.74
  -7   3  16   14.19    1.79
  -7   3  17    1.46    1.23
  -7   3  18  115.03    6.03
  -7   3  19   62.94    4.05
  -8   3 -10    7.02    1.27
  -8   3  -9   14.28    1.65
  -8   3  -8   16.74    2.22
  -8   3  -7    4.95    1.13
  -8   3  -6   19.23    1.89
  -8   3  -5    9.66    1.08
  -8   3  -4  174.29    7.45
  -8   3  -3   55.96    3.06
  -8   3  -2  168.35    6.74
  -8   3  -1   88.54    4.20
  -8   3   0   94.29    4.05
  -8   3   1   52.05    3.06
  -8   3   2  180.47    7.02
  -8   3   3  336.89   12.30
  -8   3   4  245.76    9.76
  -8   3   5  249.39   10.14
  -8   3   6  946.52   30.08
  -8   3   7  438.21   13.81
  -8   3   8  378.05   14.71
  -8   3   9  171.65    7.50
  -8   3  10  675.06   21.97
  -8   3  11 1202.94   38.33
  -8   3  12  133.51    6.51
  -8   3  13  239.31   12.12
  -8   3  14  101.22    6.27
  -8   3  15   51.48    4.10
  -8   3  16   33.28    3.39
  -8   3  17   41.86    3.16
  -8   3  18   11.27    2.31
  -9   3  -8    6.18    1.56
  -9   3  -7   42.81    2.97
  -9   3  -6   99.90    4.34
  -9   3  -5   11.64    1.60
  -9   3  -4    7.54    1.27
  -9   3  -3   37.95    2.45
  -9   3  -2   36.30    2.55
  -9   3  -1    1.70    0.94
  -9   3   0   44.65    3.16
  -9   3   1   48.13    3.11
  -9   3   2    3.63    1.51
  -9   3   3   16.22    1.98
  -9   3   4  101.74    4.86
  -9   3   5  169.20    7.17
  -9   3   6   52.05    3.58
  -9   3   7   71.09    3.91
  -9   3   8  293.52   11.93
  -9   3   9   94.29    5.89
  -9   3  10  161.52    7.50
  -9   3  11  245.76   11.46
  -9   3  12  203.00    9.05
  -9   3  13  150.30    7.78
  -9   3  14   25.46    2.22
  -9   3  15   68.83    4.15
  -9   3  16    9.57    3.06
 -10   3  -4   56.38    3.68
 -10   3  -3   48.98    4.01
 -10   3  -2   93.63    4.71
 -10   3  -1   60.20    3.58
 -10   3   0   25.46    2.07
 -10   3   1   20.74    1.93
 -10   3   2   19.09    2.03
 -10   3   3  152.42    7.54
 -10   3   4   15.46    1.65
 -10   3   5  109.71    5.19
 -10   3   6   37.06    2.69
 -10   3   7   45.73    3.02
 -10   3   8   48.84    3.21
 -10   3   9  149.54    8.30
 -10   3  10   14.43    1.84
 -10   3  11  172.45    9.24
 -10   3  12  194.99   14.57
 -10   3  13  276.97   20.70
 -10   3  14  147.18    9.81
 -11   3   1   13.25    1.74
 -11   3   2  125.59    6.55
 -11   3   3   21.92    2.07
 -11   3   4   15.23    2.31
 -11   3   5   91.79    5.19
 -11   3   6   46.63    3.96
 -11   3   7  120.22    5.89
 -11   3   8   60.11    4.34
 -11   3   9   30.97    3.25
 -11   3  10   46.77    5.23
  10   4 -11    6.27    1.74
  10   4 -10   82.55   10.18
  10   4  -9   65.67    3.82
  10   4  -8    4.90    1.60
  10   4  -7   48.65    2.97
  10   4  -6   11.17    2.92
  10   4  -5    0.19    1.23
  10   4  -4   45.40    3.87
  10   4  -3   14.10    3.25
  10   4  -2   18.34    2.03
  10   4  -1   58.98    3.25
  10   4   0   24.75    1.89
  10   4   1  140.68    4.38
  10   4   2   21.50    2.31
   9   4 -14   11.08    1.70
   9   4 -13  175.00    6.69
   9   4 -12    5.56    1.27
   9   4 -11   73.83    3.11
   9   4 -10   77.46    3.82
   9   4  -9    0.57    0.75
   9   4  -8    4.05    0.99
   9   4  -7    0.47    0.71
   9   4  -6   20.37    1.60
   9   4  -5   88.73    4.86
   9   4  -4   30.36    2.07
   9   4  -3   10.61    2.64
   9   4  -2   30.97    1.93
   9   4  -1   32.01    2.07
   9   4   0   44.74    4.95
   9   4   1   31.96    1.79
   9   4   2   28.57    1.84
   9   4   3   66.24    3.68
   9   4   4   11.17    1.32
   9   4   5  100.37    5.00
   9   4   6   41.86    3.63
   8   4 -16   25.32    2.31
   8   4 -15    1.70    0.90
   8   4 -14   12.26    1.46
   8   4 -13   49.31    4.15
   8   4 -12    3.63    1.41
   8   4 -11   16.12    1.51
   8   4 -10   22.16    2.36
   8   4  -9   28.52    1.98
   8   4  -8    7.31    0.90
   8   4  -7   44.88    2.26
   8   4  -6   28.29    2.55
   8   4  -5   16.03    1.18
   8   4  -4   32.20    1.51
   8   4  -3   79.67    2.88
   8   4  -2    8.20    0.75
   8   4  -1    6.65    1.27
   8   4   0    3.30    0.75
   8   4   1   14.00    1.04
   8   4   2   35.74    1.79
   8   4   3   66.76    3.25
   8   4   4   74.39    4.43
   8   4   5   50.30    2.78
   8   4   6   39.79    2.22
   8   4   7  138.65    7.97
   8   4   8   70.15    6.46
   8   4   9    5.09    2.55
   7   4 -17    4.67    2.92
   7   4 -16    6.36    0.99
   7   4 -15    0.75    1.23
   7   4 -14   84.95    4.71
   7   4 -13    7.68    0.85
   7   4 -12  231.38   10.80
   7   4 -11  158.55    5.61
   7   4 -10   25.84    1.79
   7   4  -9   26.26    2.31
   7   4  -8  135.40    5.04
   7   4  -7   44.22    2.17
   7   4  -6  144.03    5.42
   7   4  -5   38.28    2.45
   7   4  -4  240.67    5.66
   7   4  -3   39.65    1.89
   7   4  -2   89.90    4.05
   7   4  -1   10.84    0.99
   7   4   0   29.18    2.22
   7   4   1   41.72    1.79
   7   4   2   46.91    2.26
   7   4   3   14.47    1.18
   7   4   4   16.83    3.11
   7   4   5   25.27    2.59
   7   4   6   22.96    3.87
   7   4   7   31.02    1.98
   7   4   8    3.72    0.66
   7   4   9   64.96    4.15
   7   4  10   73.36    4.24
   6   4 -18   49.60    4.38
   6   4 -17   67.98    3.91
   6   4 -16   74.77    3.82
   6   4 -15   18.43    1.79
   6   4 -14  126.72    5.56
   6   4 -13    8.44    1.08
   6   4 -12    0.57    0.61
   6   4 -11   61.81    3.11
   6   4 -10  209.13    8.16
   6   4  -9   17.73    1.18
   6   4  -8  182.97    7.92
   6   4  -7   55.54    2.36
   6   4  -6  228.41    6.84
   6   4  -5  199.66    6.88
   6   4  -4   43.89    2.26
   6   4  -3  820.74   25.88
   6   4  -2   27.01    1.93
   6   4  -1    3.58    0.47
   6   4   0    5.19    0.57
   6   4   1   41.86    2.31
   6   4   2   31.40    1.89
   6   4   3   17.87    1.13
   6   4   4   80.10    5.56
   6   4   5   33.10    1.98
   6   4   6   73.36    3.58
   6   4   7   71.42    3.30
   6   4   8    3.02    0.66
   6   4   9   20.84    1.56
   6   4  10   20.93    1.74
   6   4  11   64.92    5.28
   6   4  12   63.74    3.63
   6   4  13  118.10    5.85
   5   4 -19   26.68    3.21
   5   4 -18  126.06    5.37
   5   4 -17   46.96    2.64
   5   4 -16  209.70    8.39
   5   4 -15    4.29    0.71
   5   4 -14    2.50    0.75
   5   4 -13   10.23    0.94
   5   4 -12  271.08    8.11
   5   4 -11  121.16    4.48
   5   4 -10  197.58    6.60
   5   4  -9  152.61    5.80
   5   4  -8  108.67    3.96
   5   4  -7  103.34    3.35
   5   4  -6  198.95    7.87
   5   4  -5 1029.16   26.64
   5   4  -4  113.29    4.76
   5   4  -3  460.65   13.01
   5   4  -2  579.55   11.22
   5   4  -1 2035.65   68.88
   5   4   0   26.07    1.23
   5   4   1  691.28   20.70
   5   4   2   68.78    3.02
   5   4   3    2.59    0.42
   5   4   4   58.41    2.40
   5   4   5   21.73    1.27
   5   4   6   28.52    1.37
   5   4   7   36.30    2.26
   5   4   8   10.18    0.94
   5   4   9   20.04    1.37
   5   4  10   15.18    1.56
   5   4  11    6.79    0.90
   5   4  12   44.93    2.73
   5   4  13   80.62    4.24
   5   4  14   36.11    2.31
   4   4 -19   49.12    3.77
   4   4 -18  123.80    5.00
   4   4 -17   70.06    3.39
   4   4 -16  134.27    6.03
   4   4 -15   44.13    2.31
   4   4 -14   10.80    0.94
   4   4 -13  208.19    7.12
   4   4 -12  142.56    5.56
   4   4 -11  281.83   10.47
   4   4 -10  275.04   10.47
   4   4  -9  149.35    8.25
   4   4  -8  891.31   23.67
   4   4  -7  195.51    6.55
   4   4  -6   29.51    1.37
   4   4  -5  594.59   17.21
   4   4  -4  551.50   14.10
   4   4   1 1849.38   55.63
   4   4   2  178.16    4.05
   4   4   3  376.12   11.50
   4   4   4  340.85    9.52
   4   4   5   23.15    1.08
   4   4   6  168.92    5.85
   4   4   7  117.67    4.38
   4   4   8   36.68    1.84
   4   4   9   46.20    2.17
   4   4  10    5.09    0.71
   4   4  11   87.97    3.44
   4   4  12   18.86    1.89
   4   4  13   11.93    1.51
   4   4  14    7.83    1.18
   4   4  15  118.71    5.70
   3   4 -19    2.55    1.74
   3   4 -18   95.61    4.95
   3   4 -17   90.05    4.76
   3   4 -16   12.21    1.56
   3   4 -15    3.82    0.85
   3   4 -14   55.02    2.78
   3   4 -13  124.41    4.81
   3   4 -12   11.27    0.99
   3   4 -11    9.81    0.85
   3   4 -10  714.33   21.78
   3   4  -9  341.70   10.84
   3   4  -8   62.32    2.03
   3   4  -7   32.20    1.74
   3   4  -6  224.55    7.73
   3   4  -5  159.68    5.42
   3   4  -4  590.96   15.46
   3   4   2  713.11   15.56
   3   4   3 1850.14   43.61
   3   4   4  164.06    6.08
   3   4   5  853.36   23.38
   3   4   6  565.21   18.15
   3   4   7  456.08   13.29
   3   4   8  289.23   10.42
   3   4   9  100.18    4.20
   3   4  10   64.12    2.88
   3   4  11   29.56    1.79
   3   4  12   24.61    1.93
   3   4  13   21.31    1.60
   3   4  14  103.72    4.24
   3   4  15    6.41    1.51
   3   4  16    5.99    1.46
   3   4  17   70.53    3.58
   2   4 -19   51.67    3.06
   2   4 -18  112.44    4.43
   2   4 -17   43.61    2.83
   2   4 -16   18.67    1.56
   2   4 -15   14.14    1.32
   2   4 -14   69.26    3.21
   2   4 -13   61.38    3.44
   2   4 -12  323.36   12.16
   2   4 -11  179.34    7.12
   2   4 -10   89.10    3.82
   2   4  -9  266.55   10.28
   2   4  -8  724.85   18.90
   2   4  -7   35.12    1.56
   2   4  -6  181.88    5.19
   2   4  -5   39.74    1.65
   2   4  -4   73.22    2.55
   2   4  -3  804.43   17.02
   2   4   3  199.28    6.60
   2   4   4  842.75   22.06
   2   4   5 2499.74   64.59
   2   4   6  279.75    8.77
   2   4   7  937.99   26.73
   2   4   8 1070.41   29.80
   2   4   9  132.00    5.09
   2   4  10  129.74    7.35
   2   4  11   92.03    5.52
   2   4  12   59.12    3.02
   2   4  13   14.43    1.41
   2   4  14   14.14    1.27
   2   4  15   86.70    4.43
   2   4  16   58.41    3.72
   2   4  17    7.97    1.37
   1   4 -19   22.91    3.96
   1   4 -18   46.63    2.88
   1   4 -17  153.13    7.02
   1   4 -16   55.91    2.88
   1   4 -15   52.61    2.83
   1   4 -14   24.61    1.51
   1   4 -13  636.31   21.50
   1   4 -12  149.35    5.94
   1   4 -11  286.73    8.72
   1   4 -10  257.22    8.58
   1   4  -9  438.30   11.13
   1   4  -8  250.29    6.88
   1   4  -7  141.53    5.42
   1   4  -6  151.43    6.27
   1   4  -5   26.31    1.70
   1   4  -4  403.56   13.62
   1   4  -3   25.55    1.32
   1   4  -2  127.43    4.48
   1   4  -1   74.44    2.69
   1   4   0  655.97   20.65
   1   4   1  931.48   25.98
   1   4   2  251.37    8.86
   1   4   3   72.18    2.88
   1   4   4  946.05   26.50
   1   4   5   54.07    2.97
   1   4   6 1345.31   35.03
   1   4   7  381.07   12.21
   1   4   8 1462.80   42.52
   1   4   9   99.10    3.87
   1   4  10  467.11   13.58
   1   4  11   42.90    2.36
   1   4  12  206.54    8.96
   1   4  13   77.18    3.77
   1   4  14   37.76    1.98
   1   4  15    2.31    0.85
   1   4  16   79.44    3.91
   1   4  17   40.59    2.88
   1   4  18   26.97    2.07
   0   4 -19   70.43    4.76
   0   4 -18    8.01    1.79
   0   4 -17   28.00    2.07
   0   4 -16   32.67    2.36
   0   4 -15  237.37    9.38
   0   4 -14   53.04    3.21
   0   4 -13   19.80    1.60
   0   4 -12   19.75    1.51
   0   4 -11  166.66    7.45
   0   4 -10  362.73   12.21
   0   4  -9  807.02   22.35
   0   4  -8  740.64   21.73
   0   4  -7  206.68    7.45
   0   4  -6  185.04    6.41
   0   4  -5  132.90    4.86
   0   4  -4  161.66    5.99
   0   4  -3   91.84    3.72
   0   4  -2   37.67    2.03
   0   4  -1  362.40   10.32
   0   4   0   12.07    0.80
   0   4   1  365.93   10.98
   0   4   2   37.67    1.84
   0   4   3   88.49    3.02
   0   4   4  153.31    5.09
   0   4   5  128.61    5.66
   0   4   6  180.23    7.54
   0   4   7  199.52    6.84
   0   4   8  709.99   19.71
   0   4   9  784.77   21.59
   0   4  10  297.39    9.81
   0   4  11  162.79    7.07
   0   4  12   19.05    1.51
   0   4  13   18.67    1.27
   0   4  14   50.02    2.92
   0   4  15  230.77    8.16
   0   4  16   32.48    2.03
   0   4  17   27.44    2.55
   0   4  18    6.51    2.50
   0   4  19   66.00    3.49
  -1   4 -18   33.47    2.69
  -1   4 -17   42.90    3.06
  -1   4 -16   82.64    3.72
  -1   4 -15    2.50    0.90
  -1   4 -14   42.24    2.78
  -1   4 -13   82.27    3.82
  -1   4 -12  251.61    9.57
  -1   4 -11   52.85    2.73
  -1   4 -10  550.32   16.88
  -1   4  -9  108.67    4.62
  -1   4  -8 1600.27   42.43
  -1   4  -7  423.31   15.32
  -1   4  -6 1467.37   38.89
  -1   4  -5   58.27    2.50
  -1   4  -4 1028.74   31.07
  -1   4  -3   80.66    3.54
  -1   4  -2  278.72   10.98
  -1   4  -1  985.46   24.19
  -1   4   0  709.33   21.03
  -1   4   1   79.34    3.30
  -1   4   2  130.45    8.53
  -1   4   3   27.34    1.60
  -1   4   4  503.50   16.45
  -1   4   5   25.08    1.56
  -1   4   6  159.40    5.66
  -1   4   7  145.16    5.37
  -1   4   8  244.35    7.59
  -1   4   9  453.34   13.95
  -1   4  10  307.57   12.96
  -1   4  11  289.23   10.56
  -1   4  12  152.18    6.27
  -1   4  13  631.83   20.60
  -1   4  14   22.68    1.79
  -1   4  15   53.70    3.30
  -1   4  16   56.71    2.73
  -1   4  17  157.46    8.53
  -1   4  18   49.17    2.88
  -1   4  19   21.54    2.07
  -2   4 -17    5.94    1.27
  -2   4 -16   63.83    3.39
  -2   4 -15  101.93    4.24
  -2   4 -14   14.85    1.56
  -2   4 -13   16.69    1.37
  -2   4 -12   72.79    3.02
  -2   4 -11  116.21    5.00
  -2   4 -10  180.23    7.07
  -2   4  -9  153.27    6.41
  -2   4  -8 1313.91   34.13
  -2   4  -7 1104.41   30.31
  -2   4  -6  297.67    9.71
  -2   4  -5 3156.37   76.61
  -2   4  -4  921.96   26.92
  -2   4  -3  222.57    7.17
  -2   4  -2 2705.81   63.31
  -2   4  -1  262.50    9.66
  -2   4   0 1180.31   34.75
  -2   4   1 1659.72   39.84
  -2   4   2    5.42    0.75
  -2   4   3  983.15   29.32
  -2   4   4   84.53    3.54
  -2   4   5   42.71    2.31
  -2   4   6  200.69    7.21
  -2   4   7   42.48    2.36
  -2   4   8  775.86   21.12
  -2   4   9  294.79    9.62
  -2   4  10   93.49    4.29
  -2   4  11  240.91    9.15
  -2   4  12  374.80   12.78
  -2   4  13   65.34    3.06
  -2   4  14   82.50    3.87
  -2   4  15   15.84    1.65
  -2   4  16   20.27    1.74
  -2   4  17   41.44    2.55
  -2   4  18  112.72    5.23
  -2   4  19   53.23    3.54
  -3   4 -17   85.24    6.46
  -3   4 -16    7.78    1.18
  -3   4 -15    6.13    1.23
  -3   4 -14  136.11    5.28
  -3   4 -13   29.84    2.26
  -3   4 -12   33.14    2.50
  -3   4 -11   37.86    2.50
  -3   4 -10   83.30    4.01
  -3   4  -9  127.38    5.61
  -3   4  -8  368.62   12.82
  -3   4  -7  580.02   16.55
  -3   4  -6  674.40   21.12
  -3   4  -5  988.43   24.89
  -3   4  -4  195.23    6.51
  -3   4  -3 2050.83   55.63
  -3   4  -2  858.45   25.98
  -3   4  -1 3497.79   87.78
  -3   4   0  474.18   16.92
  -3   4   1   99.24    4.86
  -3   4   2  521.46   18.01
  -3   4   3  207.77    7.83
  -3   4   4  691.04   23.86
  -3   4   5  190.46    8.11
  -3   4   6  258.63    9.15
  -3   4   7   35.78    2.50
  -3   4   8   66.80    3.02
  -3   4   9  375.13   11.74
  -3   4  10  851.57   28.48
  -3   4  11   12.30    1.32
  -3   4  12   14.80    1.32
  -3   4  13  153.79    6.08
  -3   4  14   60.30    3.49
  -3   4  15    4.10    1.41
  -3   4  16   16.78    1.70
  -3   4  17   85.52    4.29
  -3   4  18  101.17    5.00
  -3   4  19    3.25    1.70
  -4   4 -15  150.53    5.80
  -4   4 -14    7.07    1.13
  -4   4 -13   19.85    2.12
  -4   4 -12   16.45    1.70
  -4   4 -11  121.59    5.94
  -4   4 -10    8.06    1.23
  -4   4  -9   65.86    2.97
  -4   4  -8   53.32    2.92
  -4   4  -7  158.03    7.12
  -4   4  -6  228.98    8.86
  -4   4  -5   36.58    2.03
  -4   4  -4  416.10   15.09
  -4   4  -3  463.48   14.00
  -4   4  -2  224.08    9.95
  -4   4  -1 2361.56   64.21
  -4   4   0 1593.39   40.92
  -4   4   1 1503.25   33.71
  -4   4   2 1578.21   41.02
  -4   4   3  252.98    9.38
  -4   4   4  693.49   20.65
  -4   4   5  728.57   23.71
  -4   4   6   34.70    2.22
  -4   4   7  235.67    9.00
  -4   4   8 1044.91   27.30
  -4   4   9  177.50    7.68
  -4   4  10  365.13   11.69
  -4   4  11  368.91   14.47
  -4   4  12  196.22    8.06
  -4   4  13  270.99   10.04
  -4   4  14   14.24    1.65
  -4   4  15   50.59    3.06
  -4   4  16  149.73    6.36
  -4   4  17   77.65    4.38
  -4   4  18  134.93    6.60
  -4   4  19   57.80    3.25
  -5   4 -14   55.06    3.82
  -5   4 -13  122.06    5.99
  -5   4 -12   68.69    3.21
  -5   4 -11   13.48    1.37
  -5   4 -10   21.54    1.79
  -5   4  -9    3.82    0.99
  -5   4  -8    7.54    1.08
  -5   4  -7    6.51    1.27
  -5   4  -6   42.85    2.59
  -5   4  -5   33.85    2.03
  -5   4  -4   83.92    3.72
  -5   4  -3    2.73    0.90
  -5   4  -2   94.85    4.48
  -5   4  -1  976.41   28.38
  -5   4   0   37.15    2.31
  -5   4   1 2681.29   67.09
  -5   4   2  778.50   24.99
  -5   4   3  610.99   22.96
  -5   4   4  151.66    6.88
  -5   4   5 1347.53   37.29
  -5   4   6  263.91   11.17
  -5   4   7  139.97    6.98
  -5   4   8  148.32    7.26
  -5   4   9  198.86    8.20
  -5   4  10  276.22   10.98
  -5   4  11  174.58    6.65
  -5   4  12  393.18   14.38
  -5   4  13   14.57    1.56
  -5   4  14    3.02    1.18
  -5   4  15    7.21    1.51
  -5   4  16  276.17   10.18
  -5   4  17   57.66    4.05
  -5   4  18  159.21    8.39
  -5   4  19   29.89    2.50
  -6   4 -13  174.25    7.21
  -6   4 -12  100.75    4.43
  -6   4 -11  102.96    5.61
  -6   4 -10   31.30    2.59
  -6   4  -9   33.90    2.31
  -6   4  -8    6.69    1.04
  -6   4  -7  132.85    5.28
  -6   4  -6  119.04    4.90
  -6   4  -5   52.80    2.69
  -6   4  -4  124.27    5.56
  -6   4  -3   24.99    1.56
  -6   4  -2   47.52    2.69
  -6   4  -1    4.71    0.94
  -6   4   0    3.49    0.99
  -6   4   1    2.88    0.80
  -6   4   2   41.53    2.17
  -6   4   3 1205.11   30.36
  -6   4   4   68.50    3.68
  -6   4   5  281.40   10.18
  -6   4   6  330.44   12.21
  -6   4   7   79.82    4.01
  -6   4   8  269.19    9.48
  -6   4   9   25.65    2.17
  -6   4  10  250.38   10.04
  -6   4  11   87.22    5.42
  -6   4  12   -0.33    0.99
  -6   4  13    4.43    1.18
  -6   4  14   18.72    2.83
  -6   4  15   14.61    1.98
  -6   4  16   59.73    4.86
  -6   4  17   97.92    5.04
  -6   4  18   65.91    3.63
  -7   4 -11    8.58    1.18
  -7   4 -10  116.31    5.14
  -7   4  -9  109.80    4.67
  -7   4  -8    6.69    1.04
  -7   4  -7   51.34    3.44
  -7   4  -6   43.89    2.97
  -7   4  -5   41.86    2.50
  -7   4  -4   34.79    2.36
  -7   4  -3   27.53    2.03
  -7   4  -2   82.69    4.48
  -7   4  -1   68.64    3.72
  -7   4   0   46.96    3.11
  -7   4   1   16.26    1.65
  -7   4   2  138.93    6.41
  -7   4   3   68.60    3.68
  -7   4   4  398.79   14.14
  -7   4   5   63.60    3.77
  -7   4   6  229.83    8.44
  -7   4   7   67.61    4.20
  -7   4   8  229.78    9.66
  -7   4   9   46.77    2.88
  -7   4  10   36.91    2.92
  -7   4  11  263.58   12.26
  -7   4  12  377.91   14.38
  -7   4  13   17.73    2.17
  -7   4  14  124.65    6.74
  -7   4  15    2.40    1.27
  -7   4  16    9.81    1.79
  -7   4  17    7.02    1.89
  -7   4  18   55.11    4.43
  -8   4  -9   12.78    2.07
  -8   4  -8  131.96    6.22
  -8   4  -7  254.67    9.52
  -8   4  -6   82.17    3.72
  -8   4  -5  105.23    5.14
  -8   4  -4  144.36    6.93
  -8   4  -3  131.06    5.94
  -8   4  -2   68.12    4.01
  -8   4  -1   27.01    2.03
  -8   4   0    6.03    1.37
  -8   4   1   10.98    1.32
  -8   4   2   16.64    1.60
  -8   4   3  146.67    7.17
  -8   4   4   57.28    5.28
  -8   4   5   26.92    2.31
  -8   4   6   45.78    2.97
  -8   4   7   75.71    4.01
  -8   4   8    9.62    1.60
  -8   4   9   49.22    3.68
  -8   4  10   31.68    2.73
  -8   4  11   25.22    2.12
  -8   4  12    7.92    1.56
  -8   4  13   79.82    4.43
  -8   4  14   22.44    2.45
  -8   4  15    7.97    2.64
  -8   4  16   42.71    3.82
  -9   4  -6   76.99    4.01
  -9   4  -5  201.31    8.01
  -9   4  -4   21.78    2.12
  -9   4  -3  135.73    6.65
  -9   4  -2   68.12    3.44
  -9   4  -1   68.12    4.71
  -9   4   0   82.08    4.57
  -9   4   1   65.30    3.68
  -9   4   2   59.26    3.82
  -9   4   3   22.16    2.03
  -9   4   4   69.87    3.91
  -9   4   5  176.84    8.20
  -9   4   6   36.21    2.73
  -9   4   7    2.17    1.04
  -9   4   8    8.77    1.56
  -9   4   9    1.98    1.46
  -9   4  10  155.11    6.98
  -9   4  11  140.49    7.59
  -9   4  12   10.37    1.70
  -9   4  13  321.29   13.39
  -9   4  14   22.68    4.29
 -10   4  -2   46.25    3.16
 -10   4  -1  312.94   11.17
 -10   4   0   60.39    3.68
 -10   4   1  140.35    7.64
 -10   4   2   40.50    2.64
 -10   4   3   24.14    3.82
 -10   4   4   94.38    8.77
 -10   4   5    0.38    1.46
 -10   4   6   38.94    3.16
 -10   4   7  110.98    5.47
 -10   4   8    7.64    1.65
 -10   4   9  148.83    7.97
 -10   4  10  164.72    8.11
 -10   4  11   19.99    2.73
 -10   4  12  156.14   11.13
   9   5 -11   19.99    2.22
   9   5 -10   15.70    1.46
   9   5  -9   25.03    1.56
   9   5  -8   32.95    2.12
   9   5  -7   23.95    2.36
   9   5  -2  132.76    4.05
   9   5   0   85.00    5.23
   9   5   2   53.89    3.39
   8   5 -14    6.65    3.06
   8   5 -13   16.41    2.73
   8   5 -12   52.19    3.02
   8   5 -10   12.92    1.70
   8   5  -9   73.64    3.68
   8   5  -8   29.18    2.07
   8   5  -7   81.70    3.16
   8   5  -6   57.99    1.79
   8   5  -5    7.78    1.56
   8   5  -3   10.89    1.23
   8   5   4   15.56    3.54
   7   5 -16   49.74    3.25
   7   5 -15   13.01    1.89
   7   5 -14   18.76    1.51
   7   5 -13   20.32    1.70
   7   5 -12    9.57    1.18
   7   5 -11   16.36    1.41
   7   5 -10    2.78    0.57
   7   5  -9   35.45    1.98
   7   5  -8  108.34    5.09
   7   5  -7   17.82    1.08
   7   5  -6   36.63    2.50
   7   5   0   25.69    0.80
   7   5   1   15.51    1.46
   7   5   2   65.67    3.44
   7   5   3   17.63    1.84
   7   5   4   14.99    1.23
   7   5   5   -0.38    1.04
   7   5   6    2.31    0.99
   7   5   7   20.93    2.31
   7   5   8   87.22    3.87
   7   5   9   69.54    4.67
   6   5 -17   21.88    3.96
   6   5 -16    4.62    1.65
   6   5 -15   22.06    1.98
   6   5 -14   22.54    2.36
   6   5 -13   86.42    3.91
   6   5 -12   34.37    1.98
   6   5 -11   60.39    3.25
   6   5 -10   31.30    1.60
   6   5  -9   46.86    2.78
   6   5  -8   22.06    1.27
   6   5  -7  165.01    4.05
   6   5  -6   65.81    2.69
   6   5   3   98.77    6.08
   6   5   4    0.57    0.80
   6   5   5   26.83    1.84
   6   5   6    1.84    0.57
   6   5   7   23.95    1.84
   6   5   8   59.73    3.30
   6   5   9   58.51    3.96
   6   5  10   55.16    2.92
   6   5  11  123.28    5.14
   5   5 -17   70.34    5.00
   5   5 -16   21.21    2.07
   5   5 -15   15.42    1.41
   5   5 -14  111.40    4.62
   5   5 -13   13.67    1.56
   5   5 -12   22.54    1.60
   5   5 -11  137.33    5.42
   5   5 -10   94.19    4.34
   5   5  -9   95.42    4.48
   5   5  -8   18.72    1.37
   5   5  -7   84.62    2.50
   5   5  -6   61.90    2.03
   5   5   3    0.90    0.24
   5   5   4  263.73    7.21
   5   5   5   53.27    4.15
   5   5   6   81.23    4.62
   5   5   7    3.77    0.80
   5   5   8   51.95    3.63
   5   5   9   19.85    1.46
   5   5  10   30.83    2.03
   5   5  11  106.83    4.62
   5   5  12   49.64    2.92
   5   5  13   29.56    2.92
   4   5 -18   13.25    2.03
   4   5 -17   20.79    1.65
   4   5 -16   91.79    4.71
   4   5 -15  124.46    5.04
   4   5 -14   46.06    2.45
   4   5 -13   37.76    2.69
   4   5 -12  138.27    7.35
   4   5 -11   26.54    1.56
   4   5 -10   39.60    2.31
   4   5  -9  555.79   16.31
   4   5  -8  110.60    5.52
   4   5  -7  112.02    3.82
   4   5  -6   24.09    1.23
   4   5   4  689.25   13.58
   4   5   5   53.27    2.07
   4   5   6   17.25    1.23
   4   5   7    6.65    0.80
   4   5   8    9.29    0.85
   4   5   9    0.71    0.52
   4   5  10   79.53    3.87
   4   5  11   32.25    2.03
   4   5  12  102.21    5.28
   4   5  13   61.10    3.06
   4   5  14    8.67    2.83
   3   5 -18   12.26    3.49
   3   5 -17   25.27    1.93
   3   5 -16   32.95    1.84
   3   5 -15    2.78    1.08
   3   5 -14   47.80    3.63
   3   5 -13  119.18    5.75
   3   5 -12  165.48    6.51
   3   5 -11   33.85    1.98
   3   5 -10   78.07    3.25
   3   5  -9   72.51    3.49
   3   5  -8   30.13    1.60
   3   5  -7  242.84    8.20
   3   5  -6   11.50    0.85
   3   5   4  296.63    6.18
   3   5   5  428.12   14.14
   3   5   6   93.53    3.96
   3   5   7   61.71    2.36
   3   5   8   52.19    2.59
   3   5   9   33.24    1.65
   3   5  10   36.35    1.98
   3   5  11   51.01    2.12
   3   5  12   93.06    5.37
   3   5  13   10.14    0.94
   3   5  14   16.78    1.56
   3   5  15   65.72    3.54
   2   5 -18    3.58    2.26
   2   5 -17   15.42    1.41
   2   5 -16   19.52    1.84
   2   5 -15  105.74    6.65
   2   5 -14   60.16    3.82
   2   5 -13   99.76    4.86
   2   5 -12  440.05   10.28
   2   5 -11   21.12    1.41
   2   5 -10   79.34    3.11
   2   5  -9  416.33   13.29
   2   5  -8  108.62    4.34
   2   5  -7   40.92    3.06
   2   5  -6  113.62    4.48
   2   5  -5  245.43    8.30
   2   5  -4  272.73    8.06
   2   5   4  258.49    8.63
   2   5   5  650.88   19.09
   2   5   6  160.90    6.36
   2   5   7  452.07   14.33
   2   5   8    2.50    0.57
   2   5   9  159.91    7.07
   2   5  10  133.51    5.42
   2   5  11   18.29    1.46
   2   5  12  124.04    6.69
   2   5  13   87.22    4.29
   2   5  14  101.50    5.47
   2   5  15   22.44    2.12
   2   5  16    4.67    0.99
   1   5 -18    6.84    1.84
   1   5 -17    9.76    1.27
   1   5 -16   58.69    3.82
   1   5 -15   25.32    1.89
   1   5 -14   43.37    2.36
   1   5 -13   45.78    2.31
   1   5 -12    4.20    0.66
   1   5 -11    3.21    0.71
   1   5 -10  191.45    7.17
   1   5  -9   15.60    1.08
   1   5  -8  252.32    7.78
   1   5  -7  187.40    7.17
   1   5  -6  328.50    8.77
   1   5  -5  579.22   18.39
   1   5  -4  363.15    9.57
   1   5  -3  217.52    8.44
   1   5  -2  520.24   16.17
   1   5  -1  242.42    5.56
   1   5   2  361.22    9.81
   1   5   3 1073.05   26.12
   1   5   4  987.30   28.05
   1   5   5   84.48    3.87
   1   5   6  325.11   13.01
   1   5   7   12.73    0.99
   1   5   8   89.43    4.01
   1   5   9  157.42    5.56
   1   5  10   35.64    2.22
   1   5  11   20.65    1.60
   1   5  12    7.59    0.94
   1   5  13   72.89    3.35
   1   5  14   45.59    2.64
   1   5  15   31.26    2.69
   1   5  16    3.82    1.46
   1   5  17    4.05    1.04
   0   5 -17    0.90    1.41
   0   5 -16  175.80    7.12
   0   5 -15   29.32    1.98
   0   5 -14  176.23    6.60
   0   5 -13    7.45    0.99
   0   5 -12   52.24    2.73
   0   5 -11  168.40    6.41
   0   5 -10   20.88    1.27
   0   5  -9  326.19   12.54
   0   5  -8   22.96    1.46
   0   5  -7    2.12    0.47
   0   5  -6  544.09   16.31
   0   5  -5  747.85   24.23
   0   5  -4  547.35   16.41
   0   5  -3  403.41   15.13
   0   5  -2  214.93    7.45
   0   5  -1   36.49    1.74
   0   5   0   -0.09    0.24
   0   5   1   34.84    1.46
   0   5   2  214.65    7.87
   0   5   3  392.05   13.25
   0   5   4  538.20   17.30
   0   5   5  761.81   25.22
   0   5   6  550.22   17.58
   0   5   7    2.03    0.57
   0   5   8   24.94    1.60
   0   5   9  345.52   10.84
   0   5  10   20.79    1.65
   0   5  11  156.57    6.46
   0   5  12   50.73    2.26
   0   5  13    9.76    1.23
   0   5  14  157.60    7.17
   0   5  15   27.20    1.84
   0   5  16  156.47    7.35
   0   5  17    1.04    1.27
  -1   5 -17    8.01    2.97
  -1   5 -16    3.25    0.99
  -1   5 -15   33.19    2.26
  -1   5 -14   57.47    2.97
  -1   5 -13   87.64    3.54
  -1   5 -12   11.60    0.94
  -1   5 -11   25.08    1.84
  -1   5 -10   41.68    2.07
  -1   5  -9  173.21    6.65
  -1   5  -8   88.16    3.87
  -1   5  -7   13.53    1.13
  -1   5  -6  325.01   10.37
  -1   5  -5   80.76    3.06
  -1   5  -4 1061.60   26.02
  -1   5  -3 1163.01   32.44
  -1   5  -2  366.55   12.16
  -1   5  -1  155.39    6.46
  -1   5   0  226.95    8.63
  -1   5   1  282.63   10.47
  -1   5   2  605.57   16.31
  -1   5   3  228.46    7.26
  -1   5   4  380.13   12.59
  -1   5   5  612.50   18.62
  -1   5   6  326.19   10.51
  -1   5   7  184.33    6.18
  -1   5   8  255.85   10.23
  -1   5   9   16.31    1.27
  -1   5  10  192.91    7.12
  -1   5  11    4.10    0.90
  -1   5  12    4.29    0.90
  -1   5  13   48.79    2.36
  -1   5  14   43.61    3.30
  -1   5  15   27.58    1.98
  -1   5  16   56.90    3.49
  -1   5  17    9.85    1.37
  -1   5  18    8.44    2.03
  -2   5 -16    5.89    1.41
  -2   5 -15   28.76    2.07
  -2   5 -14  120.74    9.00
  -2   5 -13  112.68    4.86
  -2   5 -12  166.75    7.21
  -2   5 -11   24.28    1.89
  -2   5 -10  164.63    6.13
  -2   5  -9  199.94    6.65
  -2   5  -8    2.31    0.66
  -2   5  -7  500.96   14.71
  -2   5  -6  174.48    6.79
  -2   5  -5  596.00   15.56
  -2   5  -4  271.03    9.38
  -2   5  -3 1292.70   33.52
  -2   5  -2  117.39    4.38
  -2   5  -1 1391.28   33.24
  -2   5   0  288.95    8.34
  -2   5   1  446.55   13.81
  -2   5   2   29.28    1.65
  -2   5   3   81.28    3.44
  -2   5   4  289.99   11.79
  -2   5   5  239.78    9.43
  -2   5   6  120.41    8.25
  -2   5   7   42.52    2.17
  -2   5   8   92.31    4.01
  -2   5   9  418.69   14.00
  -2   5  10   85.28    3.68
  -2   5  11   22.39    1.79
  -2   5  12  472.10   12.45
  -2   5  13  108.34    5.00
  -2   5  14   65.63    4.01
  -2   5  15  117.06    5.09
  -2   5  16   22.25    4.05
  -2   5  17   15.93    2.26
  -2   5  18    4.38    2.69
  -3   5 -15   90.09    4.34
  -3   5 -14   23.90    1.98
  -3   5 -13   13.91    1.37
  -3   5 -12  138.98    6.69
  -3   5 -11   78.40    3.87
  -3   5 -10   55.44    3.35
  -3   5  -9   46.72    3.21
  -3   5  -8   71.94    3.72
  -3   5  -7   80.24    4.10
  -3   5  -6  114.23    4.38
  -3   5  -5  523.63   17.07
  -3   5  -4  341.89   10.75
  -3   5  -3  582.75   19.09
  -3   5  -2   13.15    1.18
  -3   5  -1  665.11   18.81
  -3   5   0 1604.42   39.46
  -3   5   1   48.70    2.64
  -3   5   2  517.46   16.69
  -3   5   3  560.22   16.64
  -3   5   4   24.61    1.51
  -3   5   5  251.37    8.39
  -3   5   6   12.73    1.18
  -3   5   7  257.36    9.33
  -3   5   8   31.26    1.98
  -3   5   9   76.56    3.91
  -3   5  10   94.52    4.24
  -3   5  11   37.10    2.07
  -3   5  12  205.27    8.34
  -3   5  13  141.57    6.08
  -3   5  14   56.38    3.21
  -3   5  15    4.34    1.13
  -3   5  16   39.27    2.64
  -3   5  17   29.04    1.98
  -3   5  18   13.81    2.03
  -4   5 -14   13.86    1.51
  -4   5 -13   85.61    4.05
  -4   5 -12  161.33    6.36
  -4   5 -11   53.70    3.02
  -4   5 -10  123.85    5.70
  -4   5  -9    1.23    0.85
  -4   5  -8   15.13    1.32
  -4   5  -7    8.77    1.08
  -4   5  -6   29.80    1.65
  -4   5  -5   75.81    3.44
  -4   5  -4  997.10   32.25
  -4   5  -3  692.32   22.54
  -4   5  -2  600.57   17.96
  -4   5  -1    0.94    0.90
  -4   5   0   47.71    2.45
  -4   5   1   91.04    4.53
  -4   5   2  538.44   16.92
  -4   5   3  315.35   11.83
  -4   5   4  218.56    8.82
  -4   5   5   15.65    1.46
  -4   5   6   32.25    2.07
  -4   5   7  143.46    6.08
  -4   5   8  133.28    6.03
  -4   5   9  707.92   22.91
  -4   5  10   53.93    3.25
  -4   5  11   36.68    2.73
  -4   5  12  187.59    7.68
  -4   5  13   50.26    3.30
  -4   5  14   57.99    3.49
  -4   5  15  157.04    7.02
  -4   5  16  123.80    5.42
  -4   5  17   27.39    2.40
  -4   5  18   13.77    2.07
  -5   5 -13   16.69    1.93
  -5   5 -12   82.60    5.33
  -5   5 -11  174.72    6.98
  -5   5 -10   51.39    3.25
  -5   5  -9   35.26    2.31
  -5   5  -8   87.17    4.53
  -5   5  -7    7.73    0.99
  -5   5  -6  134.36    6.08
  -5   5  -5   89.10    4.76
  -5   5  -4  447.07   17.02
  -5   5  -3    1.51    0.75
  -5   5  -2 1768.91   50.16
  -5   5  -1  561.21   20.04
  -5   5   0  144.03    6.55
  -5   5   1  305.26   10.28
  -5   5   2   61.33    3.21
  -5   5   3    0.33    0.90
  -5   5   4  370.89   12.45
  -5   5   5  179.38    7.02
  -5   5   6   96.88    4.57
  -5   5   7  129.27    5.89
  -5   5   8   25.65    1.93
  -5   5   9  146.10    6.74
  -5   5  10  132.62    5.61
  -5   5  11  213.52    9.81
  -5   5  12   35.12    2.55
  -5   5  13   18.10    1.70
  -5   5  14  168.12    6.84
  -5   5  15   21.40    2.12
  -5   5  16   32.44    2.92
  -5   5  17   89.39    4.86
  -6   5 -11   65.30    4.76
  -6   5 -10  105.41    5.00
  -6   5  -9  118.99    4.81
  -6   5  -8  124.37    4.71
  -6   5  -7   49.22    3.11
  -6   5  -6    2.55    1.08
  -6   5  -5   48.75    3.02
  -6   5  -4    2.50    1.04
  -6   5  -3  208.14    7.97
  -6   5  -2  185.56    7.45
  -6   5  -1  432.36   15.09
  -6   5   0  132.24    5.52
  -6   5   1  378.00   13.15
  -6   5   2   46.30    2.88
  -6   5   3   52.09    2.97
  -6   5   4  130.64    5.80
  -6   5   5   51.58    3.39
  -6   5   6  120.74    5.56
  -6   5   7  282.25   10.47
  -6   5   8   35.50    3.11
  -6   5   9   74.30    3.91
  -6   5  10   50.68    3.21
  -6   5  11   96.93    4.90
  -6   5  12   62.75    4.15
  -6   5  13  136.29    6.74
  -6   5  14   42.81    3.54
  -6   5  15   31.78    2.92
  -6   5  16    8.20    1.98
  -6   5  17   37.20    3.58
  -7   5  -9  154.21    7.40
  -7   5  -8   10.32    1.56
  -7   5  -7    6.98    1.18
  -7   5  -6    1.84    1.13
  -7   5  -5    4.53    1.41
  -7   5  -4   33.05    1.98
  -7   5  -3   44.17    3.02
  -7   5  -2  137.61    6.74
  -7   5  -1   38.00    2.64
  -7   5   0   71.52    4.20
  -7   5   1  259.39    9.52
  -7   5   2   58.13    3.63
  -7   5   3   16.45    1.79
  -7   5   4   25.84    1.98
  -7   5   5   89.76    4.76
  -7   5   6   76.28    4.34
  -7   5   7   35.17    2.17
  -7   5   8  209.93    8.72
  -7   5   9   78.68    4.76
  -7   5  10    8.63    1.51
  -7   5  11   28.85    2.31
  -7   5  12   20.55    2.03
  -7   5  13   43.47    3.30
  -7   5  14   33.47    2.78
  -7   5  15   19.61    2.40
  -7   5  16   26.97    2.36
  -8   5  -6   66.24    4.10
  -8   5  -5   40.17    3.21
  -8   5  -4   54.50    4.15
  -8   5  -3   16.59    1.93
  -8   5  -2   20.08    1.93
  -8   5  -1   72.79    4.05
  -8   5   0    3.72    1.27
  -8   5   1   12.16    1.74
  -8   5   2    7.26    1.23
  -8   5   3    7.21    1.32
  -8   5   4    4.62    1.32
  -8   5   5   20.88    3.49
  -8   5   6   10.04    2.12
  -8   5   7  174.39    8.11
  -8   5   8    3.11    1.32
  -8   5   9  177.73   12.40
  -8   5  10    6.88    1.32
  -8   5  11  125.31   13.53
  -8   5  12  125.45    6.93
  -8   5  13   14.61    1.93
  -8   5  14    6.41    2.07
  -9   5  -3   40.69    3.35
  -9   5  -2  155.48    7.21
  -9   5  -1   41.44    2.92
  -9   5   0  252.32    9.81
  -9   5   1   27.67    3.77
  -9   5   2  386.30   13.48
  -9   5   3   95.18    9.19
  -9   5   4   63.22    5.61
  -9   5   5   38.71    3.06
  -9   5   6   23.05    2.50
  -9   5   7   80.76    5.75
  -9   5   8   86.65    5.99
  -9   5   9   66.19    4.86
  -9   5  10   40.50    2.97
  -9   5  11   57.23    5.47
  -9   5  12    6.41    2.88
   7   6 -12   11.93    1.04
   6   6 -14    3.35    0.94
   6   6 -13   11.13    1.18
   6   6 -12    3.35    0.71
   6   6 -11   56.95    2.22
   6   6 -10   44.98    1.84
   5   6 -14    5.70    1.08
   5   6 -13   18.39    1.60
   5   6 -12   65.06    2.55
   5   6 -11   39.60    2.22
   5   6 -10   74.96    3.06
   5   6  -9   29.84    2.69
   5   6   7   19.61    1.98
   5   6   8   69.21    8.58
   5   6   9   38.75    2.17
   5   6  10   52.05    2.59
   4   6 -16    2.40    0.80
   4   6 -15   16.92    1.60
   4   6 -14    4.15    1.27
   4   6 -13    4.05    1.23
   4   6 -12    1.56    0.99
   4   6 -11   46.63    2.45
   4   6 -10  124.89    5.04
   4   6  -9   62.47    3.54
   4   6   7    2.40    1.04
   4   6   8    6.84    1.32
   4   6   9   35.74    2.78
   4   6  10    1.46    1.08
   4   6  11   86.79    6.41
   4   6  12   94.19    6.79
   3   6 -16   13.25    2.22
   3   6 -15   72.13    4.15
   3   6 -14   50.44    3.11
   3   6 -13   24.94    1.79
   3   6 -12    7.78    1.27
   3   6 -11   40.03    2.36
   3   6 -10  159.68    7.21
   3   6  -9  137.90    5.00
   3   6  -8  142.09    5.70
   3   6  -7    5.42    0.75
   3   6   7   19.85    1.13
   3   6   8   36.07    2.64
   3   6  10   47.71    3.87
   3   6  11   75.43    3.30
   3   6  12   49.50    2.92
   3   6  13    6.32    1.37
   2   6 -16   23.95    2.45
   2   6 -15   20.22    2.17
   2   6 -14   23.15    2.31
   2   6 -13  132.52    5.66
   2   6 -12   51.76    2.55
   2   6 -11   85.57    3.96
   2   6 -10  101.36    4.24
   2   6  -9  205.50    7.40
   2   6  -8  383.57    9.38
   2   6  -7  432.69   12.78
   2   6  -6  608.96   12.92
   2   6   5   54.73    3.25
   2   6   6    0.90    0.28
   2   6   7   64.45    2.88
   2   6   8    7.97    0.66
   2   6   9   18.76    1.23
   2   6  10    5.00    1.32
   2   6  11   34.51    2.55
   2   6  12   34.42    3.68
   2   6  13   30.50    2.22
   2   6  14   67.09    3.25
   1   6 -16   34.70    3.58
   1   6 -15   25.88    2.26
   1   6 -14   23.53    2.12
   1   6 -13   75.81    3.63
   1   6 -12   77.93    3.39
   1   6 -11   72.70    3.44
   1   6 -10  218.42    9.33
   1   6  -9   63.50    3.87
   1   6  -8   29.37    1.70
   1   6  -7  982.87   28.24
   1   6  -6    3.39    0.52
   1   6  -5  148.13    5.70
   1   6  -4   21.45    1.08
   1   6  -3  475.59   11.74
   1   6   3   45.07    1.70
   1   6   4   57.89    2.50
   1   6   5   94.19    3.25
   1   6   6   29.37    1.51
   1   6   7   38.99    1.70
   1   6   8  164.77    8.30
   1   6   9   89.15    3.77
   1   6  10    9.43    1.13
   1   6  11   20.70    1.37
   1   6  12   10.89    1.08
   1   6  13    4.05    1.08
   1   6  14   18.20    1.65
   1   6  15   15.75    1.46
   0   6 -15   41.30    2.12
   0   6 -14    6.22    1.32
   0   6 -13   57.75    2.69
   0   6 -12   -0.66    0.71
   0   6 -11   36.49    2.36
   0   6 -10  138.75    5.04
   0   6  -9  123.24    4.29
   0   6  -8   94.62    3.91
   0   6  -7   21.26    1.74
   0   6  -6  134.08    7.78
   0   6  -5  613.58   19.99
   0   6  -4  260.33    6.36
   0   6  -3  498.03   14.19
   0   6  -2  349.29   13.20
   0   6  -1   24.09    1.13
   0   6   0   13.67    0.94
   0   6   1   24.19    1.37
   0   6   2  356.22   12.26
   0   6   3  488.98   17.21
   0   6   4  251.42    8.77
   0   6   5  584.02   13.44
   0   6   6  137.66    8.16
   0   6   8   93.91    4.95
   0   6   9  111.83    4.86
   0   6  10  122.43    4.43
   0   6  11   33.47    2.50
   0   6  12   -0.42    1.18
   0   6  13   55.96    3.87
   0   6  14    6.84    1.37
   0   6  15   37.72    2.36
  -1   6 -14   23.01    2.07
  -1   6 -13    5.33    1.37
  -1   6 -12   14.71    1.37
  -1   6 -11   26.02    1.79
  -1   6 -10   11.31    1.37
  -1   6  -9  111.97    4.05
  -1   6  -8  191.45    6.98
  -1   6  -7   41.49    1.84
  -1   6  -6   33.85    1.74
  -1   6  -5  110.32    4.43
  -1   6  -4   71.66    3.25
  -1   6  -3   58.41    2.50
  -1   6  -2  204.09    7.31
  -1   6  -1  144.64    6.27
  -1   6   0  124.23    5.19
  -1   6   1   65.67    3.35
  -1   6   2   86.32    2.88
  -1   6   3  555.55   18.86
  -1   6   4   22.87    1.32
  -1   6   5  158.36    7.64
  -1   6   6    4.20    1.04
  -1   6   7 1047.60   32.72
  -1   6   8   33.10    2.17
  -1   6   9   67.37    3.30
  -1   6  10  227.14    9.71
  -1   6  11   76.09    3.44
  -1   6  12   79.72    3.30
  -1   6  13   79.11    4.43
  -1   6  14   22.68    2.22
  -1   6  15   24.80    4.01
  -1   6  16   28.15    2.26
  -2   6 -14  109.94    4.76
  -2   6 -13   43.09    3.25
  -2   6 -12   52.33    3.16
  -2   6 -11   52.19    3.49
  -2   6 -10    6.79    0.99
  -2   6  -9   24.80    1.46
  -2   6  -8   11.36    1.08
  -2   6  -7   89.67    4.48
  -2   6  -6    1.13    0.61
  -2   6  -5   80.66    3.96
  -2   6  -4   17.25    1.46
  -2   6  -3  100.23    4.53
  -2   6  -2   13.81    1.13
  -2   6  -1   60.72    2.92
  -2   6   0  244.54    9.19
  -2   6   1  339.35   11.55
  -2   6   2  114.89    4.38
  -2   6   3  245.48    9.29
  -2   6   4  517.55   15.98
  -2   6   5  112.25    4.76
  -2   6   6  744.32   16.22
  -2   6   7  577.94   19.56
  -2   6   8  430.19   14.00
  -2   6   9  242.98   10.09
  -2   6  10  126.82    4.81
  -2   6  11  113.48    4.67
  -2   6  12   59.87    3.72
  -2   6  13  154.12    5.94
  -2   6  14   29.42    2.07
  -2   6  15   24.00    4.05
  -2   6  16   23.57    2.55
  -3   6 -13   13.48    2.45
  -3   6 -12   89.43    4.86
  -3   6 -11  124.60    5.85
  -3   6 -10   78.17    3.58
  -3   6  -9   22.35    2.03
  -3   6  -8   58.84    3.39
  -3   6  -7   29.89    1.98
  -3   6  -6   22.16    1.98
  -3   6  -5   10.84    1.46
  -3   6  -4   30.27    1.74
  -3   6  -3   18.15    1.32
  -3   6  -2   16.64    1.41
  -3   6  -1   51.06    2.73
  -3   6   0   15.04    1.41
  -3   6   1   77.03    3.87
  -3   6   2   38.19    2.40
  -3   6   3   29.70    1.93
  -3   6   4   34.27    2.03
  -3   6   5    7.26    0.94
  -3   6   6   66.90    3.21
  -3   6   7    8.39    1.13
  -3   6   8  190.46    7.50
  -3   6   9  199.09    8.01
  -3   6  10  207.25    8.01
  -3   6  11   53.70    4.20
  -3   6  12    8.72    1.74
  -3   6  13   33.71    2.03
  -3   6  14   66.71    3.68
  -3   6  15   90.66    4.38
  -3   6  16   21.64    2.55
  -4   6 -12  184.66    7.87
  -4   6 -11  166.04    7.50
  -4   6 -10    5.61    1.32
  -4   6  -9   69.92    4.10
  -4   6  -8   12.63    1.46
  -4   6  -7    3.11    0.99
  -4   6  -6   62.80    3.06
  -4   6  -5  154.68    5.85
  -4   6  -4  197.63    7.54
  -4   6  -3   24.28    1.65
  -4   6  -2   44.50    2.55
  -4   6  -1   50.63    2.50
  -4   6   0   10.56    1.41
  -4   6   1  255.15    8.91
  -4   6   2   40.40    2.12
  -4   6   3  104.71    5.28
  -4   6   4   46.72    2.78
  -4   6   5   22.06    1.70
  -4   6   6   10.98    1.51
  -4   6   7   48.28    3.02
  -4   6   8   13.62    1.56
  -4   6   9   99.33    3.96
  -4   6  10  206.87   13.58
  -4   6  11   79.67    3.96
  -4   6  12    2.26    1.23
  -4   6  13    7.73    1.27
  -4   6  14    9.38    1.56
  -4   6  15   32.72    2.69
  -4   6  16    2.92    1.65
  -5   6 -10  140.44    6.46
  -5   6  -9  102.92    6.36
  -5   6  -8  195.08    8.25
  -5   6  -7   60.82    3.35
  -5   6  -6    0.19    0.75
  -5   6  -5   14.61    1.65
  -5   6  -4  107.02    5.04
  -5   6  -3  397.05   13.67
  -5   6  -2  220.02    8.58
  -5   6  -1   37.29    3.44
  -5   6   0  124.27    5.70
  -5   6   1    1.93    1.32
  -5   6   2  134.08    6.22
  -5   6   3  219.93    8.20
  -5   6   4   60.58    3.21
  -5   6   5   41.30    2.73
  -5   6   6   25.79    1.84
  -5   6   7   64.21    4.29
  -5   6   8  108.39    6.74
  -5   6   9   74.91    3.72
  -5   6  10  145.72    6.08
  -5   6  11   76.09    4.15
  -5   6  12  116.31    5.70
  -5   6  13   36.91    2.97
  -5   6  14   10.61    2.12
  -5   6  15   14.76    2.59
  -6   6  -8   81.51    4.81
  -6   6  -7    8.20    2.31
  -6   6  -6  152.32    7.21
  -6   6  -5   51.29    2.64
  -6   6  -4   30.13    2.40
  -6   6  -3  239.16    9.62
  -6   6  -2  431.98   13.77
  -6   6  -1  246.09    9.62
  -6   6   0  320.25   12.59
  -6   6   1   84.48    4.05
  -6   6   2   15.65    1.70
  -6   6   3   80.33    3.77
  -6   6   4   40.07    3.06
  -6   6   5  116.92    6.36
  -6   6   6   56.86    2.83
  -6   6   7   36.30    2.55
  -6   6   8    9.81    1.37
  -6   6   9   75.62    3.96
  -6   6  10  150.15    6.69
  -6   6  11  130.02    5.61
  -6   6  12   10.65    1.84
  -6   6  13   31.16    4.86
  -6   6  14    7.87    1.51
  -7   6  -6   15.93    1.74
  -7   6  -5   19.85    1.74
  -7   6  -4   20.22    3.02
  -7   6  -3   17.02    1.60
  -7   6  -2   39.41    2.88
  -7   6  -1   64.35    3.72
  -7   6   0  366.41   14.61
  -7   6   1  282.07   11.79
  -7   6   2  114.37    5.85
  -7   6   3   38.23    2.97
  -7   6   4   49.83    3.25
  -7   6   5   94.34    4.71
  -7   6   6   63.79    4.43
  -7   6   7  156.33    7.87
  -7   6   8    8.67    1.27
  -7   6   9   -0.57    1.79
  -7   6  10   41.58    4.24
  -7   6  11  143.70    8.01
  -7   6  12   59.31    4.01
  -7   6  13  105.60    8.25
  -8   6  -3    9.05    3.87
  -8   6  -2    5.14    1.18
  -8   6  -1   16.08    2.03
  -8   6   0  200.36    9.10
  -8   6   1  280.70   10.98
  -8   6   2  156.14    7.02
  -8   6   3  120.97    5.80
  -8   6   4  173.96    8.20
  -8   6   5   35.22    3.77
  -8   6   6   50.54    3.02
  -8   6   7   41.63    2.88
  -8   6   8   13.34    1.74
  -8   6   9   54.69    3.44
  -8   6  10   52.80    6.88
   4   7 -13    3.11    1.41
   4   7 -12   11.17    2.50
   3   7 -13    5.00    2.69
   3   7 -12    1.84    0.99
   3   7 -11   17.96    3.06
   2   7 -12   16.36    1.70
   2   7 -11   17.82    2.36
   2   7 -10    7.54    1.18
   2   7  -8    9.19    1.37
   2   7  -7   79.39    3.49
   2   7   8   31.96    1.56
   2   7   9   80.85    3.58
   2   7  11   25.93    2.03
   1   7 -11  160.24    5.75
   1   7 -10   10.32    0.94
   1   7  -9    5.89    0.90
   1   7  -8   23.05    1.56
   1   7  -7  122.48    6.13
   1   7  -5   27.25    2.22
   1   7   6   55.06    2.03
   1   7   7    4.05    1.32
   1   7   8   29.04    3.30
   1   7   9   20.37    1.60
   1   7  10   16.55    1.93
   1   7  11   12.59    1.93
   1   7  12    9.57    1.65
   0   7 -13   46.53    2.97
   0   7 -12   26.12    2.40
   0   7 -11  120.45    8.63
   0   7 -10   14.52    2.83
   0   7  -9   95.47    4.15
   0   7  -8   33.57    2.50
   0   7  -6   16.41    1.37
   0   7  -5   18.67    1.27
   0   7  -3  155.11    8.96
   0   7  -2   30.41    2.12
   0   7   0    0.28    0.24
   0   7   1    7.12    0.90
   0   7   2   26.02    1.46
   0   7   3  143.08    3.54
   0   7   4   21.54    1.65
   0   7   5   17.77    1.74
   0   7   6   15.84    2.40
   0   7   7    1.51    0.66
   0   7   8   31.87    1.65
   0   7   9   94.10    4.76
   0   7  10   13.95    2.07
   0   7  11   92.69    4.24
   0   7  12   23.05    2.22
  -1   7 -12   13.06    1.41
  -1   7 -11   23.76    2.26
  -1   7 -10   24.37    2.07
  -1   7  -9   34.65    2.50
  -1   7  -8   39.18    3.11
  -1   7  -7    4.62    0.90
  -1   7  -6   78.12    3.11
  -1   7  -5   10.04    1.27
  -1   7  -4   18.57    1.37
  -1   7  -3   50.63    2.12
  -1   7  -2   40.83    2.50
  -1   7  -1  116.73    4.38
  -1   7   0   25.41    3.06
  -1   7   1   45.73    2.92
  -1   7   2   10.23    0.99
  -1   7   3   32.11    2.40
  -1   7   4   40.17    2.97
  -1   7   5   32.39    2.17
  -1   7   6   30.74    1.60
  -1   7   7  131.11    4.71
  -1   7   8   23.67    1.65
  -1   7   9    6.65    1.27
  -1   7  10   12.45    1.46
  -1   7  11  166.04    7.92
  -1   7  12   74.77    3.11
  -1   7  13    3.91    1.41
  -2   7 -11   49.41    3.06
  -2   7 -10   16.83    1.79
  -2   7  -9  152.18    6.32
  -2   7  -8   58.32    3.06
  -2   7  -7  154.63    6.18
  -2   7  -6  156.80    7.40
  -2   7  -5    9.29    1.04
  -2   7  -4   51.01    2.36
  -2   7  -3    9.85    1.08
  -2   7  -2   81.23    3.58
  -2   7  -1  294.84    9.57
  -2   7   0  447.73   14.19
  -2   7   1   45.12    3.06
  -2   7   2   17.16    1.74
  -2   7   3   42.10    2.59
  -2   7   4    7.45    0.90
  -2   7   5   12.49    1.70
  -2   7   6  182.87    7.26
  -2   7   7  158.74    6.13
  -2   7   8   13.01    1.23
  -2   7   9   36.82    2.59
  -2   7  10    9.10    1.18
  -2   7  11   25.46    2.12
  -2   7  12   24.09    2.12
  -2   7  13   15.13    2.12
  -3   7 -10    3.11    0.80
  -3   7  -9    6.08    1.70
  -3   7  -8    2.45    1.41
  -3   7  -7   29.14    1.98
  -3   7  -6   13.39    1.27
  -3   7  -5   51.15    2.64
  -3   7  -4  100.51    4.38
  -3   7  -3   29.28    1.98
  -3   7  -2    9.29    0.94
  -3   7  -1   30.97    2.22
  -3   7   0   26.40    1.70
  -3   7   1   13.95    2.17
  -3   7   2   87.17    4.01
  -3   7   3   52.28    3.02
  -3   7   4    7.59    1.79
  -3   7   5   39.08    3.68
  -3   7   6   16.97    1.65
  -3   7   7    8.16    0.99
  -3   7   8   28.99    2.12
  -3   7   9  116.49    7.83
  -3   7  10   63.50    3.35
  -3   7  11   32.20    2.22
  -3   7  12    1.37    1.84
  -3   7  13    9.81    4.34
  -4   7  -9   22.72    3.58
  -4   7  -8    0.05    0.75
  -4   7  -7    1.98    0.66
  -4   7  -6   79.44    4.24
  -4   7  -5  112.44    5.00
  -4   7  -4  118.71    4.29
  -4   7  -3   89.20    4.43
  -4   7  -2    7.73    1.93
  -4   7  -1    4.48    0.99
  -4   7   0   40.07    2.55
  -4   7   1  127.10    7.45
  -4   7   2  169.44    6.51
  -4   7   3  170.38    6.88
  -4   7   4   43.56    2.50
  -4   7   5    5.09    0.94
  -4   7   6    1.70    2.36
  -4   7   7   31.12    2.92
  -4   7   8  221.48    9.62
  -4   7   9  580.02   29.56
  -4   7  10  341.09   10.80
  -4   7  11   81.04    4.57
  -4   7  12   26.50    2.73
  -4   7  13   10.89    1.70
  -5   7  -7    5.37    1.56
  -5   7  -6    1.70    1.74
  -5   7  -5    1.89    1.79
  -5   7  -4    3.25    0.80
  -5   7  -3   31.96    2.17
  -5   7  -2    1.74    0.85
  -5   7  -1   23.76    1.93
  -5   7   0   13.06    1.46
  -5   7   1   74.30    3.87
  -5   7   2   26.50    2.26
  -5   7   3   23.95    2.31
  -5   7   4   88.73    4.20
  -5   7   5   56.71    3.91
  -5   7   6    9.33    2.07
  -5   7   7    1.93    1.27
  -5   7   8   20.18    1.89
  -5   7   9   81.18    4.43
  -5   7  10   22.87    1.98
  -5   7  11  121.40    5.75
  -5   7  12   92.50    6.08
  -6   7  -5    6.08    1.65
  -6   7  -4    5.52    1.84
  -6   7  -3    1.65    1.04
  -6   7  -2   23.53    2.59
  -6   7  -1   76.89    5.70
  -6   7   0   11.22    1.74
  -6   7   1   14.99    1.70
  -6   7   2   30.88    2.12
  -6   7   3   42.38    3.21
  -6   7   4   37.39    5.23
  -6   7   5   44.50    2.78
  -6   7   6    8.77    1.60
  -6   7   7   22.63    2.88
  -6   7   8    6.55    1.70
  -6   7   9    8.39    1.37
  -6   7  10   57.19    8.63
  -7   7  -1   46.06    2.83
  -7   7   0   48.04    2.45
  -7   7   1    1.37    1.37
  -7   7   2   59.12    3.87
  -7   7   3    9.57    1.93
  -7   7   4   30.93    3.30
  -7   7   5    8.53    2.40
  -7   7   6   34.93    3.49
  -7   7   7    7.45    1.74
   0   8  -9    4.20    2.03
   0   8  -8    9.15    1.70
   0   8  -7    2.92    0.99
   0   8  -6    5.61    0.94
   0   8  -5   60.25    3.39
  -1   8  -8   24.85    3.16
  -1   8  -4   15.51    1.51
  -1   8  -3    2.64    1.08
  -1   8  -2   13.06    2.55
  -1   8  -1    4.38    0.71
  -1   8   2   88.40    9.48
  -1   8   3   16.55    1.41
  -1   8   4    8.49    0.80
  -1   8   5    8.91    1.60
  -1   8   6   61.19    4.29
  -1   8   7    1.65    0.75
  -2   8  -7    5.09    1.23
  -2   8  -5    4.95    2.50
  -2   8  -4    6.55    0.85
  -2   8  -3    8.01    0.80
  -2   8  -2   10.47    1.08
  -2   8  -1   24.85    2.45
  -2   8   0    8.63    1.27
  -2   8   1    9.05    0.85
  -2   8   2   18.90    1.70
  -2   8   3   23.76    1.84
  -2   8   4   96.93    3.91
  -2   8   5   53.23    3.02
  -2   8   6  118.71    5.70
  -2   8   7  244.21    8.96
  -2   8   8   34.04    2.78
  -2   8   9    6.93    1.41
  -3   8  -6    6.41    1.08
  -3   8  -5   42.85    3.30
  -3   8  -4   18.95    2.31
  -3   8  -3    4.05    0.99
  -3   8  -2    4.86    1.51
  -3   8  -1   19.09    1.93
  -3   8   0   33.85    2.69
  -3   8   1   15.75    3.68
  -3   8   2   39.51    3.82
  -3   8   4   14.71    3.21
  -3   8   5   24.66    2.26
  -3   8   6   26.17    2.12
  -3   8   7   39.46    2.88
  -3   8   8  112.16    6.84
  -3   8   9   96.36    3.96
  -4   8  -4   41.06    3.16
  -4   8  -3    4.38    2.97
  -4   8   0    1.84    1.27
  -4   8   1   15.56    2.40
  -4   8   2   15.56    2.36
  -4   8   3    2.64    1.51
  -4   8   4   37.95    2.88
  -4   8   5    0.80    1.79
  -4   8   6   16.83    2.50
  -4   8   7   18.53    1.46
  -4   8   8   36.82    2.97
  -5   8  -1   16.03    3.63
  -5   8   2   24.56    4.24
  -5   8   3   49.22    2.78
  -5   8   4    6.88    1.08
  -5   8   5   28.85    3.44
   0   0   0    0.00    0.00

_computing_structure_solution     'SHELXT 2014/5 (Sheldrick, 2014)'
;
_shelx_hkl_checksum              89944
loop_
_space_group_symop_operation_xyz
'x, y, z'
'-x, y+1/2, -z'
loop_
_atom_site_label
_atom_site_type_symbol
_atom_site_fract_x
_atom_site_fract_y
_atom_site_fract_z
_atom_site_U_iso_or_equiv
_atom_site_adp_type
_atom_site_occupancy
_atom_site_site_symmetry_order
_atom_site_calc_flag
_atom_site_refinement_flags_posn
_atom_site_refinement_flags_adp
N1A N 0.4393(2) 0.2514(4) 0.21963(11) 0.0327(4) Uani 1 1 d . .
N2A N 0.5672(3) 0.1282(5) 0.20711(15) 0.0455(5) Uani 1 1 d . .
C11C C 0.6229(2) 0.3381(3) 0.45995(12) 0.0279(4) Uani 1 1 d . .
H11C H 0.5969 0.2004 0.4795 0.033 Uiso 1 1 calc R U
C9C C 0.8404(3) 0.3967(4) 0.60630(12) 0.0343(4) Uani 1 1 d . .
H9C H 0.8173 0.2597 0.6276 0.041 Uiso 1 1 calc R U
C2C C 0.5420(2) 0.4086(3) 0.37425(12) 0.0282(4) Uani 1 1 d . .
C1C C 0.4135(2) 0.2643(4) 0.31138(13) 0.0338(4) Uani 1 1 d . .
H1C1 H 0.4195 0.1172 0.3370 0.041 Uiso 1 1 calc R U
H1C2 H 0.3013 0.3217 0.3074 0.041 Uiso 1 1 calc R U
C5C C 0.7805(2) 0.6838(3) 0.48974(13) 0.0280(4) Uani 1 1 d . .
C10C C 0.7460(2) 0.4711(3) 0.51969(11) 0.0263(4) Uani 1 1 d . .
C3C C 0.5765(3) 0.6225(4) 0.34539(14) 0.0330(4) Uani 1 1 d . .
H3C H 0.5196 0.6721 0.2877 0.040 Uiso 1 1 calc R U
C6C C 0.9070(3) 0.8156(4) 0.54734(15) 0.0346(4) Uani 1 1 d . .
H6C H 0.9274 0.9567 0.5289 0.042 Uiso 1 1 calc R U
C2A C 0.3646(3) 0.3687(4) 0.14330(12) 0.0327(4) Uani 1 1 d . .
C4C C 0.6915(3) 0.7549(4) 0.40131(14) 0.0326(4) Uani 1 1 d . .
H4C H 0.7124 0.8943 0.3813 0.039 Uiso 1 1 calc R U
C6B C 0.0732(3) 0.4564(5) 0.15806(15) 0.0384(5) Uani 1 1 d . .
H6B H 0.0662 0.3180 0.1830 0.046 Uiso 1 1 calc R U
C4B C -0.0538(4) 0.8074(6) 0.10853(18) 0.0509(7) Uani 1 1 d . .
H4B H -0.1442 0.9043 0.1012 0.061 Uiso 1 1 calc R U
C1B C 0.2202(3) 0.5180(4) 0.13341(13) 0.0323(4) Uani 1 1 d . .
C5B C -0.0617(3) 0.6008(6) 0.14539(17) 0.0487(6) Uani 1 1 d . .
H5B H -0.1588 0.5582 0.1619 0.058 Uiso 1 1 calc R U
C1A C 0.4543(3) 0.3066(6) 0.08195(16) 0.0473(6) Uani 1 1 d . .
H1A H 0.4346 0.3571 0.0223 0.057 Uiso 1 1 calc R U
C2B C 0.2262(3) 0.7265(5) 0.09486(16) 0.0445(5) Uani 1 1 d . .
H2B H 0.3221 0.7696 0.0774 0.053 Uiso 1 1 calc R U
C7C C 0.9989(3) 0.7381(5) 0.62925(15) 0.0409(5) Uani 1 1 d . .
H7C H 1.0835 0.8247 0.6656 0.049 Uiso 1 1 calc R U
N3A N 0.5754(3) 0.1604(6) 0.12231(16) 0.0539(6) Uani 1 1 d . .
C8C C 0.9660(3) 0.5262(5) 0.65909(13) 0.0405(5) Uani 1 1 d . .
H8C H 1.0298 0.4737 0.7149 0.049 Uiso 1 1 calc R U
C3B C 0.0898(4) 0.8690(5) 0.08262(17) 0.0512(7) Uani 1 1 d . .
H3B H 0.0949 1.0069 0.0568 0.061 Uiso 1 1 calc R U
loop_
_atom_site_aniso_label
_atom_site_aniso_U_11
_atom_site_aniso_U_22
_atom_site_aniso_U_33
_atom_site_aniso_U_23
_atom_site_aniso_U_13
_atom_site_aniso_U_12
N1A 0.0293(7) 0.0411(9) 0.0284(7) -0.0001(7) 0.0087(5) -0.0008(8)
N2A 0.0376(8) 0.0543(12) 0.0447(10) -0.0006(10) 0.0108(7) 0.0103(10)
C11C 0.0295(8) 0.0300(8) 0.0265(7) 0.0042(6) 0.0112(6) 0.0020(7)
C9C 0.0376(9) 0.0432(10) 0.0233(7) 0.0034(8) 0.0103(6) 0.0087(9)
C2C 0.0237(7) 0.0359(8) 0.0253(7) 0.0038(7) 0.0072(6) 0.0007(7)
C1C 0.0288(8) 0.0443(10) 0.0280(7) 0.0034(8) 0.0070(6) -0.0072(9)
C5C 0.0253(7) 0.0325(8) 0.0295(7) -0.0004(6) 0.0131(6) 0.0014(7)
C10C 0.0248(7) 0.0322(8) 0.0244(6) 0.0021(6) 0.0105(5) 0.0048(7)
C3C 0.0322(9) 0.0356(9) 0.0303(8) 0.0084(7) 0.0063(6) 0.0011(8)
C6C 0.0284(8) 0.0410(10) 0.0373(9) -0.0076(8) 0.0138(7) -0.0047(8)
C2A 0.0305(8) 0.0415(9) 0.0271(7) 0.0006(7) 0.0094(6) -0.0009(9)
C4C 0.0317(8) 0.0330(8) 0.0333(8) 0.0066(7) 0.0087(6) -0.0002(8)
C6B 0.0320(9) 0.0485(11) 0.0345(8) 0.0015(8) 0.0081(7) 0.0000(9)
C4B 0.0512(13) 0.0601(16) 0.0354(10) -0.0044(10) 0.0005(9) 0.0230(14)
C1B 0.0329(8) 0.0388(9) 0.0246(7) 0.0006(7) 0.0061(6) 0.0000(8)
C5B 0.0359(10) 0.0674(17) 0.0406(11) -0.0023(12) 0.0062(8) 0.0135(13)
C1A 0.0443(11) 0.0692(18) 0.0326(8) -0.0008(10) 0.0175(8) 0.0058(13)
C2B 0.0523(13) 0.0453(12) 0.0342(9) 0.0047(9) 0.0081(9) -0.0031(11)
C7C 0.0310(8) 0.0596(14) 0.0340(9) -0.0136(10) 0.0118(7) -0.0027(11)
N3A 0.0455(10) 0.0764(17) 0.0446(10) -0.0031(12) 0.0200(8) 0.0148(14)
C8C 0.0366(9) 0.0592(14) 0.0249(7) -0.0023(9) 0.0067(6) 0.0093(11)
C3B 0.0701(17) 0.0418(11) 0.0344(9) 0.0023(9) 0.0003(10) 0.0097(13)
loop_
_atom_type_symbol
_atom_type_description
_atom_type_scat_dispersion_real
_atom_type_scat_dispersion_imag
_atom_type_scat_source
C C 0.0033 0.0016 'International Tables Vol C Tables 4.2.6.8 and 6.1.1.4'
H H 0.0000 0.0000 'International Tables Vol C Tables 4.2.6.8 and 6.1.1.4'
N N 0.0061 0.0033 'International Tables Vol C Tables 4.2.6.8 and 6.1.1.4'
loop_
_geom_angle_atom_site_label_1
_geom_angle_atom_site_label_2
_geom_angle_atom_site_label_3
_geom_angle
N2A N1A C2A 111.54(18)
N2A N1A C1C 118.36(18)
C2A N1A C1C 129.60(19)
N3A N2A N1A 107.1(2)
C2C C11C C10C 121.25(18)
C2C C11C H11C 119.4
C10C C11C H11C 119.4
C8C C9C C10C 120.4(2)
C8C C9C H9C 119.8
C10C C9C H9C 119.8
C11C C2C C3C 119.54(18)
C11C C2C C1C 120.55(19)
C3C C2C C1C 119.88(17)
N1A C1C C2C 112.59(16)
N1A C1C H1C1 109.1
C2C C1C H1C1 109.1
N1A C1C H1C2 109.1
C2C C1C H1C2 109.1
H1C1 C1C H1C2 107.8
C6C C5C C4C 121.8(2)
C6C C5C C10C 119.31(17)
C4C C5C C10C 118.86(17)
C9C C10C C11C 122.58(18)
C9C C10C C5C 118.72(18)
C11C C10C C5C 118.65(16)
C4C C3C C2C 120.63(18)
C4C C3C H3C 119.7
C2C C3C H3C 119.7
C7C C6C C5C 120.8(2)
C7C C6C H6C 119.6
C5C C6C H6C 119.6
N1A C2A C1A 103.3(2)
N1A C2A C1B 125.67(17)
C1A C2A C1B 131.0(2)
C3C C4C C5C 121.03(19)
C3C C4C H4C 119.5
C5C C4C H4C 119.5
C5B C6B C1B 120.3(3)
C5B C6B H6B 119.8
C1B C6B H6B 119.8
C3B C4B C5B 119.5(3)
C3B C4B H4B 120.3
C5B C4B H4B 120.3
C2B C1B C6B 118.5(2)
C2B C1B C2A 119.2(2)
C6B C1B C2A 122.3(2)
C4B C5B C6B 120.8(3)
C4B C5B H5B 119.6
C6B C5B H5B 119.6
N3A C1A C2A 109.2(2)
N3A C1A H1A 125.4
C2A C1A H1A 125.4
C3B C2B C1B 120.4(2)
C3B C2B H2B 119.8
C1B C2B H2B 119.8
C6C C7C C8C 120.1(2)
C6C C7C H7C 120.0
C8C C7C H7C 120.0
N2A N3A C1A 108.8(2)
C9C C8C C7C 120.6(2)
C9C C8C H8C 119.7
C7C C8C H8C 119.7
C4B C3B C2B 120.5(3)
C4B C3B H3B 119.8
C2B C3B H3B 119.8
loop_
_geom_bond_atom_site_label_1
_geom_bond_atom_site_label_2
_geom_bond_distance
N1A N2A 1.340(3)
N1A C2A 1.363(3)
N1A C1C 1.464(2)
N2A N3A 1.321(3)
C11C C2C 1.367(2)
C11C C10C 1.421(3)
C11C H11C 0.9300
C9C C8C 1.376(3)
C9C C10C 1.416(2)
C9C H9C 0.9300
C2C C3C 1.422(3)
C2C C1C 1.507(3)
C1C H1C1 0.9700
C1C H1C2 0.9700
C5C C6C 1.418(3)
C5C C4C 1.419(3)
C5C C10C 1.422(3)
C3C C4C 1.358(3)
C3C H3C 0.9300
C6C C7C 1.360(3)
C6C H6C 0.9300
C2A C1A 1.379(3)
C2A C1B 1.468(3)
C4C H4C 0.9300
C6B C5B 1.385(4)
C6B C1B 1.401(3)
C6B H6B 0.9300
C4B C3B 1.385(5)
C4B C5B 1.382(5)
C4B H4B 0.9300
C1B C2B 1.401(3)
C5B H5B 0.9300
C1A N3A 1.354(4)
C1A H1A 0.9300
C2B C3B 1.388(4)
C2B H2B 0.9300
C7C C8C 1.413(4)
C7C H7C 0.9300
C8C H8C 0.9300
C3B H3B 0.9300
