#------------------------------------------------------------------------------
#$Date: 2019-11-25 18:29:22 +0200 (Mon, 25 Nov 2019) $
#$Revision: 241521 $
#$URL: file:///home/coder/svn-repositories/cod/cif/4/13/12/4131289.cif $
#------------------------------------------------------------------------------
#
# This file is available in the Crystallography Open Database (COD),
# http://www.crystallography.net/
#
# All data on this site have been placed in the public domain by the
# contributors.
#
data_4131289
loop_
_publ_author_name
'de Orbe, M. Elena'
'Amen\'os, Laura'
'Kirillova, Mariia S.'
'Wang, Yahui'
'L\'opez-Carrillo, Ver\'onica'
'Maseras, Feliu'
'Echavarren, Antonio M.'
_publ_section_title
;
 Cyclobutene vs 1,3-Diene Formation in the Gold-Catalyzed Reaction of
 Alkynes with Alkenes: The Complete Mechanistic Picture.
;
_journal_issue                   30
_journal_name_full               'Journal of the American Chemical Society'
_journal_page_first              10302
_journal_page_last               10311
_journal_paper_doi               10.1021/jacs.7b03005
_journal_volume                  139
_journal_year                    2017
_chemical_formula_sum            'C16 H19 Br'
_chemical_formula_weight         291.22
_space_group_IT_number           2
_space_group_name_Hall           '-P 1'
_space_group_name_H-M_alt        'P -1'
_symmetry_cell_setting           triclinic
_symmetry_space_group_name_H-M   'P -1'
_atom_sites_solution_hydrogens   geom
_audit_creation_method           SHELXL-2014/7
_cell_angle_alpha                88.022(3)
_cell_angle_beta                 86.294(3)
_cell_angle_gamma                75.705(3)
_cell_formula_units_Z            2
_cell_length_a                   7.3559(3)
_cell_length_b                   8.7429(3)
_cell_length_c                   10.5801(4)
_cell_measurement_reflns_used    10305
_cell_measurement_temperature    100(2)
_cell_measurement_theta_max      30.748
_cell_measurement_theta_min      2.404
_cell_volume                     657.86(4)
_computing_cell_refinement       'CrysAlisPro 1.171.38.37f (Rigaku OD, 2015)'
_computing_data_collection       'CrystalClear-SM Expert 2.1 b29. Rigaku 2013'
_computing_data_reduction        'CrysAlisPro 1.171.38.37f (Rigaku OD, 2015)'
_computing_molecular_graphics
;
 SHELXle: C.B. Huebschle, G.M. Sheldrick & B. Dittrich
 J.Appl.Cryst. (2011) 44, 1281-1284.
;
_computing_publication_material  'XCIF, SHELXL-2014/7 (Sheldrick, 2014)'
_computing_structure_refinement  'SHELXL-2014/7 (Sheldrick, 2014)'
_computing_structure_solution    'SHELXT V2014/4 (Sheldrick 2014)'
_diffrn_ambient_temperature      100(2)
_diffrn_detector_area_resol_mean 5.8140
_diffrn_detector_type            'PILATUS 200K'
_diffrn_measured_fraction_theta_full 0.999
_diffrn_measured_fraction_theta_max 0.885
_diffrn_measurement_device_type  '1/4chi goniometer'
_diffrn_measurement_method
;
 Fullsphere data collection, phi and omega scans
;
_diffrn_measurement_specimen_support 'magnetic support with MicroMount'
_diffrn_radiation_monochromator  'Confocal Max Flux optic'
_diffrn_radiation_type           MoK\a
_diffrn_radiation_wavelength     0.7107
_diffrn_reflns_av_R_equivalents  0.0388
_diffrn_reflns_av_unetI/netI     0.0406
_diffrn_reflns_Laue_measured_fraction_full 0.999
_diffrn_reflns_Laue_measured_fraction_max 0.885
_diffrn_reflns_limit_h_max       9
_diffrn_reflns_limit_h_min       -10
_diffrn_reflns_limit_k_max       11
_diffrn_reflns_limit_k_min       -12
_diffrn_reflns_limit_l_max       14
_diffrn_reflns_limit_l_min       -14
_diffrn_reflns_number            10305
_diffrn_reflns_point_group_measured_fraction_full 0.999
_diffrn_reflns_point_group_measured_fraction_max 0.885
_diffrn_reflns_theta_full        25.242
_diffrn_reflns_theta_max         30.748
_diffrn_reflns_theta_min         2.404
_diffrn_source                   'Microfocus rotating anode X-ray tube'
_diffrn_source_current           24
_diffrn_source_power             50
_diffrn_source_size              '0.2 mm x 0.2 mm fine focus'
_diffrn_source_type              'Rigaku MicroMax-007HF'
_exptl_absorpt_coefficient_mu    3.100
_exptl_absorpt_correction_T_max  0.941
_exptl_absorpt_correction_T_min  0.724
_exptl_absorpt_correction_type   multi-scan
_exptl_absorpt_process_details
; 
 CrystalClear-SM Expert 2.1 b29 (Rigaku, 2013)
;
_exptl_crystal_colour            colourless
_exptl_crystal_density_diffrn    1.470
_exptl_crystal_description       block
_exptl_crystal_F_000             300
_exptl_crystal_size_max          0.10
_exptl_crystal_size_mid          0.08
_exptl_crystal_size_min          0.02
_refine_diff_density_max         1.803
_refine_diff_density_min         -1.222
_refine_diff_density_rms         0.131
_refine_ls_extinction_method     none
_refine_ls_goodness_of_fit_ref   1.058
_refine_ls_hydrogen_treatment    constr
_refine_ls_matrix_type           full
_refine_ls_number_parameters     154
_refine_ls_number_reflns         3631
_refine_ls_number_restraints     0
_refine_ls_restrained_S_all      1.058
_refine_ls_R_factor_all          0.0509
_refine_ls_R_factor_gt           0.0436
_refine_ls_shift/su_max          0.000
_refine_ls_shift/su_mean         0.000
_refine_ls_structure_factor_coef Fsqd
_refine_ls_weighting_details
'w=1/[\s^2^(Fo^2^)+(0.0822P)^2^] where P=(Fo^2^+2Fc^2^)/3'
_refine_ls_weighting_scheme      calc
_refine_ls_wR_factor_gt          0.1145
_refine_ls_wR_factor_ref         0.1176
_reflns_Friedel_coverage         0.000
_reflns_number_gt                3134
_reflns_number_total             3631
_reflns_threshold_expression     'I > 2\s(I)'
_cod_data_source_file            ja7b03005_si_003.cif
_cod_data_source_block           M04-259aF1
_cod_depositor_comments
;
The following automatic conversions were performed:

data item '_exptl_absorpt_correction_type' value 'Multi-scan' was
changed to 'multi-scan' in accordance with the
/home/saulius/struct/COD-crude-data/automatic-downloads/DataCite-retrospective/ACS/depositions/lib/dictionaries/cif_core.dic
dictionary named 'cif_core.dic' version 2.4.2 last updated on
2011-04-26.

data item '_symmetry_cell_setting' value 'Triclinic' was changed to
'triclinic' in accordance with the
/home/saulius/struct/COD-crude-data/automatic-downloads/DataCite-retrospective/ACS/depositions/lib/dictionaries/cif_core.dic
dictionary named 'cif_core.dic' version 2.4.2 last updated on
2011-04-26.

Automatic conversion script
Id: cif_fix_values 6909 2019-04-08 15:41:33Z antanas 
;
_cod_original_sg_symbol_H-M      P-1
_cod_database_code               4131289
_shelx_shelxl_version_number     2014/7
_shelx_space_group_comment
;
The symmetry employed for this shelxl refinement is uniquely defined
by the following loop, which should always be used as a source of
symmetry information in preference to the above space-group names.
They are only intended as comments.
;
_shelx_estimated_absorpt_t_min   0.747
_shelx_estimated_absorpt_t_max   0.941
_shelx_res_file
;
    M04-259aF1.res created by SHELXL-2014/7
TITL M04-259aF1 in P-1
CELL 0.71073   7.35585   8.74287  10.58015  88.0225  86.2943  75.7052
ZERR    2.00   0.00025   0.00030   0.00038   0.0029   0.0029   0.0030
LATT  1
SFAC C H BR
UNIT 32 38 2
LIST 4
L.S. 16
BOND
FMAP 2
PLAN 10
ACTA
SIZE 0.10 0.06 0.02
CONF
WGHT    0.082200
FVAR       0.44613
MOLE   1
BR1   3    0.188702    0.075464    0.318562    11.00000    0.02108    0.02397 =
         0.02249    0.00393   -0.00285    0.00141
C1    1    0.240941    0.126344    0.014371    11.00000    0.02266    0.02123 =
         0.02312    0.00501   -0.00128    0.00274
AFIX  43
H1    2    0.333925    0.080467    0.069194    11.00000   -1.20000
AFIX   0
C2    1    0.245807    0.154471   -0.127651    11.00000    0.02275    0.01372 =
         0.02510   -0.00060    0.00001    0.00313
AFIX  13
H2    2    0.267322    0.054136   -0.171555    11.00000   -1.20000
AFIX   0
C3    1    0.381992    0.248953   -0.181622    11.00000    0.01854    0.02196 =
         0.02864    0.00277   -0.00043    0.00346
AFIX  23
H3A   2    0.505937    0.198723   -0.153507    11.00000   -1.20000
H3B   2    0.344873    0.353383   -0.145594    11.00000   -1.20000
AFIX   0
C4    1    0.397025    0.267825   -0.325347    11.00000    0.01816    0.02030 =
         0.02563    0.00313    0.00143    0.00248
AFIX  23
H4A   2    0.410145    0.165194   -0.361961    11.00000   -1.20000
H4B   2    0.511096    0.301207   -0.349070    11.00000   -1.20000
AFIX   0
C5    1    0.231634    0.385186   -0.384787    11.00000    0.02155    0.01692 =
         0.02237    0.00273    0.00006    0.00342
AFIX  23
H5A   2    0.210022    0.484860   -0.341822    11.00000   -1.20000
H5B   2    0.268267    0.403623   -0.472620    11.00000   -1.20000
AFIX   0
C6    1    0.046529    0.335581   -0.380677    11.00000    0.02629    0.01819 =
         0.02318    0.00131   -0.00547    0.00133
AFIX  23
H6A   2    0.071295    0.223306   -0.361427    11.00000   -1.20000
H6B   2   -0.003584    0.353099   -0.463978    11.00000   -1.20000
AFIX   0
C7    1   -0.103152    0.424025   -0.282921    11.00000    0.01959    0.02391 =
         0.02572    0.00559   -0.00417    0.00138
AFIX  23
H7A   2   -0.133899    0.535506   -0.305639    11.00000   -1.20000
H7B   2   -0.216254    0.386815   -0.287747    11.00000   -1.20000
AFIX   0
C8    1   -0.044317    0.404793   -0.145434    11.00000    0.02353    0.01720 =
         0.02414    0.00138   -0.00015    0.00157
AFIX  23
H8A   2    0.053864    0.459321   -0.136159    11.00000   -1.20000
H8B   2   -0.151045    0.453355   -0.089382    11.00000   -1.20000
AFIX   0
C9    1    0.027094    0.231187   -0.106358    11.00000    0.02090    0.01760 =
         0.02360    0.00053   -0.00065    0.00180
AFIX  13
H9    2   -0.046635    0.165801   -0.142311    11.00000   -1.20000
AFIX   0
C10   1    0.055238    0.190779    0.033925    11.00000    0.02010    0.01654 =
         0.02127    0.00270   -0.00192    0.00102
C11   1   -0.088954    0.206354    0.138161    11.00000    0.01854    0.01167 =
         0.02406    0.00018   -0.00080    0.00140
C12   1   -0.278206    0.267743    0.110034    11.00000    0.02109    0.01757 =
         0.02298    0.00215   -0.00195    0.00103
AFIX  43
H12   2   -0.305670    0.298356    0.026965    11.00000   -1.20000
AFIX   0
C13   1   -0.424551    0.284108    0.201481    11.00000    0.01717    0.01767 =
         0.03051   -0.00199   -0.00022    0.00127
AFIX  43
H13   2   -0.547617    0.326025    0.179580    11.00000   -1.20000
AFIX   0
C14   1   -0.387717    0.238147    0.325292    11.00000    0.02374    0.01815 =
         0.02732   -0.00495    0.00654   -0.00055
AFIX  43
H14   2   -0.485811    0.248632    0.386924    11.00000   -1.20000
AFIX   0
C15   1   -0.203284    0.176114    0.357406    11.00000    0.02677    0.01795 =
         0.02035   -0.00119    0.00054   -0.00405
AFIX  43
H15   2   -0.177490    0.143904    0.440426    11.00000   -1.20000
AFIX   0
C16   1   -0.057561    0.162510    0.264634    11.00000    0.01892    0.01228 =
         0.02519   -0.00077   -0.00048    0.00060
HKLF 4
REM  M04-259aF1 in P-1
REM R1 =  0.0436 for    3134 Fo > 4sig(Fo)  and  0.0509 for all    3631 data
REM    154 parameters refined using      0 restraints
END
WGHT      0.0822      0.0000
REM Highest difference peak  1.803,  deepest hole -1.222,  1-sigma level  0.131
Q1    1   0.1955  0.0733  0.2432  11.00000  0.05    1.80
Q2    1   0.1768  0.0804  0.3957  11.00000  0.05    1.67
Q3    1   0.0805  0.0697  0.3163  11.00000  0.05    1.30
Q4    1   0.2998  0.0881  0.3228  11.00000  0.05    1.19
Q5    1   0.2651  0.2672 -0.0975  11.00000  0.05    0.77
Q6    1   0.0334  0.3293 -0.0848  11.00000  0.05    0.75
Q7    1  -0.1351  0.1651  0.2998  11.00000  0.05    0.75
Q8    1  -0.0742  0.2602 -0.1824  11.00000  0.05    0.70
Q9    1   0.3396  0.1648 -0.1986  11.00000  0.05    0.67
Q10   1   0.0228  0.2153 -0.0229  11.00000  0.05    0.64
;
_shelx_res_checksum              55316
_shelx_hkl_file
;
 -10  -6  -1    9.21    2.85
 -10  -6   0   23.58    2.93
 -10  -5  -1   19.22    2.82
 -10  -5   0    1.33    2.69
 -10  -5   1   11.18    2.71
 -10  -5   2    7.83    2.65
 -10  -4  -1   28.56    2.90
 -10  -4   0   30.10    2.92
 -10  -4   1   20.71    2.84
 -10  -4   2   46.42    3.14
 -10  -4   3   -4.30    2.67
 -10  -3  -1    3.51    2.66
 -10  -3   0   23.57    2.87
 -10  -3   1    9.09    2.69
 -10  -3   2   10.13    2.71
 -10  -3   3   11.52    2.75
 -10  -3   4    7.83    2.75
  -9  -8  -3   -0.14    2.94
  -9  -8  -3    1.77    3.02
  -9  -8  -2   30.07    3.43
  -9  -8  -2   31.48    3.15
  -9  -8  -1    1.98    2.77
  -9  -7  -4   13.36    2.96
  -9  -7  -3    2.77    2.77
  -9  -7  -2   29.26    3.52
  -9  -7  -2   34.67    3.11
  -9  -7  -1   18.01    2.79
  -9  -7   0    0.93    2.56
  -9  -7   0   -2.17    3.26
  -9  -7   1   19.58    3.17
  -9  -6  -6   47.87    3.72
  -9  -6  -5    3.21    2.89
  -9  -6  -4   24.07    2.87
  -9  -6  -3   13.84    2.84
  -9  -6  -2   -0.68    2.55
  -9  -6  -1   18.50    2.59
  -9  -6   0   14.08    2.46
  -9  -6   1   14.31    2.46
  -9  -6   2   22.56    2.55
  -9  -6   4    7.91    3.19
  -9  -5  -5    5.06    2.82
  -9  -5  -4   17.86    2.64
  -9  -5  -3   64.41    3.41
  -9  -5  -2    5.89    2.46
  -9  -5  -1   50.46    2.99
  -9  -5   0   40.51    2.83
  -9  -5   1    1.45    2.28
  -9  -5   2   14.32    2.34
  -9  -5   3   23.95    2.47
  -9  -4  -6    9.66    2.79
  -9  -4  -5   42.17    3.10
  -9  -4  -4    2.74    2.52
  -9  -4  -3   42.82    2.94
  -9  -4  -2    7.38    2.37
  -9  -4  -1   21.96    2.48
  -9  -4   0   32.59    2.64
  -9  -4   1   -0.80    2.26
  -9  -4   2   33.21    2.60
  -9  -4   3   11.66    2.30
  -9  -4   4   -0.66    2.24
  -9  -3  -5   41.94    3.04
  -9  -3  -4    4.42    2.48
  -9  -3  -3    4.84    2.35
  -9  -3  -2   91.34    3.93
  -9  -3  -1   13.43    2.37
  -9  -3   0   52.18    2.96
  -9  -3   1   28.08    2.58
  -9  -3   2   -0.57    2.26
  -9  -3   3   23.05    2.47
  -9  -3   4    5.79    2.32
  -9  -3   5    6.11    2.32
  -9  -2  -6    0.37    2.67
  -9  -2  -4   24.09    2.68
  -9  -2  -3   11.77    2.43
  -9  -2  -2   70.79    3.43
  -9  -2  -1   10.81    2.44
  -9  -2   0   37.37    2.75
  -9  -2   1   93.24    3.95
  -9  -2   2    1.33    2.30
  -9  -2   3   72.14    3.46
  -9  -2   4   21.90    2.63
  -9  -2   5    0.94    2.48
  -9  -1  -7   20.36    2.65
  -9  -1  -6   16.56    2.54
  -9  -1  -6   12.50    2.81
  -9  -1  -5   10.98    2.29
  -9  -1  -5    7.35    2.64
  -9  -1  -4   82.73    3.56
  -9  -1  -3    1.70    2.48
  -9  -1  -3    2.67    2.25
  -9  -1  -2   17.32    2.29
  -9  -1  -2   12.09    2.54
  -9  -1  -1   25.95    2.41
  -9  -1  -1   23.82    2.60
  -9  -1   0   16.57    2.37
  -9  -1   0   14.34    2.39
  -9  -1   1   55.93    3.13
  -9  -1   2   18.00    2.54
  -9  -1   3   10.24    2.63
  -9  -1   4   56.03    3.28
  -9  -1   5    1.56    2.60
  -9  -1   6   40.85    3.14
  -9   0  -7   12.98    2.76
  -9   0  -6   46.63    3.04
  -9   0  -5   -1.79    2.71
  -9   0  -5    3.21    2.52
  -9   0  -4   55.49    3.46
  -9   0  -4   67.70    3.42
  -9   0  -3   12.97    2.51
  -9   0  -2   10.66    2.49
  -9   0  -1   32.03    2.81
  -9   0  -1   40.44    2.81
  -9   0   0   26.97    2.85
  -9   0   0   31.69    2.77
  -9   0   1   38.13    2.87
  -9   0   1   32.48    2.90
  -9   0   2   49.48    3.21
  -9   0   2   44.39    3.13
  -9   0   3    0.20    2.74
  -9   0   3    1.93    2.64
  -9   0   4   29.44    3.02
  -9   0   5   26.16    3.10
  -9   1  -6   22.88    2.98
  -9   1  -5   -0.53    2.70
  -9   1  -4    1.11    2.66
  -9   1  -4    3.34    2.78
  -9   1  -3   69.69    3.64
  -9   1  -3   57.89    3.58
  -9   1  -2    6.70    2.65
  -9   1  -1   85.11    3.99
  -9   1   0    7.24    2.84
  -9   1   0    6.85    2.79
  -9   1   1    1.40    2.74
  -9   1   1    0.99    2.73
  -9   1   2   31.10    3.15
  -9   1   2   43.41    3.26
  -9   1   3   17.72    3.00
  -9   1   3   21.37    3.13
  -9   1   4   11.17    3.11
  -9   1   5   70.55    4.20
  -9   2  -4    4.26    2.93
  -9   2  -3   43.22    3.37
  -9   2  -2    3.71    2.87
  -9   2  -1   48.35    3.44
  -9   2   0    6.13    3.02
  -9   2   1    8.49    2.99
  -9   2   2   53.59    3.73
  -9   2   3    8.83    3.22
  -9   2   4    2.33    3.29
  -9   3   0   58.41    3.90
  -8 -10  -2    6.34    2.93
  -8 -10  -1   42.21    3.47
  -8  -9  -4    8.25    2.88
  -8  -9  -3   19.38    2.83
  -8  -9  -3   14.09    2.91
  -8  -9  -2   -1.42    2.69
  -8  -9  -2    1.60    2.81
  -8  -9  -1    7.03    2.87
  -8  -9   0    9.01    2.98
  -8  -9   1    9.72    2.91
  -8  -8  -6   22.31    3.47
  -8  -8  -5    2.46    2.84
  -8  -8  -5   -0.09    3.18
  -8  -8  -4   23.27    2.98
  -8  -8  -4   19.27    3.26
  -8  -8  -4   15.91    2.83
  -8  -8  -3   15.80    2.87
  -8  -8  -3   16.37    2.81
  -8  -8  -3   12.31    3.10
  -8  -8  -2    1.10    2.95
  -8  -8  -2   -0.24    2.64
  -8  -8  -2    0.94    2.55
  -8  -8  -1   -1.29    2.49
  -8  -8  -1   -0.97    2.64
  -8  -8   0   68.34    3.79
  -8  -8   0   72.43    3.52
  -8  -8   0   75.44    4.07
  -8  -8   1   -0.05    3.02
  -8  -8   1    1.92    2.74
  -8  -8   2   16.64    3.17
  -8  -8   2   17.84    2.92
  -8  -8   3    0.44    3.11
  -8  -8   3    1.32    2.81
  -8  -8   4    0.61    3.21
  -8  -8   5    6.11    3.29
  -8  -7  -8    7.34    3.19
  -8  -7  -7   -2.49    3.04
  -8  -7  -6   13.62    2.93
  -8  -7  -6    8.21    2.98
  -8  -7  -5   17.48    2.76
  -8  -7  -5   15.93    2.99
  -8  -7  -4    0.57    2.85
  -8  -7  -4   -2.65    2.59
  -8  -7  -3   25.49    3.18
  -8  -7  -3   27.81    2.71
  -8  -7  -2    0.01    2.87
  -8  -7  -2    0.55    2.36
  -8  -7  -1    0.50    2.33
  -8  -7   0   17.32    2.36
  -8  -7   0   17.41    2.69
  -8  -7   1    5.07    2.19
  -8  -7   1    3.15    2.57
  -8  -7   1    5.87    2.92
  -8  -7   2   21.42    3.03
  -8  -7   2   16.38    2.62
  -8  -7   3   23.44    2.83
  -8  -7   3   26.12    3.11
  -8  -7   4    1.31    2.90
  -8  -7   4   -1.51    2.73
  -8  -7   5   37.01    3.32
  -8  -7   6   14.76    3.14
  -8  -6  -8   10.87    3.00
  -8  -6  -7    2.81    2.93
  -8  -6  -7    4.27    2.80
  -8  -6  -6   29.40    3.20
  -8  -6  -6   34.65    2.94
  -8  -6  -5   21.40    2.87
  -8  -6  -5   24.23    2.70
  -8  -6  -4    3.96    2.43
  -8  -6  -3   36.98    2.73
  -8  -6  -2   32.88    2.65
  -8  -6  -1   21.67    2.32
  -8  -6   0    5.83    2.11
  -8  -6   1    6.27    2.02
  -8  -6   2    0.49    2.01
  -8  -6   3   16.56    2.83
  -8  -6   3   16.80    2.66
  -8  -6   3   16.36    2.13
  -8  -6   4   -0.90    2.71
  -8  -6   5   20.50    2.84
  -8  -6   5   24.64    3.07
  -8  -6   6    6.72    2.82
  -8  -6   6    8.82    2.87
  -8  -6   7   -0.19    2.85
  -8  -5  -8   24.57    2.99
  -8  -5  -7    9.32    2.78
  -8  -5  -6    2.76    2.53
  -8  -5  -5   14.00    2.56
  -8  -5  -4    2.96    2.24
  -8  -5  -3    2.50    2.11
  -8  -5  -2   66.06    3.11
  -8  -5  -1    6.95    2.03
  -8  -5   0   17.93    2.12
  -8  -5   1   37.35    2.41
  -8  -5   2   -0.97    1.91
  -8  -5   3   54.95    2.72
  -8  -5   4   29.07    2.25
  -8  -5   4   24.46    2.74
  -8  -5   5    8.87    2.50
  -8  -5   6   16.02    2.71
  -8  -5   7   30.23    3.09
  -8  -4  -8   49.09    3.45
  -8  -4  -6    0.47    2.46
  -8  -4  -5   99.82    4.09
  -8  -4  -4   27.25    2.46
  -8  -4  -3   -0.68    2.10
  -8  -4  -2   63.47    3.03
  -8  -4  -1   44.66    2.52
  -8  -4   0   24.93    2.18
  -8  -4   1   72.00    3.11
  -8  -4   2   -1.44    1.87
  -8  -4   3   14.74    2.03
  -8  -4   4   43.90    2.50
  -8  -4   5    1.64    1.97
  -8  -4   6   27.63    2.77
  -8  -4   7   29.37    2.91
  -8  -3  -8    3.71    2.82
  -8  -3  -7   26.35    2.39
  -8  -3  -7   25.18    2.77
  -8  -3  -6   19.21    2.07
  -8  -3  -5   20.65    1.95
  -8  -3  -4   77.51    2.91
  -8  -3  -4   65.01    3.32
  -8  -3  -3    1.26    1.49
  -8  -3  -3    1.36    2.02
  -8  -3  -2   76.41    2.70
  -8  -3  -2   54.98    3.06
  -8  -3  -1   91.85    3.13
  -8  -3  -1   72.69    3.45
  -8  -3   0    5.40    1.53
  -8  -3   0    3.39    1.87
  -8  -3   1   59.93    2.84
  -8  -3   2   79.96    3.33
  -8  -3   3    1.52    1.91
  -8  -3   4   89.74    3.59
  -8  -3   5   31.83    2.38
  -8  -3   6   14.80    2.22
  -8  -3   7   16.31    2.64
  -8  -3   8   11.22    2.75
  -8  -2  -9   13.33    2.70
  -8  -2  -9   17.15    3.09
  -8  -2  -8   17.59    2.77
  -8  -2  -8   21.02    2.51
  -8  -2  -7   21.34    2.69
  -8  -2  -7   23.64    2.38
  -8  -2  -6   73.02    3.66
  -8  -2  -6   87.85    3.38
  -8  -2  -5    0.01    1.84
  -8  -2  -4  126.66    4.40
  -8  -2  -3   24.01    1.88
  -8  -2  -3   18.49    2.22
  -8  -2  -2    5.93    2.03
  -8  -2  -2    5.04    1.70
  -8  -2  -1   62.29    2.61
  -8  -2  -1   52.04    2.77
  -8  -2   0   29.28    2.29
  -8  -2   0   36.82    2.13
  -8  -2   1   22.02    2.12
  -8  -2   1   28.43    2.05
  -8  -2   2   58.48    2.97
  -8  -2   2   66.52    2.88
  -8  -2   3    0.96    1.97
  -8  -2   3   -1.28    2.01
  -8  -2   4    3.15    2.15
  -8  -2   4    2.99    2.06
  -8  -2   5   50.71    2.80
  -8  -2   6   -0.10    2.18
  -8  -2   7   23.69    2.49
  -8  -2   7   17.62    2.68
  -8  -2   8    1.91    2.51
  -8  -1 -10    1.41    2.90
  -8  -1  -9   14.07    2.97
  -8  -1  -9   16.21    2.75
  -8  -1  -8   23.49    2.89
  -8  -1  -8   28.28    2.72
  -8  -1  -7   10.64    2.28
  -8  -1  -7   13.40    2.61
  -8  -1  -6   47.53    2.64
  -8  -1  -6   37.15    2.77
  -8  -1  -5   23.08    2.13
  -8  -1  -5   20.85    2.45
  -8  -1  -4   23.98    2.11
  -8  -1  -3  109.24    4.07
  -8  -1  -2   23.54    2.11
  -8  -1  -2   20.96    2.28
  -8  -1  -1  123.85    4.83
  -8  -1  -1  146.33    4.77
  -8  -1   0   79.02    3.69
  -8  -1   0  103.95    3.71
  -8  -1   1    5.76    1.98
  -8  -1   1    3.06    2.02
  -8  -1   2   46.18    2.77
  -8  -1   2   55.16    2.77
  -8  -1   3   59.34    3.04
  -8  -1   3   64.14    3.12
  -8  -1   4    1.35    2.19
  -8  -1   4    0.98    2.32
  -8  -1   5   74.61    3.48
  -8  -1   5   71.46    3.60
  -8  -1   6   12.42    2.46
  -8  -1   6   12.32    2.70
  -8  -1   7   10.28    2.55
  -8  -1   8   17.33    2.75
  -8   0  -9   29.36    3.07
  -8   0  -8   13.81    2.77
  -8   0  -8   16.06    2.63
  -8   0  -7    4.22    2.40
  -8   0  -7    1.61    2.56
  -8   0  -6   46.45    2.73
  -8   0  -6   40.38    2.91
  -8   0  -5   44.40    2.61
  -8   0  -5   34.80    2.76
  -8   0  -4   11.70    2.31
  -8   0  -4   10.96    2.25
  -8   0  -3   95.98    3.85
  -8   0  -2   30.36    2.35
  -8   0  -1   47.86    2.89
  -8   0  -1   57.39    2.84
  -8   0   0   68.53    3.44
  -8   0   0   85.99    3.41
  -8   0   1    1.27    2.14
  -8   0   1    4.48    2.25
  -8   0   2   50.56    2.84
  -8   0   2   40.47    2.79
  -8   0   3   36.55    2.79
  -8   0   3   44.07    2.87
  -8   0   4    5.51    2.39
  -8   0   4    5.49    2.53
  -8   0   5   21.09    2.70
  -8   0   5   15.98    2.80
  -8   0   6   11.15    2.70
  -8   0   6    8.98    2.85
  -8   0   7    3.23    3.05
  -8   0   7    2.03    2.60
  -8   0   8   45.44    3.29
  -8   1  -8   44.74    3.26
  -8   1  -8   43.50    3.38
  -8   1  -7   12.48    2.52
  -8   1  -7   10.82    2.69
  -8   1  -6    7.97    2.54
  -8   1  -6    9.99    2.61
  -8   1  -5   47.87    3.06
  -8   1  -5   55.73    3.14
  -8   1  -4   18.06    2.49
  -8   1  -4   12.22    2.48
  -8   1  -3   34.57    2.66
  -8   1  -3   31.01    2.57
  -8   1  -2   56.11    3.06
  -8   1  -1    8.50    2.42
  -8   1   0   42.46    2.88
  -8   1   0   51.35    2.91
  -8   1   1  117.35    4.83
  -8   1   1  137.12    4.89
  -8   1   2   18.75    2.60
  -8   1   2   19.72    2.61
  -8   1   3   80.20    3.86
  -8   1   3   85.02    3.89
  -8   1   4    2.59    2.57
  -8   1   4    6.31    2.73
  -8   1   5   14.23    3.00
  -8   1   5   12.75    2.73
  -8   1   6   18.03    2.95
  -8   1   6   20.61    3.21
  -8   1   7    3.01    3.09
  -8   1   7    6.27    2.93
  -8   1   8   18.51    3.60
  -8   2  -7   31.45    3.06
  -8   2  -7   28.04    3.06
  -8   2  -6   -1.28    2.64
  -8   2  -6    2.95    2.64
  -8   2  -5  106.33    4.60
  -8   2  -5  122.06    4.74
  -8   2  -4   53.90    3.21
  -8   2  -4   43.58    3.04
  -8   2  -3   35.19    2.84
  -8   2  -3   28.31    2.80
  -8   2  -2   63.45    3.35
  -8   2  -2   55.54    3.29
  -8   2  -1   48.75    3.23
  -8   2   0   23.79    2.73
  -8   2   1  153.15    5.48
  -8   2   1  137.26    5.45
  -8   2   2    2.00    2.67
  -8   2   2    0.64    2.68
  -8   2   3   31.93    3.03
  -8   2   3   32.13    3.08
  -8   2   4   40.90    3.19
  -8   2   4   40.09    3.37
  -8   2   5   -1.99    3.04
  -8   2   5   -2.40    2.87
  -8   2   6   58.00    3.96
  -8   2   6   58.75    3.76
  -8   2   7    2.76    3.27
  -8   3  -6    1.98    2.99
  -8   3  -6    4.42    2.82
  -8   3  -5    7.61    2.91
  -8   3  -5    5.69    2.67
  -8   3  -4   28.87    3.08
  -8   3  -4   27.94    2.87
  -8   3  -3   10.77    2.78
  -8   3  -3    8.88    2.63
  -8   3  -2   70.64    3.66
  -8   3  -2   62.10    3.56
  -8   3  -1   34.18    3.11
  -8   3  -1   30.50    2.93
  -8   3   0    8.30    2.74
  -8   3   0    9.01    2.77
  -8   3   1   14.54    2.94
  -8   3   2   61.44    3.74
  -8   3   2   69.73    3.81
  -8   3   3    6.51    3.00
  -8   3   3    6.17    2.94
  -8   3   4  110.48    4.95
  -8   3   4  107.75    4.89
  -8   3   5    1.35    3.24
  -8   4  -4   31.79    3.19
  -8   4  -3   39.46    3.27
  -8   4  -3   37.88    3.33
  -8   4  -2    9.09    3.03
  -8   4  -2    7.11    2.85
  -8   4  -1   27.60    3.10
  -8   4  -1   34.12    3.32
  -8   4   0    2.06    2.94
  -8   4   0    1.48    2.87
  -8   4   1    0.31    2.97
  -8   4   1    0.81    3.12
  -8   4   2   57.76    3.78
  -8   4   3    0.89    3.16
  -7 -10  -5    0.80    2.94
  -7 -10  -4    0.14    2.87
  -7 -10  -3    7.75    2.82
  -7 -10  -2    0.86    2.49
  -7 -10  -2   -1.07    2.67
  -7 -10  -1    4.78    2.60
  -7 -10   0    0.42    2.61
  -7 -10   1    0.84    2.74
  -7 -10   2   18.19    3.13
  -7  -9  -7   -1.89    3.05
  -7  -9  -6   10.63    2.88
  -7  -9  -6    6.58    3.13
  -7  -9  -5   10.85    2.75
  -7  -9  -5   10.48    3.11
  -7  -9  -4   -0.28    3.05
  -7  -9  -4   -1.73    2.59
  -7  -9  -3   42.28    2.91
  -7  -9  -3   42.73    3.43
  -7  -9  -2   11.51    2.45
  -7  -9  -2    8.80    2.59
  -7  -9  -2   10.83    2.98
  -7  -9  -1    1.38    2.40
  -7  -9  -1   -1.10    2.30
  -7  -9   0   36.45    2.99
  -7  -9   0   43.85    3.42
  -7  -9   1    4.97    2.52
  -7  -9   1    7.46    2.94
  -7  -9   2   10.12    2.56
  -7  -9   2   10.02    3.00
  -7  -9   3   21.38    2.74
  -7  -9   3   25.90    3.17
  -7  -9   4   -0.62    2.65
  -7  -9   4    0.96    3.00
  -7  -9   5    7.96    3.05
  -7  -9   6   11.71    3.05
  -7  -8  -8    1.46    3.04
  -7  -8  -7    8.31    3.06
  -7  -8  -7    7.51    2.82
  -7  -8  -6    9.00    2.93
  -7  -8  -6   14.44    2.69
  -7  -8  -5   16.48    2.52
  -7  -8  -5   24.79    3.05
  -7  -8  -5   25.81    2.69
  -7  -8  -4    0.77    2.26
  -7  -8  -4   -0.56    2.86
  -7  -8  -4    0.12    2.51
  -7  -8  -3   18.04    2.92
  -7  -8  -3   14.27    2.39
  -7  -8  -3   21.63    2.59
  -7  -8  -2   40.10    2.66
  -7  -8  -2   39.95    3.13
  -7  -8  -1    1.44    2.31
  -7  -8  -1   -1.70    2.26
  -7  -8   0   96.33    4.27
  -7  -8   0  103.61    4.01
  -7  -8   1   -1.19    2.09
  -7  -8   1    3.25    2.46
  -7  -8   1   -0.99    2.76
  -7  -8   2   -0.01    2.51
  -7  -8   2    0.70    2.84
  -7  -8   3   39.37    3.21
  -7  -8   3   33.36    2.86
  -7  -8   4   44.21    3.36
  -7  -8   4   42.45    3.04
  -7  -8   5   35.35    2.95
  -7  -8   5   40.83    3.27
  -7  -8   6   21.63    3.08
  -7  -8   7    0.27    2.86
  -7  -7  -8    6.22    2.92
  -7  -7  -8    4.14    2.77
  -7  -7  -7   21.95    2.94
  -7  -7  -7   20.84    2.96
  -7  -7  -6   -1.67    2.72
  -7  -7  -6   -2.59    2.54
  -7  -7  -5   42.40    3.09
  -7  -7  -5   45.33    2.96
  -7  -7  -4   19.95    2.45
  -7  -7  -4   19.28    2.67
  -7  -7  -3    0.64    2.47
  -7  -7  -3   -1.53    2.18
  -7  -7  -2   66.79    3.50
  -7  -7  -2   69.12    3.17
  -7  -7  -1   27.16    2.30
  -7  -7  -1   25.37    2.51
  -7  -7   0   16.86    2.11
  -7  -7   0   14.78    2.42
  -7  -7   1   71.06    3.49
  -7  -7   1   62.13    3.26
  -7  -7   1   67.87    3.00
  -7  -7   2    0.72    1.84
  -7  -7   2    2.45    2.20
  -7  -7   2    0.29    2.49
  -7  -7   3   27.38    2.64
  -7  -7   3   27.42    2.73
  -7  -7   4   43.76    3.03
  -7  -7   4   45.78    3.11
  -7  -7   5   10.32    2.75
  -7  -7   6   15.99    2.87
  -7  -7   7   25.97    2.95
  -7  -6  -9   19.17    2.94
  -7  -6  -8   27.12    3.03
  -7  -6  -8   23.06    2.83
  -7  -6  -7   46.24    3.15
  -7  -6  -7   57.66    3.26
  -7  -6  -6    4.07    2.39
  -7  -6  -6    2.99    2.53
  -7  -6  -5   30.45    2.82
  -7  -6  -5   32.94    2.54
  -7  -6  -4   42.91    2.86
  -7  -6  -4   47.45    2.73
  -7  -6  -3    2.86    2.28
  -7  -6  -3    3.57    2.07
  -7  -6  -2   57.31    2.73
  -7  -6  -2   47.39    2.98
  -7  -6  -1   74.12    3.27
  -7  -6   0    7.25    1.87
  -7  -6   1  186.11    6.11
  -7  -6   1  180.83    6.37
  -7  -6   2   18.44    2.32
  -7  -6   2   15.56    2.43
  -7  -6   2   16.36    1.82
  -7  -6   3    1.34    2.10
  -7  -6   3    1.33    2.29
  -7  -6   3    1.36    1.68
  -7  -6   4   42.09    2.98
  -7  -6   5   40.72    2.96
  -7  -6   6    5.87    2.38
  -7  -6   6    5.59    2.44
  -7  -6   7   51.48    3.21
  -7  -6   7   54.92    3.26
  -7  -6   8    0.37    2.50
  -7  -5  -9   65.36    3.60
  -7  -5  -9   54.14    3.37
  -7  -5  -8   15.22    2.69
  -7  -5  -7   11.63    2.42
  -7  -5  -6   45.13    2.87
  -7  -5  -5    0.29    2.10
  -7  -5  -4  114.33    4.36
  -7  -5  -3   35.38    2.32
  -7  -5  -2   25.81    2.04
  -7  -5  -1   26.96    2.03
  -7  -5   0   84.23    3.28
  -7  -5   1   43.95    2.33
  -7  -5   2  105.42    3.79
  -7  -5   3   -0.68    1.62
  -7  -5   4   42.47    2.23
  -7  -5   5   46.13    2.32
  -7  -5   5   46.97    2.82
  -7  -5   6    8.89    2.37
  -7  -5   6    8.74    2.33
  -7  -5   7   40.54    3.03
  -7  -5   7   44.06    2.98
  -7  -5   8    4.73    2.40
  -7  -5   9    8.72    2.59
  -7  -4 -10    9.79    3.05
  -7  -4  -9   31.13    2.95
  -7  -4  -9   25.79    2.69
  -7  -4  -8    9.30    2.52
  -7  -4  -5   -0.95    1.95
  -7  -4  -4   40.47    2.41
  -7  -4  -3   31.45    2.18
  -7  -4  -3   37.84    1.72
  -7  -4  -2   -0.27    1.73
  -7  -4  -2    0.50    1.10
  -7  -4  -1   49.01    1.73
  -7  -4  -1   36.42    2.31
  -7  -4   0   22.63    1.08
  -7  -4   0   18.31    1.80
  -7  -4   1    7.01    1.63
  -7  -4   1    7.38    0.85
  -7  -4   2   56.79    2.43
  -7  -4   2   50.53    1.90
  -7  -4   3   19.50    1.81
  -7  -4   4    6.94    1.68
  -7  -4   5   35.99    2.66
  -7  -4   5   42.46    2.22
  -7  -4   6   -0.46    1.67
  -7  -4   6   -1.02    2.13
  -7  -4   7    3.58    2.29
  -7  -4   8   21.74    2.48
  -7  -4   8   24.28    2.70
  -7  -4   9    2.64    2.41
  -7  -3 -10    1.74    2.84
  -7  -3  -9   23.40    2.84
  -7  -3  -8   66.76    3.41
  -7  -3  -7    7.85    2.28
  -7  -3  -6   52.24    2.50
  -7  -3  -5   33.40    1.96
  -7  -3  -4    1.13    1.79
  -7  -3  -4    0.60    1.42
  -7  -3  -3   94.97    3.98
  -7  -3  -3  119.24    3.74
  -7  -3  -2   74.55    2.56
  -7  -3  -2   58.37    2.83
  -7  -3  -1  121.94    3.85
  -7  -3  -1  103.88    4.07
  -7  -3   0   23.42    1.43
  -7  -3   0   18.75    1.77
  -7  -3   1   26.59    1.95
  -7  -3   1   33.71    1.75
  -7  -3   2   47.81    2.44
  -7  -3   2   58.81    2.27
  -7  -3   3   80.39    2.98
  -7  -3   3   74.63    3.05
  -7  -3   4    1.51    1.66
  -7  -3   4    1.24    1.71
  -7  -3   5   66.34    2.92
  -7  -3   5   63.96    2.78
  -7  -3   6   17.62    2.34
  -7  -3   6   22.52    1.96
  -7  -3   6   19.59    2.18
  -7  -3   7    3.19    2.14
  -7  -3   7    4.46    1.85
  -7  -3   8   81.29    3.81
  -7  -3   9   -0.09    2.42
  -7  -3  10   18.83    2.65
  -7  -2 -11   61.00    3.86
  -7  -2 -10   12.93    2.92
  -7  -2  -9   22.01    2.76
  -7  -2  -8  111.67    4.45
  -7  -2  -8  112.38    4.32
  -7  -2  -7    0.96    1.96
  -7  -2  -7    2.67    2.13
  -7  -2  -6   34.82    2.11
  -7  -2  -6   29.19    2.30
  -7  -2  -5   76.40    3.00
  -7  -2  -4    7.84    1.47
  -7  -2  -3   56.11    2.31
  -7  -2  -3   49.41    2.53
  -7  -2  -2   52.04    2.58
  -7  -2  -2   61.18    2.41
  -7  -2  -1   70.52    2.68
  -7  -2  -1   66.57    2.86
  -7  -2   0   72.42    3.13
  -7  -2   0   89.23    3.07
  -7  -2   1    4.43    1.55
  -7  -2   1    1.31    1.63
  -7  -2   2   30.60    1.91
  -7  -2   2   26.09    1.98
  -7  -2   3   50.31    2.42
  -7  -2   3   41.25    2.40
  -7  -2   3   51.51    2.21
  -7  -2   4    8.39    1.77
  -7  -2   4   10.59    1.88
  -7  -2   5   81.25    3.34
  -7  -2   5   73.91    3.18
  -7  -2   6   56.97    2.76
  -7  -2   6   53.18    2.87
  -7  -2   7   -0.57    2.00
  -7  -2   7    2.65    2.23
  -7  -2   7    2.66    2.28
  -7  -2   8   35.20    2.87
  -7  -2   8   29.74    2.57
  -7  -2   9   36.44    2.88
  -7  -2  10   11.39    2.48
  -7  -1 -11    9.24    3.11
  -7  -1 -10   25.11    3.01
  -7  -1 -10   23.74    2.91
  -7  -1  -9    2.21    2.63
  -7  -1  -9    1.78    2.39
  -7  -1  -8   60.30    3.25
  -7  -1  -8   63.93    3.12
  -7  -1  -7   23.31    2.16
  -7  -1  -7   22.07    2.36
  -7  -1  -6    2.30    2.05
  -7  -1  -6    4.62    1.81
  -7  -1  -5  137.55    5.11
  -7  -1  -5  152.39    4.98
  -7  -1  -4   16.59    1.75
  -7  -1  -3   42.51    2.26
  -7  -1  -3   44.40    2.15
  -7  -1  -2   78.98    3.00
  -7  -1  -2   72.57    3.09
  -7  -1  -1   22.86    1.80
  -7  -1  -1   18.67    1.85
  -7  -1   0   77.73    3.31
  -7  -1   0   92.68    3.24
  -7  -1   1   77.16    3.33
  -7  -1   1   93.49    3.30
  -7  -1   2    0.12    1.77
  -7  -1   2    1.62    1.78
  -7  -1   3  119.55    3.97
  -7  -1   3  116.49    4.24
  -7  -1   3  110.03    4.21
  -7  -1   4   20.01    2.13
  -7  -1   4   17.83    2.07
  -7  -1   5   17.50    2.19
  -7  -1   5   19.98    2.41
  -7  -1   6   56.82    3.04
  -7  -1   6   51.52    2.79
  -7  -1   7   12.25    2.20
  -7  -1   7   10.98    2.50
  -7  -1   8   12.20    2.33
  -7  -1   8    8.75    2.24
  -7  -1   8   11.52    2.74
  -7  -1   9   92.57    4.17
  -7  -1   9   75.52    3.77
  -7   0 -11   13.38    3.25
  -7   0 -10   47.50    3.33
  -7   0 -10   51.43    3.52
  -7   0  -9   26.39    2.76
  -7   0  -9   25.61    2.81
  -7   0  -8   12.67    2.47
  -7   0  -8   14.59    2.35
  -7   0  -7  142.02    5.42
  -7   0  -7  160.72    5.38
  -7   0  -6    1.14    2.11
  -7   0  -6    3.55    1.94
  -7   0  -5  116.14    4.12
  -7   0  -5  105.05    4.16
  -7   0  -4   50.73    2.52
  -7   0  -4   43.04    2.56
  -7   0  -3   31.57    2.19
  -7   0  -3   33.15    1.92
  -7   0  -2   74.82    2.83
  -7   0  -2   74.71    3.06
  -7   0  -1   76.91    2.86
  -7   0  -1   73.12    3.21
  -7   0  -1   86.52    3.25
  -7   0   0   75.57    3.00
  -7   0   0   64.70    2.99
  -7   0   1  220.72    6.72
  -7   0   1  186.39    6.72
  -7   0   2    2.76    1.95
  -7   0   2   -0.17    1.92
  -7   0   3   56.08    2.91
  -7   0   3   63.84    2.96
  -7   0   4   71.12    3.27
  -7   0   4   69.24    3.14
  -7   0   5   41.97    2.65
  -7   0   5   41.48    2.78
  -7   0   6   83.89    3.63
  -7   0   6   81.66    3.83
  -7   0   7   60.66    3.18
  -7   0   7   56.19    3.36
  -7   0   8   -0.42    2.80
  -7   0   8   -0.67    2.44
  -7   0   8    1.83    2.24
  -7   0   9    8.34    2.40
  -7   0   9   11.21    2.64
  -7   0   9    8.71    3.11
  -7   0  10   60.88    4.01
  -7   1 -11   -2.11    3.09
  -7   1 -10   26.31    3.02
  -7   1 -10   25.26    3.07
  -7   1  -9   10.95    2.76
  -7   1  -9    9.70    2.66
  -7   1  -8    1.15    2.41
  -7   1  -8    4.54    2.51
  -7   1  -7   82.69    3.74
  -7   1  -7   88.70    3.68
  -7   1  -6   23.21    2.34
  -7   1  -6   21.14    2.37
  -7   1  -5    7.21    2.06
  -7   1  -5    6.06    2.13
  -7   1  -4  199.64    7.06
  -7   1  -4  229.66    7.13
  -7   1  -3   16.09    2.04
  -7   1  -3   14.33    2.04
  -7   1  -2   90.59    3.81
  -7   1  -2  104.46    3.82
  -7   1  -1  112.55    4.20
  -7   1   0    1.97    2.01
  -7   1   1   71.09    3.29
  -7   1   1   80.31    3.31
  -7   1   2   76.48    3.33
  -7   1   2   68.37    3.27
  -7   1   3    6.06    2.07
  -7   1   3    6.22    2.30
  -7   1   4  118.79    4.57
  -7   1   4  114.43    4.46
  -7   1   5   25.31    2.66
  -7   1   5   26.11    2.53
  -7   1   6   56.27    3.19
  -7   1   6   53.54    3.44
  -7   1   7   46.90    3.45
  -7   1   7   52.96    3.18
  -7   1   8    3.68    2.93
  -7   1   8    1.44    2.74
  -7   1   9    5.29    3.03
  -7   1   9    6.77    3.19
  -7   2 -10   21.16    3.03
  -7   2  -9    9.87    2.75
  -7   2  -9   10.45    2.80
  -7   2  -8    9.23    2.57
  -7   2  -8    7.77    2.52
  -7   2  -7   12.64    2.44
  -7   2  -7   10.02    2.52
  -7   2  -6   50.33    2.98
  -7   2  -6   57.51    3.11
  -7   2  -5    2.79    2.23
  -7   2  -5   -1.17    2.30
  -7   2  -4   84.33    3.70
  -7   2  -4   98.13    3.83
  -7   2  -3   20.58    2.28
  -7   2  -3   24.40    2.31
  -7   2  -2   21.33    2.27
  -7   2  -2   25.87    2.41
  -7   2  -1  139.57    4.88
  -7   2  -1  127.24    4.85
  -7   2   0   18.36    2.37
  -7   2   1   38.98    2.65
  -7   2   2   89.76    3.78
  -7   2   2   83.47    3.72
  -7   2   3   12.33    2.47
  -7   2   3   12.16    2.39
  -7   2   4   24.22    2.79
  -7   2   4   27.61    2.67
  -7   2   5   29.09    2.78
  -7   2   5   29.03    2.83
  -7   2   6    7.60    2.96
  -7   2   6    6.83    2.82
  -7   2   7    7.55    3.09
  -7   2   7    8.80    3.02
  -7   2   8   20.31    3.34
  -7   2   8   25.14    3.22
  -7   2   9    2.56    3.17
  -7   3  -9   45.34    3.39
  -7   3  -8   23.11    2.89
  -7   3  -8   22.63    2.80
  -7   3  -7   17.78    2.70
  -7   3  -7   19.97    2.80
  -7   3  -6   72.89    3.67
  -7   3  -6   67.48    3.48
  -7   3  -5   25.26    2.55
  -7   3  -5   29.05    2.80
  -7   3  -4    7.89    2.46
  -7   3  -4    2.91    2.33
  -7   3  -3  130.08    5.04
  -7   3  -3  147.60    5.20
  -7   3  -2   21.63    2.59
  -7   3  -2   16.09    2.37
  -7   3  -1   82.91    3.63
  -7   3  -1   75.70    3.56
  -7   3   0   78.07    3.74
  -7   3   0   87.34    3.74
  -7   3   1    2.27    2.42
  -7   3   2  126.14    4.92
  -7   3   3   14.46    2.70
  -7   3   3   13.90    2.67
  -7   3   4   31.20    2.94
  -7   3   4   33.03    3.05
  -7   3   5   29.31    3.13
  -7   3   5   35.71    3.24
  -7   3   6   16.13    3.09
  -7   3   6   14.03    2.93
  -7   3   7   14.21    3.19
  -7   3   7   13.78    3.39
  -7   4  -8    6.31    2.86
  -7   4  -7   14.36    2.98
  -7   4  -7   12.37    2.76
  -7   4  -6   29.50    2.89
  -7   4  -6   31.29    3.12
  -7   4  -5   27.16    2.97
  -7   4  -5   20.45    2.70
  -7   4  -4   31.93    2.80
  -7   4  -4   34.09    3.01
  -7   4  -3   98.36    4.25
  -7   4  -3  107.64    4.45
  -7   4  -2    9.17    2.74
  -7   4  -2    5.91    2.51
  -7   4  -1   22.35    2.72
  -7   4  -1   19.76    2.71
  -7   4   0  139.56    5.21
  -7   4   0  127.13    5.10
  -7   4   1   10.75    2.68
  -7   4   1   15.55    2.76
  -7   4   2   75.44    3.84
  -7   4   3   15.77    2.89
  -7   4   4    0.63    2.92
  -7   4   4    3.62    2.91
  -7   4   5   25.25    3.41
  -7   4   5   19.60    3.23
  -7   4   6    8.40    3.15
  -7   4   6   11.69    3.27
  -7   5  -7   17.35    2.96
  -7   5  -6    3.51    2.77
  -7   5  -5   53.13    3.38
  -7   5  -5   59.84    3.72
  -7   5  -4   12.51    2.99
  -7   5  -4   11.29    2.72
  -7   5  -3   14.29    2.78
  -7   5  -3   21.38    2.98
  -7   5  -2   36.95    3.27
  -7   5  -2   33.98    3.08
  -7   5  -1    0.98    2.79
  -7   5  -1    3.81    2.78
  -7   5   0   37.85    3.25
  -7   5   0   34.19    3.10
  -7   5   1   31.80    3.14
  -7   5   1   34.39    3.28
  -7   5   2   -0.53    2.99
  -7   5   2    3.02    2.93
  -7   5   3   99.39    4.68
  -7   5   4    8.45    3.20
  -7   6  -5   53.85    3.57
  -7   6  -4   14.36    2.98
  -7   6  -3    8.88    2.93
  -7   6  -2   94.63    4.44
  -7   6  -1   23.07    3.23
  -7   6   0   21.14    3.17
  -6 -11  -4    1.74    2.95
  -6 -11  -1   -1.35    2.55
  -6 -11   0    7.03    2.64
  -6 -11   1    6.76    2.71
  -6 -11   2    3.62    2.76
  -6 -10  -7    3.76    3.29
  -6 -10  -6    1.88    3.19
  -6 -10  -6    3.08    2.95
  -6 -10  -5   30.45    3.09
  -6 -10  -5   31.46    3.42
  -6 -10  -4    6.33    3.05
  -6 -10  -4    8.57    2.69
  -6 -10  -3   12.49    3.06
  -6 -10  -3    9.84    2.58
  -6 -10  -2   38.60    3.32
  -6 -10  -2   33.89    2.73
  -6 -10  -1   -0.49    2.24
  -6 -10  -1   -0.02    2.43
  -6 -10   0    9.99    2.54
  -6 -10   1    4.18    2.91
  -6 -10   1    2.22    2.45
  -6 -10   2    2.03    2.90
  -6 -10   2    2.04    2.50
  -6 -10   3    8.07    3.02
  -6 -10   3    6.28    2.58
  -6 -10   4   13.65    2.83
  -6 -10   4   17.98    3.19
  -6 -10   5   -1.95    3.17
  -6  -9  -8   11.67    3.14
  -6  -9  -7   10.40    2.95
  -6  -9  -7   10.01    2.85
  -6  -9  -6    8.45    2.76
  -6  -9  -6    8.24    2.88
  -6  -9  -5   19.15    2.85
  -6  -9  -5   22.40    2.80
  -6  -9  -4   46.72    3.17
  -6  -9  -4   46.82    2.89
  -6  -9  -3    3.71    2.70
  -6  -9  -3    1.28    2.23
  -6  -9  -3    3.68    2.10
  -6  -9  -2   29.36    2.90
  -6  -9  -2   28.11    2.43
  -6  -9  -2   23.38    2.39
  -6  -9  -1   12.09    2.14
  -6  -9  -1    8.58    2.19
  -6  -9   0    4.19    2.20
  -6  -9   0    8.59    2.03
  -6  -9   1   37.42    3.01
  -6  -9   1   29.31    2.59
  -6  -9   2    1.68    2.67
  -6  -9   2    4.66    2.29
  -6  -9   3    9.97    2.56
  -6  -9   3   13.08    2.70
  -6  -9   4   23.64    2.85
  -6  -9   4   24.76    2.77
  -6  -9   5    1.56    2.48
  -6  -9   5    1.19    2.77
  -6  -9   6   11.55    2.90
  -6  -9   7   12.67    3.05
  -6  -8  -8   -0.18    2.77
  -6  -8  -8    2.18    2.78
  -6  -8  -7   71.72    3.57
  -6  -8  -7   65.17    3.60
  -6  -8  -6    4.87    2.65
  -6  -8  -6    8.71    2.44
  -6  -8  -5    5.21    2.33
  -6  -8  -5    1.38    1.92
  -6  -8  -5    1.99    2.57
  -6  -8  -4   25.64    2.62
  -6  -8  -4   25.35    2.40
  -6  -8  -3   22.22    2.34
  -6  -8  -3   30.05    2.67
  -6  -8  -3   29.91    2.36
  -6  -8  -2   17.90    2.20
  -6  -8  -2   20.78    2.12
  -6  -8  -2   24.70    2.63
  -6  -8  -1   40.10    2.64
  -6  -8  -1   40.82    2.35
  -6  -8   0   -0.45    2.07
  -6  -8   0   -0.30    1.74
  -6  -8   1   20.51    2.30
  -6  -8   1   20.30    1.90
  -6  -8   1   22.00    2.54
  -6  -8   2   20.68    1.83
  -6  -8   2   22.18    2.60
  -6  -8   2   20.32    2.31
  -6  -8   3   -0.01    2.45
  -6  -8   3    1.98    2.15
  -6  -8   4   26.11    2.52
  -6  -8   4   32.47    2.81
  -6  -8   5    3.71    2.41
  -6  -8   5    1.30    2.51
  -6  -8   6    0.40    2.51
  -6  -8   7   39.61    3.05
  -6  -7  -9   20.56    2.74
  -6  -7  -8   14.53    2.66
  -6  -7  -8   15.41    2.66
  -6  -7  -7   26.15    2.64
  -6  -7  -7   21.36    2.67
  -6  -7  -6   35.60    2.67
  -6  -7  -6   39.35    2.87
  -6  -7  -5    4.15    2.36
  -6  -7  -5    3.02    2.20
  -6  -7  -4   34.72    2.70
  -6  -7  -4   34.44    2.42
  -6  -7  -3   72.15    3.13
  -6  -7  -3   75.89    3.35
  -6  -7  -3   65.14    3.13
  -6  -7  -2   15.07    2.13
  -6  -7  -2   14.63    2.25
  -6  -7  -2   16.80    2.02
  -6  -7  -1   46.43    2.67
  -6  -7  -1   52.59    2.52
  -6  -7   0   31.71    2.06
  -6  -7   0   30.20    2.25
  -6  -7   1   37.10    2.12
  -6  -7   1   35.52    2.43
  -6  -7   1   33.58    2.54
  -6  -7   2   83.63    3.63
  -6  -7   2   82.34    3.55
  -6  -7   2   84.58    3.17
  -6  -7   3   -0.93    2.08
  -6  -7   3   -1.24    2.23
  -6  -7   3   -0.08    1.53
  -6  -7   4   52.12    2.96
  -6  -7   4   48.65    2.84
  -6  -7   5   28.52    2.66
  -6  -7   6   -0.56    2.32
  -6  -7   7   54.61    3.34
  -6  -7   7   56.33    3.20
  -6  -7   8    8.03    2.53
  -6  -6 -10   -0.01    2.79
  -6  -6  -9    4.41    2.46
  -6  -6  -8    7.96    2.46
  -6  -6  -7    0.09    2.31
  -6  -6  -7    0.70    2.30
  -6  -6  -6   62.60    3.07
  -6  -6  -6   58.85    3.04
  -6  -6  -5   -0.25    2.10
  -6  -6  -5    2.71    2.01
  -6  -6  -4   25.43    2.35
  -6  -6  -4   31.02    2.21
  -6  -6  -3   39.39    2.56
  -6  -6  -3   39.41    2.33
  -6  -6  -2    0.27    2.02
  -6  -6  -2    0.33    1.68
  -6  -6  -1   48.31    2.39
  -6  -6   0   39.16    2.11
  -6  -6   1   11.82    1.63
  -6  -6   1    9.13    2.14
  -6  -6   1   11.50    1.94
  -6  -6   2   29.45    2.39
  -6  -6   2   30.26    1.90
  -6  -6   2   27.77    2.14
  -6  -6   3   42.84    2.48
  -6  -6   3   43.54    2.11
  -6  -6   3   43.35    2.62
  -6  -6   4   12.57    1.53
  -6  -6   4   13.25    2.16
  -6  -6   5   77.47    3.41
  -6  -6   6    1.61    2.22
  -6  -6   6    1.13    2.05
  -6  -6   7    5.39    2.35
  -6  -6   7    4.71    2.14
  -6  -6   8   14.87    2.35
  -6  -6   8   14.29    2.56
  -6  -6   9    6.98    2.49
  -6  -5 -11   31.56    3.22
  -6  -5 -10   -0.34    2.57
  -6  -5  -9   21.70    2.76
  -6  -5  -9   13.73    2.43
  -6  -5  -8    8.02    2.22
  -6  -5  -7   31.21    2.53
  -6  -5  -6   49.56    2.65
  -6  -5  -6   50.19    2.78
  -6  -5  -5   65.66    2.96
  -6  -5  -4    8.50    1.81
  -6  -5  -3   46.52    2.38
  -6  -5  -2   74.59    2.93
  -6  -5  -1   33.27    1.90
  -6  -5   0  189.63    6.15
  -6  -5   1    4.73    1.39
  -6  -5   2   80.73    3.00
  -6  -5   3   88.56    3.20
  -6  -5   4    4.10    1.36
  -6  -5   4    1.49    0.75
  -6  -5   5  130.61    4.72
  -6  -5   5  130.00    4.64
  -6  -5   5  126.86    4.28
  -6  -5   6   22.84    2.29
  -6  -5   6   22.24    2.30
  -6  -5   7   -1.04    2.06
  -6  -5   7   -0.67    2.08
  -6  -5   8   62.70    3.20
  -6  -5   8   66.12    3.15
  -6  -5   9    4.77    2.46
  -6  -5  10    0.17    2.49
  -6  -4 -11   27.85    3.07
  -6  -4 -10    9.14    2.65
  -6  -4  -9   30.14    2.70
  -6  -4  -9   20.38    2.44
  -6  -4  -8   57.78    2.95
  -6  -4  -8   63.84    3.13
  -6  -4  -7    0.21    1.47
  -6  -4  -5   73.23    3.11
  -6  -4  -4   -1.26    1.57
  -6  -4  -3   82.54    3.12
  -6  -4  -2  228.94    7.48
  -6  -4  -2  237.40    7.27
  -6  -4  -1   23.94    1.03
  -6  -4  -1   22.35    1.67
  -6  -4   0  151.86    4.72
  -6  -4   0  162.87    5.06
  -6  -4   1   94.66    2.70
  -6  -4   1  100.11    2.78
  -6  -4   2   40.60    1.80
  -6  -4   2   29.15    1.20
  -6  -4   3   63.06    2.35
  -6  -4   3   75.21    2.62
  -6  -4   4   73.80    2.53
  -6  -4   4   66.87    2.71
  -6  -4   4   71.70    2.72
  -6  -4   5   48.30    2.67
  -6  -4   5   54.26    2.26
  -6  -4   5   52.83    2.38
  -6  -4   5   58.82    2.37
  -6  -4   6   83.22    3.72
  -6  -4   6   90.74    3.53
  -6  -4   7    3.06    1.97
  -6  -4   7    1.69    2.07
  -6  -4   7    4.46    1.95
  -6  -4   8   62.55    3.00
  -6  -4   8   59.46    3.06
  -6  -4   9   21.68    2.38
  -6  -4  10   -0.15    2.55
  -6  -4  11   22.40    2.73
  -6  -3 -12    2.25    3.03
  -6  -3 -11    9.28    2.87
  -6  -3 -10   55.95    3.32
  -6  -3  -9    6.02    2.27
  -6  -3  -8  102.09    4.06
  -6  -3  -7    5.12    1.96
  -6  -3  -6   10.49    1.62
  -6  -3  -5   99.39    3.48
  -6  -3  -4   74.81    3.13
  -6  -3  -4   88.72    2.96
  -6  -3  -3   67.97    2.33
  -6  -3  -3   56.07    2.56
  -6  -3  -2  118.68    4.44
  -6  -3  -2  139.50    4.24
  -6  -3  -1   24.05    1.24
  -6  -3  -1   18.46    1.55
  -6  -3   0    8.19    1.38
  -6  -3   0   10.76    1.02
  -6  -3   1  538.22   17.11
  -6  -3   1  537.76   17.11
  -6  -3   1  577.52   16.99
  -6  -3   2    0.15    1.13
  -6  -3   2   -0.02    1.26
  -6  -3   2    0.93    1.31
  -6  -3   3  204.61    6.35
  -6  -3   3  197.72    6.23
  -6  -3   3  187.38    6.30
  -6  -3   4   73.00    2.74
  -6  -3   4   65.64    2.65
  -6  -3   4   68.96    2.72
  -6  -3   5    2.76    1.68
  -6  -3   5    2.56    1.50
  -6  -3   5    3.54    1.40
  -6  -3   6  112.07    3.85
  -6  -3   6  115.88    4.03
  -6  -3   6   99.92    4.10
  -6  -3   7   34.58    2.43
  -6  -3   7   42.40    2.10
  -6  -3   7   39.75    2.45
  -6  -3   8    8.95    2.11
  -6  -3   8   10.90    2.30
  -6  -3   9   25.90    2.41
  -6  -3   9   32.16    2.74
  -6  -3  10    2.07    2.21
  -6  -3  11    7.45    2.46
  -6  -2 -12   17.17    3.17
  -6  -2 -11   21.25    2.94
  -6  -2 -10   42.43    2.97
  -6  -2  -9   34.84    2.72
  -6  -2  -8   64.88    3.05
  -6  -2  -8   70.63    3.23
  -6  -2  -7  143.85    5.07
  -6  -2  -7  146.54    4.98
  -6  -2  -6   16.23    1.68
  -6  -2  -6   17.96    1.89
  -6  -2  -5  161.76    5.12
  -6  -2  -5  147.84    5.24
  -6  -2  -4  142.69    4.67
  -6  -2  -4  137.86    4.58
  -6  -2  -3    6.61    1.42
  -6  -2  -3    7.43    1.21
  -6  -2  -2   55.41    2.39
  -6  -2  -2   60.15    2.27
  -6  -2  -1  231.99    6.93
  -6  -2  -1  205.33    7.03
  -6  -2   0   19.37    1.38
  -6  -2   0   16.61    1.44
  -6  -2   1  132.92    4.92
  -6  -2   1  165.23    4.88
  -6  -2   2  139.76    4.57
  -6  -2   2  147.84    4.60
  -6  -2   2  128.87    4.62
  -6  -2   3   12.58    1.46
  -6  -2   3   14.04    1.39
  -6  -2   3   12.65    1.48
  -6  -2   4   75.76    2.88
  -6  -2   4   67.05    2.86
  -6  -2   4   75.66    2.79
  -6  -2   4   75.97    2.92
  -6  -2   5   61.12    2.51
  -6  -2   5   52.84    2.48
  -6  -2   5   57.09    2.57
  -6  -2   6   46.19    2.56
  -6  -2   6   49.82    2.43
  -6  -2   6   53.26    2.41
  -6  -2   7   57.81    2.82
  -6  -2   7   59.58    2.55
  -6  -2   8   13.12    2.08
  -6  -2   8   15.88    2.28
  -6  -2   8   16.81    1.85
  -6  -2   9   58.35    3.19
  -6  -2   9   48.43    2.82
  -6  -2  10   23.87    2.38
  -6  -2  10   29.77    2.95
  -6  -2  11   -2.77    2.99
  -6  -2  11   -1.13    2.50
  -6  -1 -12   63.91    3.87
  -6  -1 -11    3.14    2.79
  -6  -1 -10   40.29    3.00
  -6  -1  -9   55.75    2.94
  -6  -1  -9   53.87    3.04
  -6  -1  -8    1.50    2.05
  -6  -1  -8    1.03    1.91
  -6  -1  -7  100.95    3.66
  -6  -1  -7   92.83    3.74
  -6  -1  -6   44.39    2.18
  -6  -1  -6   38.46    2.32
  -6  -1  -5    9.71    1.50
  -6  -1  -5    9.49    1.66
  -6  -1  -4  146.29    5.01
  -6  -1  -4  150.11    4.91
  -6  -1  -4  150.10    4.91
  -6  -1  -3   53.34    2.23
  -6  -1  -3   49.61    2.16
  -6  -1  -2   94.33    3.32
  -6  -1  -1  337.05    9.96
  -6  -1  -1  299.14    9.98
  -6  -1   0    6.88    1.37
  -6  -1   0    5.22    1.42
  -6  -1   1   13.54    1.52
  -6  -1   1   16.36    1.52
  -6  -1   2  386.08   12.48
  -6  -1   2  411.29   12.47
  -6  -1   2  404.94   12.38
  -6  -1   3    1.30    1.52
  -6  -1   3    0.60    1.51
  -6  -1   3    2.38    1.16
  -6  -1   4  163.72    5.29
  -6  -1   4  158.19    5.34
  -6  -1   4  167.65    5.16
  -6  -1   5   90.33    3.47
  -6  -1   5   84.96    3.52
  -6  -1   5   93.34    3.26
  -6  -1   5   98.64    3.47
  -6  -1   6    3.52    1.96
  -6  -1   6    4.89    1.72
  -6  -1   7   55.01    2.69
  -6  -1   7   55.93    2.93
  -6  -1   8   18.15    2.38
  -6  -1   8   15.00    1.97
  -6  -1   8   21.83    2.11
  -6  -1   9   42.05    2.53
  -6  -1   9   36.72    2.85
  -6  -1  10    6.16    2.12
  -6  -1  10    6.01    2.77
  -6  -1  11    0.90    3.05
  -6   0 -12   63.92    3.89
  -6   0 -11    9.70    2.77
  -6   0 -11   13.85    2.84
  -6   0 -10   41.23    2.97
  -6   0 -10   41.48    2.99
  -6   0  -9   56.05    3.05
  -6   0  -9   56.62    3.09
  -6   0  -8   40.08    2.59
  -6   0  -8   43.67    2.55
  -6   0  -7   97.66    3.91
  -6   0  -7  104.44    3.83
  -6   0  -6   82.74    3.40
  -6   0  -6   88.70    3.32
  -6   0  -5   21.80    1.77
  -6   0  -5   18.00    1.67
  -6   0  -5   19.06    1.83
  -6   0  -4   69.42    2.63
  -6   0  -4   63.55    2.80
  -6   0  -4   72.04    2.80
  -6   0  -3   85.52    3.06
  -6   0  -3   80.42    2.88
  -6   0  -3   74.22    3.04
  -6   0  -2    4.25    1.20
  -6   0  -2    4.60    1.49
  -6   0  -1   92.00    3.34
  -6   0   0    2.18    1.42
  -6   0   0    2.11    1.52
  -6   0   1    5.51    1.56
  -6   0   1    5.02    1.48
  -6   0   2   18.82    1.74
  -6   0   2   21.71    1.79
  -6   0   3   28.58    1.96
  -6   0   3   27.63    1.98
  -6   0   3   32.46    1.49
  -6   0   4   33.10    2.15
  -6   0   4   31.47    2.27
  -6   0   4   35.10    1.63
  -6   0   5   74.14    3.11
  -6   0   5   74.77    2.71
  -6   0   5   71.19    3.20
  -6   0   6   -2.09    2.14
  -6   0   6    3.47    1.96
  -6   0   7   39.62    2.61
  -6   0   7   34.91    2.72
  -6   0   8   50.32    2.79
  -6   0   8   42.29    2.96
  -6   0   9   -1.66    2.66
  -6   0   9    0.99    2.03
  -6   0   9   -0.76    2.32
  -6   0  10   70.62    3.45
  -6   0  10   55.02    3.73
  -6   0  11    5.10    3.08
  -6   1 -11   57.47    3.62
  -6   1 -11   56.02    3.61
  -6   1 -10    9.02    2.64
  -6   1 -10    8.33    2.70
  -6   1  -9   40.59    2.80
  -6   1  -9   36.00    2.74
  -6   1  -8   76.13    3.41
  -6   1  -8   74.56    3.37
  -6   1  -7   16.43    2.05
  -6   1  -7   15.72    2.12
  -6   1  -6   66.86    2.87
  -6   1  -6   60.61    2.87
  -6   1  -5   69.86    2.96
  -6   1  -5   60.71    2.86
  -6   1  -5   69.08    2.73
  -6   1  -4   79.50    3.20
  -6   1  -4   83.28    2.96
  -6   1  -4   72.84    3.11
  -6   1  -3  142.38    5.08
  -6   1  -3  155.02    5.12
  -6   1  -3  153.90    4.92
  -6   1  -2   33.07    2.01
  -6   1  -2   35.29    1.68
  -6   1  -2   35.71    2.13
  -6   1  -1   95.78    3.24
  -6   1  -1   97.18    3.58
  -6   1   0  272.25    8.54
  -6   1   0  285.20    8.81
  -6   1   1    0.17    1.65
  -6   1   1    2.37    1.73
  -6   1   2   75.53    3.08
  -6   1   2   70.52    3.00
  -6   1   3   81.89    3.28
  -6   1   3   77.38    3.24
  -6   1   4    0.27    1.88
  -6   1   4    0.05    2.09
  -6   1   4    0.06    1.01
  -6   1   5   46.26    2.69
  -6   1   5   48.47    2.73
  -6   1   6   35.31    2.53
  -6   1   6   32.65    2.58
  -6   1   7   14.63    2.37
  -6   1   7   10.56    2.50
  -6   1   8   58.03    3.40
  -6   1   8   60.81    3.19
  -6   1   9    2.71    2.49
  -6   1   9    4.14    2.89
  -6   1  10   77.93    3.70
  -6   1  10   60.04    3.97
  -6   2 -11   78.14    4.01
  -6   2 -10   14.03    2.82
  -6   2 -10   13.38    2.67
  -6   2  -9   40.02    2.89
  -6   2  -9   44.05    3.00
  -6   2  -8  131.22    4.77
  -6   2  -8  121.77    4.73
  -6   2  -7   10.64    2.18
  -6   2  -7   10.18    2.24
  -6   2  -6  107.76    4.19
  -6   2  -6  120.00    4.33
  -6   2  -5   77.60    3.22
  -6   2  -5   67.25    3.06
  -6   2  -4    1.47    1.80
  -6   2  -4    1.12    1.92
  -6   2  -3   69.75    3.01
  -6   2  -3   76.20    3.16
  -6   2  -2   28.12    2.16
  -6   2  -2   24.92    1.54
  -6   2  -2   24.15    1.98
  -6   2  -1   11.13    1.20
  -6   2  -1   11.18    1.80
  -6   2  -1   12.89    1.88
  -6   2   0  215.46    6.87
  -6   2   0  206.10    6.49
  -6   2   1   11.53    1.02
  -6   2   1   11.82    2.00
  -6   2   2   85.27    3.43
  -6   2   2   82.95    3.46
  -6   2   2   84.49    2.76
  -6   2   3   52.50    2.79
  -6   2   3   53.50    2.82
  -6   2   4    1.86    2.11
  -6   2   4    1.85    2.10
  -6   2   5   78.83    3.71
  -6   2   5   86.30    3.63
  -6   2   6  131.65    5.15
  -6   2   6  147.35    5.18
  -6   2   7    8.07    2.46
  -6   2   7    8.69    2.60
  -6   2   8   50.21    3.43
  -6   2   8   52.05    3.26
  -6   2   9   63.09    3.53
  -6   2   9   52.39    3.72
  -6   2  10    0.48    2.88
  -6   2  10    0.06    3.25
  -6   2  11   91.44    4.46
  -6   3 -10   23.79    2.88
  -6   3  -9    1.54    2.68
  -6   3  -9   -1.56    2.51
  -6   3  -8   23.12    2.63
  -6   3  -8   19.76    2.46
  -6   3  -7   50.54    2.94
  -6   3  -7   58.78    3.12
  -6   3  -6   24.42    2.32
  -6   3  -6   28.16    2.58
  -6   3  -5  114.63    4.42
  -6   3  -5  131.26    4.65
  -6   3  -4   47.76    2.72
  -6   3  -4   45.00    2.58
  -6   3  -3  175.16    6.08
  -6   3  -3  186.08    6.19
  -6   3  -2   95.03    3.72
  -6   3  -2   85.51    3.59
  -6   3  -1    6.64    2.06
  -6   3  -1    6.84    2.00
  -6   3   0   68.87    3.17
  -6   3   0   68.06    3.09
  -6   3   1  148.92    5.28
  -6   3   2    2.40    2.19
  -6   3   3  126.92    4.67
  -6   3   3  116.27    4.60
  -6   3   4   10.66    2.29
  -6   3   4   14.14    2.46
  -6   3   5   15.34    2.59
  -6   3   5   13.00    2.48
  -6   3   6   58.91    3.28
  -6   3   6   51.37    3.37
  -6   3   7    2.61    2.64
  -6   3   7    2.82    2.71
  -6   3   8   12.52    3.02
  -6   3   8   14.25    2.92
  -6   3   9   25.05    3.19
  -6   3   9   19.37    3.24
  -6   3  10   10.91    3.18
  -6   4  -8    1.66    2.79
  -6   4  -8    1.50    2.47
  -6   4  -7  127.61    5.04
  -6   4  -7  148.58    5.31
  -6   4  -6    7.35    2.62
  -6   4  -6    4.79    2.23
  -6   4  -5   84.80    3.77
  -6   4  -5   77.55    3.54
  -6   4  -4   47.25    2.78
  -6   4  -4   53.65    3.00
  -6   4  -3   12.90    2.19
  -6   4  -3   15.02    2.41
  -6   4  -2   75.19    3.49
  -6   4  -2   71.61    3.33
  -6   4  -1   31.33    2.48
  -6   4  -1   31.80    2.53
  -6   4   0   56.71    3.02
  -6   4   0   57.93    3.10
  -6   4   1  130.80    4.84
  -6   4   1  127.62    4.82
  -6   4   2    3.20    2.36
  -6   4   3   59.13    3.29
  -6   4   4  121.97    4.76
  -6   4   4  113.16    4.72
  -6   4   5    7.51    2.68
  -6   4   5    7.34    2.59
  -6   4   6   48.34    3.34
  -6   4   6   44.60    3.53
  -6   4   7   73.48    3.93
  -6   4   7   70.27    4.05
  -6   4   8    5.31    3.12
  -6   4   8    4.54    3.05
  -6   5  -7   40.01    2.95
  -6   5  -6   13.54    2.89
  -6   5  -6   12.13    2.47
  -6   5  -5   16.53    2.90
  -6   5  -5   15.14    2.42
  -6   5  -4  116.56    4.70
  -6   5  -4  133.36    4.93
  -6   5  -3   43.96    2.91
  -6   5  -3   48.07    3.13
  -6   5  -2  142.87    5.42
  -6   5  -2  144.00    5.30
  -6   5  -1  112.02    4.45
  -6   5  -1  111.03    4.50
  -6   5   0    6.55    2.43
  -6   5   0    5.91    2.53
  -6   5   1   49.69    3.16
  -6   5   1   49.34    3.09
  -6   5   2   60.23    3.52
  -6   5   2   57.98    3.36
  -6   5   3   12.44    2.76
  -6   5   4   59.17    3.59
  -6   5   5    0.17    2.83
  -6   5   5    0.06    2.84
  -6   5   6   10.84    3.08
  -6   5   6    6.65    3.01
  -6   5   7   51.13    3.71
  -6   5   7   43.00    3.86
  -6   6  -6   10.82    2.60
  -6   6  -5    1.44    2.59
  -6   6  -4   33.90    2.87
  -6   6  -4   30.98    3.10
  -6   6  -3   16.20    2.70
  -6   6  -2   25.09    2.88
  -6   6  -1   48.43    3.19
  -6   6   0   10.57    2.71
  -6   6   1   38.20    3.17
  -6   6   1   38.27    3.09
  -6   6   2   65.58    3.79
  -6   6   2   69.55    3.84
  -6   6   3   -0.56    2.94
  -6   6   3   -1.37    2.90
  -6   6   4    8.67    3.07
  -6   6   4    9.01    3.07
  -6   6   5   29.16    3.45
  -6   7  -5   15.17    2.84
  -6   7  -4   29.11    2.99
  -6   7  -3   58.67    3.53
  -6   7  -2    4.37    2.79
  -6   7  -1   19.16    2.96
  -6   7   0   84.39    4.19
  -6   7   1    2.74    2.97
  -6   7   2   71.05    4.17
  -5 -12   1    9.51    2.93
  -5 -11  -5   12.15    3.02
  -5 -11  -4    7.05    2.84
  -5 -11  -3    2.46    2.65
  -5 -11  -3   -0.08    3.06
  -5 -11  -2   30.91    3.34
  -5 -11  -1    6.84    2.45
  -5 -11   0   -0.67    2.46
  -5 -11   1   37.97    3.37
  -5 -11   1   27.87    2.89
  -5 -11   2    5.33    3.10
  -5 -11   2    5.30    2.65
  -5 -11   3    1.76    2.69
  -5 -10  -8    5.35    3.19
  -5 -10  -7   15.30    3.11
  -5 -10  -7   15.22    3.11
  -5 -10  -6    0.82    2.92
  -5 -10  -6    8.00    2.89
  -5 -10  -5    0.49    2.75
  -5 -10  -5   -0.09    2.79
  -5 -10  -4   11.72    2.87
  -5 -10  -4    9.07    2.65
  -5 -10  -3   13.68    2.97
  -5 -10  -3    9.79    2.50
  -5 -10  -2    3.44    2.28
  -5 -10  -2    4.26    2.79
  -5 -10  -2    1.80    2.07
  -5 -10  -1    6.66    2.18
  -5 -10  -1   10.49    2.24
  -5 -10   0   21.21    2.43
  -5 -10   1   10.93    2.91
  -5 -10   1    8.09    2.28
  -5 -10   2   45.53    3.31
  -5 -10   2   34.98    2.84
  -5 -10   3    0.47    2.34
  -5 -10   3   -1.60    2.73
  -5 -10   4    3.82    2.43
  -5 -10   4    1.52    2.71
  -5 -10   5   30.72    3.13
  -5 -10   5   28.92    2.99
  -5 -10   6    2.87    2.93
  -5 -10   7   26.26    3.22
  -5  -9  -8    0.59    2.81
  -5  -9  -8   -1.78    2.84
  -5  -9  -7    4.99    2.65
  -5  -9  -7    6.67    2.77
  -5  -9  -6   45.20    3.23
  -5  -9  -6   44.57    3.05
  -5  -9  -5   -2.36    2.32
  -5  -9  -5   -1.50    2.59
  -5  -9  -4   53.11    2.81
  -5  -9  -4   50.53    3.09
  -5  -9  -3   19.61    2.21
  -5  -9  -3   15.03    2.07
  -5  -9  -3   20.30    2.63
  -5  -9  -2    1.82    1.96
  -5  -9  -2    0.70    2.41
  -5  -9  -2   -0.82    1.95
  -5  -9  -1   42.76    2.74
  -5  -9  -1   53.15    2.56
  -5  -9   0   42.64    2.82
  -5  -9   0   52.29    2.51
  -5  -9   1    2.34    2.38
  -5  -9   1    2.84    1.81
  -5  -9   1    2.25    2.10
  -5  -9   2   64.23    3.29
  -5  -9   2   54.52    2.99
  -5  -9   3   11.51    2.55
  -5  -9   3   11.81    2.21
  -5  -9   4    1.68    2.28
  -5  -9   4    0.63    2.52
  -5  -9   5   39.68    3.07
  -5  -9   5   34.35    2.82
  -5  -9   6   10.91    2.47
  -5  -9   6   13.80    2.69
  -5  -9   7   22.11    2.84
  -5  -8  -9   23.44    2.79
  -5  -8  -9   26.12    2.99
  -5  -8  -8   12.81    2.70
  -5  -8  -8   14.29    2.63
  -5  -8  -7    2.15    2.38
  -5  -8  -7    4.54    2.43
  -5  -8  -6   34.24    2.76
  -5  -8  -6   39.67    2.72
  -5  -8  -5   12.27    1.75
  -5  -8  -5   17.53    2.27
  -5  -8  -5   19.38    2.33
  -5  -8  -4   26.07    2.24
  -5  -8  -4   26.08    2.43
  -5  -8  -3   37.61    2.52
  -5  -8  -3   34.61    2.25
  -5  -8  -2   -1.55    1.79
  -5  -8  -2   -0.64    2.11
  -5  -8  -2   -1.70    1.72
  -5  -8  -1   20.83    1.99
  -5  -8  -1   24.50    1.91
  -5  -8   0    4.37    1.80
  -5  -8   0    4.61    1.64
  -5  -8   1    8.06    2.17
  -5  -8   1    7.31    1.60
  -5  -8   1    8.06    1.82
  -5  -8   2   22.10    1.67
  -5  -8   2   20.99    2.06
  -5  -8   2   21.58    2.32
  -5  -8   3   59.71    3.05
  -5  -8   3   55.14    2.95
  -5  -8   4    4.94    2.19
  -5  -8   4    6.12    2.18
  -5  -8   5   33.39    2.53
  -5  -8   5   36.59    2.69
  -5  -8   6    8.88    2.36
  -5  -8   6   13.04    2.38
  -5  -8   7    0.61    2.45
  -5  -8   8   27.22    2.74
  -5  -7  -9    4.12    2.43
  -5  -7  -8   50.69    3.05
  -5  -7  -8   47.55    2.91
  -5  -7  -7    3.40    2.23
  -5  -7  -7    3.20    2.21
  -5  -7  -6   41.47    2.61
  -5  -7  -6   40.42    2.41
  -5  -7  -5  129.70    4.32
  -5  -7  -5  133.13    4.45
  -5  -7  -4    0.70    1.78
  -5  -7  -4    0.45    1.49
  -5  -7  -4    1.24    2.06
  -5  -7  -3  108.20    3.83
  -5  -7  -3  116.44    4.05
  -5  -7  -2   60.48    2.84
  -5  -7  -2   51.57    2.54
  -5  -7  -2   54.97    2.53
  -5  -7  -1   -1.43    1.58
  -5  -7  -1    1.20    1.63
  -5  -7   0   99.56    3.54
  -5  -7   0   98.43    3.75
  -5  -7   1   26.13    2.25
  -5  -7   1   26.89    2.02
  -5  -7   1   25.13    1.76
  -5  -7   2    8.98    1.39
  -5  -7   2    9.12    1.79
  -5  -7   2    9.21    1.99
  -5  -7   3   29.34    1.62
  -5  -7   3   30.11    2.12
  -5  -7   3   32.19    2.29
  -5  -7   4    7.47    1.98
  -5  -7   4    7.88    1.88
  -5  -7   5   17.78    2.21
  -5  -7   5   17.47    2.18
  -5  -7   6   25.25    2.40
  -5  -7   7    1.09    2.16
  -5  -7   7    1.57    2.13
  -5  -7   8   25.23    2.63
  -5  -7   8   26.14    2.50
  -5  -7   9   10.59    2.44
  -5  -6 -11   26.91    3.10
  -5  -6 -10   57.42    3.36
  -5  -6  -9   -0.16    2.10
  -5  -6  -8  139.58    5.04
  -5  -6  -7   23.75    2.28
  -5  -6  -7   22.97    2.24
  -5  -6  -6   17.81    2.15
  -5  -6  -6   16.97    2.04
  -5  -6  -5   51.09    2.66
  -5  -6  -5   51.42    2.59
  -5  -6  -4   58.87    2.66
  -5  -6  -4   59.00    2.74
  -5  -6  -3   54.47    2.47
  -5  -6  -3   51.69    2.54
  -5  -6  -2  182.41    6.04
  -5  -6  -2  189.75    6.16
  -5  -6  -1    2.88    1.47
  -5  -6  -1    1.69    1.42
  -5  -6   0  125.23    4.16
  -5  -6   0  120.59    4.32
  -5  -6   1   41.08    2.18
  -5  -6   1   46.51    1.99
  -5  -6   1   42.90    2.32
  -5  -6   2    0.55    1.69
  -5  -6   2    1.15    1.22
  -5  -6   2    1.55    1.52
  -5  -6   3   75.43    2.78
  -5  -6   3   81.91    3.20
  -5  -6   3   77.83    3.19
  -5  -6   4   89.64    3.54
  -5  -6   4   86.37    3.04
  -5  -6   4  100.41    3.58
  -5  -6   5   11.94    1.99
  -5  -6   5   10.08    0.96
  -5  -6   5    8.04    1.09
  -5  -6   6   58.66    2.89
  -5  -6   6   65.66    2.91
  -5  -6   7   47.91    2.67
  -5  -6   7   52.28    2.89
  -5  -6   8   16.74    2.24
  -5  -6   8   16.71    2.14
  -5  -6   9   63.41    3.29
  -5  -6  10    1.83    2.37
  -5  -5 -12   11.91    3.12
  -5  -5 -11    9.27    2.73
  -5  -5 -10   34.89    2.82
  -5  -5  -9   13.21    2.32
  -5  -5  -9   10.48    2.04
  -5  -5  -8   30.93    2.30
  -5  -5  -7  133.28    4.70
  -5  -5  -6    0.58    1.79
  -5  -5  -6    0.90    1.77
  -5  -5  -5  107.96    3.93
  -5  -5  -5  111.03    4.02
  -5  -5  -4  179.66    5.94
  -5  -5  -4  183.29    6.01
  -5  -5  -3    0.72    1.53
  -5  -5  -3    0.90    1.42
  -5  -5  -2  236.69    7.38
  -5  -5  -2  226.53    7.46
  -5  -5  -1   66.83    2.62
  -5  -5   0   11.27    1.41
  -5  -5   0   12.16    1.31
  -5  -5   1  153.21    5.13
  -5  -5   1  153.12    5.31
  -5  -5   2    2.17    1.35
  -5  -5   2    2.59    1.46
  -5  -5   2    1.30    1.13
  -5  -5   2    0.81    1.52
  -5  -5   3   69.82    2.90
  -5  -5   3   76.63    2.97
  -5  -5   3   74.05    2.63
  -5  -5   4   28.74    1.34
  -5  -5   4   39.59    2.11
  -5  -5   4   30.32    1.22
  -5  -5   4   38.00    1.57
  -5  -5   5    6.99    1.75
  -5  -5   5    6.25    1.31
  -5  -5   5    7.47    1.73
  -5  -5   5    7.41    1.17
  -5  -5   5    7.28    1.10
  -5  -5   5    6.85    1.07
  -5  -5   6   39.80    2.23
  -5  -5   6   39.06    2.04
  -5  -5   6   37.38    1.57
  -5  -5   6   40.93    2.32
  -5  -5   7   48.59    2.61
  -5  -5   7   52.31    2.54
  -5  -5   7   49.99    2.45
  -5  -5   8   17.09    1.99
  -5  -5   8   18.03    2.27
  -5  -5   9   40.52    2.64
  -5  -5  10   23.64    2.54
  -5  -5  11    5.20    2.45
  -5  -4 -12   48.77    3.44
  -5  -4 -11    0.44    2.56
  -5  -4 -10   14.50    2.41
  -5  -4  -9   60.93    2.88
  -5  -4  -9   70.12    3.27
  -5  -4  -8   12.16    1.89
  -5  -4  -8   12.30    2.13
  -5  -4  -7   97.40    3.54
  -5  -4  -7  101.42    3.76
  -5  -4  -7  111.33    3.88
  -5  -4  -4   56.89    2.43
  -5  -4  -3   34.51    1.78
  -5  -4  -2   91.07    3.19
  -5  -4  -1  120.29    4.00
  -5  -4   0    8.90    1.27
  -5  -4   0   10.42    1.25
  -5  -4   1  194.51    6.33
  -5  -4   1  209.13    6.43
  -5  -4   2  131.92    3.15
  -5  -4   2  139.60    3.29
  -5  -4   3    4.52    0.68
  -5  -4   3    4.77    0.85
  -5  -4   3    5.80    1.13
  -5  -4   4  117.53    3.75
  -5  -4   4  112.35    4.12
  -5  -4   4  113.81    3.84
  -5  -4   4  122.68    3.86
  -5  -4   5   56.51    2.20
  -5  -4   5   63.95    2.26
  -5  -4   5   59.84    2.40
  -5  -4   5   54.17    2.57
  -5  -4   5   61.76    2.28
  -5  -4   6    2.34    1.59
  -5  -4   6    2.61    1.71
  -5  -4   6    2.85    1.55
  -5  -4   6    4.07    1.12
  -5  -4   6    3.57    1.23
  -5  -4   6    4.03    1.22
  -5  -4   7   45.83    2.37
  -5  -4   7   51.62    1.91
  -5  -4   7   45.05    2.39
  -5  -4   7   40.07    2.42
  -5  -4   8   25.95    2.13
  -5  -4   8   26.37    1.98
  -5  -4   8   28.21    2.21
  -5  -4   9    6.79    2.13
  -5  -4   9    5.45    2.16
  -5  -4  10   45.31    2.86
  -5  -4  10   43.75    2.76
  -5  -4  11    2.04    2.38
  -5  -4  12   33.13    2.92
  -5  -3 -13    2.46    3.03
  -5  -3 -12   24.23    3.00
  -5  -3 -11   19.89    2.63
  -5  -3 -10   45.51    2.93
  -5  -3  -9   45.26    2.38
  -5  -3  -9   51.20    2.79
  -5  -3  -8    9.17    1.51
  -5  -3  -8    8.89    1.94
  -5  -3  -7   23.20    1.94
  -5  -3  -7   19.14    1.54
  -5  -3  -6  319.24    9.47
  -5  -3  -6  285.42    9.33
  -5  -3  -5   -0.60    1.36
  -5  -3  -5    2.11    1.23
  -5  -3  -4  172.66    5.48
  -5  -3  -3  107.94    3.40
  -5  -3  -3   97.10    3.55
  -5  -3  -2    2.78    1.12
  -5  -3  -2    3.15    0.83
  -5  -3  -1  302.10   10.25
  -5  -3  -1  344.24   10.12
  -5  -3   0   36.14    1.66
  -5  -3   0   36.49    1.72
  -5  -3   0   39.92    1.41
  -5  -3   1  182.57    5.74
  -5  -3   1  182.15    5.76
  -5  -3   1  178.42    5.59
  -5  -3   2   88.10    3.03
  -5  -3   2   83.04    2.95
  -5  -3   2   87.32    2.86
  -5  -3   3    0.51    1.03
  -5  -3   3   -0.65    1.13
  -5  -3   4  141.19    4.66
  -5  -3   4  145.38    4.65
  -5  -3   5  198.76    6.15
  -5  -3   5  195.47    6.23
  -5  -3   5  201.22    6.16
  -5  -3   6   81.90    2.78
  -5  -3   6   74.32    3.01
  -5  -3   6   81.19    2.81
  -5  -3   7   88.92    3.00
  -5  -3   7   81.58    3.28
  -5  -3   7   74.45    3.30
  -5  -3   7   82.96    3.10
  -5  -3   8   45.05    2.58
  -5  -3   8   42.17    2.26
  -5  -3   8   40.51    2.44
  -5  -3   9   10.93    2.13
  -5  -3   9    8.87    1.91
  -5  -3  10   29.35    2.46
  -5  -3  10   33.45    2.68
  -5  -3  11   41.48    3.03
  -5  -3  11   38.06    2.73
  -5  -3  12    2.12    2.36
  -5  -3  12    2.77    2.84
  -5  -2 -13    5.09    2.96
  -5  -2 -12   20.21    2.81
  -5  -2 -11   35.80    2.95
  -5  -2 -10    6.25    2.29
  -5  -2  -9   19.70    2.11
  -5  -2  -8    0.06    1.54
  -5  -2  -8    0.54    1.89
  -5  -2  -7    4.30    1.58
  -5  -2  -7    3.20    1.40
  -5  -2  -7    3.47    1.73
  -5  -2  -6   43.21    1.98
  -5  -2  -6   43.86    2.01
  -5  -2  -6   40.58    2.10
  -5  -2  -5    3.66    1.24
  -5  -2  -5    2.49    1.20
  -5  -2  -5    2.83    1.32
  -5  -2  -5    3.23    1.31
  -5  -2  -4  105.97    3.63
  -5  -2  -4  108.57    3.57
  -5  -2  -3   94.68    3.15
  -5  -2  -2    0.51    1.10
  -5  -2  -2    0.01    0.92
  -5  -2  -1  363.14   11.30
  -5  -2  -1  366.84   11.21
  -5  -2   0   44.16    1.87
  -5  -2   0   47.73    1.77
  -5  -2   1   -0.38    0.97
  -5  -2   1    0.94    1.09
  -5  -2   1    0.74    0.95
  -5  -2   2  178.80    5.67
  -5  -2   2  185.34    5.72
  -5  -2   2  174.71    5.72
  -5  -2   3  133.60    4.43
  -5  -2   3  137.99    4.44
  -5  -2   3  136.97    4.47
  -5  -2   4   18.50    1.41
  -5  -2   4   15.22    1.44
  -5  -2   4   16.31    1.37
  -5  -2   5  220.56    6.60
  -5  -2   5  207.67    6.60
  -5  -2   6    1.30    1.49
  -5  -2   6   -0.02    1.38
  -5  -2   6   -0.29    1.64
  -5  -2   6    0.34    1.34
  -5  -2   7    8.24    1.82
  -5  -2   7   10.24    1.50
  -5  -2   7    8.17    1.45
  -5  -2   7    6.93    1.64
  -5  -2   8   59.53    2.89
  -5  -2   8   67.33    2.60
  -5  -2   8   56.76    2.79
  -5  -2   9    1.53    1.72
  -5  -2   9    2.13    1.61
  -5  -2   9    0.30    2.17
  -5  -2  10   25.90    2.61
  -5  -2  10   23.76    2.25
  -5  -2  11   10.98    2.12
  -5  -2  11   10.94    2.67
  -5  -2  12   -0.49    2.88
  -5  -1 -13    6.41    2.96
  -5  -1 -12   17.64    3.00
  -5  -1 -11   47.53    3.08
  -5  -1 -10   10.60    2.34
  -5  -1  -9   63.21    2.99
  -5  -1  -9   57.66    2.90
  -5  -1  -8  125.81    4.52
  -5  -1  -8  121.65    4.41
  -5  -1  -7    2.15    1.44
  -5  -1  -7   -0.28    1.54
  -5  -1  -7    2.69    1.57
  -5  -1  -6   30.44    1.86
  -5  -1  -6   29.40    1.74
  -5  -1  -6   31.48    1.73
  -5  -1  -6   32.41    1.82
  -5  -1  -5  227.78    7.11
  -5  -1  -5  216.93    7.13
  -5  -1  -5  231.29    7.09
  -5  -1  -5  219.81    7.12
  -5  -1  -4    4.53    1.24
  -5  -1  -4    4.35    1.17
  -5  -1  -4    5.84    1.21
  -5  -1  -4    6.19    1.23
  -5  -1  -3  171.96    5.42
  -5  -1  -3  167.41    5.39
  -5  -1  -2   50.27    1.98
  -5  -1  -1   38.79    1.80
  -5  -1  -1   43.96    1.80
  -5  -1   0  217.17    6.75
  -5  -1   0  211.85    6.77
  -5  -1   1   61.79    2.39
  -5  -1   1   64.72    2.39
  -5  -1   1   64.01    2.27
  -5  -1   2  625.96   19.00
  -5  -1   2  614.91   18.97
  -5  -1   2  624.12   19.04
  -5  -1   3   64.04    2.49
  -5  -1   3   66.00    2.53
  -5  -1   3   67.94    2.38
  -5  -1   4   11.32    1.41
  -5  -1   4    9.68    1.49
  -5  -1   4   10.00    1.38
  -5  -1   5  114.03    4.00
  -5  -1   5  112.04    4.07
  -5  -1   5  125.30    4.02
  -5  -1   6  232.88    7.17
  -5  -1   6  232.93    7.25
  -5  -1   7   25.59    2.13
  -5  -1   7   29.18    1.85
  -5  -1   7   20.98    1.82
  -5  -1   7   28.29    1.90
  -5  -1   8  154.24    4.86
  -5  -1   8  162.46    4.80
  -5  -1   9   13.72    2.32
  -5  -1   9   15.55    1.93
  -5  -1   9   14.15    1.89
  -5  -1  10    5.54    2.47
  -5  -1  10    2.75    1.80
  -5  -1  10    1.84    1.97
  -5  -1  11   13.83    2.80
  -5  -1  11    9.15    2.11
  -5  -1  12   14.40    3.07
  -5   0 -12    6.57    2.84
  -5   0 -11   23.24    2.69
  -5   0 -10   19.72    2.45
  -5   0 -10   19.74    2.44
  -5   0  -9   24.65    2.28
  -5   0  -9   27.75    2.35
  -5   0  -8  225.58    7.24
  -5   0  -8  216.16    7.20
  -5   0  -7   33.40    2.04
  -5   0  -7   30.62    2.00
  -5   0  -6   91.77    3.49
  -5   0  -6   95.85    3.48
  -5   0  -6   95.23    3.50
  -5   0  -6  105.23    3.53
  -5   0  -5  148.44    4.77
  -5   0  -5  147.71    4.70
  -5   0  -5  136.49    4.73
  -5   0  -5  137.88    4.74
  -5   0  -4    1.09    1.15
  -5   0  -4    0.13    1.28
  -5   0  -4    0.24    1.34
  -5   0  -4    0.21    1.22
  -5   0  -3  284.15    8.97
  -5   0  -3  268.14    8.94
  -5   0  -3  306.03    8.98
  -5   0  -3  289.37    8.89
  -5   0  -2  260.50    8.19
  -5   0  -2  269.64    8.29
  -5   0  -1    1.87    1.26
  -5   0   0  401.71   12.11
  -5   0   0  380.88   12.11
  -5   0   1  323.04   10.36
  -5   0   1  344.62   10.39
  -5   0   2   33.37    1.40
  -5   0   2   33.38    1.74
  -5   0   2   30.68    1.79
  -5   0   3  226.94    7.35
  -5   0   3  232.18    7.37
  -5   0   3  229.94    7.19
  -5   0   3  235.82    7.33
  -5   0   4   72.57    3.02
  -5   0   4   80.69    3.03
  -5   0   4   80.19    2.94
  -5   0   5   18.90    1.68
  -5   0   5   15.78    1.80
  -5   0   5   16.69    1.73
  -5   0   6  268.96    8.53
  -5   0   6  283.00    8.51
  -5   0   7    0.52    1.71
  -5   0   7   -0.29    1.96
  -5   0   7   -0.83    1.77
  -5   0   8   55.99    2.56
  -5   0   8   48.05    2.79
  -5   0   9   90.56    3.92
  -5   0   9   73.62    3.48
  -5   0  10    7.93    1.87
  -5   0  10    6.71    2.66
  -5   0  10   10.15    2.18
  -5   0  11   51.32    3.48
  -5   0  12   20.67    3.31
  -5   1 -12   15.41    2.92
  -5   1 -11   51.33    3.12
  -5   1 -11   54.54    3.34
  -5   1 -10   77.39    3.57
  -5   1 -10   72.86    3.48
  -5   1  -9    0.33    2.00
  -5   1  -9    0.34    2.11
  -5   1  -8   61.31    2.85
  -5   1  -8   61.20    2.90
  -5   1  -7  110.71    4.03
  -5   1  -7  115.18    4.08
  -5   1  -6    3.10    1.53
  -5   1  -6    3.23    1.64
  -5   1  -5  161.36    5.55
  -5   1  -5  171.46    5.50
  -5   1  -5  176.30    5.64
  -5   1  -4   67.17    2.69
  -5   1  -4   66.93    2.66
  -5   1  -4   70.40    2.61
  -5   1  -4   73.65    2.76
  -5   1  -3   72.58    2.81
  -5   1  -3   78.01    2.66
  -5   1  -3   72.80    2.81
  -5   1  -3   77.61    2.89
  -5   1  -2  148.64    4.63
  -5   1  -2  134.84    4.38
  -5   1  -2  131.08    4.54
  -5   1  -1   24.64    1.68
  -5   1  -1   23.65    1.25
  -5   1   0  174.73    5.70
  -5   1   1  176.51    5.86
  -5   1   1  184.71    5.89
  -5   1   2   66.08    2.54
  -5   1   2   62.66    2.56
  -5   1   2   59.50    2.52
  -5   1   3  521.89   16.20
  -5   1   3  539.28   16.42
  -5   1   3  542.64   16.36
  -5   1   3  534.84   16.43
  -5   1   4  121.32    4.42
  -5   1   4  129.13    4.07
  -5   1   4  130.04    4.35
  -5   1   4  122.98    4.39
  -5   1   5    6.26    1.71
  -5   1   5    6.07    1.80
  -5   1   5    6.53    1.63
  -5   1   6  128.08    4.72
  -5   1   6  134.18    4.66
  -5   1   7   48.85    2.75
  -5   1   7   52.89    2.70
  -5   1   8    1.18    2.04
  -5   1   8    0.78    2.16
  -5   1   8    0.93    1.64
  -5   1   9   64.83    3.43
  -5   1   9   51.62    2.78
  -5   1  10    5.73    2.78
  -5   1  10    3.82    2.36
  -5   1  11    2.16    2.50
  -5   1  11    3.76    3.04
  -5   2 -11   37.71    3.17
  -5   2 -11   33.29    2.92
  -5   2 -10   48.83    3.07
  -5   2 -10   48.41    3.15
  -5   2  -9    8.35    2.26
  -5   2  -9    6.50    2.11
  -5   2  -8   11.06    2.05
  -5   2  -8   10.95    2.10
  -5   2  -7  368.40   11.69
  -5   2  -7  377.11   11.76
  -5   2  -6    2.57    1.63
  -5   2  -6    2.79    1.79
  -5   2  -5  112.06    4.06
  -5   2  -5  120.28    4.19
  -5   2  -4  171.33    5.84
  -5   2  -4  188.70    5.95
  -5   2  -3   12.08    1.61
  -5   2  -3    9.95    1.46
  -5   2  -2  139.47    4.42
  -5   2  -2  132.55    4.60
  -5   2  -2  135.25    4.63
  -5   2  -2  143.08    4.72
  -5   2  -1  273.77    8.72
  -5   2  -1  268.12    8.75
  -5   2  -1  286.26    8.82
  -5   2  -1  280.04    8.55
  -5   2   0    3.29    1.52
  -5   2   0    3.06    0.79
  -5   2   0    2.58    1.21
  -5   2   1   21.55    1.51
  -5   2   1   22.90    1.78
  -5   2   1   20.85    0.99
  -5   2   2  325.35   10.56
  -5   2   2  345.44   10.51
  -5   2   2  334.07   10.57
  -5   2   3    3.28    1.76
  -5   2   3    3.28    1.63
  -5   2   4  161.54    5.64
  -5   2   4  165.72    5.17
  -5   2   4  173.14    5.64
  -5   2   5   13.16    1.99
  -5   2   5   14.67    1.02
  -5   2   5   12.92    1.97
  -5   2   6   20.89    2.21
  -5   2   6   18.68    2.27
  -5   2   7   66.11    3.32
  -5   2   7   74.01    3.28
  -5   2   8    6.85    2.32
  -5   2   8    4.59    2.41
  -5   2   9   61.26    3.56
  -5   2   9   72.50    3.42
  -5   2  10   34.93    3.18
  -5   2  10   46.62    3.08
  -5   2  11    4.93    2.97
  -5   2  11    8.11    2.82
  -5   3 -11   17.57    3.11
  -5   3 -10   67.45    3.58
  -5   3 -10   61.35    3.27
  -5   3  -9   87.89    3.89
  -5   3  -9   84.66    3.65
  -5   3  -8    0.08    2.16
  -5   3  -8   -0.03    2.01
  -5   3  -7  136.40    4.87
  -5   3  -7  141.48    5.04
  -5   3  -6   35.80    2.28
  -5   3  -6   35.90    2.47
  -5   3  -5   -0.55    1.94
  -5   3  -5    1.66    1.64
  -5   3  -4  223.22    7.38
  -5   3  -4  236.94    7.50
  -5   3  -3   31.64    2.00
  -5   3  -3   33.15    2.17
  -5   3  -2   92.37    3.48
  -5   3  -2   92.61    3.52
  -5   3  -1  228.68    7.37
  -5   3  -1  237.55    7.49
  -5   3  -1  226.16    7.42
  -5   3   0    1.51    1.64
  -5   3   0    0.71    1.35
  -5   3   0    2.65    1.69
  -5   3   1  156.35    5.22
  -5   3   1  145.21    5.02
  -5   3   1  158.46    5.26
  -5   3   2   80.17    3.01
  -5   3   2   85.05    3.34
  -5   3   3   11.67    1.90
  -5   3   3   10.52    1.41
  -5   3   3   11.72    1.86
  -5   3   4  117.58    4.01
  -5   3   4  107.04    4.08
  -5   3   5   79.20    3.57
  -5   3   5   91.28    3.60
  -5   3   6    1.79    2.17
  -5   3   6   -0.20    2.21
  -5   3   7   76.91    3.79
  -5   3   7   92.59    3.79
  -5   3   8    4.45    2.62
  -5   3   8    6.45    2.50
  -5   3   9   19.97    2.81
  -5   3   9    8.75    2.87
  -5   3  10   16.78    3.16
  -5   3  10   20.81    3.01
  -5   3  11    1.48    3.00
  -5   4  -9   74.00    3.46
  -5   4  -8    2.04    2.16
  -5   4  -7   46.40    2.64
  -5   4  -6   93.93    3.67
  -5   4  -5    2.05    1.87
  -5   4  -4   74.45    3.14
  -5   4  -4   79.68    3.36
  -5   4  -3   74.20    3.20
  -5   4  -3   71.41    3.05
  -5   4  -2   -0.50    1.92
  -5   4  -2    0.55    1.75
  -5   4  -1   64.65    2.89
  -5   4  -1   65.83    3.00
  -5   4   0   47.07    2.54
  -5   4   0   49.24    2.64
  -5   4   1   43.19    2.57
  -5   4   1   46.87    2.55
  -5   4   2    1.94    1.47
  -5   4   2    2.81    2.02
  -5   4   2    1.73    1.95
  -5   4   3   21.03    1.68
  -5   4   3   22.31    2.26
  -5   4   4   10.97    1.55
  -5   4   4   14.17    2.24
  -5   4   5   50.35    3.10
  -5   4   5   60.09    3.10
  -5   4   6    2.27    2.34
  -5   4   6    1.11    2.35
  -5   4   7   43.40    3.18
  -5   4   7   52.22    3.19
  -5   4   8   12.10    2.88
  -5   4   8   12.59    2.79
  -5   4   8   13.77    2.40
  -5   4   9    0.66    3.03
  -5   4   9   -0.16    2.28
  -5   5  -8   42.12    2.73
  -5   5  -7    2.22    2.19
  -5   5  -6  145.68    5.35
  -5   5  -6  163.91    5.59
  -5   5  -5   26.03    2.32
  -5   5  -4   38.32    2.48
  -5   5  -3  139.67    4.96
  -5   5  -2    2.16    1.99
  -5   5  -1   24.38    2.29
  -5   5   0  213.98    7.23
  -5   5   1    2.38    2.24
  -5   5   2  146.62    5.51
  -5   5   2  158.11    5.47
  -5   5   3   16.46    2.44
  -5   5   3   14.07    2.47
  -5   5   4    5.60    2.38
  -5   5   5   16.53    2.72
  -5   5   6   28.19    3.04
  -5   5   6   30.04    2.66
  -5   5   6   29.89    2.95
  -5   5   7   15.12    2.90
  -5   5   7   12.80    2.94
  -5   5   7   14.90    2.56
  -5   5   8   25.57    3.25
  -5   5   8   23.46    2.50
  -5   5   8   25.15    3.15
  -5   6  -8   61.59    3.79
  -5   6  -7    7.78    2.93
  -5   6  -6  112.11    4.45
  -5   6  -6  122.78    4.87
  -5   6  -5   31.58    2.57
  -5   6  -5   31.64    2.57
  -5   6  -5   29.64    2.96
  -5   6  -4    0.90    2.50
  -5   6  -4    1.93    2.37
  -5   6  -4    0.92    2.22
  -5   6  -3   85.02    3.69
  -5   6  -3   85.19    3.93
  -5   6  -2   25.90    2.47
  -5   6  -2   22.10    2.65
  -5   6  -1   13.43    2.36
  -5   6  -1   12.56    2.50
  -5   6   0   96.89    4.13
  -5   6   1    4.43    2.42
  -5   6   2   65.15    3.37
  -5   6   3   36.48    2.84
  -5   6   3   37.29    2.96
  -5   6   4    2.10    2.45
  -5   6   4   -1.39    2.67
  -5   6   5   62.40    3.27
  -5   6   6   55.03    3.13
  -5   6   7    7.25    3.10
  -5   7  -6    2.53    3.07
  -5   7  -5   80.85    4.10
  -5   7  -5   77.11    3.67
  -5   7  -4   23.99    2.67
  -5   7  -4   23.59    2.95
  -5   7  -4   20.97    2.62
  -5   7  -3   72.90    3.63
  -5   7  -3   75.03    3.84
  -5   7  -3   74.95    3.62
  -5   7  -2   80.90    3.89
  -5   7  -2   89.34    3.88
  -5   7  -2   88.17    4.13
  -5   7  -1   12.80    2.73
  -5   7  -1   14.65    2.62
  -5   7  -1   11.21    2.51
  -5   7   0   36.11    2.87
  -5   7   0   38.39    3.11
  -5   7   0   43.04    3.17
  -5   7   1   35.17    3.07
  -5   7   1   41.12    3.10
  -5   7   2   -0.14    2.69
  -5   7   2   -0.79    2.75
  -5   7   3   81.49    4.24
  -5   7   3   95.11    4.24
  -5   7   4    4.48    2.92
  -5   7   5   23.82    3.25
  -5   8  -3   -1.38    3.03
  -5   8  -3   -1.51    2.80
  -5   8  -2   71.57    3.75
  -5   8  -2   74.53    4.09
  -5   8  -1   17.15    2.89
  -5   8  -1   15.86    3.05
  -5   8   0   14.64    3.07
  -5   8   0   15.69    3.20
  -5   8   1   44.98    3.55
  -5   8   1   50.08    3.51
  -5   8   2   12.49    3.05
  -5   8   2   10.45    3.10
  -5   8   3   30.96    3.36
  -5   9  -2   38.46    3.33
  -5   9  -1   32.31    3.29
  -4 -12  -4   -1.73    2.99
  -4 -12   1    0.66    2.74
  -4 -12   2   15.96    3.02
  -4 -11  -6   24.92    3.43
  -4 -11  -6   26.46    3.27
  -4 -11  -5    3.87    2.85
  -4 -11  -5    2.25    3.16
  -4 -11  -4    1.19    3.10
  -4 -11  -4    0.15    2.72
  -4 -11  -3   29.50    3.32
  -4 -11  -3   24.66    2.79
  -4 -11  -2    5.22    3.09
  -4 -11  -2    5.08    2.44
  -4 -11  -1    5.38    2.27
  -4 -11   0   20.74    2.54
  -4 -11   1    5.23    2.46
  -4 -11   1    5.90    3.04
  -4 -11   2   16.93    2.68
  -4 -11   2   23.89    3.20
  -4 -11   3    0.42    2.60
  -4 -11   3    4.00    3.03
  -4 -11   4    6.48    3.12
  -4 -11   4    6.56    2.76
  -4 -11   5   27.43    3.36
  -4 -10  -8    0.20    3.08
  -4 -10  -7   -2.20    2.92
  -4 -10  -7    3.73    2.98
  -4 -10  -6    9.04    2.96
  -4 -10  -6    6.88    2.75
  -4 -10  -5   24.38    2.82
  -4 -10  -5   20.12    2.95
  -4 -10  -4   12.58    2.52
  -4 -10  -4   10.31    2.80
  -4 -10  -3   15.89    2.74
  -4 -10  -3   15.99    2.38
  -4 -10  -2    8.37    2.00
  -4 -10  -2   11.07    2.22
  -4 -10  -2    9.47    2.66
  -4 -10  -1    6.05    2.05
  -4 -10  -1    5.06    2.04
  -4 -10   0   38.23    2.31
  -4 -10   0   28.30    2.48
  -4 -10   1    2.30    2.11
  -4 -10   1    5.11    2.57
  -4 -10   2   13.05    2.67
  -4 -10   2    8.37    2.31
  -4 -10   3   30.45    2.88
  -4 -10   3   27.29    2.58
  -4 -10   4    2.73    2.34
  -4 -10   4   -0.85    2.70
  -4 -10   5   98.74    4.29
  -4 -10   5   83.04    4.21
  -4 -10   6    1.57    2.66
  -4 -10   6   -0.44    2.82
  -4 -10   7    5.60    2.91
  -4  -9  -9    0.37    2.96
  -4  -9  -8    5.79    2.83
  -4  -9  -8    6.59    2.83
  -4  -9  -7   31.68    2.97
  -4  -9  -7   34.28    2.95
  -4  -9  -6    2.22    2.48
  -4  -9  -6    3.64    2.51
  -4  -9  -5   38.37    2.84
  -4  -9  -5   43.31    2.83
  -4  -9  -4    2.07    1.52
  -4  -9  -4    3.08    2.19
  -4  -9  -4    4.93    2.30
  -4  -9  -3    2.11    2.34
  -4  -9  -3    1.13    2.02
  -4  -9  -3    0.63    1.61
  -4  -9  -2   34.03    2.26
  -4  -9  -2   42.06    2.82
  -4  -9  -2   43.71    2.42
  -4  -9  -1    6.51    1.81
  -4  -9  -1    4.49    1.76
  -4  -9   0   52.83    2.81
  -4  -9   0   64.13    2.69
  -4  -9   1   16.37    2.03
  -4  -9   1   17.35    1.75
  -4  -9   1   18.72    2.50
  -4  -9   2   27.72    2.59
  -4  -9   2   25.19    2.24
  -4  -9   3   46.69    2.71
  -4  -9   3   55.31    2.95
  -4  -9   4   39.68    2.73
  -4  -9   4   35.47    2.58
  -4  -9   5   56.16    3.18
  -4  -9   5   62.58    3.23
  -4  -9   6   50.79    3.09
  -4  -9   6   45.08    3.04
  -4  -9   7   -0.79    2.51
  -4  -9   7   -1.24    2.63
  -4  -8  -9   -0.50    2.61
  -4  -8  -9    0.11    2.75
  -4  -8  -8  103.62    4.28
  -4  -8  -8   93.19    4.11
  -4  -8  -7    6.38    2.26
  -4  -8  -7    4.36    2.30
  -4  -8  -6    6.97    2.13
  -4  -8  -6    8.72    2.36
  -4  -8  -5   41.42    2.61
  -4  -8  -5   41.06    2.38
  -4  -8  -4   51.89    2.71
  -4  -8  -4   47.18    2.47
  -4  -8  -3    2.27    1.99
  -4  -8  -3    1.05    1.72
  -4  -8  -3    2.33    1.55
  -4  -8  -2  145.93    4.80
  -4  -8  -2  132.02    4.82
  -4  -8  -2  144.23    5.02
  -4  -8  -1   13.00    1.71
  -4  -8  -1   14.16    1.65
  -4  -8   0    3.99    1.71
  -4  -8   0    4.41    1.49
  -4  -8   1  151.38    4.78
  -4  -8   1  135.24    5.08
  -4  -8   1  136.32    4.97
  -4  -8   2    4.68    1.32
  -4  -8   2    3.04    1.72
  -4  -8   2    3.15    2.01
  -4  -8   3   44.53    2.51
  -4  -8   3   38.64    1.76
  -4  -8   3   44.37    2.39
  -4  -8   4   55.05    2.83
  -4  -8   4   48.94    2.72
  -4  -8   5    6.31    2.02
  -4  -8   5    6.88    2.24
  -4  -8   6  122.07    4.70
  -4  -8   6  126.87    4.64
  -4  -8   7   52.08    2.95
  -4  -8   8   28.30    2.72
  -4  -8   8   30.94    2.66
  -4  -8   9   53.30    3.49
  -4  -7 -11    1.42    3.08
  -4  -7 -10   32.44    2.98
  -4  -7  -9   31.65    2.57
  -4  -7  -8   27.15    2.47
  -4  -7  -8   25.70    2.48
  -4  -7  -7   19.53    2.22
  -4  -7  -7   17.36    1.95
  -4  -7  -7   21.75    2.26
  -4  -7  -6    3.16    1.23
  -4  -7  -6    5.70    1.95
  -4  -7  -6    6.62    1.98
  -4  -7  -5   43.13    2.31
  -4  -7  -5   44.62    2.31
  -4  -7  -4   51.52    2.36
  -4  -7  -4   51.38    2.48
  -4  -7  -3    8.99    1.59
  -4  -7  -3    7.79    1.37
  -4  -7  -3    9.62    1.82
  -4  -7  -2  101.38    3.55
  -4  -7  -2  105.98    3.75
  -4  -7  -2   92.74    3.52
  -4  -7  -1   62.41    2.68
  -4  -7  -1   72.90    2.66
  -4  -7   0   19.56    1.64
  -4  -7   0   20.74    1.50
  -4  -7   1  225.39    7.25
  -4  -7   1  223.88    7.01
  -4  -7   1  216.56    7.17
  -4  -7   2   54.16    2.12
  -4  -7   2   54.51    2.45
  -4  -7   2   55.49    2.63
  -4  -7   3   39.89    1.72
  -4  -7   3   45.55    2.40
  -4  -7   3   41.05    2.26
  -4  -7   4   97.97    3.15
  -4  -7   4  102.73    3.09
  -4  -7   5   63.57    2.85
  -4  -7   5   57.18    2.76
  -4  -7   6   41.15    2.44
  -4  -7   7   73.97    3.45
  -4  -7   7   83.19    3.44
  -4  -7   8    1.40    2.04
  -4  -7   8   -0.44    2.20
  -4  -7   9   14.26    2.53
  -4  -7  10   16.16    2.75
  -4  -6 -12   12.80    3.11
  -4  -6 -11    3.10    2.73
  -4  -6 -10   42.98    3.00
  -4  -6  -9   29.11    2.55
  -4  -6  -9   29.09    2.37
  -4  -6  -8    1.32    1.94
  -4  -6  -8    1.55    1.67
  -4  -6  -7   55.08    2.33
  -4  -6  -7   69.28    2.76
  -4  -6  -6   70.33    2.96
  -4  -6  -6   70.45    2.99
  -4  -6  -5   10.06    1.32
  -4  -6  -5   12.46    1.78
  -4  -6  -5   12.05    1.65
  -4  -6  -4  131.88    4.53
  -4  -6  -4  126.72    4.37
  -4  -6  -4  134.24    4.46
  -4  -6  -3   10.98    1.64
  -4  -6  -3   11.67    1.48
  -4  -6  -3   11.67    1.34
  -4  -6  -2    1.57    1.53
  -4  -6  -2    1.62    1.19
  -4  -6  -2    0.70    1.35
  -4  -6  -1   72.62    2.70
  -4  -6  -1   74.99    2.75
  -4  -6  -1   66.05    2.68
  -4  -6   0   46.77    2.04
  -4  -6   0   41.37    2.05
  -4  -6   0   45.99    1.98
  -4  -6   1    6.01    1.37
  -4  -6   1    5.53    1.55
  -4  -6   1    6.13    1.38
  -4  -6   1    5.21    1.21
  -4  -6   2  194.22    6.29
  -4  -6   2  215.56    6.48
  -4  -6   2  200.12    6.54
  -4  -6   2  195.91    6.49
  -4  -6   3   -0.30    0.95
  -4  -6   3    0.55    1.36
  -4  -6   3   -0.89    1.57
  -4  -6   4   60.89    2.18
  -4  -6   4   82.83    2.82
  -4  -6   4   62.86    2.16
  -4  -6   4   78.80    2.74
  -4  -6   5   22.23    1.33
  -4  -6   5   28.06    1.95
  -4  -6   6    2.94    1.75
  -4  -6   6    2.72    1.68
  -4  -6   7   88.76    3.42
  -4  -6   7   86.51    3.52
  -4  -6   8   66.44    2.94
  -4  -6   8   66.61    3.13
  -4  -6   9   27.03    2.43
  -4  -6  10   40.80    2.91
  -4  -6  11    6.79    2.73
  -4  -5 -12   22.75    3.00
  -4  -5 -11   32.50    2.88
  -4  -5 -10    3.95    2.35
  -4  -5  -9   29.11    2.14
  -4  -5  -9   32.82    2.39
  -4  -5  -8   35.88    2.34
  -4  -5  -8   36.30    2.18
  -4  -5  -7   60.83    2.49
  -4  -5  -7   48.81    2.03
  -4  -5  -6  118.19    4.16
  -4  -5  -5    1.83    1.45
  -4  -5  -5    1.69    1.52
  -4  -5  -4  215.16    7.14
  -4  -5  -4  232.53    7.15
  -4  -5  -3   82.48    3.06
  -4  -5  -3   83.42    3.02
  -4  -5  -2   12.49    1.23
  -4  -5  -2   11.78    1.38
  -4  -5  -1  357.07   11.07
  -4  -5  -1  342.63   11.14
  -4  -5  -1  372.24   11.12
  -4  -5   0  126.10    4.12
  -4  -5   0  122.38    3.99
  -4  -5   0  117.48    4.06
  -4  -5   1   27.51    1.70
  -4  -5   1   32.13    1.46
  -4  -5   1   29.25    1.59
  -4  -5   2  184.63    6.10
  -4  -5   2  185.84    6.10
  -4  -5   2  192.88    5.93
  -4  -5   3  106.04    2.38
  -4  -5   3  104.71    2.74
  -4  -5   3  109.08    2.80
  -4  -5   4   16.20    0.99
  -4  -5   4   14.59    0.94
  -4  -5   4   18.77    1.60
  -4  -5   5  130.84    3.76
  -4  -5   5  102.42    3.25
  -4  -5   5  118.08    3.41
  -4  -5   5   94.10    3.24
  -4  -5   6   13.61    1.64
  -4  -5   6   12.10    1.63
  -4  -5   6   12.14    1.28
  -4  -5   7   24.69    2.06
  -4  -5   7   23.57    1.85
  -4  -5   7   20.56    1.61
  -4  -5   8   27.81    2.16
  -4  -5   8   27.76    1.93
  -4  -5   9   -1.58    1.99
  -4  -5  10   21.34    2.36
  -4  -5  11   14.12    2.47
  -4  -5  12    7.86    2.69
  -4  -4 -13    0.94    2.94
  -4  -4 -12   28.12    2.91
  -4  -4 -11   25.53    2.67
  -4  -4 -10    0.19    2.12
  -4  -4  -9  118.28    4.15
  -4  -4  -9  103.07    3.90
  -4  -4  -8   65.79    2.89
  -4  -4  -8   66.72    2.79
  -4  -4  -8   67.10    2.52
  -4  -4  -7   41.16    1.83
  -4  -4  -7   44.73    2.15
  -4  -4  -7   51.08    2.30
  -4  -4  -6   76.93    2.85
  -4  -4  -6   69.03    2.81
  -4  -4  -5  105.69    3.60
  -4  -4  -5   99.65    3.53
  -4  -4  -4   32.41    1.67
  -4  -4  -4   28.72    1.65
  -4  -4  -3  354.51   10.99
  -4  -4  -2    1.50    1.06
  -4  -4  -1  117.11    3.82
  -4  -4   0   23.28    1.23
  -4  -4   1    3.18    1.05
  -4  -4   1    3.03    0.90
  -4  -4   2   53.85    2.09
  -4  -4   2   49.12    1.86
  -4  -4   3  108.11    3.36
  -4  -4   3   99.22    3.41
  -4  -4   4   11.01    0.92
  -4  -4   4   11.73    0.87
  -4  -4   4   12.50    1.38
  -4  -4   5  245.48    7.98
  -4  -4   5  266.24    7.95
  -4  -4   5  258.81    7.95
  -4  -4   5  258.49    8.16
  -4  -4   5  263.14    8.24
  -4  -4   6   11.59    1.51
  -4  -4   6   10.28    0.84
  -4  -4   6    9.43    1.42
  -4  -4   6    9.64    1.16
  -4  -4   6    9.82    0.86
  -4  -4   7   15.87    0.84
  -4  -4   7   13.88    1.36
  -4  -4   7   14.02    1.66
  -4  -4   7   13.97    0.82
  -4  -4   7   14.50    1.60
  -4  -4   8  108.46    3.70
  -4  -4   8  114.89    3.98
  -4  -4   9   21.33    1.73
  -4  -4   9   20.35    1.97
  -4  -4  10   45.58    2.68
  -4  -4  11   35.30    2.70
  -4  -4  12   -0.06    2.48
  -4  -4  13   10.66    2.76
  -4  -3 -13   25.22    3.06
  -4  -3 -12    0.81    2.59
  -4  -3 -11   45.61    2.88
  -4  -3 -10   10.49    2.11
  -4  -3  -9   13.36    1.66
  -4  -3  -9   20.26    2.15
  -4  -3  -8  126.47    4.13
  -4  -3  -8  116.97    4.19
  -4  -3  -8  126.45    4.39
  -4  -3  -7    9.38    1.23
  -4  -3  -7    7.52    1.57
  -4  -3  -6  209.41    6.24
  -4  -3  -6  182.45    6.07
  -4  -3  -3  481.89   14.80
  -4  -3  -2  347.10   10.48
  -4  -3  -2  334.68   10.58
  -4  -3  -1   66.47    2.50
  -4  -3  -1   75.33    2.31
  -4  -3   0  391.99   10.36
  -4  -3   0  377.13   10.39
  -4  -3   1  148.28    3.88
  -4  -3   1  154.43    3.98
  -4  -3   2   58.79    1.97
  -4  -3   2   51.08    1.82
  -4  -3   3   99.43    3.12
  -4  -3   3   90.69    3.10
  -4  -3   4   12.99    1.01
  -4  -3   4   12.60    1.15
  -4  -3   4   12.42    1.30
  -4  -3   5   33.53    1.47
  -4  -3   5   34.49    1.43
  -4  -3   5   30.82    1.71
  -4  -3   5   33.05    1.52
  -4  -3   5   28.84    1.63
  -4  -3   6   31.00    1.61
  -4  -3   6   33.98    1.51
  -4  -3   6   34.06    1.48
  -4  -3   6   31.78    1.85
  -4  -3   7    2.79    1.08
  -4  -3   7    2.28    1.42
  -4  -3   7    2.87    1.39
  -4  -3   7    3.35    1.11
  -4  -3   7    2.67    1.32
  -4  -3   8   68.40    2.77
  -4  -3   8   72.13    2.87
  -4  -3   8   66.42    2.98
  -4  -3   9    9.68    1.78
  -4  -3   9    9.51    1.49
  -4  -3  10   13.90    2.02
  -4  -3  11   41.90    2.60
  -4  -3  12    5.80    2.26
  -4  -2 -14   34.31    3.37
  -4  -2 -13   40.65    3.28
  -4  -2 -12    1.44    2.45
  -4  -2 -11   75.00    3.48
  -4  -2 -10   91.65    3.81
  -4  -2  -9    2.92    1.87
  -4  -2  -9    2.48    1.49
  -4  -2  -9    1.80    1.41
  -4  -2  -8  234.00    7.44
  -4  -2  -8  234.96    7.56
  -4  -2  -7  157.02    5.10
  -4  -2  -7  157.94    5.23
  -4  -2  -6   60.49    2.40
  -4  -2  -6   66.53    2.54
  -4  -2  -6   69.88    2.57
  -4  -2  -6   67.73    2.53
  -4  -2  -5  137.00    4.67
  -4  -2  -5  152.41    4.70
  -4  -2  -5  146.49    4.73
  -4  -2  -5  147.24    4.74
  -4  -2  -4  108.45    3.42
  -4  -2  -4   98.55    3.46
  -4  -2  -3   34.95    1.40
  -4  -2  -2  457.20   14.75
  -4  -2  -2  497.69   14.69
  -4  -2  -1    1.22    0.88
  -4  -2  -1    1.01    0.67
  -4  -2   0  222.44    7.05
  -4  -2   0  227.96    7.07
  -4  -2   0  229.24    6.99
  -4  -2   1  344.64   10.70
  -4  -2   1  354.55   10.72
  -4  -2   1  346.66   10.65
  -4  -2   2   91.04    3.08
  -4  -2   2   95.28    3.05
  -4  -2   3  314.39    9.92
  -4  -2   3  330.72    9.94
  -4  -2   4   82.37    2.71
  -4  -2   4   76.36    2.80
  -4  -2   4   79.13    2.71
  -4  -2   5    8.12    1.10
  -4  -2   5    7.63    1.26
  -4  -2   5    7.48    1.27
  -4  -2   5    7.13    1.04
  -4  -2   6  305.23    9.00
  -4  -2   6  274.24    9.09
  -4  -2   6  259.28    9.10
  -4  -2   6  308.42    9.02
  -4  -2   7  105.28    3.36
  -4  -2   7   87.60    3.52
  -4  -2   7   83.89    3.50
  -4  -2   7  109.90    3.41
  -4  -2   8   58.24    2.60
  -4  -2   8   52.51    2.57
  -4  -2   8   69.13    2.43
  -4  -2   8   68.00    2.51
  -4  -2   9   98.77    3.84
  -4  -2   9  103.22    4.11
  -4  -2  10    9.23    1.77
  -4  -2  11   30.86    2.26
  -4  -2  12   52.72    2.92
  -4  -1 -13   19.35    2.88
  -4  -1 -12   26.26    2.70
  -4  -1 -11   16.60    2.43
  -4  -1 -10   98.20    3.92
  -4  -1  -9    3.66    1.82
  -4  -1  -9    3.35    1.55
  -4  -1  -8   45.73    2.11
  -4  -1  -8   44.22    2.28
  -4  -1  -8   42.56    2.30
  -4  -1  -7  237.57    7.91
  -4  -1  -7  261.01    7.97
  -4  -1  -7  253.43    7.96
  -4  -1  -7  249.83    7.90
  -4  -1  -6   21.60    1.46
  -4  -1  -6   20.85    1.50
  -4  -1  -6   21.76    1.54
  -4  -1  -6   21.63    1.43
  -4  -1  -5  445.93   13.76
  -4  -1  -5  463.31   13.76
  -4  -1  -5  448.59   13.78
  -4  -1  -5  431.57   13.76
  -4  -1  -4  211.01    6.74
  -4  -1  -4  216.35    6.75
  -4  -1  -4  216.87    6.71
  -4  -1  -4  214.01    6.73
  -4  -1  -3    7.07    0.94
  -4  -1  -3    6.17    0.94
  -4  -1  -2  375.44   11.52
  -4  -1  -1  397.23   12.84
  -4  -1  -1  437.22   12.82
  -4  -1   0  106.20    3.59
  -4  -1   0  114.39    3.57
  -4  -1   1  303.92    9.30
  -4  -1   1  299.08    9.28
  -4  -1   1  302.39    9.32
  -4  -1   2    0.31    0.93
  -4  -1   2    0.12    0.91
  -4  -1   2   -0.30    0.76
  -4  -1   3   88.49    3.03
  -4  -1   3   90.96    3.04
  -4  -1   4  113.20    3.65
  -4  -1   4  106.35    3.65
  -4  -1   4  106.22    3.58
  -4  -1   5    1.47    1.28
  -4  -1   5    2.53    1.13
  -4  -1   5    2.27    1.14
  -4  -1   6  245.94    8.05
  -4  -1   6  263.99    7.98
  -4  -1   6  267.57    7.94
  -4  -1   7    2.91    1.34
  -4  -1   7    1.38    1.56
  -4  -1   7    1.34    1.28
  -4  -1   7    0.57    1.30
  -4  -1   8    2.70    1.77
  -4  -1   8    4.30    1.44
  -4  -1   8    2.61    1.41
  -4  -1   8    4.89    1.47
  -4  -1   9   65.79    3.14
  -4  -1   9   61.69    2.79
  -4  -1  10   37.44    2.64
  -4  -1  10   33.25    2.20
  -4  -1  11   10.37    1.93
  -4  -1  11   11.13    2.50
  -4  -1  12   94.99    4.29
  -4  -1  13    1.28    2.97
  -4  -1  13    1.73    2.57
  -4   0 -12   62.37    3.28
  -4   0 -11    0.40    2.29
  -4   0 -10   78.67    3.39
  -4   0  -9   40.27    2.42
  -4   0  -9   40.96    2.42
  -4   0  -9   45.24    2.30
  -4   0  -8    8.96    1.73
  -4   0  -8    8.92    1.57
  -4   0  -8    7.35    1.66
  -4   0  -7   59.78    2.53
  -4   0  -7   64.43    2.57
  -4   0  -7   65.53    2.56
  -4   0  -6  203.29    6.30
  -4   0  -6  198.60    6.28
  -4   0  -6  187.32    6.27
  -4   0  -6  195.18    6.26
  -4   0  -5   41.16    1.81
  -4   0  -5   41.36    1.83
  -4   0  -5   40.23    1.80
  -4   0  -5   39.27    1.81
  -4   0  -4  145.68    4.65
  -4   0  -4  141.12    4.63
  -4   0  -4  138.04    4.58
  -4   0  -4  149.06    4.65
  -4   0  -3   12.25    1.10
  -4   0  -3   11.16    1.08
  -4   0  -3   11.93    1.02
  -4   0  -3   13.58    1.11
  -4   0  -2    9.13    0.91
  -4   0  -2   10.48    1.06
  -4   0  -1  382.42   11.77
  -4   0   0   21.09    1.24
  -4   0   1  125.28    4.17
  -4   0   1  127.43    4.03
  -4   0   1  131.37    4.15
  -4   0   2  346.06   10.62
  -4   0   2  343.45   10.51
  -4   0   2  339.35   10.61
  -4   0   3    8.90    1.22
  -4   0   3   10.14    1.23
  -4   0   3   10.89    1.16
  -4   0   4  406.90   12.24
  -4   0   4  391.20   12.28
  -4   0   4  391.81   12.28
  -4   0   5   67.13    2.45
  -4   0   5   60.70    2.54
  -4   0   5   61.62    2.47
  -4   0   6   68.22    2.53
  -4   0   6   65.42    2.57
  -4   0   6   56.94    2.66
  -4   0   7   34.62    2.16
  -4   0   7   40.55    2.02
  -4   0   7   39.74    1.99
  -4   0   7   32.10    1.82
  -4   0   8   88.95    3.53
  -4   0   8  101.18    3.31
  -4   0   9   43.38    2.32
  -4   0   9   51.93    2.83
  -4   0  10   32.97    2.62
  -4   0  10   30.11    2.16
  -4   0  11   -0.59    2.52
  -4   0  11    1.69    1.94
  -4   0  12   13.39    2.92
  -4   0  12   15.25    2.45
  -4   0  13   26.65    2.69
  -4   1 -12   47.23    3.06
  -4   1 -11   15.87    2.40
  -4   1 -10   41.09    2.72
  -4   1 -10   43.51    2.63
  -4   1  -9  104.26    3.89
  -4   1  -9  104.45    4.02
  -4   1  -8    6.61    1.74
  -4   1  -8    6.77    1.64
  -4   1  -7  116.53    4.02
  -4   1  -7  113.03    3.99
  -4   1  -7  114.90    4.03
  -4   1  -6  136.01    4.50
  -4   1  -6  131.64    4.44
  -4   1  -6  133.28    4.49
  -4   1  -5    8.30    1.30
  -4   1  -5    6.95    1.21
  -4   1  -5    6.87    1.31
  -4   1  -4  349.80   10.77
  -4   1  -4  335.30   10.72
  -4   1  -4  346.20   10.76
  -4   1  -4  353.81   10.70
  -4   1  -3  176.21    5.52
  -4   1  -3  168.59    5.49
  -4   1  -3  171.15    5.43
  -4   1  -3  174.14    5.54
  -4   1  -2   25.76    1.17
  -4   1  -2   25.69    1.49
  -4   1  -2   22.72    1.36
  -4   1  -1  421.75   13.42
  -4   1  -1  446.45   13.45
  -4   1  -1  439.03   13.31
  -4   1   0   39.93    1.77
  -4   1   1  124.62    4.14
  -4   1   2  347.05   10.81
  -4   1   2  347.90   10.63
  -4   1   2  359.90   10.78
  -4   1   2  336.25   10.80
  -4   1   3   47.63    1.68
  -4   1   3   47.96    2.07
  -4   1   3   47.53    2.08
  -4   1   3   49.10    2.03
  -4   1   4   99.97    3.72
  -4   1   4  114.38    3.66
  -4   1   4  103.43    3.68
  -4   1   5  158.55    4.90
  -4   1   5  143.41    4.94
  -4   1   5  141.72    4.95
  -4   1   6    4.40    1.49
  -4   1   6    4.10    1.69
  -4   1   7  252.57    8.51
  -4   1   7  273.57    8.41
  -4   1   8   14.20    2.10
  -4   1   8   12.02    1.50
  -4   1   9   28.91    2.44
  -4   1   9   25.56    1.82
  -4   1  10   27.37    2.69
  -4   1  10   24.62    1.99
  -4   1  11   19.61    2.82
  -4   1  11   29.97    2.17
  -4   1  12   -3.04    2.91
  -4   2 -11   18.04    2.37
  -4   2 -10   -0.18    2.29
  -4   2 -10    2.03    2.09
  -4   2  -9  100.23    3.79
  -4   2  -9  101.25    3.99
  -4   2  -8    4.26    1.69
  -4   2  -8    3.66    1.84
  -4   2  -7  113.36    4.09
  -4   2  -7  115.94    4.00
  -4   2  -6    3.85    1.49
  -4   2  -6    5.12    1.41
  -4   2  -6    6.47    1.52
  -4   2  -5   64.17    2.63
  -4   2  -5   62.58    2.50
  -4   2  -5   66.00    2.59
  -4   2  -4   87.99    3.18
  -4   2  -4   93.37    3.28
  -4   2  -4   92.83    3.30
  -4   2  -3  240.90    7.41
  -4   2  -3  226.31    7.33
  -4   2  -2   62.06    2.37
  -4   2  -2   62.89    2.46
  -4   2  -1  168.44    5.40
  -4   2  -1  176.94    5.46
  -4   2  -1  158.30    5.37
  -4   2  -1  168.25    5.22
  -4   2   0  135.99    4.26
  -4   2   0  136.51    4.45
  -4   2   0  138.13    4.55
  -4   2   0  141.21    4.54
  -4   2   1   18.05    0.77
  -4   2   1   17.63    1.49
  -4   2   2  445.58   13.80
  -4   2   3   53.82    2.30
  -4   2   3   56.32    2.25
  -4   2   3   53.29    2.30
  -4   2   3   51.90    1.73
  -4   2   4   49.05    2.16
  -4   2   4   46.18    2.26
  -4   2   4   46.79    2.23
  -4   2   5  202.96    6.31
  -4   2   5  184.58    6.38
  -4   2   6   38.10    2.29
  -4   2   6   41.84    2.17
  -4   2   7  178.97    5.56
  -4   2   7  161.64    5.93
  -4   2   8   31.35    2.50
  -4   2   8   36.39    1.75
  -4   2   9   -0.16    1.42
  -4   2   9    0.07    2.31
  -4   2   9    0.14    1.48
  -4   2  10   73.27    2.83
  -4   2  10   56.41    3.54
  -4   2  11    8.12    2.85
  -4   2  12    2.14    3.05
  -4   3 -10    2.03    2.09
  -4   3  -9   51.00    2.61
  -4   3  -8   75.94    3.13
  -4   3  -7   -0.64    1.58
  -4   3  -6  144.76    4.86
  -4   3  -5  101.78    3.59
  -4   3  -4   52.98    2.26
  -4   3  -3  212.30    6.74
  -4   3  -3  210.61    6.77
  -4   3  -3  210.26    6.83
  -4   3  -2   25.29    1.62
  -4   3  -2   27.38    1.59
  -4   3  -2   28.87    1.78
  -4   3  -1   16.19    1.33
  -4   3  -1   15.94    1.60
  -4   3  -1   15.19    1.46
  -4   3  -1   15.91    1.46
  -4   3   0  435.75   13.38
  -4   3   0  419.26   13.47
  -4   3   0  442.36   13.40
  -4   3   0  434.55   13.44
  -4   3   1    7.23    1.16
  -4   3   1    8.14    1.38
  -4   3   1    8.61    1.56
  -4   3   1    7.93    1.39
  -4   3   2  214.90    6.73
  -4   3   2  209.82    6.86
  -4   3   3  236.36    7.54
  -4   3   3  248.26    7.75
  -4   3   4   40.54    2.06
  -4   3   4   35.72    2.13
  -4   3   4   33.33    1.66
  -4   3   5   78.84    3.24
  -4   3   5   78.37    2.50
  -4   3   6  119.55    3.78
  -4   3   6  112.10    4.37
  -4   3   7   18.63    1.30
  -4   3   7   18.58    2.28
  -4   3   7   17.35    1.86
  -4   3   8   67.09    3.25
  -4   3   8   72.45    2.46
  -4   3   9   37.91    2.93
  -4   3   9   41.55    2.53
  -4   3  10   20.35    2.91
  -4   3  11   20.97    3.18
  -4   4 -11   66.61    3.85
  -4   4 -10    1.78    2.60
  -4   4  -9   16.05    2.12
  -4   4  -9   15.41    2.53
  -4   4  -8  112.37    4.11
  -4   4  -7   36.37    2.23
  -4   4  -7   38.85    2.26
  -4   4  -6  329.44   10.35
  -4   4  -5   27.23    1.89
  -4   4  -5   28.56    2.14
  -4   4  -4    3.59    1.52
  -4   4  -3  124.40    4.30
  -4   4  -2  244.60    7.81
  -4   4  -2  251.56    7.82
  -4   4  -2  239.90    7.80
  -4   4  -1    6.49    1.38
  -4   4  -1    6.17    1.61
  -4   4  -1    5.98    1.52
  -4   4   0  346.98   10.77
  -4   4   0  345.50   10.80
  -4   4   0  343.99   10.85
  -4   4   1   81.85    3.00
  -4   4   1   82.35    3.15
  -4   4   1   84.64    3.20
  -4   4   2    5.26    1.64
  -4   4   2    7.00    1.29
  -4   4   3  512.88   15.77
  -4   4   4   36.68    1.78
  -4   4   4   38.14    2.35
  -4   4   5   66.01    2.51
  -4   4   5   68.29    3.13
  -4   4   6  106.43    4.24
  -4   4   7   23.43    2.58
  -4   4   7   27.70    2.23
  -4   4   8   70.38    3.04
  -4   4   8   61.80    3.51
  -4   4   9   94.82    3.62
  -4   4   9   80.72    4.13
  -4   4  10    6.89    2.92
  -4   5 -10   59.71    3.59
  -4   5  -9    3.10    2.69
  -4   5  -8   45.38    2.57
  -4   5  -8   49.91    3.04
  -4   5  -7   93.38    3.90
  -4   5  -7   92.43    3.60
  -4   5  -6   41.64    2.33
  -4   5  -6   44.68    2.41
  -4   5  -6   44.12    2.75
  -4   5  -5  117.20    4.28
  -4   5  -5  125.43    4.58
  -4   5  -5  112.06    4.24
  -4   5  -4   83.03    3.44
  -4   5  -4   82.72    3.48
  -4   5  -4   81.17    3.20
  -4   5  -4   84.24    3.26
  -4   5  -3  101.37    3.70
  -4   5  -3  101.63    3.94
  -4   5  -3  101.91    3.74
  -4   5  -2  206.93    6.76
  -4   5  -1    9.46    1.90
  -4   5   0   94.95    3.49
  -4   5   0   97.31    3.64
  -4   5   1   91.98    3.39
  -4   5   1   96.34    3.63
  -4   5   2   15.64    1.52
  -4   5   2   18.72    2.04
  -4   5   3   82.52    3.13
  -4   5   3   89.86    3.55
  -4   5   4  122.08    4.16
  -4   5   5   11.78    2.03
  -4   5   6   69.04    3.18
  -4   5   7   26.69    2.25
  -4   5   8   15.84    2.20
  -4   5   9   18.64    2.26
  -4   5  10    7.03    3.19
  -4   6  -9    9.78    2.93
  -4   6  -8   24.10    2.90
  -4   6  -7   65.24    3.07
  -4   6  -7   70.76    3.52
  -4   6  -6   19.84    2.10
  -4   6  -6   17.16    2.59
  -4   6  -6   20.15    2.16
  -4   6  -5   54.84    2.80
  -4   6  -5   62.60    2.92
  -4   6  -5   58.92    3.19
  -4   6  -4  107.84    3.97
  -4   6  -4  104.92    4.05
  -4   6  -4  102.43    4.21
  -4   6  -3   -0.22    1.89
  -4   6  -3   -0.13    2.13
  -4   6  -3    0.46    1.91
  -4   6  -2   75.70    3.27
  -4   6  -2   80.66    3.43
  -4   6  -2   71.76    3.39
  -4   6  -1   72.95    3.18
  -4   6  -1   69.14    3.28
  -4   6  -1   71.51    3.40
  -4   6   0    0.25    1.99
  -4   6   0    1.60    2.15
  -4   6   0    1.00    2.08
  -4   6   1   92.83    3.93
  -4   6   1  100.76    3.89
  -4   6   2   28.74    1.94
  -4   6   2   31.79    2.49
  -4   6   2   30.04    2.52
  -4   6   3    8.25    1.57
  -4   6   3   12.92    2.33
  -4   6   3   11.26    2.36
  -4   6   3    9.32    2.08
  -4   6   4  140.63    5.36
  -4   6   4  153.74    5.27
  -4   6   5   19.57    2.21
  -4   6   6   14.28    2.19
  -4   6   7   40.58    2.70
  -4   6   8    6.02    2.15
  -4   6   9   17.57    2.42
  -4   7  -8   11.96    3.05
  -4   7  -7   63.68    3.71
  -4   7  -6   81.91    3.99
  -4   7  -5   62.08    3.09
  -4   7  -5   63.17    3.09
  -4   7  -5   69.25    3.59
  -4   7  -4  115.23    4.35
  -4   7  -4  113.51    4.39
  -4   7  -4  111.52    4.59
  -4   7  -3   17.23    2.57
  -4   7  -3   19.12    2.29
  -4   7  -3   16.52    2.32
  -4   7  -2   38.72    2.65
  -4   7  -2   41.85    2.63
  -4   7  -2   38.14    2.86
  -4   7  -1   92.72    3.94
  -4   7  -1  101.68    4.00
  -4   7  -1   92.29    4.02
  -4   7   0   25.73    2.43
  -4   7   0   25.51    2.59
  -4   7   0   22.01    2.38
  -4   7   1  150.48    5.58
  -4   7   1  154.65    5.68
  -4   7   1  164.33    5.66
  -4   7   2    5.71    2.41
  -4   7   2    6.52    2.47
  -4   7   3    0.91    2.14
  -4   7   3    1.59    2.54
  -4   7   3    2.75    2.47
  -4   7   4    4.36    2.19
  -4   7   4    6.16    2.65
  -4   7   5   23.95    2.88
  -4   7   5   30.07    2.51
  -4   7   6    0.03    2.18
  -4   7   6    2.21    2.99
  -4   7   7   46.45    3.66
  -4   8  -6   31.94    3.34
  -4   8  -5    5.08    2.96
  -4   8  -4    8.35    2.40
  -4   8  -4    6.32    2.80
  -4   8  -4    8.25    2.33
  -4   8  -3   35.00    2.73
  -4   8  -3   34.55    3.14
  -4   8  -3   35.60    2.73
  -4   8  -2   15.29    2.39
  -4   8  -2   14.73    2.51
  -4   8  -2   15.54    2.90
  -4   8  -1   34.20    2.67
  -4   8  -1   32.77    2.98
  -4   8  -1   35.86    2.92
  -4   8   0    7.68    2.53
  -4   8   0    7.86    2.29
  -4   8   0    9.00    2.71
  -4   8   1   18.94    2.76
  -4   8   1   17.50    2.87
  -4   8   2   26.48    2.99
  -4   8   2   27.75    2.95
  -4   8   3    1.46    2.77
  -4   8   3    0.79    2.81
  -4   8   4    6.25    2.96
  -4   8   4    8.05    2.92
  -4   8   5   20.39    3.28
  -4   9  -3   67.29    3.93
  -4   9  -2   -0.63    2.62
  -4   9  -2   -1.94    3.01
  -4   9  -1   13.69    3.08
  -4   9  -1   12.08    3.00
  -4   9   0   16.16    3.10
  -4   9   0   20.21    2.94
  -4   9   1    1.66    2.78
  -4   9   1    1.30    3.03
  -4   9   2   50.46    3.65
  -4   9   2   52.20    3.57
  -4   9   3   -3.36    3.07
  -3 -12  -4   -0.45    2.88
  -3 -12   1    5.17    2.57
  -3 -12   2   21.81    2.93
  -3 -11  -7    8.05    3.37
  -3 -11  -6    7.80    2.98
  -3 -11  -6    7.47    3.27
  -3 -11  -5   64.65    4.01
  -3 -11  -5   56.25    3.56
  -3 -11  -4   14.49    3.23
  -3 -11  -4   12.28    2.77
  -3 -11  -3   43.45    3.08
  -3 -11  -3   40.43    3.46
  -3 -11  -2   49.50    2.99
  -3 -11  -2   48.76    3.52
  -3 -11  -1    0.37    2.13
  -3 -11   0   11.83    2.40
  -3 -11   1   26.24    3.08
  -3 -11   1   22.35    2.62
  -3 -11   2    0.83    2.43
  -3 -11   2    1.14    2.90
  -3 -11   3    5.02    2.56
  -3 -11   3    7.21    3.11
  -3 -11   4   15.73    3.19
  -3 -11   4   17.28    2.87
  -3 -11   5   13.14    3.28
  -3 -11   6    0.82    3.22
  -3 -10  -8    2.29    3.16
  -3 -10  -7   29.00    3.11
  -3 -10  -7   28.88    3.33
  -3 -10  -6   -0.63    2.85
  -3 -10  -6   -0.28    2.69
  -3 -10  -5   18.98    2.68
  -3 -10  -5   15.46    2.87
  -3 -10  -4   26.91    2.93
  -3 -10  -4   24.23    2.59
  -3 -10  -3   10.52    2.69
  -3 -10  -3    8.60    2.26
  -3 -10  -2  155.42    5.10
  -3 -10  -2  146.26    5.41
  -3 -10  -1   10.66    2.04
  -3 -10  -1   14.17    2.11
  -3 -10   0    6.87    2.01
  -3 -10   0    8.26    1.90
  -3 -10   1   73.11    3.48
  -3 -10   1   89.92    3.89
  -3 -10   2   29.29    2.86
  -3 -10   2   23.08    2.39
  -3 -10   3   13.64    2.38
  -3 -10   3   21.08    2.79
  -3 -10   4   58.66    3.35
  -3 -10   4   74.70    3.62
  -3 -10   5    4.95    2.48
  -3 -10   5    7.44    2.79
  -3 -10   6    0.85    2.76
  -3 -10   6    1.25    2.89
  -3 -10   7   83.83    4.20
  -3  -9  -9   38.77    3.34
  -3  -9  -8   11.82    2.89
  -3  -9  -8    9.17    2.79
  -3  -9  -7   91.24    4.04
  -3  -9  -7   89.19    4.05
  -3  -9  -6   14.85    2.48
  -3  -9  -6   16.99    2.54
  -3  -9  -5    9.26    2.45
  -3  -9  -5   10.15    2.25
  -3  -9  -4   55.87    2.83
  -3  -9  -4   61.58    3.03
  -3  -9  -3  138.13    4.79
  -3  -9  -3  133.61    4.58
  -3  -9  -2  104.24    3.73
  -3  -9  -2  101.56    4.01
  -3  -9  -1   63.87    2.68
  -3  -9  -1   50.29    2.59
  -3  -9   0    0.03    1.64
  -3  -9   0   -0.07    1.66
  -3  -9   1   25.55    1.80
  -3  -9   1   20.83    2.34
  -3  -9   1   20.29    2.00
  -3  -9   2   29.82    1.74
  -3  -9   2   28.74    2.46
  -3  -9   2   25.42    2.19
  -3  -9   3    8.91    2.03
  -3  -9   3    8.41    2.32
  -3  -9   4   54.27    3.04
  -3  -9   4   48.93    2.91
  -3  -9   5   -0.10    2.21
  -3  -9   5    3.41    2.35
  -3  -9   6   16.44    2.57
  -3  -9   6   13.68    2.42
  -3  -9   7   28.96    2.86
  -3  -9   7   27.11    2.71
  -3  -9   8    2.26    2.68
  -3  -8  -9   20.79    2.72
  -3  -8  -8    0.66    2.46
  -3  -8  -8   -0.86    2.44
  -3  -8  -7    2.70    2.31
  -3  -8  -7    1.91    2.29
  -3  -8  -6   56.28    2.96
  -3  -8  -6   53.59    2.93
  -3  -8  -5    0.46    1.24
  -3  -8  -5    0.48    1.95
  -3  -8  -5    0.61    2.02
  -3  -8  -4   57.62    2.65
  -3  -8  -4   57.44    2.70
  -3  -8  -3    7.42    1.91
  -3  -8  -3    6.10    1.73
  -3  -8  -3    7.15    1.70
  -3  -8  -3    3.69    1.30
  -3  -8  -2    0.87    1.32
  -3  -8  -2   -0.16    1.59
  -3  -8  -2    0.34    1.82
  -3  -8  -2    1.40    1.59
  -3  -8  -1   75.13    2.84
  -3  -8  -1   66.52    2.80
  -3  -8   0   85.91    3.45
  -3  -8   0   90.97    3.50
  -3  -8   1   30.40    1.98
  -3  -8   1   32.43    2.24
  -3  -8   1   34.18    1.76
  -3  -8   1   28.41    1.92
  -3  -8   2  136.55    4.33
  -3  -8   2  144.91    4.28
  -3  -8   2  117.42    4.55
  -3  -8   2  118.74    4.58
  -3  -8   2  121.99    4.67
  -3  -8   3    3.33    1.67
  -3  -8   3    3.07    1.55
  -3  -8   3    2.52    1.88
  -3  -8   3    3.59    1.04
  -3  -8   4   16.73    2.12
  -3  -8   4   16.10    1.79
  -3  -8   4   18.93    1.99
  -3  -8   5   44.92    2.47
  -3  -8   5   51.65    2.68
  -3  -8   6    3.70    2.06
  -3  -8   6    4.84    1.74
  -3  -8   6    5.59    2.21
  -3  -8   7    2.46    2.23
  -3  -8   8   17.30    2.49
  -3  -8   9    8.59    2.64
  -3  -7 -11   22.05    3.08
  -3  -7 -10    4.51    2.64
  -3  -7  -9   40.00    2.69
  -3  -7  -8   46.81    2.59
  -3  -7  -8   50.92    2.77
  -3  -7  -7    1.88    1.69
  -3  -7  -7    0.05    2.03
  -3  -7  -7    0.48    1.97
  -3  -7  -6  176.68    4.68
  -3  -7  -6  161.46    4.56
  -3  -7  -6  173.37    4.63
  -3  -7  -5   25.80    1.79
  -3  -7  -5   30.64    2.12
  -3  -7  -5   28.75    1.97
  -3  -7  -4   40.94    2.21
  -3  -7  -4   40.59    2.07
  -3  -7  -4   40.89    2.00
  -3  -7  -3   11.57    1.73
  -3  -7  -3   11.70    1.52
  -3  -7  -3   11.07    1.54
  -3  -7  -3    9.36    1.24
  -3  -7  -2  109.41    3.90
  -3  -7  -2  105.05    3.73
  -3  -7  -2  111.87    3.78
  -3  -7  -1  100.79    3.78
  -3  -7  -1  114.89    3.67
  -3  -7  -1   97.44    3.61
  -3  -7  -1  103.64    3.59
  -3  -7   0   52.41    2.19
  -3  -7   0   53.12    2.16
  -3  -7   0   44.71    2.17
  -3  -7   1   30.05    1.71
  -3  -7   1   26.98    1.91
  -3  -7   1   24.34    1.68
  -3  -7   1   29.53    1.55
  -3  -7   2   63.08    2.21
  -3  -7   2   61.80    2.72
  -3  -7   2   61.20    2.60
  -3  -7   2   68.67    2.34
  -3  -7   3   19.39    1.25
  -3  -7   3   18.08    1.85
  -3  -7   3   18.01    1.10
  -3  -7   3   17.53    1.71
  -3  -7   4   22.08    1.44
  -3  -7   4   21.35    1.98
  -3  -7   4   21.43    1.83
  -3  -7   5  199.04    6.89
  -3  -7   5  213.35    6.77
  -3  -7   5  217.20    7.04
  -3  -7   6    5.82    1.51
  -3  -7   6    6.55    1.83
  -3  -7   7   32.79    2.30
  -3  -7   7   24.09    1.86
  -3  -7   8   45.64    2.63
  -3  -7   8   48.71    2.90
  -3  -7   9   10.02    2.38
  -3  -7  10   34.66    2.87
  -3  -6 -12    8.63    3.05
  -3  -6 -11   50.99    3.40
  -3  -6 -10    4.34    2.55
  -3  -6  -9   18.69    2.25
  -3  -6  -9   17.12    2.11
  -3  -6  -8   23.98    2.00
  -3  -6  -8   22.01    1.85
  -3  -6  -7   19.63    1.62
  -3  -6  -7   20.08    1.87
  -3  -6  -6   21.79    1.62
  -3  -6  -6   24.60    1.87
  -3  -6  -6   21.23    1.80
  -3  -6  -6   24.68    1.76
  -3  -6  -5   62.15    2.43
  -3  -6  -5   62.84    2.44
  -3  -6  -4   28.97    1.71
  -3  -6  -4   24.55    1.37
  -3  -6  -4   29.82    1.75
  -3  -6  -3  172.82    5.38
  -3  -6  -3  169.82    5.41
  -3  -6  -3  155.97    5.26
  -3  -6  -2   46.77    2.09
  -3  -6  -2   46.42    1.97
  -3  -6  -2   44.11    1.86
  -3  -6  -1  121.79    4.01
  -3  -6  -1  116.81    4.01
  -3  -6  -1  116.09    4.13
  -3  -6  -1  130.16    4.08
  -3  -6   0  116.84    3.95
  -3  -6   0  114.14    4.00
  -3  -6   1   65.39    2.60
  -3  -6   1   65.89    2.71
  -3  -6   1   78.97    2.66
  -3  -6   1   71.75    2.49
  -3  -6   2  139.01    3.96
  -3  -6   2  140.77    4.22
  -3  -6   2  134.74    4.25
  -3  -6   3  134.60    4.50
  -3  -6   3  134.18    4.23
  -3  -6   3  149.27    4.59
  -3  -6   3  129.28    4.19
  -3  -6   4    0.36    1.03
  -3  -6   4    1.04    1.34
  -3  -6   4    1.64    1.47
  -3  -6   5  154.74    5.04
  -3  -6   5  148.70    4.85
  -3  -6   6   79.28    2.92
  -3  -6   6   80.23    3.12
  -3  -6   7   76.77    3.13
  -3  -6   7   69.66    2.84
  -3  -6   7   74.71    2.95
  -3  -6   8   88.53    3.63
  -3  -6   8   87.77    3.42
  -3  -6   9    0.84    2.07
  -3  -6  10   31.29    2.66
  -3  -6  11   69.03    3.60
  -3  -6  12    1.43    2.78
  -3  -5 -13   46.20    3.64
  -3  -5 -12    0.75    2.86
  -3  -5 -11   86.20    3.92
  -3  -5 -10   24.07    2.45
  -3  -5  -9    3.82    2.00
  -3  -5  -9    1.03    1.64
  -3  -5  -9    1.75    1.52
  -3  -5  -8  163.91    4.11
  -3  -5  -8  157.51    3.89
  -3  -5  -7    3.01    0.74
  -3  -5  -7    3.78    1.33
  -3  -5  -7    3.97    1.52
  -3  -5  -6   14.71    1.56
  -3  -5  -6   11.28    1.46
  -3  -5  -5  118.73    3.94
  -3  -5  -5  110.51    3.92
  -3  -5  -4   12.90    1.38
  -3  -5  -4   12.68    1.32
  -3  -5  -3  116.37    3.76
  -3  -5  -3  116.92    3.88
  -3  -5  -3  110.68    3.80
  -3  -5  -2   64.02    2.40
  -3  -5  -2   59.58    2.28
  -3  -5  -2   62.39    2.24
  -3  -5  -1   31.08    1.48
  -3  -5  -1   32.39    1.54
  -3  -5  -1   30.66    1.45
  -3  -5  -1   30.27    1.63
  -3  -5   0  160.11    5.21
  -3  -5   0  166.68    5.27
  -3  -5   0  167.62    5.28
  -3  -5   1  108.37    3.56
  -3  -5   1  102.15    3.60
  -3  -5   1  105.62    3.43
  -3  -5   1  104.35    3.54
  -3  -5   2  130.04    3.63
  -3  -5   2  123.47    3.35
  -3  -5   2  136.26    3.61
  -3  -5   3  242.11    7.75
  -3  -5   3  277.45    7.98
  -3  -5   3  248.01    7.74
  -3  -5   3  278.69    8.00
  -3  -5   4   14.68    0.97
  -3  -5   4   15.97    1.35
  -3  -5   5   39.23    1.67
  -3  -5   5   40.72    1.92
  -3  -5   6  290.96    9.08
  -3  -5   6  285.77    9.19
  -3  -5   6  290.88    9.01
  -3  -5   7    2.05    1.49
  -3  -5   7    2.97    1.39
  -3  -5   7    4.22    1.61
  -3  -5   8   74.97    2.79
  -3  -5   8   64.49    2.85
  -3  -5   8   75.33    3.03
  -3  -5   9   63.46    2.96
  -3  -5   9   60.19    2.65
  -3  -5  10    0.79    2.16
  -3  -5  11   38.19    2.80
  -3  -5  12   17.61    2.91
  -3  -5  13    0.05    2.78
  -3  -4 -13   12.28    3.06
  -3  -4 -12   14.80    2.70
  -3  -4 -11   10.88    2.34
  -3  -4 -10  104.51    4.08
  -3  -4  -9    0.76    1.50
  -3  -4  -9    1.77    1.89
  -3  -4  -9    1.14    1.32
  -3  -4  -8  128.71    4.28
  -3  -4  -8  139.43    4.50
  -3  -4  -8  125.37    4.10
  -3  -4  -8  128.03    4.30
  -3  -4  -7   50.27    2.25
  -3  -4  -7   53.19    2.20
  -3  -4  -7   44.19    1.80
  -3  -4  -7   50.85    2.13
  -3  -4  -6   12.83    0.95
  -3  -4  -6   12.88    1.35
  -3  -4  -6   17.00    1.46
  -3  -4  -5  217.89    6.74
  -3  -4  -5  207.91    6.73
  -3  -4  -4  102.60    3.52
  -3  -4  -4  105.07    3.47
  -3  -4  -3   78.33    2.69
  -3  -4  -3   74.52    2.70
  -3  -4  -2  235.07    7.33
  -3  -4  -2  235.02    7.36
  -3  -4  -1  302.78    9.24
  -3  -4  -1  303.38    9.28
  -3  -4  -1  290.81    9.29
  -3  -4   0  111.72    3.53
  -3  -4   0  106.58    3.60
  -3  -4   1  567.67   17.30
  -3  -4   1  543.79   17.39
  -3  -4   1  592.18   17.40
  -3  -4   2   48.12    1.29
  -3  -4   2   39.45    1.55
  -3  -4   2   44.44    1.51
  -3  -4   3  306.57    9.60
  -3  -4   3  314.63    9.45
  -3  -4   3  305.21    9.45
  -3  -4   4   91.47    2.79
  -3  -4   4  102.73    3.12
  -3  -4   4  101.41    2.92
  -3  -4   5   14.31    0.99
  -3  -4   5   10.12    0.44
  -3  -4   5   17.11    1.30
  -3  -4   5   14.83    1.27
  -3  -4   5    8.80    0.45
  -3  -4   6  185.03    6.01
  -3  -4   6  192.00    6.07
  -3  -4   6  198.61    6.23
  -3  -4   7  202.72    6.39
  -3  -4   7  200.41    6.39
  -3  -4   7  197.89    6.52
  -3  -4   8   72.71    2.87
  -3  -4   8   68.27    2.58
  -3  -4   8   61.40    2.67
  -3  -4   9  159.87    5.33
  -3  -4   9  175.15    5.64
  -3  -4  10    1.62    1.91
  -3  -4  11   16.14    2.32
  -3  -4  12   79.72    3.73
  -3  -4  13    6.89    2.65
  -3  -3 -14    1.97    3.13
  -3  -3 -13   19.99    2.93
  -3  -3 -12   52.03    3.10
  -3  -3 -11   -2.21    2.20
  -3  -3 -10  132.99    4.80
  -3  -3  -9   18.67    1.35
  -3  -3  -9   18.59    1.44
  -3  -3  -9   25.81    1.97
  -3  -3  -9   25.91    1.38
  -3  -3  -8   16.38    1.64
  -3  -3  -8   14.80    1.37
  -3  -3  -8   17.17    1.22
  -3  -3  -7  271.59    8.60
  -3  -3  -7  283.17    8.70
  -3  -3  -7  291.15    8.75
  -3  -3  -7  269.11    8.55
  -3  -3  -6    0.63    1.25
  -3  -3  -6    1.31    1.23
  -3  -3  -6    1.35    0.83
  -3  -3  -6    1.12    1.07
  -3  -3  -5  210.11    6.36
  -3  -3  -5  192.64    6.30
  -3  -3  -3   25.36    1.26
  -3  -3  -2  259.64    8.04
  -3  -3  -1  194.07    6.04
  -3  -3   0  359.90   11.02
  -3  -3   1  311.33    9.53
  -3  -3   2  164.39    5.37
  -3  -3   2  183.91    5.36
  -3  -3   2  176.59    5.43
  -3  -3   3  103.57    3.28
  -3  -3   3  104.38    3.28
  -3  -3   4  522.55   14.92
  -3  -3   4  473.53   14.94
  -3  -3   4  476.46   14.92
  -3  -3   4  477.38   15.08
  -3  -3   5   33.84    1.27
  -3  -3   5   34.53    1.27
  -3  -3   5   31.26    1.41
  -3  -3   5   30.75    1.59
  -3  -3   5   32.95    1.55
  -3  -3   6   92.57    3.37
  -3  -3   6   92.31    3.24
  -3  -3   6   93.30    3.23
  -3  -3   6   98.40    3.10
  -3  -3   6   99.50    3.08
  -3  -3   7  167.75    5.29
  -3  -3   7  160.49    5.48
  -3  -3   7  160.29    5.62
  -3  -3   7  157.88    5.44
  -3  -3   8   14.24    1.33
  -3  -3   8   17.35    0.92
  -3  -3   8   13.92    1.52
  -3  -3   8   13.48    1.55
  -3  -3   8   16.36    0.99
  -3  -3   9   52.81    1.83
  -3  -3   9   44.75    2.01
  -3  -3   9   48.26    2.41
  -3  -3  10   61.04    2.80
  -3  -3  11    0.21    2.04
  -3  -3  12   51.14    2.94
  -3  -2 -14   28.79    3.35
  -3  -2 -13   19.63    2.81
  -3  -2 -12   22.22    2.53
  -3  -2 -11    3.00    2.13
  -3  -2 -10   46.31    2.51
  -3  -2  -9   60.89    2.20
  -3  -2  -9   55.36    2.49
  -3  -2  -8    0.09    1.46
  -3  -2  -8    1.00    1.12
  -3  -2  -8    0.62    1.10
  -3  -2  -7  169.67    5.51
  -3  -2  -7  171.62    5.51
  -3  -2  -7  167.94    5.39
  -3  -2  -6   78.91    2.66
  -3  -2  -6   75.91    2.78
  -3  -2  -5    3.20    0.81
  -3  -2  -5    3.14    1.03
  -3  -2  -4  493.30   14.47
  -3  -2  -4  450.26   14.48
  -3  -2  -3   55.02    1.89
  -3  -2  -2  134.57    4.18
  -3  -2  -1   90.75    3.05
  -3  -2  -1   96.94    2.96
  -3  -2   0  120.50    3.67
  -3  -2   0  112.75    3.69
  -3  -2   0  114.87    3.57
  -3  -2   1    5.83    0.60
  -3  -2   1    5.85    0.69
  -3  -2   1    5.98    0.76
  -3  -2   2  361.64   10.99
  -3  -2   2  357.38   10.97
  -3  -2   3   35.61    1.39
  -3  -2   3   34.63    1.33
  -3  -2   4  288.34    9.01
  -3  -2   4  302.70    9.14
  -3  -2   4  294.81    9.02
  -3  -2   5   88.71    2.93
  -3  -2   5   82.84    3.06
  -3  -2   5   93.42    2.93
  -3  -2   6   14.70    1.27
  -3  -2   6   18.33    1.10
  -3  -2   6   16.73    1.26
  -3  -2   6   18.64    1.10
  -3  -2   7   63.76    2.38
  -3  -2   7   68.80    2.23
  -3  -2   7   53.60    2.19
  -3  -2   7   63.54    2.18
  -3  -2   7   54.45    2.35
  -3  -2   8  101.75    3.09
  -3  -2   8   78.18    2.99
  -3  -2   8   95.66    3.01
  -3  -2   8   88.42    3.24
  -3  -2   8   83.82    3.29
  -3  -2   9   41.83    1.79
  -3  -2   9   44.37    1.70
  -3  -2   9   34.99    2.02
  -3  -2  10  131.73    4.08
  -3  -2  10  104.70    4.24
  -3  -2  11    0.25    1.80
  -3  -2  12   17.96    2.23
  -3  -2  13   22.35    2.73
  -3  -1 -13    1.93    2.54
  -3  -1 -12   57.96    3.14
  -3  -1 -11   22.72    2.24
  -3  -1 -10   11.81    1.90
  -3  -1 -10   11.93    1.54
  -3  -1  -9  154.49    4.57
  -3  -1  -9  148.08    4.70
  -3  -1  -8   46.40    2.01
  -3  -1  -8   42.03    2.14
  -3  -1  -7  182.65    5.82
  -3  -1  -7  182.46    5.88
  -3  -1  -6  302.91    9.39
  -3  -1  -6  305.27    9.42
  -3  -1  -6  299.96    9.41
  -3  -1  -5    4.97    0.92
  -3  -1  -5    5.47    0.94
  -3  -1  -5    5.87    0.98
  -3  -1  -5    5.19    1.04
  -3  -1  -4  355.99   11.49
  -3  -1  -4  383.59   11.50
  -3  -1  -4  382.36   11.52
  -3  -1  -4  378.82   11.52
  -3  -1  -3  299.03    9.32
  -3  -1  -3  309.14    9.30
  -3  -1  -3  299.34    9.32
  -3  -1  -2  132.78    4.16
  -3  -1  -1  976.21   29.62
  -3  -1   0  112.19    3.49
  -3  -1   0  107.34    3.46
  -3  -1   0  109.25    3.47
  -3  -1   1  248.18    7.43
  -3  -1   1  240.56    7.41
  -3  -1   1  234.72    7.41
  -3  -1   2  238.01    7.27
  -3  -1   2  233.12    7.26
  -3  -1   3  126.45    3.98
  -3  -1   3  122.33    3.96
  -3  -1   3  125.95    3.98
  -3  -1   4   20.65    1.18
  -3  -1   4   21.10    1.10
  -3  -1   4   21.57    1.11
  -3  -1   5  318.24    9.62
  -3  -1   5  314.04    9.61
  -3  -1   5  300.69    9.68
  -3  -1   6    4.59    1.05
  -3  -1   6    5.27    1.01
  -3  -1   7   40.12    1.87
  -3  -1   7   45.47    1.85
  -3  -1   8   83.76    3.35
  -3  -1   8  105.27    3.27
  -3  -1   9   -0.66    1.35
  -3  -1   9    0.27    0.88
  -3  -1   9    0.34    1.27
  -3  -1  10   40.65    2.12
  -3  -1  11   12.16    1.81
  -3  -1  12    1.57    2.19
  -3  -1  13   40.14    3.00
  -3   0 -12   29.63    2.52
  -3   0 -11   41.80    2.56
  -3   0 -10    1.79    1.88
  -3   0 -10    1.75    1.56
  -3   0  -9  156.02    5.35
  -3   0  -9  163.46    5.32
  -3   0  -8   72.20    2.82
  -3   0  -8   75.26    2.80
  -3   0  -8   69.36    2.88
  -3   0  -7   65.35    2.53
  -3   0  -7   67.26    2.52
  -3   0  -7   64.71    2.55
  -3   0  -6  187.82    6.02
  -3   0  -6  192.46    6.05
  -3   0  -6  189.44    6.04
  -3   0  -5   44.46    1.76
  -3   0  -5   42.45    1.72
  -3   0  -5   43.61    1.76
  -3   0  -5   42.84    1.83
  -3   0  -4   46.30    1.79
  -3   0  -4   48.10    1.78
  -3   0  -4   44.77    1.75
  -3   0  -4   46.52    1.79
  -3   0  -3  908.95   27.84
  -3   0  -3  905.85   27.82
  -3   0  -3  937.06   27.83
  -3   0  -3  910.50   27.83
  -3   0  -2   20.70    1.03
  -3   0  -2   18.40    0.98
  -3   0  -2   20.34    1.00
  -3   0  -1  812.74   24.72
  -3   0   0  147.29    4.64
  -3   0   1    4.95    0.85
  -3   0   1    4.52    0.55
  -3   0   1    4.72    0.80
  -3   0   2  474.10   14.39
  -3   0   2  466.77   14.38
  -3   0   3  140.99    4.47
  -3   0   3  138.62    4.44
  -3   0   3  139.22    4.45
  -3   0   4   27.37    1.44
  -3   0   4   29.03    1.37
  -3   0   5  209.62    6.42
  -3   0   5  197.60    6.48
  -3   0   6   91.62    3.25
  -3   0   6   85.04    3.10
  -3   0   6  100.07    3.16
  -3   0   7   81.02    3.00
  -3   0   7   89.49    3.04
  -3   0   8  179.18    5.28
  -3   0   8  145.95    5.23
  -3   0   9   -0.01    1.36
  -3   0   9    0.21    1.44
  -3   0  10   41.92    2.12
  -3   0  11   52.86    2.66
  -3   0  11   73.92    2.93
  -3   0  12    0.33    2.15
  -3   0  13   85.50    3.78
  -3   0  14    5.99    2.56
  -3   1 -12    5.79    2.18
  -3   1 -11  119.60    4.41
  -3   1 -10   12.99    1.92
  -3   1  -9   43.70    2.26
  -3   1  -9   48.67    2.32
  -3   1  -8  200.97    6.26
  -3   1  -8  192.38    6.18
  -3   1  -8  179.97    6.24
  -3   1  -7   67.49    2.54
  -3   1  -7   62.35    2.51
  -3   1  -7   60.00    2.40
  -3   1  -6  309.61    9.67
  -3   1  -6  311.26    9.63
  -3   1  -6  309.53    9.69
  -3   1  -5  362.34   11.31
  -3   1  -5  376.76   11.36
  -3   1  -5  363.92   11.36
  -3   1  -4   31.40    1.51
  -3   1  -4   32.93    1.45
  -3   1  -4   34.40    1.52
  -3   1  -3  304.87    9.39
  -3   1  -3  292.95    9.35
  -3   1  -3  307.91    9.35
  -3   1  -3  309.65    9.40
  -3   1  -2  237.51    7.70
  -3   1  -2  248.10    7.76
  -3   1  -1   44.10    1.67
  -3   1  -1   47.72    1.76
  -3   1  -1   43.60    1.54
  -3   1   0  702.46   21.42
  -3   1   1   81.58    2.80
  -3   1   2  306.87    9.47
  -3   1   2  313.23    9.45
  -3   1   2  302.71    9.33
  -3   1   2  306.62    9.46
  -3   1   3   80.40    2.82
  -3   1   3   82.15    2.79
  -3   1   4    0.95    1.17
  -3   1   4    1.49    1.09
  -3   1   5   55.25    2.09
  -3   1   5   45.97    2.14
  -3   1   6  149.55    4.78
  -3   1   6  140.50    4.86
  -3   1   7   16.31    1.27
  -3   1   7   18.85    1.70
  -3   1   7   20.27    1.59
  -3   1   8   18.96    1.40
  -3   1   8   21.52    1.95
  -3   1   8   23.67    1.69
  -3   1   9   65.44    2.66
  -3   1   9   55.15    2.86
  -3   1   9   67.56    2.54
  -3   1   9   53.66    2.47
  -3   1  10    3.28    1.69
  -3   1  10    1.96    1.41
  -3   1  10    3.50    2.13
  -3   1  11   79.22    3.93
  -3   1  11  100.47    3.62
  -3   1  12    5.63    2.63
  -3   1  12    7.00    2.08
  -3   1  13   26.85    3.19
  -3   1  13   32.59    2.52
  -3   2 -11   54.41    2.83
  -3   2 -10   76.43    3.14
  -3   2  -9    5.73    0.89
  -3   2  -9    6.85    1.71
  -3   2  -8  136.39    4.51
  -3   2  -8  132.07    4.43
  -3   2  -7  180.18    5.89
  -3   2  -7  187.54    6.02
  -3   2  -6   47.49    1.98
  -3   2  -6   47.56    2.13
  -3   2  -5  577.12   17.84
  -3   2  -5  591.53   17.92
  -3   2  -4   47.46    1.95
  -3   2  -4   44.97    1.81
  -3   2  -3   90.90    3.04
  -3   2  -2  584.97   17.87
  -3   2  -1  378.37   11.53
  -3   2  -1  375.44   11.57
  -3   2  -1  369.97   11.53
  -3   2   0  725.05   21.88
  -3   2   0  725.28   21.92
  -3   2   0  706.07   21.90
  -3   2   0  716.62   21.76
  -3   2   1  390.00   11.10
  -3   2   1  353.77   10.94
  -3   2   1  377.75   11.15
  -3   2   2    1.48    1.07
  -3   2   3  485.03   15.06
  -3   2   3  493.27   15.03
  -3   2   4  127.45    3.98
  -3   2   4  108.35    3.97
  -3   2   5   54.19    2.23
  -3   2   5   51.42    2.31
  -3   2   6  194.15    6.16
  -3   2   6  192.98    5.98
  -3   2   6  180.23    6.23
  -3   2   7   18.67    1.28
  -3   2   7   14.43    1.78
  -3   2   7   13.37    1.24
  -3   2   7   17.97    1.68
  -3   2   8   22.51    1.48
  -3   2   8   21.47    2.13
  -3   2   8   20.57    1.58
  -3   2   8   17.20    1.40
  -3   2   9  218.35    6.13
  -3   2   9  210.63    6.21
  -3   2  10   -0.06    2.25
  -3   2  10    0.47    1.60
  -3   2  11   34.29    3.02
  -3   2  11   42.05    2.30
  -3   2  12   38.14    3.30
  -3   2  12   51.13    2.66
  -3   3 -11   26.32    2.84
  -3   3 -10  127.43    4.63
  -3   3 -10  143.46    5.00
  -3   3  -9    5.76    1.70
  -3   3  -9    5.07    2.02
  -3   3  -8   43.58    2.13
  -3   3  -8   43.83    2.17
  -3   3  -8   39.72    2.42
  -3   3  -8   44.53    1.92
  -3   3  -7  196.28    6.57
  -3   3  -7  213.03    6.65
  -3   3  -7  211.94    6.63
  -3   3  -6   17.53    1.47
  -3   3  -6   19.11    1.67
  -3   3  -6   17.95    1.62
  -3   3  -5  214.79    6.80
  -3   3  -5  208.72    6.67
  -3   3  -4  204.25    6.44
  -3   3  -3   30.25    1.51
  -3   3  -2  264.16    8.33
  -3   3  -2  267.28    8.29
  -3   3  -1  171.37    5.39
  -3   3  -1  163.46    5.39
  -3   3  -1  171.23    5.42
  -3   3   0  303.42    9.21
  -3   3   0  292.60    9.23
  -3   3   0  293.43    9.24
  -3   3   1  155.19    4.75
  -3   3   1  145.11    4.82
  -3   3   1  143.63    4.84
  -3   3   2   20.66    1.16
  -3   3   3  214.99    6.70
  -3   3   4  162.76    5.01
  -3   3   4  146.37    4.80
  -3   3   5    3.44    0.71
  -3   3   5    1.81    1.43
  -3   3   5    3.36    1.51
  -3   3   6  180.68    5.90
  -3   3   6  170.03    5.96
  -3   3   6  169.99    5.78
  -3   3   6  185.72    5.59
  -3   3   7   34.40    2.34
  -3   3   7   34.98    1.59
  -3   3   7   34.22    1.95
  -3   3   8    8.89    1.26
  -3   3   8    8.33    1.20
  -3   3   8    9.44    2.13
  -3   3   8   10.53    1.66
  -3   3   8   11.07    1.60
  -3   3   9   44.95    2.19
  -3   3   9   35.85    2.78
  -3   3   9   42.78    2.03
  -3   3  10   14.53    2.52
  -3   3  10   17.33    1.75
  -3   3  11    0.53    2.65
  -3   3  12   42.60    3.44
  -3   4 -12   18.86    3.16
  -3   4 -11   -1.87    2.69
  -3   4 -10   41.40    2.94
  -3   4  -9   41.87    2.30
  -3   4  -9   46.25    2.73
  -3   4  -8   19.84    1.78
  -3   4  -8   25.40    1.60
  -3   4  -8   21.83    2.19
  -3   4  -7   50.24    2.30
  -3   4  -7   53.68    2.64
  -3   4  -7   51.99    2.48
  -3   4  -7   57.09    2.29
  -3   4  -6   16.45    1.56
  -3   4  -6   17.92    1.86
  -3   4  -6   18.70    1.54
  -3   4  -6   17.37    1.82
  -3   4  -5   13.91    1.45
  -3   4  -5   15.33    1.73
  -3   4  -5   13.68    1.61
  -3   4  -5   14.57    1.75
  -3   4  -4  474.73   14.41
  -3   4  -4  469.84   14.47
  -3   4  -4  455.12   14.50
  -3   4  -3   25.42    1.64
  -3   4  -3   27.85    1.59
  -3   4  -3   25.00    1.75
  -3   4  -3   25.78    1.82
  -3   4  -3   23.50    1.54
  -3   4  -2  156.52    5.05
  -3   4  -2  147.53    5.11
  -3   4  -2  153.26    5.01
  -3   4  -2  158.90    5.04
  -3   4  -1   66.54    2.41
  -3   4  -1   57.18    2.51
  -3   4  -1   61.76    2.43
  -3   4  -1   64.55    2.42
  -3   4   0   58.69    2.19
  -3   4   0   58.23    2.33
  -3   4   0   55.01    2.28
  -3   4   1  104.15    3.75
  -3   4   1  111.16    3.73
  -3   4   1  109.59    3.63
  -3   4   2  248.49    7.74
  -3   4   2  258.10    7.85
  -3   4   2  236.26    7.85
  -3   4   3   51.82    1.97
  -3   4   3   50.80    2.30
  -3   4   4  118.38    3.91
  -3   4   4  121.88    4.14
  -3   4   5   12.67    1.09
  -3   4   5   15.79    1.71
  -3   4   6   31.10    1.95
  -3   4   6   29.54    1.96
  -3   4   7  144.71    4.97
  -3   4   7  149.54    5.01
  -3   4   8    4.48    1.70
  -3   4   9   30.13    2.02
  -3   4  11   -1.27    2.96
  -3   5 -11   19.52    3.09
  -3   5 -10   26.39    2.89
  -3   5  -9  110.57    4.46
  -3   5  -8    4.11    2.13
  -3   5  -8    2.97    1.66
  -3   5  -7   73.14    3.07
  -3   5  -7   87.76    3.11
  -3   5  -7   82.34    3.48
  -3   5  -6   47.65    2.24
  -3   5  -6   52.20    2.33
  -3   5  -6   47.89    2.23
  -3   5  -6   49.49    2.56
  -3   5  -6   52.42    2.70
  -3   5  -5    0.72    1.49
  -3   5  -5    0.26    1.49
  -3   5  -5    0.21    1.84
  -3   5  -5    0.48    1.77
  -3   5  -5    0.57    1.45
  -3   5  -4  152.11    5.18
  -3   5  -4  145.06    5.13
  -3   5  -4  146.57    4.95
  -3   5  -4  153.01    5.00
  -3   5  -4  154.18    5.08
  -3   5  -3   45.77    2.11
  -3   5  -3   40.68    1.99
  -3   5  -3   43.21    2.29
  -3   5  -3   42.94    2.18
  -3   5  -3   39.21    2.25
  -3   5  -3   42.90    2.32
  -3   5  -2   67.61    2.90
  -3   5  -2   75.00    2.78
  -3   5  -2   68.99    2.63
  -3   5  -2   65.78    2.84
  -3   5  -2   62.11    2.88
  -3   5  -2   64.42    2.68
  -3   5  -1  146.49    5.21
  -3   5  -1  153.51    5.02
  -3   5  -1  147.82    5.14
  -3   5  -1  155.84    5.05
  -3   5  -1  145.18    5.15
  -3   5  -1  157.03    5.02
  -3   5   0   88.41    3.04
  -3   5   0   83.33    3.11
  -3   5   0   78.64    3.30
  -3   5   0   82.22    3.24
  -3   5   0   84.58    3.15
  -3   5   1  354.48   11.45
  -3   5   1  372.47   11.31
  -3   5   1  345.84   11.42
  -3   5   1  364.43   11.41
  -3   5   1  378.84   11.37
  -3   5   2  140.79    4.73
  -3   5   2  143.02    4.90
  -3   5   2  138.98    4.57
  -3   5   2  138.12    4.80
  -3   5   2  136.50    4.81
  -3   5   3    5.31    1.17
  -3   5   3    6.44    1.70
  -3   5   3    4.67    1.72
  -3   5   3    6.94    1.79
  -3   5   4   89.52    3.54
  -3   5   4   96.46    3.48
  -3   5   4   80.51    3.08
  -3   5   4  104.87    3.54
  -3   5   5   89.43    3.62
  -3   5   5   92.87    3.44
  -3   5   5   81.21    3.05
  -3   5   6    1.95    1.68
  -3   5   7  192.61    6.41
  -3   5   8    4.66    1.78
  -3   5   9    2.91    1.90
  -3   6 -10   13.05    2.94
  -3   6  -9   53.70    3.38
  -3   6  -8    3.72    2.38
  -3   6  -7   60.96    2.71
  -3   6  -7   63.22    3.17
  -3   6  -6   80.34    3.26
  -3   6  -6   89.64    3.39
  -3   6  -6   89.17    3.73
  -3   6  -5   13.80    1.77
  -3   6  -5   18.01    2.29
  -3   6  -5   15.28    1.77
  -3   6  -5   14.14    1.69
  -3   6  -4    4.62    2.01
  -3   6  -4    7.43    1.76
  -3   6  -4    8.81    1.77
  -3   6  -4    5.85    1.58
  -3   6  -3  165.95    5.50
  -3   6  -3  170.12    5.61
  -3   6  -3  166.11    5.46
  -3   6  -3  158.11    5.67
  -3   6  -2    0.62    1.85
  -3   6  -2    0.22    1.65
  -3   6  -2    1.67    1.75
  -3   6  -2   -0.32    1.53
  -3   6  -1  135.06    4.67
  -3   6  -1  137.99    4.64
  -3   6  -1  138.11    4.79
  -3   6  -1  133.14    4.81
  -3   6  -1  136.09    4.69
  -3   6   0   67.62    2.69
  -3   6   0   64.43    2.92
  -3   6   0   64.57    2.89
  -3   6   0   65.65    2.84
  -3   6   1   30.65    1.83
  -3   6   1   29.96    2.22
  -3   6   1   30.75    2.16
  -3   6   2   65.25    2.95
  -3   6   2   60.63    2.52
  -3   6   3   87.69    3.30
  -3   6   3  102.23    3.64
  -3   6   3   92.26    3.69
  -3   6   4  176.49    5.57
  -3   6   4  171.24    5.70
  -3   6   5   86.29    3.41
  -3   6   5   77.51    3.58
  -3   6   6    0.70    1.80
  -3   6   6   -0.09    2.31
  -3   6   7   58.27    3.43
  -3   6   7   64.64    2.92
  -3   6   8   74.87    3.97
  -3   6   8   84.64    3.44
  -3   6   9    2.53    2.91
  -3   6   9    2.54    2.03
  -3   6  10   61.23    3.96
  -3   7  -9   15.05    3.02
  -3   7  -8   24.87    2.89
  -3   7  -7    6.66    2.59
  -3   7  -6  192.05    6.71
  -3   7  -5    0.91    1.84
  -3   7  -5    0.51    2.37
  -3   7  -5    2.11    1.87
  -3   7  -4   27.98    2.46
  -3   7  -4   27.51    2.22
  -3   7  -4   27.69    2.13
  -3   7  -3  117.06    4.54
  -3   7  -3  122.78    4.41
  -3   7  -3  120.12    4.34
  -3   7  -2    7.31    1.84
  -3   7  -2    7.50    2.22
  -3   7  -2    7.55    1.96
  -3   7  -1  101.73    4.08
  -3   7  -1  103.48    3.96
  -3   7  -1  106.16    3.96
  -3   7   0  127.35    4.80
  -3   7   0  132.84    4.69
  -3   7   0  129.02    4.70
  -3   7   1    5.44    1.62
  -3   7   1    5.80    2.20
  -3   7   1    3.88    2.04
  -3   7   2   50.61    2.37
  -3   7   2   51.98    2.86
  -3   7   3  204.76    7.11
  -3   7   3  211.53    6.97
  -3   7   4    3.18    1.92
  -3   7   4    1.53    2.29
  -3   7   5   64.77    3.61
  -3   7   5   75.08    3.21
  -3   7   6   14.90    2.18
  -3   7   6   15.51    2.77
  -3   7   7    2.65    2.80
  -3   7   7    0.49    2.04
  -3   7   8   33.02    2.56
  -3   7   8   32.48    3.25
  -3   7   9    5.45    3.21
  -3   8  -8   67.81    3.89
  -3   8  -7    5.28    2.80
  -3   8  -6   69.65    3.77
  -3   8  -5   83.08    3.60
  -3   8  -5   82.84    3.98
  -3   8  -4    2.28    2.06
  -3   8  -4    1.67    2.06
  -3   8  -4    1.26    2.55
  -3   8  -3   76.19    3.29
  -3   8  -3   71.30    3.31
  -3   8  -3   72.73    3.62
  -3   8  -2   70.97    3.28
  -3   8  -2   65.73    3.14
  -3   8  -2   65.56    3.46
  -3   8  -1    0.61    2.14
  -3   8  -1    0.88    2.34
  -3   8  -1    1.34    2.05
  -3   8   0   57.69    3.21
  -3   8   0   58.54    3.01
  -3   8   0   59.27    3.05
  -3   8   1   61.25    3.31
  -3   8   1   60.59    3.08
  -3   8   1   64.58    3.21
  -3   8   2   16.38    2.63
  -3   8   3   82.03    3.93
  -3   8   3   84.90    3.62
  -3   8   4   46.17    3.27
  -3   8   4   46.89    2.77
  -3   8   5   63.20    3.66
  -3   8   5   70.35    3.26
  -3   8   6   62.37    3.87
  -3   8   7    8.77    3.19
  -3   9  -6    0.66    3.10
  -3   9  -5  139.66    5.57
  -3   9  -4    1.68    2.85
  -3   9  -3   52.22    3.44
  -3   9  -2   88.32    3.92
  -3   9  -2   78.88    4.06
  -3   9  -1    7.13    2.43
  -3   9  -1    4.29    2.65
  -3   9   0   58.83    3.49
  -3   9   0   57.38    3.26
  -3   9   1   82.67    3.83
  -3   9   1   81.54    4.01
  -3   9   2    6.16    2.68
  -3   9   2    8.47    2.80
  -3   9   3    2.52    2.89
  -3   9   4   55.38    3.72
  -3   9   5    3.12    3.12
  -3  10  -3    6.69    3.06
  -3  10  -2   29.28    3.30
  -3  10  -1    3.43    2.76
  -3  10  -1    4.80    3.09
  -3  10   0    0.21    2.74
  -3  10   0   -1.37    3.03
  -3  10   1   25.16    3.05
  -3  10   1   28.24    3.30
  -3  10   2    6.10    2.93
  -3  10   2    6.96    3.18
  -3  10   3    3.50    3.04
  -2 -12  -4    9.34    3.01
  -2 -12  -3    6.22    2.78
  -2 -12   2    1.44    2.59
  -2 -11  -6    3.83    3.22
  -2 -11  -6    3.68    2.97
  -2 -11  -5   10.63    3.17
  -2 -11  -5    5.39    2.78
  -2 -11  -4   10.93    3.15
  -2 -11  -4   16.17    2.78
  -2 -11  -3   -1.55    3.05
  -2 -11  -3    2.73    2.52
  -2 -11  -2   32.49    2.73
  -2 -11  -2   29.50    3.30
  -2 -11  -1   44.59    2.78
  -2 -11   0   -0.44    2.11
  -2 -11   1   32.09    3.30
  -2 -11   1   25.54    2.56
  -2 -11   2   13.88    2.48
  -2 -11   2   13.97    3.08
  -2 -11   3    7.96    2.50
  -2 -11   3    8.28    3.00
  -2 -11   4   28.29    2.93
  -2 -11   4   31.32    3.29
  -2 -11   5   15.96    3.22
  -2 -11   5   15.35    2.84
  -2 -10  -7    1.35    2.82
  -2 -10  -7   -0.81    2.92
  -2 -10  -6   32.51    3.03
  -2 -10  -6   34.78    3.18
  -2 -10  -5    3.55    2.83
  -2 -10  -5    4.93    2.61
  -2 -10  -4   29.11    2.72
  -2 -10  -4   32.05    3.05
  -2 -10  -3    5.52    2.25
  -2 -10  -3    5.05    2.70
  -2 -10  -2    3.66    1.73
  -2 -10  -2    2.47    2.68
  -2 -10  -2    5.98    2.15
  -2 -10  -1    1.82    1.84
  -2 -10  -1    2.89    2.02
  -2 -10   0   25.44    2.28
  -2 -10   0   34.11    2.19
  -2 -10   1   21.96    1.93
  -2 -10   1   19.44    2.22
  -2 -10   1   23.82    2.89
  -2 -10   2   44.22    2.82
  -2 -10   2   52.51    3.28
  -2 -10   3    4.51    2.21
  -2 -10   3    2.91    2.70
  -2 -10   4   19.26    2.50
  -2 -10   4   25.03    2.94
  -2 -10   5   34.63    2.86
  -2 -10   5   39.37    3.19
  -2 -10   6    0.35    2.49
  -2 -10   6    4.23    2.79
  -2  -9  -9   12.35    3.01
  -2  -9  -8   17.04    2.82
  -2  -9  -8   17.31    2.87
  -2  -9  -7    7.60    2.58
  -2  -9  -7   10.64    2.73
  -2  -9  -6   43.80    2.97
  -2  -9  -6   47.95    3.13
  -2  -9  -5   10.51    2.56
  -2  -9  -5    7.65    2.26
  -2  -9  -4   62.73    3.09
  -2  -9  -4   67.82    3.30
  -2  -9  -3   97.38    3.66
  -2  -9  -3   98.44    3.87
  -2  -9  -3   84.02    3.33
  -2  -9  -2    2.90    1.84
  -2  -9  -2    3.45    1.60
  -2  -9  -2    3.21    2.23
  -2  -9  -1   39.60    2.28
  -2  -9  -1   43.70    2.32
  -2  -9  -1   40.94    2.68
  -2  -9   0   95.75    3.93
  -2  -9   0  111.98    3.79
  -2  -9   1    1.75    1.92
  -2  -9   1    1.85    2.14
  -2  -9   1    2.37    1.54
  -2  -9   2   87.44    3.80
  -2  -9   2   89.96    3.91
  -2  -9   3   17.25    2.30
  -2  -9   3   17.73    2.39
  -2  -9   4    3.81    2.39
  -2  -9   4    2.07    2.10
  -2  -9   5   42.99    2.84
  -2  -9   5   51.62    3.06
  -2  -9   6    5.63    2.38
  -2  -9   6    8.10    2.56
  -2  -9   7    0.83    2.42
  -2  -9   7    3.13    2.52
  -2  -8  -9   17.89    2.68
  -2  -8  -8   44.05    2.97
  -2  -8  -8   40.14    2.95
  -2  -8  -7    1.03    2.27
  -2  -8  -7    1.00    2.32
  -2  -8  -6   38.92    2.62
  -2  -8  -6   42.73    2.73
  -2  -8  -5   78.57    3.40
  -2  -8  -5   85.34    3.50
  -2  -8  -4    0.50    1.77
  -2  -8  -4    0.95    1.19
  -2  -8  -4    0.05    1.99
  -2  -8  -4    1.20    1.85
  -2  -8  -3  118.98    4.22
  -2  -8  -3  124.07    4.43
  -2  -8  -3  128.34    4.48
  -2  -8  -3  133.57    4.58
  -2  -8  -2  103.24    3.75
  -2  -8  -2  106.30    3.69
  -2  -8  -2   91.10    3.53
  -2  -8  -2  105.83    3.90
  -2  -8  -1  133.33    4.38
  -2  -8  -1  132.58    4.33
  -2  -8  -1  125.59    4.60
  -2  -8  -1  116.47    4.34
  -2  -8   0  118.95    3.96
  -2  -8   0  120.22    3.88
  -2  -8   0  109.63    4.05
  -2  -8   0  111.94    3.94
  -2  -8   0  106.22    4.02
  -2  -8   1   38.10    1.84
  -2  -8   1   36.37    1.82
  -2  -8   1   32.57    2.30
  -2  -8   1   32.48    1.86
  -2  -8   1   31.50    2.02
  -2  -8   1   28.56    2.02
  -2  -8   2   99.36    3.49
  -2  -8   2  107.69    3.40
  -2  -8   2   98.12    3.85
  -2  -8   2   91.82    3.64
  -2  -8   2   92.37    3.70
  -2  -8   3  157.41    5.40
  -2  -8   3  152.38    5.47
  -2  -8   3  162.33    5.22
  -2  -8   3  164.59    5.55
  -2  -8   4   19.27    2.02
  -2  -8   4   20.46    1.92
  -2  -8   4   20.17    1.80
  -2  -8   4   20.75    2.17
  -2  -8   5  150.54    5.25
  -2  -8   5  142.99    5.08
  -2  -8   5  148.93    5.22
  -2  -8   6   79.38    3.49
  -2  -8   6   86.98    3.56
  -2  -8   7    4.43    2.34
  -2  -8   8   86.60    3.76
  -2  -8   9   24.98    2.81
  -2  -7 -11   30.57    3.14
  -2  -7 -10    2.86    2.63
  -2  -7  -9    1.29    2.22
  -2  -7  -8   93.72    3.92
  -2  -7  -8  101.14    3.95
  -2  -7  -7   19.00    2.20
  -2  -7  -7   18.86    2.00
  -2  -7  -7   19.46    2.18
  -2  -7  -6   46.82    2.69
  -2  -7  -6   54.69    2.59
  -2  -7  -6   54.75    2.71
  -2  -7  -6   60.59    2.48
  -2  -7  -5  116.21    3.64
  -2  -7  -5  123.05    3.60
  -2  -7  -5  111.78    3.63
  -2  -7  -4   40.63    2.04
  -2  -7  -4   42.52    2.22
  -2  -7  -4   39.21    2.15
  -2  -7  -4   35.73    1.66
  -2  -7  -3   75.55    2.79
  -2  -7  -3   66.15    2.57
  -2  -7  -3   74.73    2.90
  -2  -7  -3   70.66    2.82
  -2  -7  -2  617.60   19.04
  -2  -7  -2  634.83   19.15
  -2  -7  -2  616.26   19.15
  -2  -7  -2  620.07   19.11
  -2  -7  -1   55.99    2.29
  -2  -7  -1   52.61    2.32
  -2  -7  -1   55.67    2.48
  -2  -7  -1   60.51    2.31
  -2  -7   0   65.39    2.49
  -2  -7   0   68.97    2.40
  -2  -7   0   61.08    2.57
  -2  -7   0   68.25    2.51
  -2  -7   0   57.68    2.49
  -2  -7   1  129.11    4.00
  -2  -7   1  134.50    4.01
  -2  -7   1  111.65    4.13
  -2  -7   1  110.04    4.22
  -2  -7   1  120.52    4.08
  -2  -7   1  112.01    4.13
  -2  -7   2    8.05    1.42
  -2  -7   2    7.67    1.26
  -2  -7   2    6.25    1.61
  -2  -7   2    9.18    1.12
  -2  -7   2    7.87    1.42
  -2  -7   3  177.97    5.66
  -2  -7   3  173.95    5.87
  -2  -7   3  178.68    5.50
  -2  -7   3  173.81    5.78
  -2  -7   3  171.76    5.82
  -2  -7   4   29.72    2.05
  -2  -7   4   29.87    1.70
  -2  -7   4   30.01    1.77
  -2  -7   4   28.32    1.89
  -2  -7   5   24.37    2.04
  -2  -7   5   23.63    1.71
  -2  -7   5   23.44    2.03
  -2  -7   5   23.02    1.71
  -2  -7   6   18.75    1.74
  -2  -7   6   18.97    2.05
  -2  -7   6   18.10    1.74
  -2  -7   7   29.74    2.31
  -2  -7   7   23.87    1.88
  -2  -7   8   25.88    2.50
  -2  -7   8   24.15    2.32
  -2  -7   9   54.00    3.14
  -2  -7  10   -0.20    2.51
  -2  -7  11    7.47    2.70
  -2  -6 -12   10.86    2.95
  -2  -6 -11   15.30    2.81
  -2  -6 -10   35.82    2.82
  -2  -6  -9   31.67    2.34
  -2  -6  -9   33.96    2.59
  -2  -6  -8   50.39    2.54
  -2  -6  -8   47.19    2.50
  -2  -6  -7  100.76    3.66
  -2  -6  -7   99.74    3.59
  -2  -6  -7   99.12    3.71
  -2  -6  -6   26.35    1.75
  -2  -6  -6   25.29    1.70
  -2  -6  -6   25.84    1.90
  -2  -6  -6   22.64    1.95
  -2  -6  -5  132.87    4.08
  -2  -6  -5  133.28    4.14
  -2  -6  -5  144.16    4.03
  -2  -6  -5  140.12    4.24
  -2  -6  -4  118.77    3.94
  -2  -6  -4  126.16    3.91
  -2  -6  -4  128.65    4.01
  -2  -6  -3   14.69    1.31
  -2  -6  -3   14.16    1.41
  -2  -6  -3   14.32    1.04
  -2  -6  -3   15.70    1.53
  -2  -6  -2  232.23    7.40
  -2  -6  -2  232.45    7.34
  -2  -6  -2  238.42    7.37
  -2  -6  -2  228.21    7.26
  -2  -6  -1  329.35   10.55
  -2  -6  -1  333.42   10.46
  -2  -6  -1  351.13   10.48
  -2  -6  -1  335.69   10.48
  -2  -6   0   60.97    2.08
  -2  -6   0   62.05    2.24
  -2  -6   0   55.64    2.26
  -2  -6   0   54.48    2.18
  -2  -6   0   55.30    2.17
  -2  -6   1  522.64   15.41
  -2  -6   1  492.41   15.51
  -2  -6   1  515.84   15.38
  -2  -6   1  486.67   15.55
  -2  -6   1  477.81   15.50
  -2  -6   2   40.13    2.03
  -2  -6   2   43.59    1.61
  -2  -6   2   39.85    1.84
  -2  -6   2   40.97    1.67
  -2  -6   2   38.89    1.85
  -2  -6   3  117.56    3.92
  -2  -6   3  115.99    3.83
  -2  -6   3  107.62    3.56
  -2  -6   3  125.68    3.74
  -2  -6   3  112.95    3.88
  -2  -6   4  106.74    3.74
  -2  -6   4  109.95    3.69
  -2  -6   4  114.10    3.85
  -2  -6   4  114.93    3.89
  -2  -6   5   44.54    2.03
  -2  -6   5   49.53    2.04
  -2  -6   5   51.93    2.28
  -2  -6   6  103.74    3.63
  -2  -6   6   97.04    3.60
  -2  -6   7   70.62    2.89
  -2  -6   7   83.52    3.15
  -2  -6   7   77.06    3.03
  -2  -6   7   91.32    3.38
  -2  -6   8    1.35    1.95
  -2  -6   8    0.61    1.84
  -2  -6   8    1.01    1.40
  -2  -6   8    1.24    1.76
  -2  -6   9   72.61    3.26
  -2  -6   9   64.41    2.92
  -2  -6  10   10.20    2.41
  -2  -6  11    0.64    2.47
  -2  -6  12   23.42    2.90
  -2  -5 -13   21.68    3.18
  -2  -5 -12   20.35    2.91
  -2  -5 -11    1.84    2.46
  -2  -5 -10   81.99    3.61
  -2  -5  -9   58.82    2.90
  -2  -5  -9   55.37    2.60
  -2  -5  -8   23.42    1.75
  -2  -5  -8   25.65    1.83
  -2  -5  -8   29.12    2.09
  -2  -5  -7  151.41    5.04
  -2  -5  -7  155.54    5.07
  -2  -5  -7  157.38    5.05
  -2  -5  -7  147.02    5.16
  -2  -5  -6   89.10    3.23
  -2  -5  -6   95.20    3.25
  -2  -5  -6   92.84    3.29
  -2  -5  -5  119.88    3.50
  -2  -5  -5  114.69    3.40
  -2  -5  -5  124.65    3.41
  -2  -5  -4  268.14    7.91
  -2  -5  -4  260.10    7.90
  -2  -5  -4  267.10    7.93
  -2  -5  -3   28.77    1.47
  -2  -5  -3   27.06    1.16
  -2  -5  -3   24.38    1.44
  -2  -5  -2    8.82    1.15
  -2  -5  -2    9.14    1.05
  -2  -5  -2    8.88    0.80
  -2  -5  -1  854.91   27.15
  -2  -5  -1  891.84   27.11
  -2  -5  -1  879.14   27.10
  -2  -5  -1  933.56   27.13
  -2  -5   0   20.20    0.94
  -2  -5   0   18.35    1.14
  -2  -5   0   15.04    1.04
  -2  -5   0   16.20    1.12
  -2  -5   1  152.74    4.73
  -2  -5   1  140.69    4.88
  -2  -5   1  153.02    4.76
  -2  -5   1  158.87    4.91
  -2  -5   2   68.43    2.66
  -2  -5   2   72.97    2.45
  -2  -5   2   70.47    2.61
  -2  -5   2   77.78    2.42
  -2  -5   3    2.24    0.85
  -2  -5   3    2.79    1.05
  -2  -5   3    2.20    1.14
  -2  -5   3    1.42    0.44
  -2  -5   4  172.03    5.49
  -2  -5   4  178.79    5.62
  -2  -5   5   66.65    2.45
  -2  -5   5   71.35    2.65
  -2  -5   6  178.64    5.58
  -2  -5   6  180.13    5.46
  -2  -5   6  173.91    5.39
  -2  -5   7    9.30    1.61
  -2  -5   7    8.65    1.46
  -2  -5   7    9.83    1.18
  -2  -5   7   11.78    1.59
  -2  -5   8   16.61    1.34
  -2  -5   8   19.82    1.68
  -2  -5   8   17.03    1.74
  -2  -5   8   21.21    1.98
  -2  -5   9   46.71    2.59
  -2  -5   9   42.71    2.23
  -2  -5  10   93.50    3.90
  -2  -5  11    3.05    2.37
  -2  -5  12   32.95    2.83
  -2  -5  13   23.74    2.90
  -2  -4 -14   -0.10    3.13
  -2  -4 -13    2.62    2.90
  -2  -4 -12   55.66    3.34
  -2  -4 -11    8.65    2.37
  -2  -4 -10   80.21    3.53
  -2  -4  -9   13.07    1.88
  -2  -4  -9   10.61    1.48
  -2  -4  -8   13.43    1.66
  -2  -4  -8   12.57    1.66
  -2  -4  -8   12.18    1.43
  -2  -4  -8   11.43    1.37
  -2  -4  -7   23.73    1.42
  -2  -4  -7   25.99    1.60
  -2  -4  -7   23.42    1.47
  -2  -4  -7   21.92    1.65
  -2  -4  -6  144.42    4.54
  -2  -4  -6  129.99    4.51
  -2  -4  -6  149.88    4.60
  -2  -4  -6  137.53    4.65
  -2  -4  -5   15.00    1.20
  -2  -4  -5   17.88    1.29
  -2  -4  -4  312.61    9.66
  -2  -4  -3    6.65    0.94
  -2  -4  -3    7.26    1.01
  -2  -4  -3    7.57    0.69
  -2  -4  -2   11.59    0.99
  -2  -4  -2    9.94    0.93
  -2  -4  -2   13.22    0.79
  -2  -4  -1  280.24    8.06
  -2  -4  -1  253.20    8.09
  -2  -4  -1  248.98    8.05
  -2  -4  -1  259.79    8.07
  -2  -4   0   89.15    2.92
  -2  -4   0   89.32    2.92
  -2  -4   0   85.95    2.86
  -2  -4   1   18.96    0.83
  -2  -4   1   20.95    0.94
  -2  -4   1   23.41    1.17
  -2  -4   1   23.43    1.08
  -2  -4   2  445.50   13.85
  -2  -4   2  473.20   13.98
  -2  -4   2  449.31   13.86
  -2  -4   2  483.54   14.00
  -2  -4   3    2.04    0.31
  -2  -4   3    2.80    0.70
  -2  -4   3    2.69    0.93
  -2  -4   4  211.73    6.86
  -2  -4   4  224.51    6.79
  -2  -4   5  132.85    4.33
  -2  -4   5  135.27    4.38
  -2  -4   5  137.75    4.45
  -2  -4   6   47.74    1.96
  -2  -4   6   49.58    2.00
  -2  -4   6   46.15    2.05
  -2  -4   7   87.44    3.15
  -2  -4   7   88.22    3.08
  -2  -4   7   91.33    3.29
  -2  -4   8    6.92    1.00
  -2  -4   8   10.54    1.62
  -2  -4   8   10.32    1.38
  -2  -4   8    7.80    1.52
  -2  -4   9   12.82    1.99
  -2  -4   9   13.41    1.46
  -2  -4  10   70.12    3.14
  -2  -4  11    1.17    2.17
  -2  -4  12   40.44    2.85
  -2  -4  13   20.15    2.70
  -2  -3 -14   70.13    3.99
  -2  -3 -13    2.38    2.71
  -2  -3 -12  100.03    4.25
  -2  -3 -11   50.25    2.89
  -2  -3 -10   14.05    2.01
  -2  -3  -9   58.43    2.29
  -2  -3  -9   70.46    2.74
  -2  -3  -9   63.18    2.10
  -2  -3  -8  132.76    4.26
  -2  -3  -8  128.57    4.24
  -2  -3  -8  138.78    4.50
  -2  -3  -8  125.76    4.12
  -2  -3  -7  102.08    3.29
  -2  -3  -7   96.22    3.40
  -2  -3  -7  102.33    3.42
  -2  -3  -7  110.22    3.60
  -2  -3  -6  104.87    3.27
  -2  -3  -6   91.83    3.15
  -2  -3  -6  103.50    3.30
  -2  -3  -6   90.75    3.02
  -2  -3  -5   67.95    2.35
  -2  -3  -5   77.79    2.57
  -2  -3  -5   77.49    2.50
  -2  -3  -5   76.05    2.57
  -2  -3  -4  125.56    4.00
  -2  -3  -4  124.58    4.02
  -2  -3  -3  305.01    9.39
  -2  -3  -2   -0.04    0.69
  -2  -3  -2    0.04    0.76
  -2  -3  -1  125.52    3.99
  -2  -3  -1  127.18    4.01
  -2  -3  -1  127.35    4.02
  -2  -3   0  113.41    3.74
  -2  -3   0  117.80    3.79
  -2  -3   0  128.65    3.79
  -2  -3   1    0.45    0.64
  -2  -3   1    0.13    0.75
  -2  -3   1    0.37    0.26
  -2  -3   1    1.01    0.51
  -2  -3   2  499.96   14.78
  -2  -3   2  470.21   14.78
  -2  -3   2  493.48   14.87
  -2  -3   3   31.92    1.06
  -2  -3   3   35.37    1.35
  -2  -3   3   32.81    1.20
  -2  -3   4   84.88    2.76
  -2  -3   4   81.10    2.67
  -2  -3   4   81.40    2.81
  -2  -3   5  146.92    4.83
  -2  -3   5  154.29    4.86
  -2  -3   6   60.81    1.68
  -2  -3   6   60.44    1.72
  -2  -3   6   66.44    1.91
  -2  -3   7  217.34    5.96
  -2  -3   7  196.71    5.56
  -2  -3   7  215.37    5.75
  -2  -3   7  198.88    5.81
  -2  -3   8   65.64    2.49
  -2  -3   8   69.52    2.02
  -2  -3   8   67.78    2.28
  -2  -3   8   70.56    2.62
  -2  -3   9    0.28    0.65
  -2  -3   9   -0.17    1.52
  -2  -3   9   -0.54    0.56
  -2  -3   9   -0.25    0.60
  -2  -3   9    0.36    0.90
  -2  -3  10   65.66    2.94
  -2  -3  11   55.07    2.89
  -2  -3  12    1.87    2.22
  -2  -3  13   32.83    2.76
  -2  -3  13   40.27    2.93
  -2  -2 -14   60.54    3.70
  -2  -2 -13    2.46    2.61
  -2  -2 -12   13.06    2.51
  -2  -2 -11  112.78    4.29
  -2  -2 -10    2.79    1.78
  -2  -2  -9  172.62    4.48
  -2  -2  -9  182.01    4.16
  -2  -2  -8   81.83    2.93
  -2  -2  -8   84.05    2.93
  -2  -2  -7   43.99    1.81
  -2  -2  -7   49.37    2.06
  -2  -2  -7   56.15    1.88
  -2  -2  -7   52.64    2.12
  -2  -2  -6   65.27    2.32
  -2  -2  -6   57.81    2.11
  -2  -2  -6   64.81    2.34
  -2  -2  -6   61.26    2.10
  -2  -2  -5  148.40    4.87
  -2  -2  -5  154.43    4.97
  -2  -2  -5  160.24    4.99
  -2  -2  -5  166.56    4.91
  -2  -2  -4    6.78    0.92
  -2  -2  -4    5.36    0.62
  -2  -2  -4    6.59    0.83
  -2  -2  -1  131.73    4.11
  -2  -2   0  917.18   27.82
  -2  -2   1    1.90    0.30
  -2  -2   1    3.69    0.49
  -2  -2   2  700.63   21.01
  -2  -2   2  685.22   21.01
  -2  -2   3  401.06   11.76
  -2  -2   3  377.09   11.76
  -2  -2   3  387.74   11.79
  -2  -2   3  372.88   11.87
  -2  -2   4   18.81    0.85
  -2  -2   4   19.54    0.84
  -2  -2   4   19.36    0.96
  -2  -2   4   20.92    1.06
  -2  -2   5  311.64    9.52
  -2  -2   5  313.43    9.57
  -2  -2   5  308.35    9.60
  -2  -2   5  321.85    9.53
  -2  -2   5  293.08    9.65
  -2  -2   6  493.57   14.64
  -2  -2   6  483.00   14.74
  -2  -2   6  455.07   14.67
  -2  -2   6  502.77   14.84
  -2  -2   7  148.95    5.12
  -2  -2   7  161.03    5.27
  -2  -2   7  160.90    5.33
  -2  -2   8  356.07   10.61
  -2  -2   8  355.49   10.55
  -2  -2   9   -0.43    1.41
  -2  -2   9    0.84    0.35
  -2  -2  10   51.03    2.50
  -2  -2  11   84.37    3.41
  -2  -2  12   11.71    2.17
  -2  -2  12   17.60    2.37
  -2  -2  13   91.12    4.07
  -2  -1 -13   45.25    3.06
  -2  -1 -12    4.79    2.24
  -2  -1 -11  105.38    4.00
  -2  -1 -10   91.90    3.15
  -2  -1 -10   83.72    3.41
  -2  -1  -9   59.78    2.52
  -2  -1  -9   58.14    2.26
  -2  -1  -8   75.47    2.40
  -2  -1  -8  110.30    2.84
  -2  -1  -8  121.47    2.72
  -2  -1  -7   39.10    1.61
  -2  -1  -7   37.75    1.71
  -2  -1  -7   33.86    1.37
  -2  -1  -6  288.09    9.02
  -2  -1  -6  297.06    9.06
  -2  -1  -5  125.56    4.02
  -2  -1  -5  121.46    3.97
  -2  -1  -5  130.84    4.05
  -2  -1  -4    5.42    0.68
  -2  -1  -4    5.51    0.79
  -2  -1  -4    6.35    0.78
  -2  -1  -3  335.21    9.67
  -2  -1  -3  300.52    9.66
  -2  -1  -3  313.46    9.68
  -2  -1  -2  171.81    5.28
  -2  -1  -1   49.04    1.59
  -2  -1   0  571.20   17.49
  -2  -1   0  576.28   17.46
  -2  -1   0  579.50   17.50
  -2  -1   1    9.09    0.59
  -2  -1   1   10.14    0.61
  -2  -1   2    0.79    0.50
  -2  -1   2    0.78    0.55
  -2  -1   3  785.34   23.65
  -2  -1   3  772.95   23.66
  -2  -1   4   15.64    0.85
  -2  -1   4   14.86    0.88
  -2  -1   5  143.70    4.60
  -2  -1   5  144.34    4.52
  -2  -1   6  142.20    4.32
  -2  -1   6  129.07    4.39
  -2  -1   7   26.77    1.23
  -2  -1   7   28.24    1.51
  -2  -1   7   21.58    1.05
  -2  -1   7   24.23    1.39
  -2  -1   8  135.93    3.65
  -2  -1   8  125.98    3.60
  -2  -1   9  189.33    5.48
  -2  -1   9  148.29    5.55
  -2  -1  10    5.46    1.60
  -2  -1  11   82.36    3.42
  -2  -1  11   96.34    3.56
  -2  -1  12   30.66    2.30
  -2  -1  12   43.48    2.66
  -2  -1  13    8.27    2.40
  -2  -1  14   24.99    2.81
  -2   0 -12    4.58    2.17
  -2   0 -11   34.85    2.32
  -2   0 -10  165.43    5.78
  -2   0 -10  183.88    5.72
  -2   0  -9    3.01    1.24
  -2   0  -9    3.71    1.40
  -2   0  -8  100.75    3.52
  -2   0  -8  101.29    3.46
  -2   0  -7  405.02   12.13
  -2   0  -7  389.05   12.12
  -2   0  -7  384.12   12.17
  -2   0  -6   21.45    1.28
  -2   0  -6   21.17    1.24
  -2   0  -6   22.38    1.25
  -2   0  -5  336.82   10.26
  -2   0  -5  326.63   10.24
  -2   0  -5  334.47   10.22
  -2   0  -4  201.75    6.21
  -2   0  -4  196.81    6.18
  -2   0  -4  199.11    6.22
  -2   0  -4  199.78    6.19
  -2   0  -3   86.32    2.93
  -2   0  -3   91.74    2.95
  -2   0  -3   93.28    2.92
  -2   0  -3   93.69    2.93
  -2   0  -2  200.91    6.12
  -2   0  -2  196.45    6.11
  -2   0  -2  192.45    6.10
  -2   0  -2  205.10    6.13
  -2   0  -1  338.71   10.34
  -2   0   0  183.92    5.67
  -2   0   1 1238.53   38.22
  -2   0   1 1282.78   38.22
  -2   0   2   56.43    1.84
  -2   0   2   50.73    1.83
  -2   0   2   54.36    1.83
  -2   0   3  956.45   28.75
  -2   0   3  937.60   28.73
  -2   0   4  428.85   13.11
  -2   0   5    8.69    0.95
  -2   0   5    8.20    0.82
  -2   0   6  271.04    7.97
  -2   0   6  242.69    7.94
  -2   0   7  320.98    9.36
  -2   0   7  283.31    9.35
  -2   0   8   16.67    1.27
  -2   0   8   15.45    1.26
  -2   0   9  227.80    7.86
  -2   0   9  268.46    8.06
  -2   0  10   21.21    1.85
  -2   0  10   22.80    1.66
  -2   0  10   16.46    1.67
  -2   0  11   30.50    2.07
  -2   0  11   37.04    2.30
  -2   0  12   56.01    2.92
  -2   0  13    5.45    2.29
  -2   0  14   14.63    2.54
  -2   1 -12   13.40    2.11
  -2   1 -11    3.72    1.85
  -2   1 -10   77.53    3.20
  -2   1 -10   89.91    3.22
  -2   1  -9   43.74    2.05
  -2   1  -9   42.35    2.15
  -2   1  -8  132.81    4.09
  -2   1  -8  136.78    4.13
  -2   1  -7  376.39   11.43
  -2   1  -7  361.67   11.36
  -2   1  -6   17.62    1.29
  -2   1  -6   17.15    1.09
  -2   1  -5  445.11   13.89
  -2   1  -5  457.04   13.83
  -2   1  -4  302.78    9.48
  -2   1  -4  318.17    9.55
  -2   1  -3   18.39    0.87
  -2   1  -3   17.07    1.03
  -2   1  -2 1071.51   32.67
  -2   1  -2 1083.98   32.69
  -2   1  -1  293.74    8.64
  -2   1  -1  275.01    8.58
  -2   1   0  324.78    9.96
  -2   1   1  274.32    8.18
  -2   1   1  263.12    8.07
  -2   1   2   63.28    2.21
  -2   1   2   67.34    2.23
  -2   1   3   10.57    0.92
  -2   1   3   10.93    0.97
  -2   1   4  559.85   17.10
  -2   1   4  559.54   17.12
  -2   1   5   51.84    1.95
  -2   1   5   46.22    1.93
  -2   1   6  197.55    6.44
  -2   1   6  221.86    6.55
  -2   1   7   55.00    1.97
  -2   1   7   60.33    2.21
  -2   1   7   52.12    2.00
  -2   1   8   15.41    1.39
  -2   1   8   16.92    1.45
  -2   1   8   13.59    0.99
  -2   1   8   13.94    1.15
  -2   1   9   97.17    2.76
  -2   1   9   93.22    2.75
  -2   1   9   89.59    2.45
  -2   1  10  118.43    3.94
  -2   1  10  121.77    3.95
  -2   1  11    8.46    1.83
  -2   1  12   54.49    2.73
  -2   1  13   29.01    2.48
  -2   1  14    6.63    2.47
  -2   2 -11    8.41    1.81
  -2   2 -10   44.31    2.23
  -2   2  -9   92.89    3.30
  -2   2  -9   85.91    3.02
  -2   2  -9   91.56    3.55
  -2   2  -9  100.52    3.41
  -2   2  -8    2.03    1.42
  -2   2  -8    1.63    1.12
  -2   2  -8    0.97    1.51
  -2   2  -8    1.10    1.26
  -2   2  -7   38.53    1.94
  -2   2  -7   40.95    1.76
  -2   2  -7   42.31    1.78
  -2   2  -7   40.93    1.57
  -2   2  -7   45.00    2.04
  -2   2  -6  118.41    3.99
  -2   2  -6  119.45    3.84
  -2   2  -6  116.10    3.85
  -2   2  -5    2.12    1.11
  -2   2  -5    2.24    0.87
  -2   2  -4  299.70    9.37
  -2   2  -4  314.50    9.48
  -2   2  -3   40.46    1.66
  -2   2  -3   41.67    1.56
  -2   2  -2  608.56   18.54
  -2   2  -1  135.28    4.46
  -2   2  -1  145.68    4.44
  -2   2   0   35.60    1.37
  -2   2   0   33.79    1.44
  -2   2   0   38.72    1.41
  -2   2   1  236.30    7.28
  -2   2   3    0.63    1.01
  -2   2   3    0.52    0.44
  -2   2   4  339.13   10.56
  -2   2   4  362.38   10.70
  -2   2   5  209.38    6.26
  -2   2   5  190.71    6.09
  -2   2   6   11.80    1.00
  -2   2   6   11.04    1.38
  -2   2   6   11.33    1.12
  -2   2   6    9.28    0.89
  -2   2   7  141.49    4.32
  -2   2   7  135.51    4.21
  -2   2   7  122.81    4.42
  -2   2   7  136.78    4.20
  -2   2   7  136.90    4.34
  -2   2   8   29.41    1.97
  -2   2   8   34.55    1.61
  -2   2   8   35.15    1.68
  -2   2   8   31.00    1.88
  -2   2   8   32.55    1.55
  -2   2   8   25.79    1.39
  -2   2   9   17.51    1.32
  -2   2   9   17.97    1.46
  -2   2   9   13.87    1.93
  -2   2   9   16.65    1.18
  -2   2   9   12.87    1.21
  -2   2  10   25.14    1.56
  -2   2  10   36.66    1.90
  -2   2  11    0.78    1.81
  -2   2  12   16.92    2.73
  -2   2  12   22.28    2.15
  -2   2  13   17.25    2.31
  -2   2  13   12.71    2.91
  -2   2  14   13.43    2.62
  -2   3 -10   45.54    2.27
  -2   3 -10   47.12    2.72
  -2   3  -9  113.03    3.96
  -2   3  -9  119.22    4.26
  -2   3  -8   28.59    1.64
  -2   3  -8   33.00    1.66
  -2   3  -8   28.58    1.99
  -2   3  -7  246.64    7.94
  -2   3  -7  263.25    7.92
  -2   3  -7  261.63    7.99
  -2   3  -7  244.24    8.09
  -2   3  -7  253.90    8.11
  -2   3  -6  498.99   14.97
  -2   3  -6  485.09   14.96
  -2   3  -6  455.21   15.05
  -2   3  -6  509.31   15.01
  -2   3  -6  487.59   15.11
  -2   3  -5   19.27    1.47
  -2   3  -5   21.82    1.31
  -2   3  -5   20.01    1.17
  -2   3  -5   19.58    1.43
  -2   3  -5   19.57    1.44
  -2   3  -4  350.05   11.08
  -2   3  -4  359.37   11.02
  -2   3  -4  361.64   10.96
  -2   3  -4  351.65   11.05
  -2   3  -3  485.00   14.62
  -2   3  -3  465.50   14.68
  -2   3  -3  479.69   14.67
  -2   3  -2    7.84    0.94
  -2   3  -2    6.70    1.02
  -2   3  -2    5.20    0.96
  -2   3  -1  809.70   24.99
  -2   3  -1  827.09   24.93
  -2   3  -1  829.02   24.96
  -2   3  -1  810.26   24.94
  -2   3   0  140.11    4.25
  -2   3   0  127.15    4.31
  -2   3   0  130.33    4.28
  -2   3   1  104.19    3.27
  -2   3   1   96.00    3.37
  -2   3   2  241.08    7.43
  -2   3   2  239.86    7.52
  -2   3   3    0.73    0.65
  -2   3   3    0.49    1.06
  -2   3   4   21.47    0.99
  -2   3   4   23.18    1.46
  -2   3   4   21.70    1.38
  -2   3   5  102.49    3.08
  -2   3   5   98.06    3.28
  -2   3   5  105.92    3.39
  -2   3   6   20.20    1.17
  -2   3   6   20.48    1.46
  -2   3   6   21.25    1.49
  -2   3   6   21.42    1.71
  -2   3   7  162.16    4.51
  -2   3   7  153.29    4.37
  -2   3   7  161.65    4.47
  -2   3   7  156.22    4.60
  -2   3   8   39.33    1.72
  -2   3   8   41.37    1.70
  -2   3   8   45.12    1.78
  -2   3   9    1.04    1.38
  -2   3   9   -0.28    0.64
  -2   3   9    0.80    1.33
  -2   3  10   77.75    3.06
  -2   3  11   43.75    2.39
  -2   3  12    9.50    2.07
  -2   3  12    8.85    2.78
  -2   4 -11   51.01    3.22
  -2   4 -10   -0.94    2.21
  -2   4  -9   95.49    3.47
  -2   4  -9  105.65    3.91
  -2   4  -8   30.62    1.71
  -2   4  -8   30.58    2.16
  -2   4  -8   34.01    1.91
  -2   4  -7   18.88    1.76
  -2   4  -7   21.92    1.36
  -2   4  -7   18.94    1.42
  -2   4  -7   20.09    1.63
  -2   4  -6  181.25    5.58
  -2   4  -6  166.71    5.52
  -2   4  -6  171.76    5.72
  -2   4  -6  183.53    5.67
  -2   4  -6  167.70    5.72
  -2   4  -5   37.03    1.76
  -2   4  -5   37.20    1.68
  -2   4  -5   37.21    1.95
  -2   4  -5   36.09    1.94
  -2   4  -5   39.43    1.92
  -2   4  -4  230.17    7.06
  -2   4  -4  230.11    7.14
  -2   4  -4  219.11    7.19
  -2   4  -4  221.27    7.16
  -2   4  -3  297.50    9.31
  -2   4  -3  300.45    9.42
  -2   4  -3  298.18    9.41
  -2   4  -3  295.65    9.30
  -2   4  -3  306.58    9.41
  -2   4  -3  309.24    9.41
  -2   4  -2   10.34    1.18
  -2   4  -2   11.78    1.13
  -2   4  -2    9.59    1.08
  -2   4  -2    9.99    1.30
  -2   4  -2   11.74    1.43
  -2   4  -2    9.33    1.30
  -2   4  -1  476.54   14.32
  -2   4  -1  471.98   14.42
  -2   4  -1  465.16   14.28
  -2   4  -1  465.31   14.36
  -2   4  -1  453.03   14.36
  -2   4  -1  462.29   14.29
  -2   4   0  896.23   26.59
  -2   4   0  863.11   26.59
  -2   4   0  840.85   26.70
  -2   4   0  880.06   26.65
  -2   4   1   72.31    2.39
  -2   4   1   68.29    2.54
  -2   4   1   62.40    2.54
  -2   4   1   68.18    2.60
  -2   4   2  509.31   15.30
  -2   4   2  496.26   15.38
  -2   4   2  513.29   15.47
  -2   4   2  473.72   15.42
  -2   4   2  503.00   15.39
  -2   4   3  142.20    4.73
  -2   4   3  166.05    5.01
  -2   4   3  144.04    4.95
  -2   4   3  150.36    4.92
  -2   4   3  159.37    4.95
  -2   4   4   24.96    1.05
  -2   4   4   27.93    1.55
  -2   4   4   21.33    1.59
  -2   4   4   16.51    0.76
  -2   4   4   29.61    1.53
  -2   4   5  107.69    3.63
  -2   4   5  107.85    4.03
  -2   4   5  123.72    3.94
  -2   4   5  123.34    3.92
  -2   4   5  122.88    4.02
  -2   4   6   85.91    2.67
  -2   4   6   73.95    2.87
  -2   4   6   83.21    2.67
  -2   4   6   82.76    2.82
  -2   4   7   72.26    2.09
  -2   4   7   76.62    2.08
  -2   4   8   52.11    2.29
  -2   4   8   49.19    2.32
  -2   4   9    3.52    1.48
  -2   5 -11   93.89    4.33
  -2   5 -10    6.01    2.54
  -2   5  -9   88.92    3.76
  -2   5  -8  101.42    3.62
  -2   5  -8  116.55    4.12
  -2   5  -7   41.34    1.98
  -2   5  -7   43.18    2.42
  -2   5  -7   49.84    2.27
  -2   5  -6  231.40    7.42
  -2   5  -6  249.16    7.50
  -2   5  -6  232.91    7.41
  -2   5  -6  229.79    7.63
  -2   5  -6  240.29    7.57
  -2   5  -5  348.20   10.95
  -2   5  -5  351.57   10.94
  -2   5  -5  371.63   11.05
  -2   5  -5  350.47   11.13
  -2   5  -5  352.32   11.08
  -2   5  -4   14.82    1.41
  -2   5  -4   10.54    1.60
  -2   5  -4   13.80    1.32
  -2   5  -4   13.48    1.70
  -2   5  -4   12.49    1.66
  -2   5  -4   16.01    1.38
  -2   5  -3  200.15    6.63
  -2   5  -3  215.88    6.63
  -2   5  -3  206.94    6.50
  -2   5  -3  200.08    6.65
  -2   5  -3  206.66    6.65
  -2   5  -3  204.95    6.53
  -2   5  -2  183.06    5.96
  -2   5  -2  188.77    5.99
  -2   5  -2  188.22    5.89
  -2   5  -2  184.50    5.98
  -2   5  -2  174.85    6.01
  -2   5  -2  185.52    5.89
  -2   5  -1    2.95    1.22
  -2   5  -1    2.55    1.22
  -2   5  -1    3.79    1.27
  -2   5  -1    2.77    1.46
  -2   5  -1    4.43    1.24
  -2   5  -1    3.02    1.34
  -2   5   0  421.59   12.71
  -2   5   0  412.96   12.72
  -2   5   0  404.04   12.77
  -2   5   0  403.57   12.79
  -2   5   1    1.57    1.05
  -2   5   1    1.38    1.44
  -2   5   1    1.40    1.40
  -2   5   1    2.82    1.35
  -2   5   2   20.34    1.26
  -2   5   2   21.86    1.66
  -2   5   2   19.36    1.71
  -2   5   2   19.27    1.53
  -2   5   2   19.71    1.68
  -2   5   3  199.12    6.20
  -2   5   3  180.61    5.97
  -2   5   3  199.87    6.19
  -2   5   3  191.34    6.20
  -2   5   3  187.16    6.16
  -2   5   4    6.12    1.43
  -2   5   4    3.72    0.95
  -2   5   4    4.04    1.56
  -2   5   4    5.41    1.61
  -2   5   4    3.65    1.57
  -2   5   5  167.30    4.22
  -2   5   5  148.03    4.33
  -2   5   5  155.34    4.20
  -2   5   6   19.14    2.00
  -2   5   6   20.95    1.77
  -2   5   6   23.13    1.65
  -2   5   7    4.94    2.00
  -2   5   7    5.17    1.69
  -2   5   7    5.02    1.59
  -2   5   8   23.21    2.46
  -2   5   8   25.00    1.88
  -2   5   9   67.49    3.49
  -2   5  10    3.15    2.69
  -2   5  11   33.42    3.24
  -2   6 -11   19.40    3.14
  -2   6 -10   40.49    3.15
  -2   6  -9    0.74    2.46
  -2   6  -8   62.62    3.15
  -2   6  -7   35.27    1.91
  -2   6  -7   44.82    2.56
  -2   6  -6   12.80    1.46
  -2   6  -6   13.82    2.12
  -2   6  -5  191.87    6.15
  -2   6  -5  183.50    6.13
  -2   6  -5  201.24    6.26
  -2   6  -5  194.78    6.43
  -2   6  -4  105.45    3.63
  -2   6  -4   99.94    3.58
  -2   6  -4  102.22    3.84
  -2   6  -4  107.24    3.73
  -2   6  -4  106.19    3.88
  -2   6  -3  289.20    8.55
  -2   6  -3  269.26    8.47
  -2   6  -3  260.02    8.63
  -2   6  -3  276.06    8.61
  -2   6  -3  252.35    8.62
  -2   6  -2  249.96    7.46
  -2   6  -2  225.78    7.55
  -2   6  -2  237.40    7.55
  -2   6  -2  240.22    7.46
  -2   6  -2  221.11    7.57
  -2   6  -2  227.74    7.51
  -2   6  -1   28.34    1.76
  -2   6  -1   27.55    1.93
  -2   6  -1   28.85    1.79
  -2   6  -1   27.12    2.05
  -2   6  -1   24.98    1.79
  -2   6  -1   27.88    1.72
  -2   6   0  148.05    4.80
  -2   6   0  138.09    4.91
  -2   6   0  146.26    4.89
  -2   6   0  143.05    4.77
  -2   6   1  485.76   14.51
  -2   6   1  462.01   14.57
  -2   6   1  453.06   14.56
  -2   6   1  470.17   14.45
  -2   6   2    4.72    1.20
  -2   6   2    5.10    1.65
  -2   6   2    3.27    1.73
  -2   6   2    5.07    1.58
  -2   6   3  346.08   10.49
  -2   6   3  316.53   10.39
  -2   6   3  353.60   10.41
  -2   6   3  315.67   10.21
  -2   6   4   24.68    2.10
  -2   6   4   32.30    1.91
  -2   6   4   27.38    1.51
  -2   6   5    8.37    1.05
  -2   6   5   12.01    1.72
  -2   6   5   10.46    1.99
  -2   6   6   42.59    2.76
  -2   6   6   46.85    2.33
  -2   6   7   30.81    2.65
  -2   6   7   33.26    2.09
  -2   6   8   67.92    2.96
  -2   6   8   63.17    3.39
  -2   6   9   14.25    2.74
  -2   6  10    0.19    2.80
  -2   6  11   15.50    3.22
  -2   7 -10   76.30    4.07
  -2   7  -9   12.86    2.77
  -2   7  -8   96.86    4.11
  -2   7  -7   79.53    3.63
  -2   7  -6    0.51    2.22
  -2   7  -5   21.35    1.79
  -2   7  -5   22.53    2.40
  -2   7  -4  163.26    5.53
  -2   7  -4  172.34    5.69
  -2   7  -4  169.54    5.80
  -2   7  -3    8.74    1.84
  -2   7  -3    8.64    1.70
  -2   7  -3   10.18    2.06
  -2   7  -3    7.49    1.59
  -2   7  -2  117.33    4.10
  -2   7  -2  118.56    4.23
  -2   7  -2  117.90    4.34
  -2   7  -2  118.30    4.13
  -2   7  -1    3.56    1.69
  -2   7  -1    3.98    1.98
  -2   7  -1    4.20    1.60
  -2   7  -1    4.01    1.65
  -2   7   0   26.28    1.90
  -2   7   0   23.77    2.13
  -2   7   0   25.86    1.95
  -2   7   0   23.36    1.75
  -2   7   1  137.54    4.87
  -2   7   1  135.97    4.60
  -2   7   2   26.40    2.24
  -2   7   2   25.91    1.70
  -2   7   3   53.49    2.83
  -2   7   3   60.60    2.63
  -2   7   3   54.11    2.29
  -2   7   4   54.64    2.99
  -2   7   4   54.14    2.64
  -2   7   5    0.38    2.21
  -2   7   5    1.04    1.75
  -2   7   6  105.02    4.54
  -2   7   6  119.99    4.26
  -2   7   7   38.80    3.03
  -2   7   8   35.01    3.14
  -2   7   9    2.33    2.99
  -2   7  10   24.25    3.38
  -2   8  -9    9.40    2.96
  -2   8  -8   15.39    2.74
  -2   8  -7   12.86    2.71
  -2   8  -6    7.91    2.59
  -2   8  -5    7.79    2.48
  -2   8  -4   74.10    3.50
  -2   8  -4   74.05    3.08
  -2   8  -3   35.39    2.69
  -2   8  -3   38.34    2.47
  -2   8  -2   95.96    3.80
  -2   8  -2   97.26    3.97
  -2   8  -2   94.89    3.67
  -2   8  -1   66.36    3.01
  -2   8  -1   66.32    3.20
  -2   8  -1   64.18    2.94
  -2   8   0   17.73    2.07
  -2   8   0   17.92    2.35
  -2   8   1   77.86    3.24
  -2   8   1   77.70    3.40
  -2   8   1   68.06    2.95
  -2   8   2   37.56    2.69
  -2   8   3    0.59    1.94
  -2   8   3    1.46    2.35
  -2   8   4   81.18    3.36
  -2   8   4   67.36    3.54
  -2   8   5    1.10    2.70
  -2   8   6   11.09    2.77
  -2   8   7   17.90    2.92
  -2   8   8   -0.14    2.97
  -2   8   9   24.87    3.48
  -2   9  -8   11.54    2.99
  -2   9  -7   35.75    3.22
  -2   9  -6   69.19    3.73
  -2   9  -5   78.19    3.94
  -2   9  -4    1.45    2.63
  -2   9  -3   14.38    2.60
  -2   9  -2   11.60    2.17
  -2   9  -2   13.69    2.67
  -2   9  -1   83.83    3.54
  -2   9  -1   81.29    3.78
  -2   9   0    1.47    2.26
  -2   9   0    4.60    2.55
  -2   9   1   79.01    3.76
  -2   9   2   39.54    3.03
  -2   9   3   -0.43    2.65
  -2   9   4  107.67    4.68
  -2   9   5   11.55    2.90
  -2   9   6   -1.35    3.03
  -2   9   7   18.66    3.41
  -2  10  -6   30.32    3.29
  -2  10  -5    8.09    3.02
  -2  10  -4   13.94    3.06
  -2  10  -3   50.65    3.40
  -2  10  -2    0.02    2.85
  -2  10  -1   50.11    3.06
  -2  10  -1   52.64    3.41
  -2  10   0   13.23    2.58
  -2  10   0   12.95    2.87
  -2  10   1   -1.19    2.60
  -2  10   1   -2.88    2.88
  -2  10   2   51.69    3.46
  -2  10   3    6.43    2.93
  -2  10   4   22.69    3.25
  -2  10   5   32.39    3.55
  -2  11  -2   -0.24    3.08
  -2  11  -1   21.78    3.23
  -2  11   0   28.83    3.27
  -2  11   1    1.22    3.09
  -2  11   1    0.18    2.83
  -2  11   2   33.29    3.55
  -1 -12  -3    6.42    2.89
  -1 -12   2   18.46    2.79
  -1 -11  -5    9.70    2.90
  -1 -11  -4    3.94    2.69
  -1 -11  -3   10.64    2.68
  -1 -11  -2    7.13    2.47
  -1 -11  -1    2.38    2.31
  -1 -11   0   12.24    2.25
  -1 -11   1    5.88    2.22
  -1 -11   2   15.62    2.46
  -1 -11   3   28.63    2.71
  -1 -11   4   -1.00    2.55
  -1 -10  -7   12.47    2.89
  -1 -10  -6   35.82    3.05
  -1 -10  -5   42.23    3.04
  -1 -10  -4    5.02    2.46
  -1 -10  -3   29.05    2.59
  -1 -10  -3   26.18    2.95
  -1 -10  -2   87.43    3.67
  -1 -10  -2   96.65    4.26
  -1 -10  -1    0.64    1.78
  -1 -10  -1    0.39    2.55
  -1 -10  -1    0.42    2.05
  -1 -10   0   61.97    3.12
  -1 -10   0   78.65    3.09
  -1 -10   1   37.23    2.50
  -1 -10   1   40.94    3.05
  -1 -10   2   -0.41    2.07
  -1 -10   2   -0.33    2.63
  -1 -10   3   40.63    2.73
  -1 -10   3   44.37    3.17
  -1 -10   4   54.38    3.09
  -1 -10   5   28.77    2.72
  -1 -10   6   67.65    3.59
  -1  -9  -9    0.81    2.92
  -1  -9  -8   39.81    3.19
  -1  -9  -7   16.23    2.72
  -1  -9  -6   -1.57    2.43
  -1  -9  -5   53.62    2.96
  -1  -9  -5   51.10    3.17
  -1  -9  -4   23.78    2.36
  -1  -9  -4   21.83    2.57
  -1  -9  -3   22.45    1.72
  -1  -9  -3   23.28    2.20
  -1  -9  -3   25.02    2.58
  -1  -9  -2   51.82    2.45
  -1  -9  -2   61.11    2.77
  -1  -9  -2   56.65    3.12
  -1  -9  -1    0.23    1.61
  -1  -9  -1    0.58    1.77
  -1  -9  -1   -0.01    2.34
  -1  -9  -1    0.05    1.81
  -1  -9   0   24.43    1.96
  -1  -9   0   28.39    2.10
  -1  -9   0   31.78    2.00
  -1  -9   0   25.38    1.76
  -1  -9   1   30.86    2.25
  -1  -9   1   35.16    2.23
  -1  -9   1   38.89    2.06
  -1  -9   1   31.90    2.70
  -1  -9   1   31.27    1.98
  -1  -9   2    3.96    1.91
  -1  -9   2    3.03    2.35
  -1  -9   3   37.78    2.44
  -1  -9   3   39.75    2.79
  -1  -9   4   82.48    3.62
  -1  -9   4   85.91    3.78
  -1  -9   5    8.17    2.22
  -1  -9   5    8.62    2.50
  -1  -9   6   32.66    2.67
  -1  -9   7   57.96    3.23
  -1  -9   8    8.59    2.61
  -1  -8 -10   53.52    3.67
  -1  -8  -8    2.62    2.50
  -1  -8  -7   52.10    3.01
  -1  -8  -6   39.60    2.62
  -1  -8  -6   38.36    2.70
  -1  -8  -5   50.23    2.71
  -1  -8  -5   53.42    2.90
  -1  -8  -4   48.42    2.05
  -1  -8  -4   55.99    2.66
  -1  -8  -4   55.46    2.89
  -1  -8  -3    3.89    1.26
  -1  -8  -3    4.52    1.97
  -1  -8  -3    5.01    1.82
  -1  -8  -3    4.77    2.11
  -1  -8  -2   29.43    2.25
  -1  -8  -2   21.99    1.61
  -1  -8  -2   27.11    1.93
  -1  -8  -2   26.02    2.29
  -1  -8  -1  107.26    3.73
  -1  -8  -1  108.46    3.75
  -1  -8  -1   93.82    3.69
  -1  -8  -1  104.01    3.62
  -1  -8  -1  112.05    4.06
  -1  -8   0    0.48    1.46
  -1  -8   0    1.55    1.56
  -1  -8   0    1.30    1.48
  -1  -8   0    0.78    1.32
  -1  -8   0    2.19    1.75
  -1  -8   1  177.28    5.98
  -1  -8   1  173.11    5.70
  -1  -8   1  183.75    5.66
  -1  -8   1  171.99    5.66
  -1  -8   1  185.06    5.97
  -1  -8   2    9.75    1.86
  -1  -8   2    7.73    1.68
  -1  -8   2    9.97    1.66
  -1  -8   2   11.35    2.09
  -1  -8   2    9.61    1.36
  -1  -8   3   14.14    1.75
  -1  -8   3   14.95    1.87
  -1  -8   3   15.04    2.02
  -1  -8   3   16.90    2.19
  -1  -8   4   49.56    2.58
  -1  -8   4   47.64    2.63
  -1  -8   4   49.47    2.52
  -1  -8   4   43.86    2.73
  -1  -8   5   19.86    2.12
  -1  -8   5   22.46    1.99
  -1  -8   5   21.24    2.34
  -1  -8   6   28.68    2.33
  -1  -8   6   28.36    2.51
  -1  -8   7  110.57    4.40
  -1  -8   9   60.04    3.37
  -1  -7 -11   10.90    2.97
  -1  -7 -10   11.34    2.69
  -1  -7  -9  123.24    4.84
  -1  -7  -7   77.54    2.97
  -1  -7  -7   76.73    3.32
  -1  -7  -6   25.80    2.18
  -1  -7  -6   27.17    1.76
  -1  -7  -6   28.08    2.31
  -1  -7  -5    9.20    1.38
  -1  -7  -5    4.34    0.60
  -1  -7  -5    6.13    1.78
  -1  -7  -5    7.87    1.94
  -1  -7  -5    7.63    1.82
  -1  -7  -4  141.12    4.69
  -1  -7  -4  141.45    5.03
  -1  -7  -4  151.25    5.11
  -1  -7  -3    7.84    1.10
  -1  -7  -3    9.56    1.57
  -1  -7  -3    6.56    1.55
  -1  -7  -3    6.79    1.74
  -1  -7  -2   88.22    3.12
  -1  -7  -2   88.59    3.27
  -1  -7  -2   93.46    3.36
  -1  -7  -2   89.83    3.42
  -1  -7  -1   56.37    2.42
  -1  -7  -1   65.82    2.48
  -1  -7  -1   61.39    2.41
  -1  -7  -1   60.64    2.34
  -1  -7  -1   58.60    2.65
  -1  -7   0   13.54    1.37
  -1  -7   0   14.56    1.59
  -1  -7   0   15.76    1.46
  -1  -7   0   14.90    1.44
  -1  -7   0   13.88    1.29
  -1  -7   1  152.95    5.15
  -1  -7   1  153.23    5.05
  -1  -7   1  157.12    5.19
  -1  -7   1  162.58    5.00
  -1  -7   1  145.37    5.20
  -1  -7   2  101.17    3.79
  -1  -7   2  100.29    3.63
  -1  -7   2  107.80    3.77
  -1  -7   2  111.85    3.50
  -1  -7   2   98.73    3.83
  -1  -7   3   17.23    1.74
  -1  -7   3   15.80    1.60
  -1  -7   3   16.47    1.62
  -1  -7   3   16.40    1.87
  -1  -7   4   41.89    2.29
  -1  -7   4   41.01    2.15
  -1  -7   4   41.25    2.09
  -1  -7   4   44.26    2.41
  -1  -7   5  110.78    4.14
  -1  -7   5  111.92    4.10
  -1  -7   5  109.72    3.95
  -1  -7   5  117.10    4.18
  -1  -7   6    7.25    1.93
  -1  -7   6    6.70    1.71
  -1  -7   6    8.37    1.96
  -1  -7   8   56.80    3.00
  -1  -7   9   18.49    2.49
  -1  -7  10   59.70    3.28
  -1  -7  11   19.25    2.83
  -1  -6 -12   17.61    3.08
  -1  -6 -11    6.68    2.74
  -1  -6 -10    0.20    2.43
  -1  -6  -9   28.06    2.54
  -1  -6  -8    8.52    1.67
  -1  -6  -8    7.37    2.05
  -1  -6  -7   16.60    1.60
  -1  -6  -7   15.78    1.90
  -1  -6  -6   84.59    3.33
  -1  -6  -6   82.63    3.02
  -1  -6  -6   85.11    3.29
  -1  -6  -5    0.91    1.25
  -1  -6  -5    0.43    0.30
  -1  -6  -5    2.31    1.53
  -1  -6  -5   -0.08    1.61
  -1  -6  -5    1.39    1.51
  -1  -6  -4  216.01    6.78
  -1  -6  -4  230.66    6.79
  -1  -6  -4  232.26    6.79
  -1  -6  -3   38.31    1.55
  -1  -6  -3   38.22    1.96
  -1  -6  -3   42.70    1.91
  -1  -6  -3   35.03    1.88
  -1  -6  -2   84.66    2.90
  -1  -6  -2   80.20    3.03
  -1  -6  -2   89.96    3.08
  -1  -6  -2   84.87    3.13
  -1  -6  -1  205.36    6.62
  -1  -6  -1  208.14    6.65
  -1  -6  -1  218.74    6.61
  -1  -6  -1  207.18    6.74
  -1  -6  -1  209.22    6.59
  -1  -6   0   20.94    1.33
  -1  -6   0   23.82    1.40
  -1  -6   0   23.68    1.39
  -1  -6   0   20.77    1.27
  -1  -6   0   22.39    1.43
  -1  -6   1   70.36    2.58
  -1  -6   1   74.82    2.52
  -1  -6   1   70.85    2.78
  -1  -6   1   72.80    2.67
  -1  -6   1   70.48    2.65
  -1  -6   2  371.61   12.09
  -1  -6   2  386.06   12.07
  -1  -6   2  385.35   12.00
  -1  -6   2  408.98   11.92
  -1  -6   2  371.42   12.10
  -1  -6   3    0.03    1.17
  -1  -6   3    1.23    1.19
  -1  -6   3   -0.51    1.20
  -1  -6   3    0.33    1.42
  -1  -6   4  109.91    3.82
  -1  -6   4  107.09    3.75
  -1  -6   4  109.09    3.70
  -1  -6   4  110.42    3.86
  -1  -6   5  212.83    7.05
  -1  -6   5  215.74    6.89
  -1  -6   5  209.79    6.92
  -1  -6   5  232.24    7.05
  -1  -6   6   23.99    1.78
  -1  -6   6   28.86    2.00
  -1  -6   6   24.79    1.83
  -1  -6   7   51.38    2.55
  -1  -6   7   45.23    2.33
  -1  -6   7   48.15    2.45
  -1  -6   8   70.25    3.23
  -1  -6   9    3.65    2.11
  -1  -6  10   76.07    3.60
  -1  -6  11   32.54    2.77
  -1  -6  12   28.56    2.97
  -1  -5 -13    3.31    3.03
  -1  -5 -12   35.21    3.12
  -1  -5 -11   21.90    2.71
  -1  -5 -10    0.35    2.25
  -1  -5  -9   26.02    2.32
  -1  -5  -8  125.00    4.28
  -1  -5  -8  124.56    4.51
  -1  -5  -7   27.87    1.98
  -1  -5  -7   29.67    1.73
  -1  -5  -7   30.51    1.93
  -1  -5  -6  168.13    5.62
  -1  -5  -6  173.82    5.73
  -1  -5  -5   35.47    1.76
  -1  -5  -5   35.67    1.64
  -1  -5  -5   36.15    1.83
  -1  -5  -4   72.40    2.33
  -1  -5  -4   73.19    2.39
  -1  -5  -4   69.30    2.37
  -1  -5  -3  311.69    9.35
  -1  -5  -3  281.61    9.49
  -1  -5  -3  314.96    9.51
  -1  -5  -3  304.86    9.49
  -1  -5  -2   16.92    1.23
  -1  -5  -2   17.23    1.26
  -1  -5  -2   18.36    1.20
  -1  -5  -2   18.20    1.03
  -1  -5  -1  782.53   24.58
  -1  -5  -1  816.42   24.55
  -1  -5  -1  814.91   24.56
  -1  -5  -1  794.78   24.62
  -1  -5  -1  818.51   24.56
  -1  -5   0    5.04    0.89
  -1  -5   0    5.16    0.92
  -1  -5   0    5.86    0.94
  -1  -5   0    4.97    0.87
  -1  -5   1   40.09    1.45
  -1  -5   1   33.21    1.49
  -1  -5   1   32.83    1.61
  -1  -5   1   34.60    1.56
  -1  -5   1   33.73    1.54
  -1  -5   2  350.66   10.32
  -1  -5   2  339.17   10.38
  -1  -5   2  325.45   10.44
  -1  -5   2  329.43   10.48
  -1  -5   2  326.94   10.46
  -1  -5   3  257.20    7.95
  -1  -5   3  253.80    7.98
  -1  -5   3  261.34    8.04
  -1  -5   3  250.30    8.03
  -1  -5   4   93.41    3.12
  -1  -5   4   96.48    3.25
  -1  -5   4   85.50    3.10
  -1  -5   4   94.28    3.29
  -1  -5   5  142.31    4.74
  -1  -5   5  144.54    4.73
  -1  -5   5  153.68    4.83
  -1  -5   6   40.79    2.07
  -1  -5   6   35.68    1.76
  -1  -5   6   39.64    1.95
  -1  -5   6   42.75    2.05
  -1  -5   7    1.82    1.56
  -1  -5   7    0.91    1.45
  -1  -5   7    0.92    1.50
  -1  -5   8  232.09    6.87
  -1  -5   8  187.61    6.66
  -1  -5   9   21.80    2.16
  -1  -5  10   40.26    2.59
  -1  -5  11   23.97    2.55
  -1  -5  12   24.37    2.70
  -1  -5  13   41.58    3.16
  -1  -4 -14   16.38    3.23
  -1  -4 -13    9.67    2.96
  -1  -4 -12    4.19    2.64
  -1  -4 -11   65.47    3.32
  -1  -4 -10    1.25    2.13
  -1  -4  -9   18.45    2.05
  -1  -4  -8  172.77    5.76
  -1  -4  -7    2.43    1.49
  -1  -4  -7    2.85    1.27
  -1  -4  -7    2.91    1.36
  -1  -4  -6  169.83    5.45
  -1  -4  -6  169.46    5.49
  -1  -4  -6  172.12    5.48
  -1  -4  -6  172.43    5.58
  -1  -4  -5  212.54    6.78
  -1  -4  -5  217.43    6.75
  -1  -4  -5  217.04    6.78
  -1  -4  -4    3.77    0.33
  -1  -4  -4    7.78    0.95
  -1  -4  -4    8.52    0.93
  -1  -4  -4    8.07    1.03
  -1  -4  -3  583.37   17.56
  -1  -4  -3  584.28   17.55
  -1  -4  -3  566.56   17.57
  -1  -4  -3  569.13   17.44
  -1  -4  -2  924.25   28.20
  -1  -4  -2  953.27   28.20
  -1  -4  -2  888.72   28.21
  -1  -4  -2  933.49   28.13
  -1  -4  -1  625.03   19.03
  -1  -4  -1  640.31   19.11
  -1  -4  -1  621.42   19.05
  -1  -4  -1  597.68   19.07
  -1  -4  -1  643.90   19.05
  -1  -4   0 1336.77   40.13
  -1  -4   0 1301.31   40.18
  -1  -4   0 1325.19   40.15
  -1  -4   1  124.09    3.88
  -1  -4   1  123.67    3.95
  -1  -4   1  125.99    3.90
  -1  -4   1  121.45    3.98
  -1  -4   1  118.82    3.94
  -1  -4   2  336.63    9.99
  -1  -4   2  314.92   10.08
  -1  -4   2  328.25   10.04
  -1  -4   2  325.59   10.11
  -1  -4   2  319.83   10.11
  -1  -4   3  535.92   16.85
  -1  -4   3  563.17   16.82
  -1  -4   3  557.06   16.87
  -1  -4   3  547.02   16.91
  -1  -4   4   10.92    0.89
  -1  -4   4   11.10    0.99
  -1  -4   4   10.71    1.11
  -1  -4   5  131.21    4.20
  -1  -4   5  140.52    4.25
  -1  -4   5  120.78    4.15
  -1  -4   5  132.07    4.32
  -1  -4   6  387.29   12.03
  -1  -4   6  370.32   11.97
  -1  -4   6  404.64   12.02
  -1  -4   6  413.56   12.20
  -1  -4   7   19.11    1.62
  -1  -4   7   15.91    1.17
  -1  -4   7   17.77    1.50
  -1  -4   7   20.51    1.47
  -1  -4   8  174.09    5.51
  -1  -4   8  152.67    5.32
  -1  -4   9   39.37    2.34
  -1  -4  10   13.22    2.01
  -1  -4  11   40.61    2.65
  -1  -4  12   56.48    3.09
  -1  -4  13   40.73    2.97
  -1  -3 -14   35.56    3.36
  -1  -3 -13   15.49    2.81
  -1  -3 -12   -3.71    2.44
  -1  -3 -11   85.27    3.69
  -1  -3 -10   84.88    3.50
  -1  -3  -9   21.97    1.93
  -1  -3  -8  235.12    7.56
  -1  -3  -7   42.68    1.75
  -1  -3  -7   41.98    1.96
  -1  -3  -7   41.79    1.88
  -1  -3  -6   40.15    1.72
  -1  -3  -6   39.46    1.60
  -1  -3  -6   38.33    1.63
  -1  -3  -6   37.51    1.77
  -1  -3  -5  392.23   12.18
  -1  -3  -5  399.65   12.16
  -1  -3  -5  397.61   12.18
  -1  -3  -5  399.61   12.24
  -1  -3  -4   42.16    1.63
  -1  -3  -4   44.21    1.69
  -1  -3  -4   50.03    1.71
  -1  -3  -3  213.17    6.51
  -1  -3  -3  223.42    6.50
  -1  -3  -3  203.89    6.39
  -1  -3  -2  521.73   15.53
  -1  -3  -2  475.03   15.54
  -1  -3  -2  520.19   15.47
  -1  -3  -1  148.25    4.57
  -1  -3  -1  146.74    4.60
  -1  -3  -1  139.61    4.57
  -1  -3  -1  151.16    4.55
  -1  -3   0 1669.32   50.78
  -1  -3   0 1712.89   50.83
  -1  -3   0 1660.55   50.80
  -1  -3   1   82.89    2.69
  -1  -3   1   78.28    2.75
  -1  -3   1   90.88    2.68
  -1  -3   1   84.33    2.78
  -1  -3   2    0.81    0.61
  -1  -3   2    1.27    0.61
  -1  -3   2    0.68    0.32
  -1  -3   2    1.56    0.70
  -1  -3   3  460.82   13.84
  -1  -3   3  444.99   13.87
  -1  -3   4  172.10    5.33
  -1  -3   4  170.25    5.31
  -1  -3   4  165.99    5.38
  -1  -3   5   35.85    1.45
  -1  -3   5   42.67    1.62
  -1  -3   5   43.04    1.61
  -1  -3   5   41.43    1.71
  -1  -3   6  341.78    9.88
  -1  -3   6  339.71    9.83
  -1  -3   6  334.56    9.96
  -1  -3   7    1.87    1.36
  -1  -3   7    1.19    0.31
  -1  -3   7    1.59    0.71
  -1  -3   7    1.42    1.04
  -1  -3   7    2.04    1.18
  -1  -3   8   -0.82    1.40
  -1  -3   8    0.68    0.46
  -1  -3   8    1.71    1.34
  -1  -3   9  140.77    4.62
  -1  -3   9  210.44    5.25
  -1  -3  10    3.03    1.81
  -1  -3  11   59.19    2.86
  -1  -3  12   19.44    2.29
  -1  -3  12   21.23    2.50
  -1  -3  13    1.48    2.33
  -1  -3  13    2.46    2.67
  -1  -2 -14    9.42    2.95
  -1  -2 -13   20.67    2.75
  -1  -2 -12   22.89    2.52
  -1  -2 -11   22.10    2.30
  -1  -2 -10  105.29    3.95
  -1  -2  -9    0.24    1.58
  -1  -2  -9    1.86    0.82
  -1  -2  -8   16.51    1.49
  -1  -2  -8   16.26    0.94
  -1  -2  -7  313.74    8.99
  -1  -2  -7  318.61    9.18
  -1  -2  -6   40.41    1.66
  -1  -2  -6   37.06    1.44
  -1  -2  -6   40.27    1.66
  -1  -2  -6   36.94    1.32
  -1  -2  -6   39.35    1.42
  -1  -2  -5  645.42   18.79
  -1  -2  -5  618.97   18.74
  -1  -2  -5  614.22   18.73
  -1  -2  -5  659.77   18.81
  -1  -2  -5  590.74   18.69
  -1  -2  -4  497.01   13.39
  -1  -2  -4  500.46   13.41
  -1  -2  -4  493.76   13.35
  -1  -2  -3   50.40    1.76
  -1  -2  -3   54.29    1.81
  -1  -2  -2   46.40    1.60
  -1  -2  -1 5175.29  155.81
  -1  -2  -1 5125.01  155.81
  -1  -2   0  156.40    5.02
  -1  -2   0  166.52    5.05
  -1  -2   1 1446.75   44.62
  -1  -2   1 1476.43   44.61
  -1  -2   1 1452.66   44.66
  -1  -2   1 1555.74   44.68
  -1  -2   2  294.78    8.99
  -1  -2   2  294.98    9.02
  -1  -2   3  131.04    4.14
  -1  -2   3  131.52    4.13
  -1  -2   3  138.01    4.23
  -1  -2   4  249.01    7.30
  -1  -2   4  257.07    7.33
  -1  -2   4  269.31    7.40
  -1  -2   5    8.08    0.48
  -1  -2   5    8.98    0.74
  -1  -2   5    8.91    0.89
  -1  -2   5    9.95    0.93
  -1  -2   6  175.83    5.45
  -1  -2   6  172.48    5.49
  -1  -2   6  176.76    5.59
  -1  -2   7   30.96    1.01
  -1  -2   7   29.56    1.40
  -1  -2   7   33.99    1.49
  -1  -2   8    0.75    1.28
  -1  -2   8    1.03    0.79
  -1  -2   8    0.76    1.20
  -1  -2   9  117.46    3.98
  -1  -2   9  107.50    3.56
  -1  -2  10   31.27    2.05
  -1  -2  11   49.23    2.65
  -1  -2  11   45.29    2.49
  -1  -2  12   25.82    2.24
  -1  -2  12   32.67    2.61
  -1  -2  13    4.83    2.15
  -1  -2  13    6.36    2.45
  -1  -1 -13  115.29    4.58
  -1  -1 -12   60.64    3.09
  -1  -1 -11    8.30    1.99
  -1  -1 -10  185.55    5.80
  -1  -1 -10  174.25    6.04
  -1  -1  -9   80.31    2.76
  -1  -1  -9   78.24    3.03
  -1  -1  -8    4.05    0.92
  -1  -1  -8    3.39    1.24
  -1  -1  -7  458.50   14.02
  -1  -1  -7  454.18   13.93
  -1  -1  -6    2.38    0.69
  -1  -1  -6    2.49    0.96
  -1  -1  -6    1.99    0.44
  -1  -1  -6    1.32    0.39
  -1  -1  -5   15.00    0.68
  -1  -1  -5   17.26    0.94
  -1  -1  -5   16.55    0.83
  -1  -1  -4  412.44   12.90
  -1  -1  -4  430.30   12.96
  -1  -1  -4  423.77   12.95
  -1  -1  -4  429.52   12.88
  -1  -1  -3   14.67    0.65
  -1  -1  -3   13.89    0.81
  -1  -1  -3   15.20    0.78
  -1  -1   0   44.45    1.41
  -1  -1   1  366.71   11.12
  -1  -1   2  636.25   19.28
  -1  -1   2  635.88   19.33
  -1  -1   3   90.57    2.95
  -1  -1   3   94.73    2.95
  -1  -1   3   92.87    2.88
  -1  -1   4  622.49   19.01
  -1  -1   4  648.09   19.10
  -1  -1   4  632.24   19.02
  -1  -1   4  608.60   19.08
  -1  -1   5   83.34    2.51
  -1  -1   5   82.62    2.63
  -1  -1   5   89.03    2.62
  -1  -1   6   50.49    1.38
  -1  -1   6   49.46    1.57
  -1  -1   6   51.17    1.51
  -1  -1   7  288.51    8.87
  -1  -1   7  290.80    8.99
  -1  -1   7  287.16    8.98
  -1  -1   8   -0.68    1.17
  -1  -1   8    0.15    1.25
  -1  -1   8    0.43    0.95
  -1  -1   9   24.18    1.71
  -1  -1   9   26.22    1.43
  -1  -1  10   83.89    3.16
  -1  -1  10   77.09    3.04
  -1  -1  10   77.06    2.79
  -1  -1  11   -0.90    1.65
  -1  -1  11    0.23    1.96
  -1  -1  12   46.57    2.53
  -1  -1  12   56.90    2.82
  -1  -1  13   26.63    2.58
  -1  -1  14   10.39    2.56
  -1   0 -12   33.89    2.47
  -1   0 -11    7.84    1.95
  -1   0 -10   98.29    3.71
  -1   0 -10  106.12    3.56
  -1   0  -9   92.01    3.43
  -1   0  -9  100.66    3.34
  -1   0  -8    6.39    1.09
  -1   0  -8    5.04    1.23
  -1   0  -7  131.01    4.32
  -1   0  -7  135.52    4.30
  -1   0  -6   83.11    2.80
  -1   0  -6   84.37    2.80
  -1   0  -5  177.31    5.54
  -1   0  -5  177.81    5.55
  -1   0  -4  762.67   23.27
  -1   0  -4  768.42   23.26
  -1   0  -3  672.03   20.34
  -1   0  -3  667.40   20.32
  -1   0  -2  250.09    7.74
  -1   0  -2  256.61    7.73
  -1   0  -1   12.20    0.53
  -1   0   0  792.32   24.00
  -1   0   1    9.05    0.51
  -1   0   2  300.54    9.16
  -1   0   3   37.18    1.33
  -1   0   3   36.93    1.29
  -1   0   4  333.92   10.16
  -1   0   4  330.54   10.16
  -1   0   5   71.66    2.38
  -1   0   5   70.13    2.37
  -1   0   6   56.13    1.40
  -1   0   6   58.34    1.41
  -1   0   7  585.42   13.49
  -1   0   7  568.88   13.56
  -1   0   8    8.74    1.15
  -1   0   8   10.27    1.31
  -1   0   8    9.02    1.32
  -1   0   8   11.00    1.13
  -1   0   9   88.89    3.21
  -1   0   9   97.40    3.35
  -1   0   9   88.26    3.14
  -1   0  10   69.77    2.82
  -1   0  10   79.95    3.06
  -1   0  10   77.52    2.82
  -1   0  11   12.85    1.54
  -1   0  11   14.40    1.89
  -1   0  12   76.67    3.33
  -1   0  13   51.92    2.90
  -1   0  14    8.99    2.52
  -1   1 -11  132.29    4.66
  -1   1 -10    4.79    1.39
  -1   1 -10    3.78    1.52
  -1   1  -9  221.94    7.57
  -1   1  -9  263.08    7.66
  -1   1  -8   26.48    1.51
  -1   1  -8   27.18    1.51
  -1   1  -7   38.08    1.62
  -1   1  -7   36.46    1.67
  -1   1  -6  205.99    5.87
  -1   1  -6  205.07    5.95
  -1   1  -6  208.29    5.94
  -1   1  -5    4.40    0.92
  -1   1  -5    3.75    0.65
  -1   1  -5    4.53    0.72
  -1   1  -4   95.04    3.02
  -1   1  -4   89.56    2.90
  -1   1  -3  244.25    7.53
  -1   1  -3  244.33    7.47
  -1   1  -2  125.92    4.26
  -1   1  -2  143.50    4.22
  -1   1  -1  406.29   12.35
  -1   1   0  399.19   12.14
  -1   1   3  490.51   14.96
  -1   1   4  165.20    5.13
  -1   1   4  170.02    5.25
  -1   1   5  174.22    5.27
  -1   1   5  181.20    5.38
  -1   1   5  158.23    5.28
  -1   1   5  174.93    5.34
  -1   1   6  107.83    3.31
  -1   1   6  110.31    3.20
  -1   1   6   90.44    3.13
  -1   1   6  105.70    3.32
  -1   1   6   95.59    3.19
  -1   1   7   61.34    1.95
  -1   1   7   59.88    1.70
  -1   1   7   55.91    1.94
  -1   1   7   59.06    1.78
  -1   1   8  233.07    7.24
  -1   1   8  247.53    7.26
  -1   1   9    5.99    1.42
  -1   1   9    4.51    1.13
  -1   1   9    3.81    1.37
  -1   1  10   84.92    3.15
  -1   1  10   97.85    3.42
  -1   1  10   95.18    3.34
  -1   1  11   17.54    1.86
  -1   1  11   15.23    1.42
  -1   1  12    4.42    1.99
  -1   1  13   63.77    3.20
  -1   1  14   10.93    2.47
  -1   2 -11   94.32    3.55
  -1   2 -10    1.81    1.47
  -1   2  -9  243.49    8.25
  -1   2  -9  304.80    8.49
  -1   2  -8  132.73    4.14
  -1   2  -8  125.55    4.29
  -1   2  -8  138.10    4.52
  -1   2  -8  142.58    4.48
  -1   2  -7    1.18    1.17
  -1   2  -7    1.08    0.99
  -1   2  -7    1.15    0.80
  -1   2  -7    1.28    1.16
  -1   2  -6  681.68   20.77
  -1   2  -6  683.67   20.75
  -1   2  -6  671.74   20.86
  -1   2  -6  693.61   20.89
  -1   2  -5   69.11    2.30
  -1   2  -5   66.85    2.26
  -1   2  -5   74.00    2.35
  -1   2  -5   70.65    2.43
  -1   2  -5   70.12    2.48
  -1   2  -4   21.28    1.21
  -1   2  -4   24.17    1.00
  -1   2  -4   22.79    0.96
  -1   2  -4   22.26    1.12
  -1   2  -4   21.57    1.12
  -1   2  -3  414.93   12.55
  -1   2  -3  413.29   12.45
  -1   2  -3  406.23   12.51
  -1   2  -3  413.13   12.52
  -1   2  -3  396.72   12.50
  -1   2  -2  508.36   15.47
  -1   2  -2  508.86   15.52
  -1   2  -2  509.11   15.51
  -1   2  -1   99.85    3.29
  -1   2  -1  105.76    3.32
  -1   2  -1  103.18    3.26
  -1   2  -1  106.35    3.27
  -1   2   0 1327.32   39.19
  -1   2   0 1281.30   39.21
  -1   2   0 1266.19   39.19
  -1   2   1   67.24    2.01
  -1   2   1   55.36    2.10
  -1   2   1   59.64    2.08
  -1   2   2  660.54   19.83
  -1   2   2  640.83   19.89
  -1   2   3  378.39   11.45
  -1   2   3  372.23   11.52
  -1   2   4  151.28    4.72
  -1   2   4  143.62    4.60
  -1   2   4  150.98    4.68
  -1   2   4  151.91    4.75
  -1   2   5  511.41   15.63
  -1   2   5  546.82   15.68
  -1   2   5  529.89   15.63
  -1   2   5  547.72   15.71
  -1   2   6  186.92    5.64
  -1   2   6  188.49    5.60
  -1   2   6  201.85    5.75
  -1   2   6  209.91    5.67
  -1   2   7   71.78    2.51
  -1   2   7   76.36    2.45
  -1   2   7   76.23    2.39
  -1   2   7   72.82    2.63
  -1   2   7   62.16    2.31
  -1   2   8  526.49   14.83
  -1   2   8  543.32   14.87
  -1   2   9   23.54    1.57
  -1   2   9   24.58    1.73
  -1   2  10   70.43    2.63
  -1   2  10  109.81    3.15
  -1   2  11   98.89    3.69
  -1   2  12   14.04    2.02
  -1   2  13   40.87    2.72
  -1   2  14   34.24    2.77
  -1   3 -10   64.88    2.52
  -1   3  -9   10.54    1.26
  -1   3  -9   12.99    1.86
  -1   3  -8  159.43    5.30
  -1   3  -8  175.89    5.28
  -1   3  -8  163.55    5.54
  -1   3  -8  166.10    5.52
  -1   3  -7    5.00    1.36
  -1   3  -7    3.40    1.06
  -1   3  -7    4.81    1.35
  -1   3  -7    3.63    0.94
  -1   3  -6  261.61    8.23
  -1   3  -6  274.72    8.30
  -1   3  -6  268.73    8.38
  -1   3  -6  270.01    8.41
  -1   3  -5   65.95    2.32
  -1   3  -5   70.43    2.35
  -1   3  -5   69.39    2.51
  -1   3  -5   73.88    2.45
  -1   3  -5   73.04    2.59
  -1   3  -4   25.65    1.07
  -1   3  -4   24.82    1.35
  -1   3  -4   24.16    1.14
  -1   3  -4   25.56    1.34
  -1   3  -4   23.64    1.36
  -1   3  -3  499.65   15.24
  -1   3  -3  515.70   15.30
  -1   3  -3  492.78   15.31
  -1   3  -3  492.59   15.30
  -1   3  -2  206.91    6.53
  -1   3  -2  200.88    6.49
  -1   3  -2  216.95    6.51
  -1   3  -2  201.81    6.43
  -1   3  -2  213.23    6.52
  -1   3  -2  212.32    6.43
  -1   3  -1  324.34   10.12
  -1   3  -1  326.54   10.06
  -1   3  -1  328.31   10.11
  -1   3  -1  325.50   10.14
  -1   3  -1  339.33   10.13
  -1   3   0  505.96   15.20
  -1   3   0  490.95   15.19
  -1   3   0  487.95   15.22
  -1   3   0  509.04   15.26
  -1   3   1  194.61    5.73
  -1   3   1  175.88    5.79
  -1   3   1  176.62    5.80
  -1   3   1  188.92    5.83
  -1   3   2    1.99    0.55
  -1   3   2    1.80    0.84
  -1   3   2    1.81    0.96
  -1   3   2    2.24    0.88
  -1   3   2    2.15    0.94
  -1   3   2    1.58    0.33
  -1   3   3  421.00   13.21
  -1   3   3  442.96   13.37
  -1   3   3  464.50   13.36
  -1   3   3  436.04   13.32
  -1   3   4  204.86    5.66
  -1   3   4  211.18    5.65
  -1   3   4  202.50    5.61
  -1   3   5  188.53    4.08
  -1   3   5  189.29    3.91
  -1   3   5  189.63    4.05
  -1   3   5  193.96    3.96
  -1   3   6   87.01    3.28
  -1   3   6   93.19    3.05
  -1   3   6   88.98    3.09
  -1   3   6   94.40    3.13
  -1   3   6   96.02    3.29
  -1   3   7    6.80    1.13
  -1   3   7    6.44    1.42
  -1   3   7    5.98    1.45
  -1   3   7    7.66    1.11
  -1   3   7    8.15    1.15
  -1   3   8   23.94    1.52
  -1   3   8   22.88    1.37
  -1   3   8   19.38    1.72
  -1   3   9  193.48    5.87
  -1   3   9  175.39    6.04
  -1   3  10    7.50    1.59
  -1   3  11  121.28    4.33
  -1   3  12    8.99    2.00
  -1   3  13    6.39    2.15
  -1   4 -10  106.86    4.20
  -1   4  -9    6.17    1.11
  -1   4  -9    8.74    1.92
  -1   4  -8  150.87    4.43
  -1   4  -8  136.99    4.66
  -1   4  -7  183.76    6.06
  -1   4  -7  208.56    6.20
  -1   4  -7  195.64    6.32
  -1   4  -7  202.80    6.39
  -1   4  -6   11.65    0.97
  -1   4  -6   14.76    1.38
  -1   4  -6   13.55    1.38
  -1   4  -6   13.58    1.48
  -1   4  -5  493.39   14.83
  -1   4  -5  479.43   14.96
  -1   4  -5  484.50   14.93
  -1   4  -5  479.65   15.01
  -1   4  -4  165.71    5.34
  -1   4  -4  168.29    5.20
  -1   4  -4  167.97    5.29
  -1   4  -4  163.03    5.20
  -1   4  -4  169.68    5.37
  -1   4  -3   79.82    2.60
  -1   4  -3   77.24    2.74
  -1   4  -3   83.42    2.68
  -1   4  -3   77.33    2.78
  -1   4  -3   79.42    2.60
  -1   4  -3   66.16    2.74
  -1   4  -2  218.92    6.61
  -1   4  -2  216.83    6.69
  -1   4  -2  208.95    6.72
  -1   4  -2  212.97    6.69
  -1   4  -2  208.49    6.62
  -1   4  -2  209.09    6.74
  -1   4  -1   59.71    2.16
  -1   4  -1   56.15    2.19
  -1   4  -1   60.25    2.13
  -1   4  -1   63.07    2.22
  -1   4  -1   60.68    2.29
  -1   4   0   93.65    3.11
  -1   4   0   98.02    3.20
  -1   4   0   94.03    3.13
  -1   4   0   92.11    3.18
  -1   4   1  433.95   14.11
  -1   4   1  440.44   14.14
  -1   4   2    1.78    0.76
  -1   4   2    1.29    1.02
  -1   4   2    1.79    1.02
  -1   4   2    2.18    1.14
  -1   4   2    2.06    1.13
  -1   4   3  405.71   12.28
  -1   4   3  407.61   12.43
  -1   4   3  411.75   12.40
  -1   4   3  382.57   12.24
  -1   4   3  419.02   12.43
  -1   4   3  423.29   12.42
  -1   4   4  336.41    9.60
  -1   4   4  321.47    9.54
  -1   4   4  335.00    9.56
  -1   4   5   17.21    1.45
  -1   4   5   19.01    1.21
  -1   4   5   16.48    1.28
  -1   4   6  289.17    9.45
  -1   4   6  303.69    9.35
  -1   4   6  297.00    9.33
  -1   4   6  307.63    9.43
  -1   4   7  102.49    3.94
  -1   4   7  112.69    3.73
  -1   4   7  110.02    3.71
  -1   4   7  107.21    3.87
  -1   4   8    3.43    1.85
  -1   4   8    4.31    1.36
  -1   4   9  142.33    5.14
  -1   4  10   33.95    2.63
  -1   4  11   11.52    2.58
  -1   4  12   24.11    2.94
  -1   5 -10   31.84    2.64
  -1   5  -9   18.18    2.18
  -1   5  -8   60.82    2.24
  -1   5  -8   84.53    2.99
  -1   5  -7  162.99    4.67
  -1   5  -7  135.23    4.38
  -1   5  -7  126.07    4.37
  -1   5  -7  159.83    4.81
  -1   5  -6   12.76    1.06
  -1   5  -6   11.15    1.05
  -1   5  -6   11.88    1.57
  -1   5  -6   11.46    1.58
  -1   5  -5  310.62    9.44
  -1   5  -5  307.09    9.62
  -1   5  -5  301.27    9.45
  -1   5  -5  310.73    9.64
  -1   5  -4  140.93    4.39
  -1   5  -4  142.18    4.52
  -1   5  -4  135.59    4.38
  -1   5  -4  143.61    4.59
  -1   5  -4  133.26    4.56
  -1   5  -4  124.98    4.56
  -1   5  -3   14.64    1.12
  -1   5  -3   15.27    1.22
  -1   5  -3   15.50    1.40
  -1   5  -3   14.71    1.17
  -1   5  -3   12.13    1.35
  -1   5  -3   11.90    1.48
  -1   5  -2  740.23   22.09
  -1   5  -2  694.98   22.17
  -1   5  -2  728.62   22.17
  -1   5  -2  746.74   22.17
  -1   5  -2  727.51   22.09
  -1   5  -2  700.64   22.18
  -1   5  -1  145.75    4.69
  -1   5  -1  150.59    4.79
  -1   5  -1  142.69    4.80
  -1   5  -1  147.45    4.76
  -1   5  -1  142.67    4.72
  -1   5   0  193.55    5.96
  -1   5   0  184.43    6.00
  -1   5   0  194.05    6.00
  -1   5   0  180.38    5.92
  -1   5   1  210.87    6.58
  -1   5   1  203.27    6.57
  -1   5   1  206.31    6.49
  -1   5   2   54.40    2.37
  -1   5   2   59.94    2.37
  -1   5   2   62.47    2.31
  -1   5   2   59.57    2.37
  -1   5   2   56.77    2.08
  -1   5   3   15.46    1.52
  -1   5   3   16.86    1.49
  -1   5   3   19.87    1.39
  -1   5   3   19.13    1.58
  -1   5   3   18.20    1.03
  -1   5   4   87.08    3.40
  -1   5   4  103.87    3.31
  -1   5   4   92.72    3.32
  -1   5   4   90.92    3.00
  -1   5   4   97.83    3.40
  -1   5   4   93.61    3.01
  -1   5   5   41.65    2.08
  -1   5   5   48.15    1.90
  -1   5   5   49.76    2.03
  -1   5   5   41.07    1.51
  -1   5   6   58.44    2.80
  -1   5   6   66.28    2.57
  -1   5   6   65.12    2.62
  -1   5   7   94.72    3.73
  -1   5   7   95.32    3.44
  -1   5   8    6.92    2.11
  -1   5   8    8.08    1.67
  -1   5   9   25.10    2.48
  -1   5  10   35.97    2.86
  -1   5  11    3.37    2.75
  -1   5  12   51.72    3.65
  -1   6 -11    3.96    2.86
  -1   6 -10   55.95    3.29
  -1   6  -9   41.76    2.81
  -1   6  -8   -0.16    2.06
  -1   6  -7   39.80    2.23
  -1   6  -7   38.79    2.33
  -1   6  -6   75.42    2.63
  -1   6  -6   74.27    3.03
  -1   6  -6   76.08    3.11
  -1   6  -5    7.59    1.17
  -1   6  -5    7.24    1.16
  -1   6  -5    5.93    1.69
  -1   6  -5    7.67    1.72
  -1   6  -4  164.25    5.25
  -1   6  -4  160.42    5.24
  -1   6  -4  170.95    5.48
  -1   6  -4  163.18    5.48
  -1   6  -3   15.96    1.33
  -1   6  -3   16.47    1.69
  -1   6  -3   15.85    1.78
  -1   6  -3   16.68    1.39
  -1   6  -3   14.23    1.52
  -1   6  -2  112.49    3.64
  -1   6  -2  111.72    3.77
  -1   6  -2  112.06    3.79
  -1   6  -2   98.21    3.82
  -1   6  -2  108.99    3.65
  -1   6  -2  100.01    3.71
  -1   6  -1  172.24    5.30
  -1   6  -1  165.24    5.39
  -1   6  -1  169.93    5.41
  -1   6  -1  151.86    5.41
  -1   6  -1  158.37    5.30
  -1   6   0    8.32    1.19
  -1   6   0    9.89    1.37
  -1   6   0    9.72    1.54
  -1   6   0    9.69    1.40
  -1   6   1  342.00   10.47
  -1   6   1  319.35   10.34
  -1   6   1  346.15   10.43
  -1   6   2   63.19    2.60
  -1   6   2   58.73    2.55
  -1   6   2   62.53    2.64
  -1   6   2   68.43    2.65
  -1   6   2   62.00    2.30
  -1   6   3   23.76    1.84
  -1   6   3   27.50    1.70
  -1   6   3   25.96    1.91
  -1   6   3   25.02    1.85
  -1   6   3   26.50    1.37
  -1   6   4   90.90    3.69
  -1   6   4  106.95    3.63
  -1   6   4  100.53    3.65
  -1   6   4   93.24    3.65
  -1   6   4  101.85    3.27
  -1   6   5   92.47    3.05
  -1   6   5   76.04    3.19
  -1   6   5   85.10    3.09
  -1   6   5   71.54    2.47
  -1   6   6    3.19    1.87
  -1   6   6    4.41    1.71
  -1   6   6    4.64    1.07
  -1   6   7  130.93    4.55
  -1   6   7  132.96    4.33
  -1   6   8    0.52    2.35
  -1   6   9   -0.84    2.51
  -1   6  10   17.22    2.90
  -1   6  11    2.66    2.97
  -1   7 -11    5.84    3.09
  -1   7 -10   33.35    3.08
  -1   7  -9   47.71    3.10
  -1   7  -8    1.54    2.25
  -1   7  -7   89.97    3.66
  -1   7  -6  197.00    6.59
  -1   7  -5   19.61    1.52
  -1   7  -5   17.11    2.09
  -1   7  -4  261.84    8.28
  -1   7  -4  271.89    8.52
  -1   7  -4  261.61    8.27
  -1   7  -3  100.90    3.74
  -1   7  -3   97.86    3.49
  -1   7  -3  100.56    3.49
  -1   7  -2    2.13    1.51
  -1   7  -2    1.56    1.45
  -1   7  -2    3.73    1.43
  -1   7  -2    2.51    1.76
  -1   7  -1  291.12    9.01
  -1   7  -1  268.11    8.93
  -1   7  -1  289.27    8.89
  -1   7   0  146.19    4.98
  -1   7   0  143.32    4.94
  -1   7   0  152.25    4.88
  -1   7   0  138.95    4.82
  -1   7   1  100.80    3.71
  -1   7   1  101.55    3.66
  -1   7   1   97.41    3.49
  -1   7   2   49.43    2.49
  -1   7   2   47.42    2.37
  -1   7   2   47.31    2.04
  -1   7   3   22.75    2.14
  -1   7   3   27.25    1.57
  -1   7   4   48.15    2.71
  -1   7   4   53.71    2.04
  -1   7   5   19.91    2.22
  -1   7   6   -0.19    2.22
  -1   7   7   10.55    2.45
  -1   7   8   27.00    2.83
  -1   7   9    0.30    2.70
  -1   7  10   60.47    3.75
  -1   8 -10   -0.41    3.01
  -1   8  -9   49.81    3.33
  -1   8  -8   17.69    2.68
  -1   8  -7    3.07    2.31
  -1   8  -6   99.24    4.03
  -1   8  -5   18.46    2.39
  -1   8  -4   74.44    3.40
  -1   8  -4   77.31    2.95
  -1   8  -3  148.02    5.16
  -1   8  -3  144.03    4.92
  -1   8  -2    1.20    1.67
  -1   8  -2   -0.74    1.68
  -1   8  -2    0.44    2.15
  -1   8  -1  137.99    4.84
  -1   8  -1  133.70    4.64
  -1   8   0  230.73    7.23
  -1   8   0  213.98    7.06
  -1   8   0  213.91    7.08
  -1   8   1   14.39    1.75
  -1   8   1   15.10    2.13
  -1   8   2  241.46    7.86
  -1   8   2  236.98    7.61
  -1   8   3   83.89    3.62
  -1   8   4   56.74    3.09
  -1   8   5   47.90    3.03
  -1   8   6   10.68    2.54
  -1   8   7    5.29    2.67
  -1   8   8   52.11    3.54
  -1   8   9    1.80    3.09
  -1   8  10    3.28    3.31
  -1   9  -9   25.35    3.19
  -1   9  -8   57.70    3.53
  -1   9  -7    3.66    2.57
  -1   9  -6   41.84    2.96
  -1   9  -5   61.22    3.33
  -1   9  -4   11.72    2.47
  -1   9  -3  187.85    6.46
  -1   9  -2   29.81    2.55
  -1   9  -2   30.14    2.22
  -1   9  -1   16.08    2.34
  -1   9   0   23.49    2.48
  -1   9   1   41.23    2.75
  -1   9   2   23.79    2.57
  -1   9   3   23.26    2.65
  -1   9   4   -0.79    2.48
  -1   9   5   30.17    2.95
  -1   9   6    6.65    2.98
  -1   9   7    2.23    3.00
  -1   9   8   14.49    3.27
  -1  10  -7    6.92    2.82
  -1  10  -6    1.49    2.80
  -1  10  -5   66.62    3.68
  -1  10  -4   34.77    3.03
  -1  10  -3   56.66    3.32
  -1  10  -2   73.63    3.67
  -1  10  -1    0.39    2.20
  -1  10  -1    1.23    2.62
  -1  10   0   24.55    2.76
  -1  10   1  168.95    6.09
  -1  10   2   12.07    2.71
  -1  10   3   35.14    3.11
  -1  10   4   26.00    3.08
  -1  10   5    9.22    3.06
  -1  10   6   15.26    3.08
  -1  10   7    1.90    3.43
  -1  11  -3   18.41    3.03
  -1  11  -2   51.93    3.44
  -1  11  -1    9.24    2.84
  -1  11   0   29.23    3.02
  -1  11   1    7.41    2.94
  -1  11   2    0.66    2.94
  -1  11   3    1.87    3.00
  -1  11   4   29.72    3.45
  -1  11   5    5.03    3.28
   0 -11  -5    7.36    2.96
   0 -11  -4   39.09    3.25
   0 -11  -3    2.82    2.70
   0 -11  -2   88.85    4.00
   0 -11   0    5.17    2.21
   0 -11   1   26.98    2.54
   0 -11   2   25.46    2.59
   0 -11   3   36.91    2.86
   0 -11   4   31.74    2.91
   0 -10  -7    8.61    2.98
   0 -10  -6    6.39    2.76
   0 -10  -5    2.08    2.68
   0 -10  -4   56.53    3.30
   0 -10  -3    4.64    2.38
   0 -10  -2    7.09    2.25
   0 -10  -1  113.77    4.17
   0 -10  -1  102.54    4.01
   0 -10   0    2.20    1.95
   0 -10   1   77.76    3.41
   0 -10   2   35.86    2.59
   0 -10   3    1.08    2.24
   0 -10   4   51.02    3.05
   0 -10   5   19.30    2.64
   0 -10   6   15.68    2.68
   0  -9  -8    0.67    2.91
   0  -9  -7   41.93    3.17
   0  -9  -6   15.31    2.67
   0  -9  -5    7.99    2.45
   0  -9  -4   52.42    2.91
   0  -9  -3    8.17    1.50
   0  -9  -3   11.24    2.14
   0  -9  -2   -0.11    1.56
   0  -9  -2    1.41    2.01
   0  -9  -1  117.43    4.34
   0  -9  -1  131.89    4.48
   0  -9   0   54.69    2.67
   0  -9   0   57.45    2.64
   0  -9   1   46.18    2.51
   0  -9   2   95.56    3.71
   0  -9   3    6.65    1.96
   0  -9   4   24.78    2.28
   0  -9   5   68.78    3.33
   0  -9   6    0.42    2.27
   0  -9   7   44.17    2.96
   0  -9   8   21.15    2.78
   0  -8 -10   40.40    3.43
   0  -8  -7   33.06    2.79
   0  -8  -6   97.86    3.98
   0  -8  -5   -0.16    2.07
   0  -8  -4   35.04    1.67
   0  -8  -4   35.71    2.39
   0  -8  -3   89.28    3.27
   0  -8  -3  102.45    3.71
   0  -8  -2    2.06    1.31
   0  -8  -2    3.05    1.75
   0  -8  -2    3.39    1.73
   0  -8  -1  119.75    4.23
   0  -8  -1  116.75    4.33
   0  -8  -1  130.63    4.30
   0  -8  -1  124.31    4.54
   0  -8   0   63.08    2.68
   0  -8   0   67.28    2.84
   0  -8   0   66.30    2.69
   0  -8   0   64.74    2.48
   0  -8   1    5.28    1.58
   0  -8   1    4.79    1.73
   0  -8   1    6.01    1.29
   0  -8   2  113.01    4.16
   0  -8   2  118.00    4.16
   0  -8   3   59.66    2.72
   0  -8   3   57.67    2.69
   0  -8   4   50.84    2.65
   0  -8   5  172.87    5.99
   0  -8   6    1.32    2.08
   0  -8   7   71.55    3.45
   0  -8   9   -2.34    2.53
   0  -7 -11   57.11    3.73
   0  -7 -10    3.10    2.74
   0  -7  -9   46.15    3.11
   0  -7  -6   95.88    3.83
   0  -7  -5   55.03    2.69
   0  -7  -5   52.23    2.12
   0  -7  -4   53.91    1.99
   0  -7  -4   53.66    2.56
   0  -7  -4   53.42    2.09
   0  -7  -3  152.26    4.89
   0  -7  -3  160.07    5.16
   0  -7  -3  143.82    5.24
   0  -7  -2   10.34    1.25
   0  -7  -2   10.08    1.61
   0  -7  -2   10.92    1.80
   0  -7  -2   11.19    1.57
   0  -7  -1   25.46    1.55
   0  -7  -1   28.72    1.86
   0  -7  -1   28.76    2.02
   0  -7  -1   28.97    1.77
   0  -7  -1   26.32    1.45
   0  -7   0  112.70    3.85
   0  -7   0  113.00    3.90
   0  -7   0  109.33    3.71
   0  -7   0  113.04    3.82
   0  -7   1   83.09    3.22
   0  -7   1   89.84    3.26
   0  -7   1   92.94    3.16
   0  -7   1   86.71    3.41
   0  -7   2   57.22    2.49
   0  -7   2   62.39    2.53
   0  -7   2   57.62    2.72
   0  -7   3  156.48    5.48
   0  -7   3  175.37    5.51
   0  -7   3  160.77    5.59
   0  -7   4    4.37    1.62
   0  -7   4    6.14    1.63
   0  -7   5   82.21    3.34
   0  -7   5   84.24    3.27
   0  -7   6   45.94    2.52
   0  -7   8  110.18    4.37
   0  -7   9    6.39    2.37
   0  -7  10   24.01    2.70
   0  -7  11   50.11    3.36
   0  -6 -12    3.76    3.05
   0  -6 -11   82.23    4.07
   0  -6 -10   85.46    3.99
   0  -6  -9   47.06    2.93
   0  -6  -8  160.13    5.65
   0  -6  -6   54.41    2.18
   0  -6  -5  257.53    8.29
   0  -6  -5  259.20    8.04
   0  -6  -4   16.13    1.69
   0  -6  -4   15.83    1.19
   0  -6  -4   14.63    1.68
   0  -6  -3   84.24    2.81
   0  -6  -3   84.87    3.09
   0  -6  -3   82.33    3.17
   0  -6  -2  319.68    9.36
   0  -6  -2  288.84    9.42
   0  -6  -2  302.00    9.46
   0  -6  -2  289.28    9.53
   0  -6  -1    2.23    1.05
   0  -6  -1    2.77    1.30
   0  -6  -1    1.52    1.44
   0  -6  -1    2.45    1.27
   0  -6  -1    2.80    0.92
   0  -6   0  355.10   11.12
   0  -6   0  353.51   11.11
   0  -6   0  370.79   11.10
   0  -6   0  356.02   11.03
   0  -6   1   68.58    2.65
   0  -6   1   67.93    2.65
   0  -6   1   80.35    2.59
   0  -6   1   67.21    2.83
   0  -6   2   71.02    2.73
   0  -6   2   75.65    2.75
   0  -6   2   69.94    2.82
   0  -6   3  169.60    5.64
   0  -6   3  175.02    5.57
   0  -6   3  169.98    5.68
   0  -6   4  112.48    4.17
   0  -6   4  124.27    4.09
   0  -6   4  121.82    4.22
   0  -6   5  110.88    3.97
   0  -6   5  108.46    3.84
   0  -6   6  236.19    7.57
   0  -6   8  158.70    5.55
   0  -6   9   71.35    3.31
   0  -6  10    6.01    2.35
   0  -6  11   26.46    2.70
   0  -6  12   53.86    3.42
   0  -5 -13   16.56    3.24
   0  -5 -12   12.43    2.93
   0  -5 -11    3.77    2.67
   0  -5 -10  162.69    5.81
   0  -5  -9    4.27    2.15
   0  -5  -8  197.86    6.61
   0  -5  -7   11.68    1.79
   0  -5  -6    7.89    1.24
   0  -5  -5  227.08    7.07
   0  -5  -4  123.33    4.28
   0  -5  -4  127.28    4.07
   0  -5  -4  132.15    4.29
   0  -5  -3  189.43    5.86
   0  -5  -3  184.95    6.04
   0  -5  -3  192.97    6.10
   0  -5  -2  322.07    9.96
   0  -5  -2  339.05   10.09
   0  -5  -2  311.04   10.03
   0  -5  -2  332.48   10.16
   0  -5  -2  321.50   10.10
   0  -5  -1   19.35    1.09
   0  -5  -1   19.21    1.32
   0  -5  -1   20.59    1.24
   0  -5  -1   20.00    1.42
   0  -5  -1   18.80    1.00
   0  -5   0   42.27    1.68
   0  -5   0   40.21    1.79
   0  -5   0   43.46    1.73
   0  -5   1  305.02    9.56
   0  -5   1  326.38    9.65
   0  -5   1  295.92    9.53
   0  -5   1  319.30    9.50
   0  -5   1  293.10    9.62
   0  -5   2    7.20    1.24
   0  -5   2    6.26    1.08
   0  -5   2    7.39    1.11
   0  -5   2    6.73    1.32
   0  -5   3  121.39    4.08
   0  -5   3  121.28    3.99
   0  -5   3  119.66    4.09
   0  -5   4   51.41    2.26
   0  -5   4   55.91    2.18
   0  -5   4   56.26    2.30
   0  -5   5    5.48    1.32
   0  -5   6  179.66    5.81
   0  -5   7   57.19    2.58
   0  -5   7   52.50    2.43
   0  -5   8   50.47    2.56
   0  -5   9  173.27    5.97
   0  -5  10    4.49    2.10
   0  -5  11   37.96    2.74
   0  -5  12  160.69    5.83
   0  -5  12  149.73    5.72
   0  -5  13    0.55    2.74
   0  -4 -14    1.68    3.22
   0  -4 -13   53.86    3.62
   0  -4 -12   45.77    3.24
   0  -4 -11   -0.36    2.37
   0  -4 -10   57.70    3.03
   0  -4  -9  160.74    5.57
   0  -4  -8    4.95    1.75
   0  -4  -7  206.68    6.71
   0  -4  -6   90.33    3.23
   0  -4  -6   87.56    3.02
   0  -4  -5   65.92    2.36
   0  -4  -5   69.87    2.51
   0  -4  -4  221.51    7.00
   0  -4  -4  236.31    7.14
   0  -4  -3    8.86    1.09
   0  -4  -3    9.71    0.58
   0  -4  -3   11.00    1.15
   0  -4  -3   11.58    1.11
   0  -4  -2   28.78    1.44
   0  -4  -2   24.96    1.06
   0  -4  -2   25.49    1.31
   0  -4  -2   25.44    1.31
   0  -4  -2   27.07    1.42
   0  -4  -1  157.34    4.93
   0  -4  -1  165.63    5.00
   0  -4  -1  155.77    4.99
   0  -4  -1  160.88    5.04
   0  -4  -1  152.80    4.88
   0  -4   0   35.27    1.39
   0  -4   0   34.11    1.49
   0  -4   0   35.90    1.40
   0  -4   1  750.69   22.13
   0  -4   1  724.97   22.10
   0  -4   1  726.32   22.05
   0  -4   1  713.24   22.14
   0  -4   1  709.96   22.14
   0  -4   2   41.65    1.69
   0  -4   2   40.47    1.66
   0  -4   2   40.24    1.75
   0  -4   2   44.29    1.72
   0  -4   3  262.51    8.47
   0  -4   3  267.55    8.45
   0  -4   3  268.38    8.39
   0  -4   3  284.74    8.45
   0  -4   4  120.60    4.00
   0  -4   4  125.82    4.07
   0  -4   5   82.69    2.93
   0  -4   6  200.22    6.32
   0  -4   6  190.54    6.20
   0  -4   7   58.59    2.53
   0  -4   7   58.74    2.39
   0  -4   8   31.63    2.02
   0  -4   8   28.70    1.87
   0  -4   9   90.86    3.56
   0  -4  10   83.90    3.50
   0  -4  11   14.90    2.22
   0  -4  11   11.87    2.33
   0  -4  12   40.57    3.02
   0  -4  12   38.02    2.74
   0  -4  13    1.11    2.57
   0  -4  13   -0.18    2.76
   0  -4  14   -1.76    2.61
   0  -3 -14   15.68    3.14
   0  -3 -13   25.18    3.12
   0  -3 -12   31.51    2.76
   0  -3 -11   -1.42    2.26
   0  -3 -10   27.82    2.30
   0  -3  -9  109.28    4.02
   0  -3  -8    1.93    1.59
   0  -3  -7  403.61   12.53
   0  -3  -6   42.71    1.92
   0  -3  -5   73.85    2.69
   0  -3  -5   76.17    2.56
   0  -3  -4  469.06   14.76
   0  -3  -4  506.66   14.81
   0  -3  -3   67.30    2.42
   0  -3  -3   67.99    2.26
   0  -3  -3   73.72    2.38
   0  -3  -2  257.39    7.88
   0  -3  -2  257.98    7.99
   0  -3  -2  261.78    8.01
   0  -3  -1  563.48   16.97
   0  -3  -1  556.19   17.01
   0  -3  -1  562.36   17.00
   0  -3  -1  548.55   17.03
   0  -3  -1  561.80   17.03
   0  -3  -1  554.98   16.95
   0  -3   0   82.34    2.48
   0  -3   0   74.45    2.48
   0  -3   0   71.36    2.51
   0  -3   1    4.91    0.67
   0  -3   1    4.63    0.74
   0  -3   1    4.95    0.79
   0  -3   1    5.48    0.79
   0  -3   1    4.07    0.60
   0  -3   2  532.69   16.66
   0  -3   2  544.54   16.62
   0  -3   2  550.69   16.61
   0  -3   2  548.82   16.64
   0  -3   3   79.13    2.65
   0  -3   3   75.05    2.63
   0  -3   3   85.71    2.69
   0  -3   4  318.88    9.96
   0  -3   4  329.15    9.97
   0  -3   5   35.30    1.48
   0  -3   5   35.67    1.37
   0  -3   6   37.06    1.68
   0  -3   6   37.05    1.58
   0  -3   6   28.65    1.13
   0  -3   7  172.64    4.97
   0  -3   7  169.68    4.89
   0  -3   8  118.78    3.67
   0  -3   8  107.25    3.55
   0  -3   9   95.37    3.34
   0  -3   9  133.96    3.86
   0  -3  10  176.05    5.94
   0  -3  11   10.19    2.01
   0  -3  12   23.09    2.36
   0  -3  13  156.93    5.66
   0  -2 -13    0.15    2.62
   0  -2 -12   73.43    3.49
   0  -2 -11   34.67    2.50
   0  -2 -10   21.19    2.10
   0  -2  -9   15.04    1.81
   0  -2  -8   94.21    3.41
   0  -2  -7   86.37    3.10
   0  -2  -6   73.42    2.66
   0  -2  -5    0.81    0.98
   0  -2  -4  217.92    6.73
   0  -2  -4  218.33    6.71
   0  -2  -4  216.47    6.78
   0  -2  -3  199.72    6.13
   0  -2  -3  212.26    6.17
   0  -2  -2  645.31   19.14
   0  -2  -2  619.35   19.08
   0  -2  -2  631.30   19.12
   0  -2  -1 3325.14  100.53
   0  -2  -1 3312.85  100.55
   0  -2  -1 3314.17  100.57
   0  -2  -1 3334.86  100.57
   0  -2   0  718.70   20.67
   0  -2   0  661.30   20.66
   0  -2   0  667.04   20.67
   0  -2   1  601.82   18.06
   0  -2   1  595.49   18.05
   0  -2   1  602.39   18.03
   0  -2   1  598.09   18.00
   0  -2   1  564.88   18.05
   0  -2   2 1171.06   36.33
   0  -2   2 1221.96   36.33
   0  -2   2 1201.03   36.34
   0  -2   3  145.01    4.51
   0  -2   3  156.31    4.55
   0  -2   3  151.29    4.55
   0  -2   3  140.86    4.44
   0  -2   4 1006.31   30.63
   0  -2   4 1002.12   30.50
   0  -2   4 1002.49   30.58
   0  -2   4 1020.73   30.55
   0  -2   5  298.92    8.60
   0  -2   5  268.92    8.41
   0  -2   5  276.98    8.53
   0  -2   6    1.08    1.05
   0  -2   6    1.22    0.61
   0  -2   6    1.65    0.99
   0  -2   7  245.00    7.42
   0  -2   7  236.11    7.18
   0  -2   7  219.26    7.32
   0  -2   8   50.81    2.11
   0  -2   8   41.45    2.04
   0  -2   8   47.59    1.72
   0  -2   9    3.58    1.44
   0  -2   9    4.56    1.00
   0  -2  10   60.06    2.52
   0  -2  10   51.09    2.07
   0  -2  11   23.56    2.01
   0  -2  11   24.68    2.31
   0  -2  12   12.49    2.34
   0  -2  12    9.76    2.01
   0  -2  13   98.93    4.06
   0  -2  13  111.42    4.34
   0  -1 -13    1.06    2.50
   0  -1 -12   36.87    2.62
   0  -1 -11   70.24    3.12
   0  -1 -10   29.23    2.10
   0  -1  -9  155.81    5.20
   0  -1  -8   96.08    3.42
   0  -1  -7   72.84    2.43
   0  -1  -7   73.24    2.67
   0  -1  -6  251.78    7.94
   0  -1  -6  276.06    8.08
   0  -1  -5  256.30    7.93
   0  -1  -5  266.97    8.04
   0  -1  -4  180.97    5.59
   0  -1  -4  187.07    5.69
   0  -1  -3  894.56   27.22
   0  -1  -3  906.26   27.27
   0  -1  -2    9.76    0.56
   0  -1  -2    9.65    0.53
   0  -1  -2    9.29    0.61
   0  -1  -2    9.13    0.57
   0  -1  -1  144.57    4.48
   0  -1  -1  147.69    4.48
   0  -1   1   81.49    2.44
   0  -1   1   75.83    2.42
   0  -1   2  292.58    8.56
   0  -1   2  280.88    8.60
   0  -1   2  279.70    8.59
   0  -1   2  266.87    8.58
   0  -1   3  209.85    5.91
   0  -1   3  200.32    5.97
   0  -1   3  197.78    5.92
   0  -1   3  215.62    6.01
   0  -1   4  266.68    7.69
   0  -1   4  243.74    7.58
   0  -1   4  244.93    7.65
   0  -1   5  118.36    3.81
   0  -1   5  116.96    3.91
   0  -1   6  147.98    4.70
   0  -1   6  145.47    4.82
   0  -1   7  130.84    4.29
   0  -1   7  133.20    4.43
   0  -1   8  186.76    5.54
   0  -1   8  184.75    5.52
   0  -1   8  162.18    5.34
   0  -1   8  157.66    5.46
   0  -1   9   66.91    2.58
   0  -1   9   60.54    2.36
   0  -1  10  107.19    3.71
   0  -1  10  111.02    3.86
   0  -1  10   98.76    3.48
   0  -1  11   88.53    3.37
   0  -1  11   89.39    3.53
   0  -1  12   10.74    1.83
   0  -1  12    7.22    2.14
   0  -1  13   25.02    2.51
   0  -1  14   37.38    2.93
   0   0 -12   -0.47    2.09
   0   0 -11   92.45    3.62
   0   0 -10   26.45    1.94
   0   0 -10   28.28    1.63
   0   0  -9   89.26    3.08
   0   0  -9   88.26    3.25
   0   0  -8   77.47    2.65
   0   0  -8   72.91    2.79
   0   0  -7   30.70    1.40
   0   0  -7   31.92    1.57
   0   0  -6  568.53   17.19
   0   0  -6  558.16   17.17
   0   0  -5  375.39   11.29
   0   0  -5  363.31   11.29
   0   0  -4  448.64   13.43
   0   0  -4  432.96   13.42
   0   0  -3  857.24   26.34
   0   0  -3  880.57   26.34
   0   0  -2  823.41   24.98
   0   0  -2  825.68   24.98
   0   0   2  836.98   25.68
   0   0   2  859.43   25.69
   0   0   3  831.19   25.80
   0   0   3  875.09   25.82
   0   0   4  409.15   12.46
   0   0   4  407.66   12.44
   0   0   5  361.58   10.56
   0   0   5  333.07   10.52
   0   0   5  340.83   10.57
   0   0   6  522.41   15.65
   0   0   6  518.01   15.69
   0   0   6  499.56   15.62
   0   0   7   29.89    1.37
   0   0   7   29.32    1.53
   0   0   7   27.31    1.32
   0   0   8   63.61    2.37
   0   0   8   70.29    2.54
   0   0   8   66.12    2.37
   0   0   8   63.07    2.50
   0   0   9   77.26    2.81
   0   0   9   82.31    2.97
   0   0   9   75.89    2.75
   0   0  10   26.30    1.63
   0   0  10   25.85    1.86
   0   0  10   25.66    1.58
   0   0  11   81.34    3.05
   0   0  11   89.09    3.29
   0   0  11   76.24    3.00
   0   0  12    0.71    1.53
   0   0  12    2.38    1.98
   0   0  13    5.78    2.28
   0   0  14   57.94    3.27
   0   1 -11   93.92    3.56
   0   1 -10  108.11    3.97
   0   1 -10  119.91    3.96
   0   1  -9   78.53    2.84
   0   1  -9   72.75    2.81
   0   1  -8  198.12    6.32
   0   1  -8  199.44    6.30
   0   1  -7  151.10    4.91
   0   1  -7  158.81    4.96
   0   1  -6  166.33    5.13
   0   1  -6  160.35    5.18
   0   1  -5  130.91    4.19
   0   1  -5  139.51    4.29
   0   1  -4  262.94    8.15
   0   1  -4  270.29    8.22
   0   1  -4  271.89    8.22
   0   1  -3  222.56    6.37
   0   1  -3  206.57    6.42
   0   1  -3  215.72    6.44
   0   1  -2  288.28    8.51
   0   1  -2  274.82    8.54
   0   1  -2  280.58    8.56
   0   1  -2  261.88    8.59
   0   1  -1   79.10    2.55
   0   1  -1   90.12    2.56
   0   1  -1   79.15    2.57
   0   1   0  645.63   19.56
   0   1   1  152.05    4.65
   0   1   2    9.41    0.50
   0   1   2    8.98    0.51
   0   1   2    9.64    0.56
   0   1   3  762.79   24.11
   0   1   3  825.97   24.15
   0   1   3  803.00   24.13
   0   1   3  817.28   24.12
   0   1   3  795.52   24.17
   0   1   4  174.35    5.12
   0   1   4  178.43    5.19
   0   1   4  156.47    5.10
   0   1   4  170.05    5.20
   0   1   5  226.19    7.11
   0   1   5  238.33    7.18
   0   1   5  235.82    7.19
   0   1   6  221.53    7.01
   0   1   6  230.27    7.10
   0   1   6  236.04    7.10
   0   1   7   62.07    2.14
   0   1   7   62.83    2.32
   0   1   7   63.17    2.27
   0   1   8   80.33    2.71
   0   1   8   80.95    2.90
   0   1   8   81.28    2.86
   0   1   9  130.53    4.26
   0   1   9  130.68    4.43
   0   1   9  135.38    4.39
   0   1  10   22.35    1.39
   0   1  10   22.26    1.81
   0   1  10   25.32    1.71
   0   1  11   56.18    2.30
   0   1  11   64.37    2.77
   0   1  12   29.96    2.29
   0   1  13   -2.36    2.20
   0   1  14   29.90    2.79
   0   2 -10   61.95    2.59
   0   2 -10   71.05    2.79
   0   2  -9    3.72    1.39
   0   2  -8   51.60    2.02
   0   2  -8   54.79    2.22
   0   2  -7  236.23    7.49
   0   2  -7  255.18    7.64
   0   2  -6    2.18    1.03
   0   2  -6    2.07    0.72
   0   2  -6    1.08    0.61
   0   2  -6    0.86    1.01
   0   2  -5  296.44    8.78
   0   2  -5  277.60    8.76
   0   2  -5  284.61    8.87
   0   2  -5  295.93    8.92
   0   2  -4  983.86   30.24
   0   2  -4 1017.10   30.27
   0   2  -4 1000.49   30.32
   0   2  -4 1010.97   30.36
   0   2  -3  149.83    4.54
   0   2  -3  145.75    4.63
   0   2  -3  149.59    4.63
   0   2  -3  147.39    4.70
   0   2  -2 1234.07   37.81
   0   2  -2 1251.72   37.81
   0   2  -2 1250.74   37.76
   0   2  -1  563.88   17.48
   0   2  -1  585.44   17.52
   0   2  -1  582.06   17.51
   0   2  -1  581.05   17.52
   0   2   0  638.53   19.79
   0   2   0  655.09   19.80
   0   2   0  663.60   19.80
   0   2   1 3165.08   95.74
   0   2   1 3161.88   95.71
   0   2   1 3136.78   95.76
   0   2   1 3176.25   95.71
   0   2   2  646.92   19.82
   0   2   2  643.74   19.82
   0   2   2  665.26   19.82
   0   2   3  201.69    6.15
   0   2   3  196.60    6.14
   0   2   4  195.41    6.25
   0   2   4  196.18    6.33
   0   2   5    0.80    0.76
   0   2   5    1.32    0.93
   0   2   5    0.99    0.66
   0   2   6   69.58    1.85
   0   2   6   68.83    1.66
   0   2   6   69.23    2.00
   0   2   7   76.09    2.26
   0   2   7   78.32    2.32
   0   2   8   79.47    2.52
   0   2   8   84.05    2.57
   0   2   9   10.29    0.79
   0   2   9   13.23    1.47
   0   2   9   16.06    1.53
   0   2  10   10.44    0.85
   0   2  10   16.21    1.62
   0   2  11   29.05    2.09
   0   2  12   63.50    3.00
   0   2  13    1.11    2.23
   0   2  14   10.86    2.52
   0   3  -9  147.54    4.34
   0   3  -9  112.85    3.93
   0   3  -8  101.50    3.44
   0   3  -8  122.61    3.79
   0   3  -7  177.01    5.29
   0   3  -7  189.26    5.09
   0   3  -7  177.30    5.30
   0   3  -6   39.45    1.41
   0   3  -6   36.14    1.60
   0   3  -6   39.85    1.72
   0   3  -5   28.17    1.06
   0   3  -5   37.08    1.38
   0   3  -5   34.77    1.41
   0   3  -5   37.07    1.59
   0   3  -4  290.36    9.07
   0   3  -4  311.19    9.19
   0   3  -4  301.52    9.19
   0   3  -4  321.60    9.28
   0   3  -3   75.82    2.36
   0   3  -3   69.40    2.36
   0   3  -3   83.86    2.51
   0   3  -3   81.77    2.55
   0   3  -2  547.97   16.67
   0   3  -2  539.73   16.72
   0   3  -2  563.07   16.75
   0   3  -1    4.69    0.75
   0   3  -1    6.48    0.69
   0   3  -1    5.50    0.70
   0   3  -1    4.80    0.68
   0   3  -1    6.37    0.90
   0   3   0   73.11    2.49
   0   3   0   78.44    2.48
   0   3   0   78.50    2.47
   0   3   0   72.48    2.48
   0   3   1  548.09   16.86
   0   3   1  551.89   16.88
   0   3   1  558.60   16.83
   0   3   2  255.52    7.77
   0   3   2  258.58    7.78
   0   3   2  261.22    7.78
   0   3   2  245.28    7.70
   0   3   2  234.07    7.77
   0   3   2  255.76    7.68
   0   3   3   69.53    2.06
   0   3   3   69.57    2.03
   0   3   3   66.78    2.06
   0   3   4  476.39   13.88
   0   3   4  434.53   13.84
   0   3   5   68.28    2.36
   0   3   5   68.40    2.49
   0   3   6   38.86    1.81
   0   3   6   40.76    1.61
   0   3   7  381.64   11.25
   0   3   7  356.86   11.08
   0   3   7  354.70   11.15
   0   3   8    2.37    1.48
   0   3   8    2.38    1.21
   0   3   9   90.31    3.26
   0   3  10   22.10    1.79
   0   3  11    0.50    1.70
   0   4  -8   35.98    1.38
   0   4  -8   32.68    1.84
   0   4  -7   68.11    1.76
   0   4  -7   61.75    2.02
   0   4  -7   61.59    2.07
   0   4  -6  209.56    4.19
   0   4  -6  192.40    4.23
   0   4  -6  205.66    4.41
   0   4  -5   82.76    2.38
   0   4  -5   76.09    2.34
   0   4  -5   87.22    2.63
   0   4  -4  105.17    3.48
   0   4  -4  113.27    3.47
   0   4  -4  123.67    3.67
   0   4  -4  118.94    3.69
   0   4  -3  278.01    8.48
   0   4  -3  278.37    8.59
   0   4  -3  268.24    8.61
   0   4  -3  279.90    8.48
   0   4  -2   44.95    1.55
   0   4  -2   45.07    1.67
   0   4  -2   40.68    1.77
   0   4  -2   36.56    1.71
   0   4  -1  720.61   21.69
   0   4  -1  704.04   21.72
   0   4  -1  697.55   21.71
   0   4  -1  719.01   21.65
   0   4   0   37.75    1.49
   0   4   0   34.44    1.48
   0   4   0   38.10    1.46
   0   4   1  154.24    4.72
   0   4   1  144.72    4.73
   0   4   1  146.85    4.66
   0   4   2   24.68    1.29
   0   4   2   24.93    1.27
   0   4   2   26.58    1.41
   0   4   2   22.58    1.32
   0   4   2   27.35    1.10
   0   4   3   10.05    1.09
   0   4   3   10.43    1.14
   0   4   3    9.25    1.14
   0   4   3    9.00    0.72
   0   4   3   10.16    0.62
   0   4   4  215.58    6.61
   0   4   4  203.28    6.55
   0   4   5   61.74    2.39
   0   4   5   62.77    2.31
   0   4   6   79.43    3.05
   0   4   6   84.64    2.90
   0   4   6   82.84    3.02
   0   4   7  177.31    6.05
   0   4   7  185.58    5.88
   0   4   7  192.54    6.06
   0   4   8    3.49    1.18
   0   5  -9  170.65    5.85
   0   5  -8   48.29    2.51
   0   5  -8   52.71    2.21
   0   5  -7   61.42    2.44
   0   5  -7   57.44    2.56
   0   5  -6  195.65    6.20
   0   5  -6  193.38    6.22
   0   5  -6  188.37    6.29
   0   5  -5    5.45    0.50
   0   5  -5    6.89    1.37
   0   5  -5    6.82    1.26
   0   5  -4   59.73    2.01
   0   5  -4   63.37    2.33
   0   5  -4   56.93    2.38
   0   5  -4   58.84    2.01
   0   5  -3  129.56    4.02
   0   5  -3  110.57    4.06
   0   5  -3  120.72    3.86
   0   5  -3  107.82    4.10
   0   5  -3  129.72    3.87
   0   5  -2    5.78    1.08
   0   5  -2    7.75    0.93
   0   5  -2    7.03    1.17
   0   5  -2    6.55    1.29
   0   5  -1  314.61    9.39
   0   5  -1  290.06    9.43
   0   5  -1  315.76    9.35
   0   5  -1  285.10    9.39
   0   5   0   39.93    1.72
   0   5   0   40.72    1.68
   0   5   0   40.40    1.65
   0   5   1   17.14    1.27
   0   5   1   16.58    1.29
   0   5   1   19.97    1.14
   0   5   2  297.27    9.18
   0   5   2  296.37    9.21
   0   5   2  282.12    9.19
   0   5   2  300.12    9.08
   0   5   3  175.26    5.66
   0   5   3  166.71    5.65
   0   5   3  169.16    5.67
   0   5   3  182.94    5.47
   0   5   4  116.27    4.00
   0   5   4  113.78    3.95
   0   5   4  116.87    4.00
   0   5   4  120.48    3.77
   0   5   5  219.47    6.74
   0   5   5  208.50    6.65
   0   5   5  200.43    6.70
   0   5   5  207.35    6.52
   0   5   6    6.30    1.54
   0   5   6    5.22    1.41
   0   5   7   12.81    1.84
   0   5   7   13.45    1.57
   0   5   8  173.13    6.13
   0   5   8  186.16    5.86
   0   5   9    1.71    2.10
   0   5  10  122.05    4.73
   0   5  11    6.42    2.60
   0   5  12    8.27    2.89
   0   6  -9   67.21    3.21
   0   6  -8  162.15    5.57
   0   6  -7   12.30    1.73
   0   6  -7   10.85    1.81
   0   6  -6  270.72    8.35
   0   6  -6  254.64    8.32
   0   6  -5   99.98    3.29
   0   6  -5  112.53    3.78
   0   6  -5  115.19    3.69
   0   6  -5  103.84    3.28
   0   6  -4  130.03    4.39
   0   6  -4  117.92    4.43
   0   6  -4  134.43    4.13
   0   6  -4  117.31    4.45
   0   6  -4  134.91    4.14
   0   6  -3  181.83    5.79
   0   6  -3  160.39    5.83
   0   6  -3  189.09    5.63
   0   6  -3  180.07    5.63
   0   6  -3  169.81    5.87
   0   6  -2   67.37    2.84
   0   6  -2   74.30    2.60
   0   6  -2   69.94    2.82
   0   6  -1   74.00    2.64
   0   6  -1   62.78    2.73
   0   6  -1   71.54    2.53
   0   6  -1   67.98    2.64
   0   6   0  372.72   11.22
   0   6   0  356.15   11.16
   0   6   0  356.60   11.19
   0   6   1    1.21    1.01
   0   6   1    1.60    1.26
   0   6   1    2.52    1.27
   0   6   2  292.42    8.80
   0   6   2  260.53    8.78
   0   6   2  268.06    8.77
   0   6   2  288.37    8.65
   0   6   3   72.08    2.95
   0   6   3   68.82    2.95
   0   6   3   74.17    2.96
   0   6   4   13.02    1.64
   0   6   4   12.52    1.62
   0   6   4   14.88    1.66
   0   6   4   15.43    0.92
   0   6   5  237.07    7.70
   0   6   5  246.35    7.65
   0   6   5  235.41    7.46
   0   6   6   49.55    2.49
   0   6   6   50.82    2.30
   0   6   6   41.31    1.92
   0   6   7   51.15    2.63
   0   6   7   48.89    2.39
   0   6   7   41.67    2.05
   0   6   8  143.48    5.07
   0   6   8  136.54    4.78
   0   6   9   33.44    2.72
   0   6  10   58.79    3.40
   0   6  11   58.12    3.60
   0   6  12   -1.09    3.07
   0   7 -10   24.65    2.85
   0   7  -9    5.77    2.31
   0   7  -8  114.70    4.37
   0   7  -7    0.54    1.91
   0   7  -6   49.74    2.47
   0   7  -5   83.60    2.77
   0   7  -5   85.42    3.26
   0   7  -4    6.29    1.16
   0   7  -4    5.06    1.10
   0   7  -4    7.62    1.70
   0   7  -3  173.82    5.61
   0   7  -3  176.48    5.40
   0   7  -3  169.90    5.43
   0   7  -2   64.43    2.58
   0   7  -2   52.86    2.64
   0   7  -2   62.13    2.29
   0   7  -2   51.73    2.46
   0   7  -1   93.55    3.18
   0   7  -1   81.29    3.28
   0   7  -1   86.03    3.00
   0   7  -1   74.09    3.06
   0   7   0  116.19    3.90
   0   7   0  111.27    3.77
   0   7   0  102.73    3.75
   0   7   1   27.71    1.84
   0   7   1   25.78    1.77
   0   7   1   24.53    1.54
   0   7   2    9.40    1.23
   0   7   2    9.32    1.60
   0   7   2    8.84    1.64
   0   7   2    9.54    1.80
   0   7   3  136.07    4.87
   0   7   3  123.13    4.79
   0   7   4   45.07    2.58
   0   7   4   57.17    2.04
   0   7   5   48.66    2.59
   0   7   6   90.88    3.43
   0   7   6   72.22    2.81
   0   7   7    1.66    2.16
   0   7   7    0.40    1.39
   0   7   8   20.23    2.58
   0   7   8   16.49    1.69
   0   7   9   36.14    2.99
   0   7   9   26.60    2.02
   0   7  10    0.33    2.88
   0   7  11   36.60    3.52
   0   8 -10   29.33    3.15
   0   8  -9    0.61    2.63
   0   8  -8   21.83    2.51
   0   8  -7   71.43    3.32
   0   8  -6    0.60    2.01
   0   8  -5  176.95    5.98
   0   8  -4   53.97    2.73
   0   8  -4   55.25    2.24
   0   8  -3   60.96    2.77
   0   8  -3   59.81    2.45
   0   8  -2  124.15    4.38
   0   8  -2  121.12    4.14
   0   8  -1    5.23    1.60
   0   8  -1    6.20    1.54
   0   8  -1    6.87    1.82
   0   8   0   66.88    2.82
   0   8   0   62.07    2.59
   0   8   0   57.40    2.58
   0   8   1  121.41    4.16
   0   8   1  107.21    4.01
   0   8   1  112.46    3.96
   0   8   2    2.60    1.44
   0   8   2    2.15    1.90
   0   8   3   76.18    3.43
   0   8   3   89.21    3.06
   0   8   4   30.02    2.44
   0   8   5    2.32    2.14
   0   8   6   80.11    3.66
   0   8   7   30.37    2.82
   0   8   8   20.56    2.89
   0   8   9    3.13    2.87
   0   8  10   27.37    3.36
   0   9  -9    3.42    2.83
   0   9  -8   23.25    2.76
   0   9  -7   49.33    3.05
   0   9  -6   -0.45    2.22
   0   9  -5   74.00    3.34
   0   9  -4   30.15    2.50
   0   9  -3    8.28    2.18
   0   9  -2  100.53    3.96
   0   9  -1   48.77    2.72
   0   9   0   56.65    2.89
   0   9   1  119.05    4.37
   0   9   1  112.53    4.17
   0   9   2    0.98    2.15
   0   9   3    8.04    2.30
   0   9   4   36.24    2.69
   0   9   5    5.02    2.55
   0   9   6   11.60    2.66
   0   9   7   28.07    3.06
   0   9   8   -2.00    2.97
   0   9   9   10.96    3.27
   0  10  -5   20.94    2.58
   0  10  -4   56.57    3.17
   0  10  -3    3.53    2.41
   0  10  -2   37.83    2.74
   0  10  -1   87.78    3.93
   0  10   0    2.49    2.38
   0  10   1  110.55    4.42
   0  10   2    6.35    2.49
   0  10   3    3.96    2.54
   0  10   4   40.64    3.09
   0  10   5    0.43    2.70
   0  10   6    7.31    3.03
   0  10   7    7.59    3.23
   0  10   8   -0.76    3.25
   0  11   1    3.08    2.66
   0  11   2   74.69    3.80
   0  11   3    0.74    2.80
   0  11   4   26.74    3.17
   0  11   5    2.47    3.12
   1 -11  -4   34.45    3.32
   1 -11   1    6.79    2.37
   1 -11   2   50.44    3.03
   1 -11   3   21.27    2.67
   1 -10  -6   20.46    3.10
   1 -10  -5   13.09    2.91
   1 -10  -4   34.12    3.04
   1 -10  -3   49.66    3.18
   1 -10  -1  156.29    5.37
   1 -10   0   22.79    2.21
   1 -10   1    1.82    2.04
   1 -10   2   61.18    3.07
   1 -10   3   56.72    3.13
   1 -10   4   35.37    2.79
   1 -10   5   63.98    3.46
   1  -9  -8   30.13    3.31
   1  -9  -7    2.62    2.83
   1  -9  -6   12.74    2.67
   1  -9  -5   50.05    3.15
   1  -9  -4   -1.06    2.37
   1  -9  -3   33.97    2.60
   1  -9  -2   24.39    1.89
   1  -9  -2   30.86    2.42
   1  -9  -1   41.92    2.30
   1  -9   0   19.97    1.92
   1  -9   1   14.24    1.95
   1  -9   2   27.97    2.21
   1  -9   3  183.05    6.27
   1  -9   4   10.76    2.19
   1  -9   5   60.47    3.19
   1  -9   6   41.60    2.91
   1  -9   7    3.27    2.50
   1  -8  -7    7.36    2.61
   1  -8  -6   16.40    2.54
   1  -8  -5   59.74    3.09
   1  -8  -4   73.15    3.30
   1  -8  -3  102.22    3.99
   1  -8  -2  250.51    8.19
   1  -8  -2  272.49    8.39
   1  -8  -1   16.05    1.62
   1  -8  -1   18.37    1.95
   1  -8   0  226.18    7.30
   1  -8   1  130.10    4.56
   1  -8   2    0.80    1.75
   1  -8   3  142.96    5.02
   1  -8   4   75.19    3.30
   1  -8   5   19.59    2.17
   1  -8   6   98.86    4.06
   1  -8   7    2.75    2.30
   1  -8  10   -0.31    2.80
   1  -7 -10   92.63    4.40
   1  -7  -9    1.05    2.73
   1  -7  -6    0.62    2.21
   1  -7  -5   26.46    2.27
   1  -7  -4   65.64    2.95
   1  -7  -3   25.68    1.24
   1  -7  -3   29.66    2.05
   1  -7  -2   52.09    2.19
   1  -7  -2   50.88    2.57
   1  -7  -2   60.67    2.56
   1  -7  -1  102.21    3.58
   1  -7  -1   99.01    3.77
   1  -7  -1  107.50    3.72
   1  -7   0  149.20    4.84
   1  -7   0  139.17    4.92
   1  -7   0  146.04    4.65
   1  -7   1  289.49    9.08
   1  -7   1  284.60    9.10
   1  -7   2    3.52    1.56
   1  -7   2    3.46    1.74
   1  -7   3   99.49    3.73
   1  -7   3  100.87    3.76
   1  -7   4  266.52    8.59
   1  -7   5   16.23    1.99
   1  -7   6  201.93    6.83
   1  -7   9   55.47    3.19
   1  -7  10   32.53    2.95
   1  -7  10   31.65    2.87
   1  -7  11    7.19    2.94
   1  -6 -12   12.10    3.28
   1  -6 -11    3.16    2.98
   1  -6 -10   27.00    2.96
   1  -6  -9    1.63    2.46
   1  -6  -8   -0.38    2.31
   1  -6  -5   99.09    3.75
   1  -6  -4  104.64    3.46
   1  -6  -4  118.36    3.94
   1  -6  -3   23.12    1.80
   1  -6  -3   30.24    1.86
   1  -6  -3   27.52    1.17
   1  -6  -2   71.83    2.55
   1  -6  -2   67.01    2.85
   1  -6  -2   77.26    2.81
   1  -6  -1  361.78   11.14
   1  -6  -1  353.29   11.24
   1  -6  -1  364.65   11.21
   1  -6   0   10.07    1.17
   1  -6   0   11.55    1.55
   1  -6   0   10.38    0.91
   1  -6   0    9.17    1.33
   1  -6   1  168.51    5.43
   1  -6   1  165.70    5.47
   1  -6   2  109.14    3.80
   1  -6   2  110.80    3.86
   1  -6   3   16.41    1.55
   1  -6   3   15.69    1.61
   1  -6   4  164.25    5.45
   1  -6   4  161.93    5.40
   1  -6   5    5.68    1.59
   1  -6   5    4.71    1.67
   1  -6   8   -1.89    1.99
   1  -6   9   48.44    2.91
   1  -6  10   67.64    3.37
   1  -6  10   60.20    3.33
   1  -6  11    3.73    2.51
   1  -6  11    5.45    2.79
   1  -5 -13   15.22    3.34
   1  -5 -12   77.12    4.14
   1  -5 -11    6.33    2.81
   1  -5 -10   54.37    3.22
   1  -5  -9   34.51    2.66
   1  -5  -8    9.31    2.09
   1  -5  -7  111.53    4.13
   1  -5  -6   70.30    2.94
   1  -5  -4  107.43    3.44
   1  -5  -3   16.48    1.49
   1  -5  -3   19.28    0.92
   1  -5  -3   20.48    1.54
   1  -5  -2   63.47    2.22
   1  -5  -2   61.23    2.48
   1  -5  -2   66.46    2.46
   1  -5  -1  225.74    6.96
   1  -5  -1  220.71    7.06
   1  -5  -1  220.49    7.02
   1  -5   0  190.08    6.05
   1  -5   0  187.24    6.12
   1  -5   0  196.98    6.07
   1  -5   1  154.04    4.84
   1  -5   1  144.34    4.85
   1  -5   2  727.52   22.11
   1  -5   2  717.23   22.07
   1  -5   3   13.17    1.30
   1  -5   3   13.64    1.43
   1  -5   4  138.36    4.66
   1  -5   4  139.78    4.63
   1  -5   5  293.25    9.21
   1  -5   6   12.47    1.62
   1  -5   7  154.75    5.29
   1  -5   8   86.09    3.49
   1  -5   9   21.08    2.23
   1  -5  10   40.42    2.72
   1  -5  10   36.60    2.60
   1  -5  11   13.60    2.42
   1  -5  11   14.52    2.71
   1  -5  12   45.78    3.15
   1  -5  12   47.35    3.26
   1  -5  13   22.00    2.91
   1  -4 -13    4.50    3.08
   1  -4 -12   37.57    3.20
   1  -4 -11   16.57    2.66
   1  -4 -10   49.66    2.93
   1  -4  -9  196.72    6.64
   1  -4  -8    5.75    1.92
   1  -4  -7  124.53    4.38
   1  -4  -6  331.71   10.42
   1  -4  -5   19.52    1.57
   1  -4  -3  398.28   12.12
   1  -4  -2    2.32    0.64
   1  -4  -2    1.72    1.07
   1  -4  -2    2.24    1.05
   1  -4  -1  460.90   13.92
   1  -4  -1  442.09   13.98
   1  -4  -1  460.77   13.98
   1  -4   0   96.33    3.15
   1  -4   0   95.38    3.25
   1  -4   0   96.06    3.18
   1  -4   1   62.13    2.22
   1  -4   1   63.28    2.34
   1  -4   2  213.24    6.73
   1  -4   2  215.01    6.74
   1  -4   3   72.40    2.62
   1  -4   3   74.33    2.63
   1  -4   4  162.67    5.23
   1  -4   5  489.19   15.05
   1  -4   6   12.48    1.44
   1  -4   6   14.25    1.43
   1  -4   7  200.98    6.61
   1  -4   7  204.12    6.57
   1  -4   8  138.66    4.10
   1  -4   8  103.10    3.58
   1  -4   9    8.75    1.91
   1  -4   9   11.49    1.92
   1  -4  10  117.91    4.48
   1  -4  10  120.72    4.47
   1  -4  11   52.56    2.92
   1  -4  11   55.94    3.12
   1  -4  12    1.02    2.35
   1  -4  12    0.44    2.53
   1  -4  13   91.18    4.09
   1  -4  14    1.05    2.64
   1  -3 -13   10.42    2.98
   1  -3 -12   12.04    2.67
   1  -3 -11  151.96    5.51
   1  -3 -10   11.22    2.18
   1  -3  -9  230.38    7.54
   1  -3  -8   26.12    2.01
   1  -3  -7    7.65    1.59
   1  -3  -6  108.13    3.75
   1  -3  -5  203.11    6.47
   1  -3  -4  225.72    7.10
   1  -3  -2    2.10    0.98
   1  -3  -2    1.94    0.35
   1  -3  -1  187.89    5.91
   1  -3  -1  190.66    5.99
   1  -3  -1  197.76    5.98
   1  -3   0  503.21   15.17
   1  -3   0  496.36   15.20
   1  -3   0  491.62   15.17
   1  -3   1  328.75    9.91
   1  -3   1  315.11    9.92
   1  -3   2  196.07    6.16
   1  -3   2  196.55    6.16
   1  -3   3  471.96   14.45
   1  -3   4   23.18    1.26
   1  -3   4   22.22    1.02
   1  -3   5   70.13    2.55
   1  -3   5   69.86    2.48
   1  -3   5   67.91    2.29
   1  -3   6  276.91    8.38
   1  -3   6  261.33    8.30
   1  -3   6  262.62    8.16
   1  -3   7    3.67    1.31
   1  -3   7    2.95    0.90
   1  -3   7    3.95    1.31
   1  -3   8  169.08    5.26
   1  -3   8  168.38    5.23
   1  -3   9   12.76    1.73
   1  -3   9    9.89    1.19
   1  -3   9   10.34    1.83
   1  -3  10   82.37    3.37
   1  -3  10   81.70    3.44
   1  -3  11   44.25    2.53
   1  -3  11   43.92    2.71
   1  -3  12    6.97    2.16
   1  -3  12    9.06    2.38
   1  -3  13  146.53    5.28
   1  -3  13  137.37    5.40
   1  -2 -13   47.53    3.25
   1  -2 -12   14.84    2.58
   1  -2 -11  126.28    4.72
   1  -2 -10  138.72    4.92
   1  -2  -9   29.07    2.14
   1  -2  -8  701.24   21.55
   1  -2  -7   89.42    3.23
   1  -2  -6  228.32    7.23
   1  -2  -5  619.36   18.96
   1  -2  -4  161.99    5.15
   1  -2  -3  404.24   12.40
   1  -2   0 1295.59   39.27
   1  -2   1  105.57    3.34
   1  -2   2  492.55   14.98
   1  -2   3  395.32   12.41
   1  -2   3  411.22   12.35
   1  -2   4   24.91    0.99
   1  -2   4   22.78    1.15
   1  -2   4   21.62    1.19
   1  -2   5   73.16    2.34
   1  -2   5   71.33    2.51
   1  -2   5   68.17    2.50
   1  -2   6  660.63   20.23
   1  -2   6  663.91   20.09
   1  -2   6  654.50   20.18
   1  -2   7    1.02    1.09
   1  -2   7   -0.30    0.85
   1  -2   7    0.65    1.22
   1  -2   7    0.56    1.23
   1  -2   8  141.19    4.46
   1  -2   8  138.09    4.41
   1  -2   8  123.18    4.17
   1  -2   8  126.67    4.39
   1  -2   9  265.74    7.83
   1  -2   9  273.32    7.87
   1  -2  10    3.99    1.63
   1  -2  10    2.04    1.25
   1  -2  11  102.65    3.86
   1  -2  12   34.63    2.37
   1  -2  13    1.62    2.09
   1  -1 -12    6.34    2.31
   1  -1 -11   25.13    2.29
   1  -1 -10  115.20    4.19
   1  -1  -9    5.99    1.68
   1  -1  -8  283.50    8.93
   1  -1  -7   67.23    2.57
   1  -1  -6  119.31    3.94
   1  -1  -5  197.65    6.22
   1  -1  -4  178.28    5.59
   1  -1  -3  559.69   17.05
   1  -1  -2  496.69   15.13
   1  -1   1  380.60   11.81
   1  -1   1  400.59   11.83
   1  -1   2  143.56    4.25
   1  -1   2  130.93    4.26
   1  -1   3  230.04    7.39
   1  -1   3  252.50    7.42
   1  -1   3  240.75    7.35
   1  -1   4   87.71    2.87
   1  -1   4   89.55    2.88
   1  -1   4   87.43    2.79
   1  -1   5    4.05    0.83
   1  -1   5    3.78    0.67
   1  -1   5    4.80    0.85
   1  -1   6  203.79    6.17
   1  -1   6  198.15    6.14
   1  -1   6  187.72    6.02
   1  -1   7   36.47    1.63
   1  -1   7   32.27    1.40
   1  -1   8   29.86    1.58
   1  -1   8   23.25    1.30
   1  -1   9  222.18    6.64
   1  -1   9  197.17    6.49
   1  -1  10    3.30    1.42
   1  -1  10    3.27    1.24
   1  -1  11  129.90    4.37
   1  -1  11  118.30    4.48
   1  -1  12   86.97    3.41
   1  -1  12   90.47    3.69
   1  -1  13    1.55    2.43
   1   0 -12   83.19    3.51
   1   0 -11   18.31    2.08
   1   0 -10   88.04    3.37
   1   0  -9  110.90    3.93
   1   0  -8   12.36    1.50
   1   0  -7  625.24   19.11
   1   0  -6   64.93    2.31
   1   0  -5   77.71    2.61
   1   0  -4  355.71   10.88
   1   0  -3   39.85    1.41
   1   0  -2  293.79    8.96
   1   0  -1    9.97    0.54
   1   0   0  819.40   25.20
   1   0   0  839.78   25.18
   1   0   1    9.31    0.52
   1   0   2  236.88    7.48
   1   0   2  251.30    7.48
   1   0   2  244.31    7.49
   1   0   2  248.50    7.50
   1   0   3  650.64   19.66
   1   0   3  649.47   19.65
   1   0   3  640.48   19.66
   1   0   4  698.57   21.08
   1   0   4  689.07   21.06
   1   0   5  161.25    4.92
   1   0   5  153.29    4.89
   1   0   6   77.03    2.51
   1   0   6   71.04    2.47
   1   0   7  120.71    3.76
   1   0   7  111.34    3.72
   1   0   8    4.93    1.03
   1   0   8    5.06    1.03
   1   0   8    4.56    1.24
   1   0   9   86.59    2.90
   1   0   9   83.14    3.04
   1   0   9   75.52    2.85
   1   0  10   90.88    3.19
   1   0  10   87.01    3.15
   1   0  10   91.59    3.39
   1   0  11    7.54    1.90
   1   0  11    7.29    1.43
   1   0  11    5.90    1.45
   1   0  12   30.95    1.91
   1   0  12   30.57    2.39
   1   0  13   16.05    2.41
   1   0  14   21.86    2.76
   1   1 -11   -1.30    1.78
   1   1 -10   91.42    3.36
   1   1  -9   27.79    1.73
   1   1  -8    0.72    1.19
   1   1  -7  351.07   10.60
   1   1  -7  335.19   10.63
   1   1  -6   56.10    2.06
   1   1  -6   58.71    2.12
   1   1  -5   91.99    2.97
   1   1  -5   92.69    3.05
   1   1  -4  660.68   19.98
   1   1  -4  653.49   20.05
   1   1  -3   89.59    2.89
   1   1  -3   99.74    2.98
   1   1  -1  352.30   10.69
   1   1   0   42.64    1.36
   1   1   1  269.83    8.20
   1   1   2  345.88   10.53
   1   1   3   14.19    0.78
   1   1   3   15.60    0.81
   1   1   4  394.97   11.85
   1   1   4  384.21   11.89
   1   1   4  384.60   11.90
   1   1   5   14.12    0.75
   1   1   5   15.62    0.97
   1   1   5   17.47    0.95
   1   1   5   15.94    1.05
   1   1   6    1.32    0.88
   1   1   6    1.77    0.63
   1   1   6    2.28    0.88
   1   1   6    1.68    0.95
   1   1   7  420.95   12.72
   1   1   7  400.76   12.76
   1   1   7  428.17   12.82
   1   1   7  415.14   12.81
   1   1   8    4.85    1.25
   1   1   8    4.03    0.88
   1   1   8    3.94    1.11
   1   1   8    3.54    1.23
   1   1   9   72.37    2.48
   1   1   9   66.38    2.62
   1   1   9   72.75    2.75
   1   1  10  146.99    4.71
   1   1  10  140.59    4.80
   1   1  10  151.02    4.96
   1   1  11    6.41    1.79
   1   1  11    6.56    1.23
   1   1  12   53.20    2.80
   1   1  13  114.34    4.51
   1   1  14   -0.29    2.47
   1   2 -10   35.59    1.86
   1   2  -9  128.87    4.27
   1   2  -9  133.80    4.46
   1   2  -8    1.32    1.02
   1   2  -8    2.17    1.24
   1   2  -7   34.21    1.42
   1   2  -7   34.68    1.65
   1   2  -6  189.05    5.98
   1   2  -6  208.03    6.17
   1   2  -5    7.93    0.56
   1   2  -5   10.22    1.02
   1   2  -4  284.64    8.81
   1   2  -3  134.40    4.28
   1   2  -3  142.48    4.36
   1   2  -2  291.70    8.89
   1   2  -1 1495.82   46.01
   1   2  -1 1563.47   46.06
   1   2  -1 1532.14   46.02
   1   2   0  156.54    4.93
   1   2   0  171.76    4.96
   1   2   1 4920.18  148.25
   1   2   1 4873.86  148.26
   1   2   2   46.77    1.60
   1   2   4  462.63   14.14
   1   2   5  595.67   18.64
   1   2   5  625.13   18.63
   1   2   6   36.53    1.64
   1   2   6   37.54    1.58
   1   2   6   39.74    1.66
   1   2   7  296.23    9.37
   1   2   7  306.15    9.39
   1   2   7  303.44    9.39
   1   2   8   15.18    1.42
   1   2   8   15.62    1.41
   1   2   8   13.64    1.46
   1   2   9   -0.06    1.44
   1   2   9    0.94    1.35
   1   2  10   94.39    3.52
   1   2  11   17.02    1.94
   1   2  12   20.14    2.21
   1   2  13   19.15    2.36
   1   3  -9  139.76    4.73
   1   3  -9  215.30    5.22
   1   3  -8    1.40    0.55
   1   3  -8    1.24    1.41
   1   3  -7    2.48    1.31
   1   3  -6  383.42   11.90
   1   3  -5   43.01    1.78
   1   3  -5   48.76    1.93
   1   3  -4  180.95    5.67
   1   3  -4  179.55    5.68
   1   3  -4  188.78    5.79
   1   3  -3  477.40   14.02
   1   3  -3  445.27   13.99
   1   3  -2    1.76    0.75
   1   3  -2    1.06    0.51
   1   3  -1   85.74    2.62
   1   3  -1   79.82    2.64
   1   3  -1   86.12    2.75
   1   3  -1   83.50    2.76
   1   3   0 1793.36   54.57
   1   3   0 1801.69   54.58
   1   3   0 1817.00   54.62
   1   3   1  148.55    4.55
   1   3   1  145.01    4.60
   1   3   2  553.60   16.09
   1   3   2  505.37   16.12
   1   3   2  529.25   16.12
   1   3   2  520.89   16.10
   1   3   3  224.74    6.82
   1   3   3  214.61    6.77
   1   3   4   44.58    1.68
   1   3   5  362.76   11.19
   1   3   6   33.48    1.60
   1   3   7   38.26    1.86
   1   3   8  208.77    6.58
   1   3   8  200.44    6.56
   1   4  -7   22.13    1.74
   1   4  -6  426.05   13.48
   1   4  -6  455.31   13.60
   1   4  -5  140.98    4.65
   1   4  -5  144.46    4.63
   1   4  -5  150.11    4.80
   1   4  -4   11.58    1.07
   1   4  -4   12.59    0.97
   1   4  -3  598.46   10.08
   1   4  -3  587.94    9.98
   1   4  -2  327.68   10.19
   1   4  -2  338.74   10.25
   1   4  -2  345.97   10.33
   1   4  -2  338.55   10.37
   1   4  -1  125.65    4.03
   1   4  -1  116.70    3.90
   1   4  -1  127.57    3.88
   1   4  -1  125.57    4.01
   1   4   0 1333.45   40.66
   1   4   0 1341.35   40.66
   1   4   0 1350.22   40.71
   1   4   1  635.46   19.08
   1   4   1  604.36   19.11
   1   4   1  638.60   19.10
   1   4   2  984.03   29.03
   1   4   2  919.55   29.07
   1   4   2  956.21   29.08
   1   4   2  953.70   29.03
   1   4   3  620.27   18.00
   1   4   3  570.39   18.03
   1   4   3  588.59   18.02
   1   4   3  578.26   17.97
   1   4   4    6.63    1.18
   1   4   4    8.12    0.99
   1   4   4    6.88    1.03
   1   4   5  192.79    6.07
   1   4   6  154.43    4.92
   1   4   7    2.00    1.43
   1   5  -7    0.78    1.50
   1   5  -6   42.26    1.94
   1   5  -6   42.63    1.96
   1   5  -6   42.78    2.19
   1   5  -5  158.59    5.11
   1   5  -5  156.49    5.06
   1   5  -4   97.06    3.31
   1   5  -4   94.28    3.17
   1   5  -3  270.28    8.31
   1   5  -3  286.35    8.46
   1   5  -3  278.75    8.53
   1   5  -3  255.31    8.56
   1   5  -2  344.00   10.61
   1   5  -2  352.37   10.56
   1   5  -2  345.68   10.72
   1   5  -2  329.60   10.71
   1   5  -1   36.37    1.51
   1   5  -1   36.35    1.42
   1   5  -1   34.98    1.76
   1   5  -1   35.82    1.65
   1   5   0    5.24    0.98
   1   5   0    6.11    0.97
   1   5   0    6.27    0.96
   1   5   1  813.85   24.29
   1   5   1  760.94   24.30
   1   5   1  816.46   24.29
   1   5   2   18.47    1.19
   1   5   2   16.27    1.38
   1   5   2   16.46    1.27
   1   5   3  316.97    9.43
   1   5   3  299.77    9.48
   1   5   3  294.33    9.49
   1   5   3  302.83    9.38
   1   5   4   73.19    2.51
   1   5   4   64.54    2.58
   1   5   4   65.87    2.55
   1   5   4   66.13    2.37
   1   5   5   32.18    1.74
   1   5   5   32.96    1.82
   1   5   5   29.45    1.66
   1   5   5   31.56    1.49
   1   5   6  169.52    5.39
   1   5   6  158.91    5.30
   1   5   7   24.86    1.89
   1   5   7   25.89    1.59
   1   6  -8   68.05    3.00
   1   6  -7   51.47    2.44
   1   6  -6   27.69    1.89
   1   6  -6   25.05    1.75
   1   6  -5  224.86    7.31
   1   6  -5  232.28    7.24
   1   6  -4  111.40    3.11
   1   6  -4  118.48    2.96
   1   6  -4  112.83    3.21
   1   6  -3    1.14    1.35
   1   6  -3    0.92    1.47
   1   6  -3    1.52    1.18
   1   6  -3    1.25    0.78
   1   6  -2  383.23   12.55
   1   6  -2  408.96   12.44
   1   6  -2  415.53   12.37
   1   6  -2  391.86   12.56
   1   6  -1   77.51    2.61
   1   6  -1   74.07    2.55
   1   6  -1   69.39    2.85
   1   6  -1   69.00    2.73
   1   6   0   23.87    1.40
   1   6   0   22.76    1.35
   1   6   0   21.03    1.41
   1   6   1  201.89    6.71
   1   6   1  207.18    6.69
   1   6   2   86.66    2.95
   1   6   2   80.39    3.12
   1   6   2   89.07    2.84
   1   6   3   37.13    1.81
   1   6   3   35.55    2.00
   1   6   3   35.93    1.95
   1   6   4  230.02    6.93
   1   6   4  210.73    7.00
   1   6   4  217.18    6.97
   1   6   4  211.88    6.82
   1   6   5    0.78    1.60
   1   6   5    0.52    1.52
   1   6   5   -0.38    1.48
   1   6   5    1.79    1.12
   1   6   6   71.47    2.82
   1   6   6   65.17    2.64
   1   6   7   12.73    1.94
   1   6   7   14.51    1.73
   1   6   7   11.47    1.46
   1   6   8    7.31    2.10
   1   6   9   21.71    2.43
   1   6  10    0.85    2.41
   1   6  11    3.37    2.72
   1   6  12    9.94    3.03
   1   7  -8   58.47    2.95
   1   7  -7   86.41    3.44
   1   7  -6    7.34    1.82
   1   7  -6    8.97    1.67
   1   7  -5  110.88    4.05
   1   7  -5  113.36    3.89
   1   7  -4   42.55    2.40
   1   7  -4   43.91    2.16
   1   7  -4   40.39    1.70
   1   7  -3   18.20    1.15
   1   7  -3   18.26    1.55
   1   7  -3   14.56    1.83
   1   7  -3   14.43    1.75
   1   7  -2  106.97    3.69
   1   7  -2   97.05    3.90
   1   7  -2   99.74    3.84
   1   7  -1  160.07    5.08
   1   7  -1  165.09    5.02
   1   7  -1  142.38    5.25
   1   7  -1  144.31    5.15
   1   7   0   15.92    1.53
   1   7   0   14.97    1.46
   1   7   0   12.86    1.46
   1   7   1   58.71    2.45
   1   7   1   55.98    2.38
   1   7   1   58.48    2.30
   1   7   2   88.45    3.22
   1   7   2   84.39    3.41
   1   7   2   83.03    3.28
   1   7   2   92.54    3.10
   1   7   3    5.44    1.65
   1   7   3    7.15    1.53
   1   7   3    6.88    1.74
   1   7   4  140.06    4.70
   1   7   4  129.82    4.72
   1   7   5    7.89    1.81
   1   7   5    7.74    1.79
   1   7   6   26.88    2.13
   1   7   6   22.22    1.66
   1   7   7   74.66    3.20
   1   7   7   60.45    2.67
   1   7   8    8.58    2.39
   1   7   8    7.40    1.63
   1   7   9  103.83    4.11
   1   7   9   84.89    3.58
   1   7  10    8.18    2.78
   1   7  10    6.57    2.02
   1   7  11    8.20    2.97
   1   7  11    7.90    2.18
   1   7  12    5.98    3.25
   1   8  -9   57.68    3.26
   1   8  -8    0.44    2.20
   1   8  -7  114.98    4.32
   1   8  -6   29.97    2.18
   1   8  -5   24.07    1.94
   1   8  -4   52.68    2.47
   1   8  -3   16.54    1.79
   1   8  -2    9.40    1.36
   1   8  -2    8.84    1.62
   1   8  -1  184.46    5.79
   1   8  -1  180.12    5.66
   1   8   0    0.69    1.53
   1   8   0    2.05    1.64
   1   8   0    0.93    1.49
   1   8   1  105.59    3.71
   1   8   1   97.47    3.69
   1   8   1   98.77    3.58
   1   8   2   24.34    1.98
   1   8   2   20.89    1.91
   1   8   3    4.59    1.77
   1   8   4   48.02    2.55
   1   8   5   44.22    2.58
   1   8   6   38.07    2.67
   1   8   7   47.92    2.91
   1   8   7   39.28    2.18
   1   8   8    0.53    2.50
   1   8   8    2.97    1.74
   1   8   9   14.07    2.82
   1   8   9   10.32    2.01
   1   8  10   38.04    3.44
   1   8  11    1.03    3.28
   1   9  -7   56.28    3.03
   1   9  -6   36.52    2.50
   1   9  -5    8.76    1.96
   1   9  -4   93.75    3.64
   1   9  -3   41.14    2.42
   1   9  -2    2.66    1.81
   1   9  -1   34.93    2.34
   1   9   0   30.39    2.20
   1   9   0   27.21    2.02
   1   9   1   -0.63    1.88
   1   9   1    0.71    1.69
   1   9   2   58.20    2.84
   1   9   3   23.14    2.27
   1   9   4   19.85    2.31
   1   9   5   50.56    3.02
   1   9   6   -0.68    2.38
   1   9   7   12.42    2.73
   1   9   8   30.72    3.20
   1   9   9    1.00    3.09
   1   9  10   38.16    3.72
   1  10  -3   42.58    2.64
   1  10  -2   -1.44    2.07
   1  10  -1   46.32    2.69
   1  10   0   74.89    3.30
   1  10   1    1.62    2.13
   1  10   2   91.64    3.84
   1  10   3   23.02    2.57
   1  10   4    3.40    2.47
   1  10   5   32.29    2.81
   1  10   6   30.82    3.16
   1  10   7    8.51    2.97
   1  10   8   21.45    3.30
   1  10   9   -0.23    3.32
   2 -11   2    0.15    2.45
   2 -10   0   12.89    2.17
   2 -10   1   48.50    2.81
   2 -10   2    0.44    2.23
   2 -10   3   46.40    2.97
   2 -10   4   11.05    2.56
   2  -9  -7   24.95    3.30
   2  -9  -6    0.57    2.89
   2  -9  -5   20.07    2.85
   2  -9   0    0.99    1.87
   2  -9   1   77.17    3.28
   2  -9   2   11.24    2.10
   2  -9   3   16.07    2.25
   2  -9   4    2.55    2.25
   2  -9   5   71.39    3.48
   2  -9   6   67.36    3.45
   2  -8  -7   21.81    2.93
   2  -8  -6   14.72    2.73
   2  -8  -5    1.58    2.45
   2  -8  -4  100.67    4.14
   2  -8  -3   -0.44    2.19
   2  -8  -1   81.10    3.15
   2  -8   0   18.11    1.81
   2  -8   1   62.44    2.80
   2  -8   2   89.72    3.56
   2  -8   3   33.47    2.30
   2  -8   4   73.74    3.29
   2  -8   5    7.10    2.17
   2  -8   6    5.99    2.29
   2  -8   7    9.64    2.42
   2  -8   7   10.36    2.37
   2  -8   8   21.08    2.72
   2  -8   9   10.43    2.83
   2  -8  10   20.31    3.06
   2  -7 -10   38.67    3.49
   2  -7  -9    5.26    2.89
   2  -7  -8   44.44    3.17
   2  -7  -5    1.08    2.23
   2  -7  -4   70.05    3.20
   2  -7  -3   68.93    3.08
   2  -7  -1  144.68    4.84
   2  -7   0   25.25    1.70
   2  -7   0   21.52    1.06
   2  -7   1    3.26    1.50
   2  -7   2  112.36    4.01
   2  -7   3    7.15    1.72
   2  -7   4  168.50    5.74
   2  -7   5   20.37    2.14
   2  -7   6   -1.35    1.99
   2  -7   7   76.56    3.41
   2  -7   8  105.50    4.24
   2  -7   9   13.06    2.58
   2  -7   9   15.61    2.69
   2  -7  10   79.92    3.94
   2  -7  10   81.58    3.93
   2  -6 -11   20.89    3.22
   2  -6 -10    0.91    2.83
   2  -6  -9   21.34    2.84
   2  -6  -8   84.32    3.83
   2  -6  -7   38.68    2.74
   2  -6  -4   34.17    2.24
   2  -6  -3  396.60   12.42
   2  -6  -2    4.64    1.76
   2  -6  -2    6.43    1.61
   2  -6  -1  509.50   15.44
   2  -6  -1  490.14   15.55
   2  -6   0  140.27    4.20
   2  -6   0  143.68    4.40
   2  -6   1   27.73    1.65
   2  -6   1   28.54    2.00
   2  -6   2  232.02    7.44
   2  -6   2  233.53    7.50
   2  -6   3  269.12    8.42
   2  -6   3  259.10    8.43
   2  -6   4  110.64    4.00
   2  -6   5  189.61    6.32
   2  -6   7   40.56    2.44
   2  -6   8   67.33    3.20
   2  -6   8   66.69    3.21
   2  -6   9    2.40    2.33
   2  -6   9    0.53    2.39
   2  -6  10   42.10    2.94
   2  -6  10   44.43    3.02
   2  -6  11   23.93    2.82
   2  -6  11   24.78    2.89
   2  -5 -12   17.62    3.24
   2  -5 -11   57.17    3.59
   2  -5 -10    9.06    2.79
   2  -5  -9   91.56    4.03
   2  -5  -8   36.13    2.73
   2  -5  -7    5.66    2.11
   2  -5  -6   26.10    2.21
   2  -5  -3  191.54    6.63
   2  -5  -3  217.96    6.65
   2  -5  -2   20.36    1.75
   2  -5  -2   24.29    1.64
   2  -5  -1    1.14    1.45
   2  -5   0  401.65   12.47
   2  -5   0  406.44   12.54
   2  -5   1    2.69    1.09
   2  -5   1    4.29    1.49
   2  -5   2  185.29    6.09
   2  -5   2  195.87    6.19
   2  -5   3  204.02    6.58
   2  -5   3  205.43    6.61
   2  -5   4   12.68    1.45
   2  -5   4   10.81    1.63
   2  -5   5  338.57   10.63
   2  -5   6  229.74    7.38
   2  -5   7   45.67    2.42
   2  -5   7   46.04    2.45
   2  -5   8  122.87    4.52
   2  -5   8  122.18    4.54
   2  -5   9   98.93    4.00
   2  -5   9   98.82    3.98
   2  -5  10    4.05    2.26
   2  -5  10    3.16    2.35
   2  -5  11   98.60    4.25
   2  -5  11  102.97    4.27
   2  -5  12   10.68    2.65
   2  -5  12   11.91    2.84
   2  -4 -13   59.33    3.82
   2  -4 -12    3.35    2.91
   2  -4 -11   22.59    2.94
   2  -4 -10   76.34    3.66
   2  -4  -9    3.23    2.22
   2  -4  -8   60.34    2.95
   2  -4  -7   88.59    3.49
   2  -4  -6   95.18    3.58
   2  -4  -5  143.68    4.89
   2  -4  -3  147.09    4.89
   2  -4  -2  501.32   16.13
   2  -4  -2  546.18   16.12
   2  -4  -1   66.90    2.56
   2  -4   0  876.48   25.91
   2  -4   0  898.47   25.97
   2  -4   0  834.36   25.76
   2  -4   1  472.52   14.55
   2  -4   1  475.21   14.61
   2  -4   2    9.93    1.08
   2  -4   2   10.65    1.35
   2  -4   3  295.51    9.27
   2  -4   3  296.98    9.26
   2  -4   4  214.32    6.84
   2  -4   5   36.36    1.88
   2  -4   5   32.33    1.73
   2  -4   6  172.44    5.59
   2  -4   6  171.40    5.65
   2  -4   6  168.29    5.61
   2  -4   7   21.94    1.82
   2  -4   7   19.80    1.76
   2  -4   7   18.28    1.35
   2  -4   8   32.83    2.12
   2  -4   8   31.31    2.07
   2  -4   9  114.81    4.26
   2  -4   9  113.00    4.27
   2  -4  10    1.15    2.00
   2  -4  10   -0.15    2.11
   2  -4  11   52.21    2.97
   2  -4  11   57.19    3.15
   2  -4  12   12.14    2.47
   2  -4  12   18.68    2.63
   2  -4  13   -0.16    2.53
   2  -3 -13   39.62    3.29
   2  -3 -12   14.13    2.90
   2  -3 -11   54.41    3.20
   2  -3 -10  103.76    4.15
   2  -3  -9    0.97    2.05
   2  -3  -8   53.41    2.66
   2  -3  -7  187.65    6.18
   2  -3  -6   23.79    1.74
   2  -3  -5  116.19    3.98
   2  -3  -4   25.39    1.56
   2  -3   0  113.41    3.47
   2  -3   1  780.14   23.92
   2  -3   1  809.80   24.03
   2  -3   2    5.92    0.85
   2  -3   2    6.98    0.79
   2  -3   3  438.47   13.42
   2  -3   4  348.37   10.62
   2  -3   4  338.62   10.66
   2  -3   4  344.58   10.57
   2  -3   5   21.00    1.40
   2  -3   5   19.94    1.35
   2  -3   5   18.91    1.43
   2  -3   5   19.00    1.16
   2  -3   6  465.74   14.35
   2  -3   6  476.44   14.40
   2  -3   6  456.52   14.35
   2  -3   6  463.67   14.24
   2  -3   7  246.19    7.80
   2  -3   7  242.59    7.76
   2  -3   7  243.81    7.77
   2  -3   7  243.17    7.63
   2  -3   8   31.98    1.93
   2  -3   8   30.63    1.97
   2  -3   8   25.51    1.54
   2  -3   9  129.71    4.11
   2  -3   9  124.18    4.12
   2  -3  10   48.56    2.56
   2  -3  10   50.46    2.72
   2  -3  11    6.39    2.02
   2  -3  11    7.29    2.13
   2  -3  12   86.56    3.74
   2  -3  12   91.63    3.90
   2  -3  13    2.47    2.66
   2  -3  13    3.05    2.36
   2  -2 -13   22.53    2.94
   2  -2 -12   29.07    2.83
   2  -2 -11    1.37    2.38
   2  -2 -10   47.78    2.73
   2  -2  -9   24.14    2.15
   2  -2  -8   40.80    2.27
   2  -2  -7  167.55    5.52
   2  -2  -6   15.35    1.44
   2  -2  -5  234.91    7.42
   2  -2  -4  392.68   12.11
   2  -2  -3    0.74    0.91
   2  -2  -2  514.49   15.75
   2  -2   1  132.57    4.20
   2  -2   1  132.14    4.08
   2  -2   2  553.85   17.14
   2  -2   2  576.73   17.17
   2  -2   3   36.49    1.42
   2  -2   3   39.50    1.47
   2  -2   4  313.12    9.52
   2  -2   4  294.03    9.47
   2  -2   4  315.05    9.45
   2  -2   5    1.72    0.97
   2  -2   5    3.35    0.85
   2  -2   5    1.97    0.99
   2  -2   6  109.94    3.69
   2  -2   6  119.78    3.85
   2  -2   6  114.76    3.82
   2  -2   7   39.32    1.69
   2  -2   7   39.97    1.88
   2  -2   7   39.55    1.89
   2  -2   8    1.62    1.36
   2  -2   8    0.46    1.13
   2  -2   8    2.45    1.47
   2  -2   9   94.91    3.29
   2  -2   9   92.42    3.37
   2  -2  10   50.68    2.46
   2  -2  10   51.95    2.58
   2  -2  11   10.20    1.84
   2  -2  11    7.60    2.09
   2  -2  12   58.26    2.90
   2  -2  12   59.79    3.20
   2  -2  13   13.21    2.66
   2  -2  13   12.21    2.17
   2  -1 -12   67.31    3.33
   2  -1 -11    6.28    2.26
   2  -1 -10  145.68    5.08
   2  -1  -9  115.35    4.12
   2  -1  -8   20.95    1.78
   2  -1  -7   71.86    2.77
   2  -1  -6  241.79    7.61
   2  -1  -5   56.14    2.13
   2  -1  -4  632.45   19.31
   2  -1  -3   11.08    0.91
   2  -1  -2   66.57    2.28
   2  -1  -1  291.19    8.95
   2  -1   0  327.35    9.95
   2  -1   0  323.04    9.85
   2  -1   1  300.04    8.88
   2  -1   1  279.98    8.85
   2  -1   2 1077.00   32.07
   2  -1   2 1031.23   32.03
   2  -1   2 1070.69   32.05
   2  -1   3   18.51    0.93
   2  -1   3   15.75    0.89
   2  -1   3   17.93    0.89
   2  -1   3   16.31    1.06
   2  -1   4  304.45    9.12
   2  -1   4  293.27    9.15
   2  -1   4  289.09    9.13
   2  -1   4  299.56    9.16
   2  -1   5  442.20   13.13
   2  -1   5  426.38   13.18
   2  -1   5  422.03   13.16
   2  -1   5  422.09   13.18
   2  -1   6   16.34    1.06
   2  -1   6   14.79    1.15
   2  -1   6   17.46    1.21
   2  -1   7  332.23   10.13
   2  -1   7  322.23   10.03
   2  -1   7  324.34   10.14
   2  -1   8  127.07    4.12
   2  -1   8  119.65    4.01
   2  -1   8  121.87    4.17
   2  -1   9   42.27    1.98
   2  -1   9   38.38    1.84
   2  -1   9   39.47    2.11
   2  -1  10   79.92    2.92
   2  -1  10   78.34    3.11
   2  -1  11    3.51    1.60
   2  -1  12   16.93    1.93
   2  -1  13   86.86    3.52
   2   0 -11   40.93    2.46
   2   0 -10   25.93    2.10
   2   0  -9  387.20   12.07
   2   0  -8   19.56    1.66
   2   0  -7  363.49   11.26
   2   0  -6  302.61    9.38
   2   0  -5    8.61    1.01
   2   0  -4  450.53   13.77
   2   0  -1 1296.11   39.29
   2   0   0  193.51    5.87
   2   0   0  192.98    5.83
   2   0   0  182.72    5.86
   2   0   1  352.77   10.77
   2   0   2  204.12    6.31
   2   0   3   89.48    2.88
   2   0   3   87.57    2.90
   2   0   3   92.34    2.88
   2   0   4  174.13    5.64
   2   0   4  189.96    5.69
   2   0   4  184.30    5.69
   2   0   5  310.52    9.66
   2   0   5  312.64    9.64
   2   0   5  316.71    9.68
   2   0   5  316.45    9.68
   2   0   6   19.93    1.08
   2   0   6   19.59    1.12
   2   0   6   21.28    1.25
   2   0   6   19.79    1.29
   2   0   7  365.08   10.84
   2   0   7  341.73   10.80
   2   0   7  347.52   10.87
   2   0   8   90.04    3.01
   2   0   8   85.26    2.99
   2   0   8   84.45    3.11
   2   0   9    1.34    1.19
   2   0   9    2.66    1.22
   2   0  10  157.79    4.88
   2   0  10  137.67    4.84
   2   0  11   32.24    1.87
   2   0  12    2.68    2.19
   2   0  13   91.60    4.05
   2   1 -11  114.42    4.09
   2   1 -10    9.29    1.69
   2   1  -9  205.98    6.58
   2   1  -8  173.91    5.58
   2   1  -7   31.05    1.57
   2   1  -6  158.31    5.01
   2   1  -1    9.18    0.66
   2   1   0  558.01   17.35
   2   1   0  577.76   17.31
   2   1   1   40.12    1.47
   2   1   1   37.57    1.41
   2   1   2  169.73    5.23
   2   1   3  296.01    9.06
   2   1   4    5.53    0.77
   2   1   4    5.10    0.79
   2   1   5  112.89    3.61
   2   1   5  110.93    3.61
   2   1   6  245.77    7.70
   2   1   6  251.12    7.72
   2   1   7   29.66    1.44
   2   1   7   31.80    1.53
   2   1   8   96.26    3.27
   2   1   8   95.37    3.35
   2   1   9   52.14    2.25
   2   1   9   61.13    2.47
   2   1  10   71.22    2.83
   2   1  10   78.95    3.05
   2   1  11  101.83    3.87
   2   1  12    4.58    2.13
   2   1  13   43.48    2.85
   2   1  14   38.64    2.93
   2   2  -2  656.75   19.93
   2   2  -1    2.45    0.52
   2   2   0  807.81   24.51
   2   2   1  121.86    3.64
   2   2   1  113.93    3.56
   2   2   2   19.55    0.98
   2   2   2   23.16    0.85
   2   2   3  595.19   18.09
   2   2   4    6.25    0.76
   2   2   5  136.77    4.43
   2   2   5  141.16    4.42
   2   2   6   55.58    2.08
   2   2   6   56.12    2.08
   2   2   7   44.98    1.85
   2   2   7   44.26    1.90
   2   2   8   86.74    3.07
   2   2   8   87.54    3.11
   2   2   9  147.87    4.96
   2   2   9  154.26    5.02
   2   2  10    4.34    1.63
   2   3  -2  525.52   15.95
   2   3  -1    0.57    0.52
   2   3   0  102.42    3.22
   2   3   1  108.26    3.36
   2   3   1  110.26    3.45
   2   3   2   -0.11    0.75
   2   3   2    0.39    0.64
   2   3   3  292.01    9.07
   2   3   3  295.85    9.02
   2   3   4  119.52    3.81
   2   3   5   73.17    2.53
   2   3   6   89.15    3.15
   2   3   6   94.35    3.12
   2   3   7  102.72    3.50
   2   3   7  100.98    3.48
   2   3   8  121.13    4.16
   2   3   8  125.30    4.17
   2   4  -6   53.11    2.32
   2   4  -5  152.01    5.02
   2   4  -4  236.77    7.49
   2   4  -3    2.70    0.69
   2   4  -2  474.22   14.16
   2   4  -2  456.78   14.16
   2   4  -1   19.44    0.86
   2   4  -1   18.60    0.74
   2   4   0   79.09    2.34
   2   4   0   65.86    2.21
   2   4   1  260.33    7.78
   2   4   1  243.84    7.85
   2   4   2   13.60    0.84
   2   4   2   11.71    1.05
   2   4   2   13.03    0.90
   2   4   3    7.34    1.04
   2   4   3    7.71    0.87
   2   4   4  300.14    9.59
   2   4   4  318.48    9.59
   2   4   6  135.80    4.44
   2   4   7   22.13    1.69
   2   4   7   22.57    1.55
   2   4   8   10.00    1.48
   2   5  -6  192.49    6.36
   2   5  -5   73.30    2.89
   2   5  -4  188.54    5.91
   2   5  -3    3.66    0.79
   2   5  -3    2.53    1.24
   2   5  -2   71.72    2.37
   2   5  -2   71.05    2.65
   2   5  -2   75.10    2.41
   2   5  -2   76.84    2.69
   2   5  -1  157.37    4.75
   2   5  -1  146.76    4.73
   2   5  -1  153.17    4.93
   2   5   0   18.20    0.96
   2   5   0   17.03    1.10
   2   5   1  933.43   28.24
   2   5   1  924.98   28.29
   2   5   2    9.70    0.96
   2   5   2    9.42    1.12
   2   5   2    8.12    1.21
   2   5   3   28.54    1.40
   2   5   3   26.83    1.55
   2   5   3   30.42    1.39
   2   5   4  267.66    8.69
   2   5   4  265.34    8.64
   2   5   5  118.42    3.88
   2   5   5  116.24    3.95
   2   5   5  112.08    3.87
   2   6  -5   54.25    2.16
   2   6  -4  129.78    4.15
   2   6  -4  124.11    4.43
   2   6  -3  116.69    3.76
   2   6  -3  121.81    4.13
   2   6  -3  125.73    3.88
   2   6  -3  128.98    4.21
   2   6  -2   43.43    1.58
   2   6  -2   40.24    2.07
   2   6  -2   42.54    1.69
   2   6  -2   42.24    2.01
   2   6  -1  544.43   16.39
   2   6  -1  544.43   16.38
   2   6  -1  504.31   16.55
   2   6   0   61.51    2.20
   2   6   0   60.14    2.23
   2   6   1  374.84   11.15
   2   6   1  347.52   11.20
   2   6   2  250.26    7.44
   2   6   2  227.43    7.49
   2   6   2  232.26    7.58
   2   6   3   15.66    1.35
   2   6   3   13.39    1.48
   2   6   3   15.21    1.53
   2   6   4  132.69    4.15
   2   6   4  119.68    4.20
   2   6   4  112.67    4.17
   2   6   4  124.86    4.09
   2   6   5  132.23    4.40
   2   6   5  129.13    4.43
   2   6   5  126.72    4.32
   2   6   6   25.25    1.84
   2   6   6   20.57    1.55
   2   6   7   95.49    3.49
   2   6   7   83.23    3.26
   2   6   8   40.34    2.49
   2   6   9   26.63    2.38
   2   6  10   29.71    2.66
   2   6  11   11.41    2.65
   2   6  12    6.07    2.86
   2   7  -6   20.48    1.72
   2   7  -5   25.43    1.70
   2   7  -4   33.19    2.08
   2   7  -4   35.31    1.72
   2   7  -3  171.66    5.51
   2   7  -3  172.09    5.90
   2   7  -2    8.21    1.74
   2   7  -2    7.97    1.01
   2   7  -2    7.86    1.16
   2   7  -2    7.77    1.58
   2   7  -1  126.11    4.16
   2   7  -1  136.70    4.17
   2   7   0   71.39    2.54
   2   7   0   66.49    2.56
   2   7   1   56.08    2.25
   2   7   1   55.21    2.29
   2   7   2  625.35   19.71
   2   7   2  603.38   19.80
   2   7   3   80.56    2.79
   2   7   3   74.33    3.02
   2   7   4   43.37    2.04
   2   7   4   38.84    2.19
   2   7   5  111.82    3.82
   2   7   5  104.52    3.85
   2   7   5  101.12    3.67
   2   7   6   53.69    2.57
   2   7   6   44.53    2.25
   2   7   7   18.87    2.16
   2   7   7   16.61    1.74
   2   7   8   87.22    3.53
   2   7   8   72.11    3.11
   2   7   9   -0.57    2.45
   2   7   9   -0.33    1.88
   2   7  10    1.32    2.66
   2   7  10    1.88    2.07
   2   7  11   19.70    3.06
   2   7  11   19.05    2.38
   2   7  12   -1.92    3.17
   2   8  -7    5.23    1.98
   2   8  -6   84.00    3.25
   2   8  -5  158.59    5.25
   2   8  -4   22.01    1.64
   2   8  -3  182.36    5.86
   2   8  -2  101.18    3.47
   2   8  -2  109.22    3.62
   2   8  -1   37.36    1.78
   2   8  -1   33.35    1.86
   2   8   0  121.57    4.03
   2   8   0  115.46    4.04
   2   8   1  141.61    4.43
   2   8   1  120.17    4.44
   2   8   2  105.78    3.72
   2   8   2  102.04    3.74
   2   8   3  132.73    4.59
   2   8   4    1.47    1.75
   2   8   5   77.80    3.25
   2   8   6   35.67    2.47
   2   8   7    4.25    2.24
   2   8   7    1.49    1.67
   2   8   8   33.81    2.87
   2   8   8   28.48    2.23
   2   8   9   13.95    2.84
   2   8   9   12.76    2.15
   2   8  10    3.37    2.98
   2   8  10    0.25    2.15
   2   8  11   11.64    3.22
   2   9  -4    2.68    1.57
   2   9  -3   21.78    1.77
   2   9  -2  104.31    3.74
   2   9  -1    2.25    1.60
   2   9   0  104.33    3.82
   2   9   1   42.64    2.24
   2   9   1   37.58    2.27
   2   9   2    4.92    1.84
   2   9   3  105.66    3.95
   2   9   4   71.92    3.22
   2   9   5    9.51    2.21
   2   9   6   40.25    2.77
   2   9   7    7.34    2.55
   2   9   8   13.11    2.81
   2   9   9   11.22    2.97
   2   9  10    6.51    3.14
   3 -10   3    5.97    2.52
   3  -9   2   77.65    3.53
   3  -9   3   51.54    3.00
   3  -9   4   -1.08    2.34
   3  -9   5  132.51    5.14
   3  -8   2   62.84    3.00
   3  -8   3   65.08    3.09
   3  -8   4    2.79    2.11
   3  -8   5   77.63    3.55
   3  -8   6   65.76    3.37
   3  -8   7   10.71    2.57
   3  -7  -9    9.21    3.18
   3  -7  -8   44.72    3.44
   3  -7   2    7.20    1.77
   3  -7   3  115.72    4.13
   3  -7   3  107.39    3.75
   3  -7   4   24.09    2.14
   3  -7   4   23.53    1.77
   3  -7   5    2.40    2.02
   3  -7   5    1.86    1.74
   3  -7   6  179.08    6.13
   3  -7   6  171.68    5.88
   3  -7   7    5.63    2.29
   3  -7   7    7.21    2.17
   3  -7   8   23.02    2.51
   3  -7   9   14.74    2.70
   3  -7   9   11.03    2.52
   3  -7  10    1.52    2.67
   3  -6 -10   94.77    4.56
   3  -6  -9    4.92    2.95
   3  -6  -8  100.44    4.41
   3  -6  -7   78.85    3.75
   3  -6   1  106.64    3.37
   3  -6   2    0.89    1.47
   3  -6   2    0.68    1.02
   3  -6   3  158.77    5.21
   3  -6   3  149.18    4.94
   3  -6   4    5.96    1.73
   3  -6   4    7.37    1.45
   3  -6   5   13.50    1.90
   3  -6   5   12.81    1.69
   3  -6   6   82.21    3.45
   3  -6   6   79.16    3.20
   3  -6   7   63.18    2.98
   3  -6   8    5.01    2.28
   3  -6   8    2.44    2.14
   3  -6   9   50.31    3.07
   3  -6   9   50.93    2.93
   3  -6  10   13.16    2.61
   3  -6  10   13.59    2.63
   3  -6  11    6.08    2.81
   3  -5 -11    9.69    3.23
   3  -5 -10   53.86    3.57
   3  -5  -9    2.12    2.69
   3  -5  -8    6.12    2.47
   3  -5  -7  226.08    7.57
   3  -5  -6    2.36    2.12
   3  -5  -2  146.47    5.06
   3  -5  -1  379.63   11.91
   3  -5   0   91.17    3.48
   3  -5   1  147.21    4.52
   3  -5   1  124.56    3.99
   3  -5   2   66.74    2.53
   3  -5   2   60.04    2.23
   3  -5   2   66.01    2.79
   3  -5   3   42.70    1.98
   3  -5   3   37.15    1.68
   3  -5   4  145.68    4.75
   3  -5   4  135.32    4.58
   3  -5   5    1.52    1.59
   3  -5   5    1.65    1.49
   3  -5   6   46.80    2.31
   3  -5   7   81.05    3.33
   3  -5   7   76.36    3.22
   3  -5   8    4.19    1.99
   3  -5   8    5.27    1.99
   3  -5   9  120.68    4.50
   3  -5   9  112.07    4.38
   3  -5  10   27.20    2.58
   3  -5  10   24.63    2.60
   3  -5  11   20.95    2.75
   3  -5  11   19.31    2.63
   3  -4 -12   16.08    3.25
   3  -4 -11   -0.58    2.95
   3  -4 -10   43.30    3.17
   3  -4  -9   39.49    2.89
   3  -4  -8    5.94    2.33
   3  -4  -7  180.29    6.17
   3  -4  -6   34.64    2.29
   3  -4  -5   19.16    1.90
   3  -4   2  146.96    4.51
   3  -4   2  131.10    4.30
   3  -4   3   26.43    1.53
   3  -4   3   23.23    1.32
   3  -4   4  449.66   13.49
   3  -4   4  424.95   13.35
   3  -4   5   14.03    1.42
   3  -4   6   17.16    1.70
   3  -4   6   16.78    1.66
   3  -4   7   50.03    2.42
   3  -4   7   47.11    2.31
   3  -4   7   45.11    2.14
   3  -4   8   21.99    2.03
   3  -4   8   21.95    2.00
   3  -4   8   18.60    1.69
   3  -4   9   49.12    2.66
   3  -4   9   45.30    2.62
   3  -4  10   37.29    2.59
   3  -4  10   40.39    2.73
   3  -4  11    2.51    2.57
   3  -4  11   -4.19    2.29
   3  -4  12   17.77    2.81
   3  -4  12   14.57    2.55
   3  -4  13   38.41    3.12
   3  -3 -13   20.67    3.28
   3  -3 -12   70.56    3.91
   3  -3 -11    0.24    2.70
   3  -3 -10   21.85    2.63
   3  -3  -9   55.47    3.01
   3  -3  -8   14.45    2.20
   3  -3  -7   43.37    2.46
   3  -3  -6  215.17    7.01
   3  -3  -5    3.91    1.55
   3  -3  -3  226.77    7.22
   3  -3  -2   20.47    1.60
   3  -3  -1  161.76    5.28
   3  -3   0  184.57    5.62
   3  -3   2  231.75    7.15
   3  -3   3   26.15    1.44
   3  -3   3   27.64    1.28
   3  -3   4  195.68    6.16
   3  -3   4  194.79    6.16
   3  -3   5  197.58    6.53
   3  -3   5  200.89    6.46
   3  -3   5  210.64    6.44
   3  -3   6   16.68    1.49
   3  -3   6   15.33    1.48
   3  -3   6   16.00    1.38
   3  -3   7  199.35    6.32
   3  -3   7  189.40    6.25
   3  -3   7  189.92    6.16
   3  -3   8   43.53    2.27
   3  -3   8   42.45    2.29
   3  -3   8   39.96    2.08
   3  -3   9    5.40    1.94
   3  -3   9    5.13    1.77
   3  -3  10  148.99    5.22
   3  -3  10  146.11    5.28
   3  -3  11   26.54    2.39
   3  -3  11   31.64    2.65
   3  -3  12   27.93    2.56
   3  -3  12   26.21    2.80
   3  -3  13   40.53    2.97
   3  -2 -12   60.47    3.48
   3  -2 -11   51.86    3.19
   3  -2 -10    1.52    2.32
   3  -2  -9  272.65    8.84
   3  -2  -8   28.32    2.22
   3  -2  -7   20.95    1.92
   3  -2  -6  220.58    7.10
   3  -2  -5   59.27    2.43
   3  -2  -3  487.81   15.00
   3  -2  -2    2.95    1.19
   3  -2  -1  410.29   12.65
   3  -2   0  757.56   22.34
   3  -2   0  723.85   22.17
   3  -2   1  415.51   12.82
   3  -2   2  614.95   18.18
   3  -2   2  577.53   18.11
   3  -2   3   95.17    3.18
   3  -2   3   87.92    3.00
   3  -2   3   94.21    3.07
   3  -2   4   43.57    1.82
   3  -2   4   46.03    1.96
   3  -2   4   41.22    1.75
   3  -2   4   47.31    1.81
   3  -2   5  555.87   17.14
   3  -2   5  548.00   17.08
   3  -2   5  563.36   17.13
   3  -2   5  563.57   17.06
   3  -2   6   48.18    1.96
   3  -2   6   44.92    2.03
   3  -2   6   48.77    2.05
   3  -2   6   47.06    2.12
   3  -2   7  167.15    5.40
   3  -2   7  167.27    5.50
   3  -2   7  168.59    5.49
   3  -2   8  118.96    4.22
   3  -2   8  129.77    4.34
   3  -2   8  131.23    4.37
   3  -2   9    6.68    1.82
   3  -2   9    4.01    1.61
   3  -2   9    5.10    1.47
   3  -2  10   81.46    3.25
   3  -2  10   79.07    3.35
   3  -2  11   55.17    2.78
   3  -2  11   57.63    3.00
   3  -2  12    2.38    2.45
   3  -2  12    0.70    2.04
   3  -2  13   32.48    3.13
   3  -1 -12    7.99    2.52
   3  -1 -11  119.24    4.57
   3  -1 -10    4.29    2.14
   3  -1  -9   81.51    3.34
   3  -1  -8   29.65    2.08
   3  -1  -7   23.51    1.79
   3  -1  -2  316.26    9.77
   3  -1  -1   79.88    2.74
   3  -1   0  729.77   22.65
   3  -1   0  749.41   22.56
   3  -1   1   47.17    1.86
   3  -1   2  265.51    8.02
   3  -1   2  250.86    7.98
   3  -1   3  311.76    9.60
   3  -1   3  308.92    9.56
   3  -1   4   33.12    1.45
   3  -1   4   32.01    1.54
   3  -1   4   33.39    1.45
   3  -1   5  381.54   11.53
   3  -1   5  378.37   11.59
   3  -1   5  364.07   11.54
   3  -1   6  301.10    9.34
   3  -1   6  299.80    9.40
   3  -1   6  303.21    9.40
   3  -1   7   60.86    2.28
   3  -1   7   59.96    2.33
   3  -1   7   58.13    2.42
   3  -1   7   56.97    2.35
   3  -1   8  171.20    5.57
   3  -1   8  172.75    5.65
   3  -1   8  176.47    5.70
   3  -1   9   37.30    1.97
   3  -1   9   42.07    2.04
   3  -1   9   44.38    2.28
   3  -1  10   12.27    1.96
   3  -1  10   13.07    1.72
   3  -1  10   10.83    1.59
   3  -1  11  123.84    4.67
   3  -1  12    8.93    2.41
   3  -1  13   35.24    2.97
   3   0  -2  469.05   14.34
   3   0  -1    4.65    0.88
   3   0  -1    5.28    0.88
   3   0   0  150.97    4.76
   3   0   0  154.91    4.69
   3   0   0  144.52    4.75
   3   0   1  851.05   25.66
   3   0   1  837.67   25.62
   3   0   2   19.94    1.11
   3   0   3  912.25   27.43
   3   0   3  891.65   27.43
   3   0   4   45.74    1.73
   3   0   4   44.80    1.78
   3   0   5   39.08    1.63
   3   0   5   40.76    1.70
   3   0   6  176.68    5.61
   3   0   6  177.03    5.66
   3   0   6  177.95    5.66
   3   0   7   61.03    2.33
   3   0   7   60.59    2.45
   3   0   7   65.16    2.46
   3   0   8   62.90    2.45
   3   0   8   61.00    2.59
   3   0   8   67.92    2.60
   3   0   9  125.06    4.41
   3   0   9  143.55    4.61
   3   0  10    0.27    1.84
   3   1  -1  241.27    7.38
   3   1  -1  238.86    7.42
   3   1   0  112.69    3.54
   3   1   0  109.24    3.50
   3   1   1 1016.03   30.60
   3   1   1  998.37   30.57
   3   1   1 1010.43   30.60
   3   1   2  127.45    4.03
   3   1   3  291.55    8.97
   3   1   4  351.83   10.86
   3   1   4  355.37   10.86
   3   1   5    5.43    0.95
   3   1   5    4.91    1.00
   3   1   6  269.24    8.42
   3   1   6  272.96    8.45
   3   1   7  160.71    5.22
   3   1   7  165.51    5.27
   3   1   8   34.69    1.76
   3   1   8   36.46    1.90
   3   1   9  122.81    4.15
   3   2  -2  355.55   10.88
   3   2  -1    6.70    0.80
   3   2   0  121.84    3.70
   3   2   0  114.11    3.61
   3   2   1   87.88    2.94
   3   2   1   89.46    2.85
   3   2   1   95.69    2.97
   3   2   2  113.72    3.75
   3   2   2  115.66    3.70
   3   2   2  127.61    3.80
   3   2   3   46.81    1.67
   3   2   4  429.50   13.14
   3   2   5    3.21    0.97
   3   2   5    2.79    0.93
   3   2   6   68.39    2.50
   3   2   6   71.20    2.50
   3   2   7  146.94    4.81
   3   2   7  149.50    4.83
   3   2   8    0.14    1.27
   3   2   8    0.11    1.36
   3   3  -3  101.76    3.24
   3   3  -2  192.49    5.96
   3   3  -1  309.74    9.49
   3   3   0  345.27   10.57
   3   3   1  187.71    5.84
   3   3   2  240.00    7.37
   3   3   2  237.09    7.28
   3   3   3   23.62    1.19
   3   3   3   23.17    1.03
   3   3   4   99.79    3.21
   3   3   5  168.04    5.28
   3   3   6    0.02    1.12
   3   3   6    0.53    1.01
   3   3   7  236.21    7.38
   3   3   7  231.61    7.34
   3   3   8   12.08    1.40
   3   4  -3  306.30    9.37
   3   4  -2   44.41    1.59
   3   4  -1  570.61   17.37
   3   4   0   98.57    3.19
   3   4   1  275.00    8.48
   3   4   2  222.66    6.91
   3   4   2  218.19    6.79
   3   4   2  233.79    6.96
   3   4   3   72.16    2.57
   3   4   3   73.22    2.39
   3   4   3   75.29    2.59
   3   4   4   96.35    3.29
   3   4   4   94.33    3.15
   3   4   4  102.70    3.30
   3   4   5  183.98    5.78
   3   4   6   13.38    1.22
   3   4   7   43.35    2.03
   3   4   7   40.43    1.91
   3   4   8  114.25    3.93
   3   5  -3  258.48    7.92
   3   5  -2  137.40    4.31
   3   5  -1  102.13    3.29
   3   5   0  153.48    4.84
   3   5   1   28.43    1.20
   3   5   1   16.71    0.75
   3   5   2   57.77    2.00
   3   5   2   61.52    2.19
   3   5   3  122.64    3.69
   3   5   3  113.24    3.80
   3   5   3  106.85    3.64
   3   5   3  116.63    3.81
   3   5   4   10.55    1.30
   3   5   4   11.79    1.03
   3   5   4   12.89    1.22
   3   5   5  111.24    3.74
   3   5   5  103.55    3.58
   3   5   5  111.77    3.72
   3   5   6   12.16    1.54
   3   5   6   11.02    1.31
   3   5   6   12.65    1.36
   3   5   7    3.93    1.36
   3   5   8  128.56    4.40
   3   6  -3  141.91    4.43
   3   6  -2  137.64    4.59
   3   6  -2  151.12    4.52
   3   6  -1   70.81    2.30
   3   6  -1   65.04    2.09
   3   6   0  117.06    2.58
   3   6   0   60.04    2.27
   3   6   1  119.52    3.46
   3   6   1   95.87    3.27
   3   6   2   45.41    1.76
   3   6   2   47.66    1.97
   3   6   3  164.38    5.32
   3   6   3  173.02    5.43
   3   6   4   29.25    1.61
   3   6   4   27.71    1.69
   3   6   4   29.77    1.64
   3   6   5   65.71    2.52
   3   6   5   56.90    2.55
   3   6   5   62.85    2.52
   3   6   6   19.73    1.73
   3   6   6   19.27    1.57
   3   6   6   19.89    1.61
   3   6   7   17.27    1.62
   3   6   7   17.23    1.72
   3   6   8   20.48    1.89
   3   7  -3   17.78    1.04
   3   7  -3   23.19    1.20
   3   7  -2   66.53    2.53
   3   7  -2   80.01    2.45
   3   7  -1   24.30    1.39
   3   7  -1   27.86    1.12
   3   7   0   50.75    2.08
   3   7   0   52.71    1.83
   3   7   1  107.37    3.66
   3   7   1  107.61    3.51
   3   7   2  119.13    3.80
   3   7   2  109.84    3.91
   3   7   3   11.78    1.36
   3   7   3   11.66    1.54
   3   7   4   36.44    1.91
   3   7   5   29.48    1.94
   3   7   5   26.86    1.79
   3   7   6  164.48    5.47
   3   7   6  159.17    5.43
   3   7   7    1.18    2.02
   3   7   7    1.96    1.68
   3   7   7   -0.41    1.63
   3   7   8   45.95    2.70
   3   7   8   38.28    2.36
   3   7   9   33.65    2.75
   3   7   9   29.80    2.36
   3   7  10    3.45    2.59
   3   7  10    4.33    2.15
   3   7  11   13.73    2.94
   3   7  11   15.70    2.53
   3   7  12   17.17    3.26
   3   7  12   21.12    2.67
   3   8  -4   19.74    1.46
   3   8  -3    5.25    1.15
   3   8  -2  160.24    5.05
   3   8  -1   31.88    1.71
   3   8  -1   37.75    1.55
   3   8   0   95.71    3.62
   3   8   0  112.35    3.48
   3   8   1   73.02    2.99
   3   8   1   86.53    2.87
   3   8   2    0.20    1.34
   3   8   2    0.30    1.48
   3   8   3    7.52    1.48
   3   8   4   58.65    2.58
   3   8   5   -0.33    1.77
   3   8   6   50.64    2.59
   3   8   6   44.24    2.42
   3   8   7    2.75    2.23
   3   8   7    1.94    1.82
   3   8   8   -0.73    2.38
   3   8   8    0.56    1.99
   3   8   9   19.12    2.81
   3   8   9   17.13    2.32
   3   8  10    0.71    2.83
   3   8  10    1.74    2.28
   3   8  11    2.21    3.10
   3   8  11    4.12    2.48
   3   8  12    7.44    2.63
   3   9   1   53.13    2.42
   3   9   2  112.99    3.93
   3   9   3  133.09    4.59
   3   9   4   56.35    2.68
   3   9   5    8.08    1.99
   3   9   6   13.86    2.30
   3   9   7   77.15    3.60
   3   9   8    8.31    2.14
   3   9   9   27.75    2.59
   3   9  10    4.62    2.47
   4  -7   6   80.03    3.74
   4  -7   7   60.17    3.37
   4  -6   4   92.28    3.30
   4  -6   5   51.50    2.41
   4  -6   6   16.05    1.93
   4  -6   6   16.85    2.28
   4  -6   7   66.93    3.05
   4  -6   8   20.27    2.62
   4  -6   8   25.78    2.43
   4  -6   9    7.29    2.50
   4  -6   9    8.64    2.60
   4  -6  10   86.22    4.03
   4  -5   4   78.54    2.89
   4  -5   5  112.60    3.95
   4  -5   6   42.93    2.29
   4  -5   7   88.18    3.52
   4  -5   8   49.04    2.91
   4  -5   8   49.00    2.71
   4  -5   9    3.53    2.30
   4  -5   9    6.94    2.39
   4  -5  10   58.72    3.41
   4  -5  10   61.70    3.36
   4  -5  11   24.50    3.02
   4  -4  -1   86.99    3.41
   4  -4   0  364.47   11.46
   4  -4   1    7.54    1.83
   4  -4   4    2.28    1.21
   4  -4   5   28.89    1.80
   4  -4   6  336.69   10.56
   4  -4   7   37.14    2.33
   4  -4   7   36.13    2.19
   4  -4   7   30.05    2.08
   4  -4   8  121.24    4.47
   4  -4   8  116.37    4.37
   4  -4   9   14.53    2.30
   4  -4   9   14.80    2.28
   4  -4  10    2.21    2.42
   4  -4  11   74.31    3.81
   4  -3  -3  260.07    8.31
   4  -3  -2  239.54    7.70
   4  -3  -1    9.23    1.66
   4  -3   0  466.63   14.47
   4  -3   1   17.09    1.74
   4  -3   2   31.75    2.02
   4  -3   3  226.11    7.28
   4  -3   4   52.29    2.43
   4  -3   4   51.66    2.21
   4  -3   5   96.52    3.43
   4  -3   5  100.38    3.49
   4  -3   6  146.02    4.72
   4  -3   6  134.66    4.69
   4  -3   7    2.05    1.68
   4  -3   7   -0.22    1.55
   4  -3   8   78.21    3.10
   4  -3   8   61.98    2.85
   4  -3   9   55.47    2.91
   4  -3  10   -0.90    2.34
   4  -3  11   76.08    3.65
   4  -3  12    2.03    2.73
   4  -2  -3   57.53    2.45
   4  -2  -2  459.84   14.22
   4  -2  -1   19.32    1.61
   4  -2   0  153.54    5.06
   4  -2   1  181.57    5.45
   4  -2   1  160.06    5.18
   4  -2   2   62.96    2.48
   4  -2   2   59.76    2.33
   4  -2   3  243.13    7.54
   4  -2   3  232.47    7.45
   4  -2   4   88.40    3.25
   4  -2   4   87.89    3.10
   4  -2   5   64.41    2.64
   4  -2   5   64.13    2.50
   4  -2   6    4.53    1.36
   4  -2   6    5.89    1.54
   4  -2   7  111.68    3.84
   4  -2   7  103.70    3.75
   4  -2   8    5.93    1.75
   4  -2   8    4.45    1.58
   4  -2   9  100.61    3.89
   4  -2  10    1.64    2.13
   4  -2  11   19.87    2.52
   4  -2  12   25.04    2.79
   4  -1  -3   49.31    2.08
   4  -1  -2  364.30   11.29
   4  -1  -1  134.71    4.44
   4  -1   0   44.63    1.97
   4  -1   1  492.18   14.40
   4  -1   1  454.25   14.26
   4  -1   2   26.06    1.58
   4  -1   2   25.31    1.42
   4  -1   3  183.91    5.92
   4  -1   3  184.84    5.88
   4  -1   4  340.82   10.64
   4  -1   4  343.03   10.59
   4  -1   5    6.88    1.24
   4  -1   5    7.15    1.43
   4  -1   6  127.47    4.22
   4  -1   6  125.55    4.30
   4  -1   7  106.08    3.68
   4  -1   8    4.30    1.58
   4  -1   8    4.20    1.55
   4  -1   9   99.87    3.75
   4  -1  10   41.62    2.50
   4  -1  11   15.41    2.29
   4  -1  12   47.69    2.99
   4   0  -2  369.18   11.38
   4   0  -1  140.73    4.37
   4   0  -1  128.08    4.34
   4   0   0   20.69    1.36
   4   0   0   20.47    1.28
   4   0   1  398.82   12.16
   4   0   1  391.49   12.09
   4   0   2    9.43    1.18
   4   0   3   11.76    1.15
   4   0   3   13.97    1.26
   4   0   4  145.77    4.69
   4   0   4  144.24    4.71
   4   0   5   41.28    1.79
   4   0   5   37.60    1.81
   4   0   6  188.90    6.00
   4   0   6  185.82    6.04
   4   0   7   58.57    2.34
   4   0   7   56.97    2.45
   4   0   8    8.92    1.46
   4   1  -1  320.03    9.78
   4   1  -1  314.97    9.81
   4   1   0  109.69    3.61
   4   1   0  113.46    3.67
   4   1   1  416.73   12.92
   4   1   1  408.02   12.89
   4   1   1  439.47   12.91
   4   1   2  373.90   11.35
   4   1   2  363.90   11.36
   4   1   3    4.97    1.02
   4   1   4  212.17    6.65
   4   1   4  211.15    6.65
   4   1   5  429.15   13.07
   4   1   5  420.12   13.07
   4   1   6   19.36    1.38
   4   1   6   19.38    1.44
   4   1   7  212.34    6.71
   4   1   7  209.77    6.73
   4   2  -2   96.27    3.20
   4   2  -1  359.18   11.10
   4   2  -1  371.95   11.20
   4   2   0  236.20    7.35
   4   2   0  236.19    7.27
   4   2   1    1.25    0.95
   4   2   1    0.79    0.79
   4   2   1    0.71    0.83
   4   2   2  461.61   14.26
   4   2   2  455.76   14.22
   4   2   2  485.20   14.29
   4   2   3   29.53    1.44
   4   2   3   28.00    1.31
   4   2   3   31.40    1.42
   4   2   4   95.00    3.17
   4   2   5  132.03    4.31
   4   2   5  132.45    4.29
   4   2   6   60.74    2.29
   4   2   6   57.81    2.31
   4   2   7  132.97    4.43
   4   2   7  133.42    4.44
   4   2   8  201.61    6.52
   4   3  -3   92.32    3.08
   4   3  -2   59.65    2.15
   4   3  -1  149.21    4.74
   4   3   0  400.36   12.29
   4   3   1   66.33    2.14
   4   3   1   55.48    1.93
   4   3   2  325.58    9.80
   4   3   2  304.42    9.71
   4   3   2  338.72    9.87
   4   3   3  441.31   13.48
   4   3   3  429.84   13.41
   4   3   3  453.81   13.53
   4   3   4    5.40    1.13
   4   3   4    4.91    0.94
   4   3   4    3.71    1.09
   4   3   5  187.58    5.92
   4   3   6  178.10    5.72
   4   3   6  177.31    5.67
   4   3   7    6.85    1.37
   4   3   8  105.65    3.74
   4   4  -3  119.80    3.86
   4   4  -2   50.84    1.91
   4   4  -1    2.76    0.91
   4   4   0   24.75    1.28
   4   4   1  113.90    3.71
   4   4   2    1.46    1.02
   4   4   2    1.10    0.57
   4   4   3  317.61    9.29
   4   4   3  289.85    9.16
   4   4   4   26.59    1.48
   4   4   4   25.90    1.27
   4   4   5   92.27    3.16
   4   4   5   87.82    3.02
   4   4   6   60.10    2.28
   4   4   7   41.73    1.97
   4   4   8   54.12    2.37
   4   5  -3  107.07    3.49
   4   5  -2  191.95    6.02
   4   5  -1   30.14    1.42
   4   5   0  114.22    3.73
   4   5   1  341.01   10.53
   4   5   2    7.63    0.56
   4   5   2   12.43    1.14
   4   5   3   76.35    2.71
   4   5   3   71.97    2.47
   4   5   3   82.96    2.80
   4   5   4  209.93    6.46
   4   5   4  227.33    6.56
   4   5   5    1.81    1.36
   4   5   5    2.37    1.04
   4   5   5    1.36    1.31
   4   5   6   93.16    3.36
   4   5   6  111.78    3.64
   4   5   7   47.58    2.17
   4   5   7   58.52    2.45
   4   5   8   27.30    1.77
   4   6  -3    0.55    0.99
   4   6  -2  202.38    6.33
   4   6  -1    6.35    1.08
   4   6   0   42.41    1.79
   4   6   1   66.90    2.47
   4   6   2    0.99    0.49
   4   6   2    0.03    1.21
   4   6   3   10.09    1.04
   4   6   3   11.20    1.38
   4   6   3    8.80    0.81
   4   6   4  127.15    4.03
   4   6   4  118.84    4.15
   4   6   4  115.41    3.93
   4   6   5   11.15    1.19
   4   6   5   12.12    1.58
   4   6   6   57.04    2.36
   4   6   6   66.04    2.65
   4   6   7   56.51    2.46
   4   6   7   65.49    2.72
   4   6   8    1.45    1.77
   4   6   9   24.16    2.20
   4   7  -3   41.91    1.71
   4   7  -2   57.23    2.16
   4   7  -1  220.27    6.90
   4   7   0   21.42    1.44
   4   7   1   68.56    2.57
   4   7   2  102.69    2.59
   4   7   2   55.06    2.05
   4   7   3    7.44    1.08
   4   7   3    8.68    1.46
   4   7   3    6.59    0.87
   4   7   4   44.55    1.99
   4   7   4   43.36    1.79
   4   7   5   39.06    2.12
   4   7   5   42.61    2.21
   4   7   6    5.66    1.81
   4   7   6    5.53    1.76
   4   7   7   17.05    2.06
   4   7   7   18.43    2.00
   4   7   8   21.29    2.30
   4   7   8   19.00    2.11
   4   7   9   23.62    2.50
   4   7   9   23.33    2.28
   4   7  10   24.86    2.53
   4   7  11   -0.91    2.47
   4   8  -1  136.60    4.49
   4   8   0    5.09    1.37
   4   8   1   15.45    1.57
   4   8   2  136.01    4.60
   4   8   3    2.05    1.20
   4   8   4   43.25    2.08
   4   8   5   37.79    2.16
   4   8   6    5.48    1.91
   4   8   6    6.25    1.84
   4   8   7    4.24    2.13
   4   8   7    6.08    1.99
   4   8   8   72.87    3.54
   4   8   8   80.63    3.53
   4   8   9    3.10    2.28
   4   8  10    5.20    2.44
   4   8  11   13.99    2.66
   4   9   8    6.54    2.28
   4   9   9   -0.44    2.39
   4   9  10    1.30    2.58
   5  -3   1  211.58    6.58
   5  -2  -3    4.15    1.69
   5  -2  -2  360.11   11.30
   5  -2  -1   24.15    1.94
   5  -2   0    4.80    1.73
   5  -2   1  299.99    8.92
   5  -2   1  271.68    8.66
   5  -2   2  125.28    4.33
   5  -2   2  137.47    4.52
   5  -2   3    9.18    1.50
   5  -2   3   10.37    1.71
   5  -2   4  176.78    5.78
   5  -1  -3  528.49   16.30
   5  -1  -2   67.99    2.75
   5  -1  -1  198.60    6.42
   5  -1   0  179.90    5.88
   5  -1   1   27.29    1.77
   5  -1   1   25.11    1.36
   5  -1   2  147.00    4.68
   5  -1   2  136.28    4.48
   5  -1   2  133.71    4.58
   5  -1   3   78.95    3.00
   5  -1   3   75.10    2.85
   5  -1   4   72.13    2.86
   5  -1   4   71.31    2.77
   5  -1   5  159.90    5.46
   5  -1   5  168.52    5.42
   5   0  -2   34.37    1.83
   5   0  -1  364.57   11.31
   5   0   0  423.73   12.47
   5   0   0  383.61   12.44
   5   0   1    1.28    1.29
   5   0   1    2.64    1.38
   5   0   1    0.63    0.99
   5   0   2  271.23    8.19
   5   0   2  251.80    8.10
   5   0   3  298.89    9.18
   5   0   3  286.89    9.15
   5   0   4    0.02    1.29
   5   0   4    0.24    1.40
   5   0   5  140.01    4.59
   5   0   5  134.66    4.63
   5   0   6   91.89    3.39
   5   1  -2  662.55   20.23
   5   1  -1   70.62    2.50
   5   1  -1   63.77    2.54
   5   1   0  230.15    7.01
   5   1   0  214.90    7.03
   5   1   1   42.70    1.88
   5   1   1   40.86    1.77
   5   1   1   43.58    1.99
   5   1   2   48.43    2.10
   5   1   2   51.50    2.12
   5   1   2   51.66    2.04
   5   1   3  175.04    5.64
   5   1   3  176.15    5.64
   5   1   4    6.07    1.34
   5   1   5  217.65    6.87
   5   1   5  214.36    6.88
   5   1   6   28.97    1.79
   5   2  -2  180.53    5.77
   5   2  -1   -0.40    1.18
   5   2  -1    0.92    0.94
   5   2   0   50.49    1.89
   5   2   0   47.94    2.06
   5   2   1  369.81   11.42
   5   2   1  374.27   11.36
   5   2   1  361.89   11.43
   5   2   2   -0.18    1.18
   5   2   2   -0.12    1.13
   5   2   2    0.57    1.09
   5   2   3   86.80    3.08
   5   2   3   88.54    3.03
   5   2   3   87.13    3.07
   5   2   4   98.33    3.35
   5   2   4   96.57    3.39
   5   2   5    1.03    1.24
   5   2   6   38.00    1.92
   5   2   7    2.96    1.49
   5   3  -2   85.76    3.02
   5   3  -1  190.12    6.07
   5   3   0   36.91    1.77
   5   3   0   38.98    1.44
   5   3   1  305.93    9.53
   5   3   1  306.32    9.40
   5   3   2    3.31    1.20
   5   3   2    4.51    1.03
   5   3   2    3.63    1.13
   5   3   3   91.41    3.28
   5   3   3   92.12    3.19
   5   3   3  105.14    3.37
   5   3   4  154.66    4.96
   5   3   4  144.99    4.86
   5   3   4  158.73    5.01
   5   3   5   -0.14    1.18
   5   3   5    0.64    1.33
   5   3   6  271.83    8.52
   5   3   7   17.68    1.58
   5   4  -3    5.52    1.26
   5   4  -2  140.06    4.58
   5   4  -1  196.35    6.22
   5   4   0   10.72    1.27
   5   4   1  116.04    3.87
   5   4   2   81.67    2.80
   5   4   2   71.94    2.54
   5   4   2   86.45    2.86
   5   4   3   33.02    1.73
   5   4   3   30.23    1.44
   5   4   3   37.28    1.79
   5   4   4   52.63    2.23
   5   4   4   53.21    2.10
   5   4   4   56.79    2.32
   5   4   5   19.97    1.37
   5   4   6   36.77    1.84
   5   4   7   92.36    3.35
   5   5  -3   72.85    2.65
   5   5  -2    2.00    1.23
   5   5  -1  157.35    5.09
   5   5   0   11.86    1.29
   5   5   1   58.60    2.30
   5   5   2  208.32    3.47
   5   5   2   87.29    2.89
   5   5   3   -0.21    1.27
   5   5   3    1.16    0.82
   5   5   4  145.59    4.63
   5   5   5   88.19    3.04
   5   5   6    2.59    1.30
   5   5   6    1.85    1.59
   5   5   7  116.90    4.20
   5   5   7  134.40    4.48
   5   5   8   26.34    2.12
   5   6  -3   86.72    3.04
   5   6  -2    1.57    1.25
   5   6  -1   48.37    2.07
   5   6   0  121.97    4.07
   5   6   1    3.71    1.31
   5   6   2  180.87    5.84
   5   6   3   49.16    1.94
   5   6   3   31.48    1.30
   5   6   4   44.31    1.82
   5   6   4   58.21    2.35
   5   6   5   40.16    1.86
   5   6   5   51.36    2.35
   5   6   6   15.11    1.92
   5   6   7   20.37    2.00
   5   6   8  124.80    4.60
   5   6   9    1.02    2.15
   5   6  10   46.49    2.93
   5   6  11   16.29    2.59
   5   7  -2   11.04    1.42
   5   7  -1   27.26    1.63
   5   7   0  100.35    3.49
   5   7   1    1.46    1.38
   5   7   2   54.82    2.37
   5   7   4    1.43    1.04
   5   7   5  106.97    3.85
   5   7   5  122.65    4.15
   5   7   6   36.03    2.15
   5   7   6   35.73    2.31
   5   7   7    3.21    1.98
   5   7   8   40.34    2.66
   5   7   9    5.00    2.27
   5   7  10    2.58    2.29
   5   8   1   25.97    1.79
   5   8   6   32.10    2.35
   5   8   7    2.61    2.11
   5   8   8    8.17    2.33
   5   8   9   22.50    2.65
   5   8  10    4.60    2.64
   5   9   8    1.40    2.35
   5   9   9   20.34    2.75
   6  -3   2   76.14    2.75
   6  -3   3  147.72    4.86
   6  -2   2   23.47    1.51
   6  -2   3   63.55    2.52
   6  -1  -3   88.84    3.44
   6  -1  -2   83.79    3.33
   6  -1  -1    2.30    1.82
   6  -1   0  311.12    9.86
   6  -1   1  104.99    3.91
   6  -1   2   40.46    2.29
   6  -1   2   34.41    1.81
   6  -1   3  157.76    5.15
   6  -1   3  145.14    4.94
   6   0  -2   21.62    1.81
   6   0  -1    6.73    1.65
   6   0   0    3.05    1.53
   6   0   0    3.06    1.62
   6   0   1  100.12    3.65
   6   0   2    5.59    1.72
   6   0   2    2.57    1.30
   6   0   3   82.21    3.02
   6   0   3   71.49    2.83
   6   0   4   71.45    2.82
   6   0   4   61.57    2.62
   6   1  -2  441.76   13.63
   6   1  -1   15.33    1.54
   6   1  -1   14.72    1.62
   6   1   0    3.67    1.51
   6   1   0    6.95    1.45
   6   1   1  335.92    9.98
   6   1   1  302.17    9.98
   6   1   2  100.31    3.58
   6   1   2   94.57    3.43
   6   1   2  101.48    3.60
   6   1   3   52.68    2.38
   6   1   3   51.31    2.24
   6   1   4  154.43    5.06
   6   1   4  147.51    5.03
   6   1   5   10.03    1.68
   6   2  -2  137.17    4.63
   6   2  -1  155.35    4.88
   6   2  -1  144.44    5.00
   6   2   0   20.21    1.48
   6   2   0   17.51    1.63
   6   2   1  235.61    7.24
   6   2   1  220.84    7.34
   6   2   2   55.60    2.48
   6   2   2   63.64    2.47
   6   2   2   60.62    2.45
   6   2   3    9.04    1.49
   6   2   3    7.93    1.42
   6   2   4  135.35    4.49
   6   2   4  130.37    4.50
   6   2   5  147.04    4.81
   6   2   5  138.78    4.87
   6   2   6   15.28    1.74
   6   3  -2    1.27    1.47
   6   3  -1  532.47   16.40
   6   3   0    8.63    1.52
   6   3   0    9.75    1.10
   6   3   1   18.36    1.60
   6   3   1   21.55    1.37
   6   3   2  118.11    4.20
   6   3   2  127.31    4.09
   6   3   2  124.33    4.22
   6   3   3   56.72    2.35
   6   3   3   61.19    2.51
   6   3   4   75.01    2.84
   6   3   4   78.65    2.98
   6   3   5   87.74    3.21
   6   3   5   88.53    3.33
   6   3   6    9.43    1.57
   6   3   6    9.65    1.70
   6   3   7    5.03    1.67
   6   4  -3   77.80    2.97
   6   4  -2   41.93    2.07
   6   4  -1  109.44    3.88
   6   4   0  155.64    5.12
   6   4   1   20.21    1.67
   6   4   1   25.67    1.07
   6   4   2  208.69    6.71
   6   4   2  209.58    6.51
   6   4   3   80.12    2.86
   6   4   3   84.51    3.14
   6   4   4    0.10    1.28
   6   4   4   -0.22    1.52
   6   4   5   61.44    2.50
   6   4   5   66.72    2.74
   6   4   6   57.50    2.44
   6   4   6   56.16    2.64
   6   4   7    0.23    1.80
   6   4   8   58.59    2.91
   6   5  -3   96.55    3.46
   6   5  -2   87.57    3.23
   6   5  -1    3.63    1.49
   6   5   0  189.43    6.12
   6   5   1   32.95    1.86
   6   5   3   34.50    1.45
   6   5   4    6.89    1.66
   6   5   5   66.58    2.93
   6   5  10   -2.11    2.43
   6   6  -2   33.08    1.95
   6   6  -1   12.33    1.56
   6   6   0   41.33    2.08
   6   6   1   48.78    2.25
   6   6   7   -0.03    2.07
   6   6   8    6.48    2.19
   6   6   9    1.88    2.23
   6   6  10    1.52    2.41
   6   7   0   30.49    1.90
   6   7   5    4.28    1.91
   6   7   6   37.21    2.52
   6   7   7   24.25    2.47
   6   7   8   13.04    2.43
   6   7   9   20.99    2.64
   6   8   7   59.69    3.19
   6   8   8   -1.95    2.45
   6   8   9   40.14    3.08
   7  -2   3   20.04    1.75
   7  -2   4   73.98    2.97
   7  -2   5    2.25    1.77
   7  -1   2   82.71    3.09
   7  -1   3   16.85    1.75
   7  -1   4  190.96    6.27
   7  -1   5    3.03    1.81
   7   0  -2    4.02    1.88
   7   0  -1  219.38    7.17
   7   0   0   80.30    3.29
   7   0   1   89.52    3.55
   7   0   2   75.93    3.12
   7   0   2   69.61    2.84
   7   0   3   28.80    1.97
   7   0   4   45.28    2.31
   7   0   5   96.36    3.69
   7   1  -2    1.19    1.61
   7   1  -1   97.37    3.59
   7   1   0   98.17    3.65
   7   1   1   25.65    2.00
   7   1   2   83.62    3.29
   7   1   3   43.80    2.42
   7   1   3   40.52    2.24
   7   1   4   13.22    1.92
   7   1   4   15.44    1.80
   7   1   5  132.61    4.69
   7   1   6    1.91    1.91
   7   2  -1    1.22    1.45
   7   2   0   90.81    3.32
   7   2   1   77.30    2.99
   7   2   2   61.76    2.63
   7   2   3   59.27    2.62
   7   2   3   53.29    2.55
   7   2   4    7.53    1.78
   7   2   4    7.79    1.76
   7   2   5   66.06    2.83
   7   2   5   61.36    2.85
   7   2   6   27.83    2.21
   7   2   7   -0.01    1.97
   7   3   1  123.53    4.13
   7   3   2   66.64    2.64
   7   3   3  104.23    3.86
   7   3   4    1.82    1.78
   7   3   5   28.06    2.15
   7   3   6   44.03    2.48
   7   3   7    5.42    2.03
   7   3   8   58.57    3.11
   7   4   4   39.51    2.31
   7   4   5    1.13    1.82
   7   4   6  103.06    4.00
   7   4   7    6.97    2.08
   7   4   8    9.67    2.26
   7   4   9   28.54    2.69
   7   4  10    8.00    2.60
   7   5  -2  110.66    3.99
   7   5   4  105.29    4.01
   7   5   5   -1.07    1.87
   7   5   6   41.12    2.57
   7   5   7   14.38    2.24
   7   5   8   13.78    2.37
   7   5   9   51.40    3.17
   7   6   5   30.54    2.32
   7   6   6    3.29    2.11
   7   7   7   17.39    2.52
   7   7   8    1.32    2.54
   8  -1   4   13.67    2.05
   8  -1   5   40.59    2.50
   8  -1   6    4.36    2.10
   8  -1   7    9.19    2.31
   8   0   3   77.61    3.22
   8   0   4    7.08    2.02
   8   0   5   34.33    2.43
   8   0   6   35.31    2.50
   8   0   7   -0.16    2.30
   8   0   8   11.95    2.49
   8   1   4   19.52    2.13
   8   1   5   19.89    2.23
   8   1   6   34.27    2.50
   8   1   7   10.52    2.34
   8   1   8   23.04    2.62
   8   1   9   12.32    2.64
   8   2   4  102.72    3.98
   8   2   5    1.07    2.07
   8   2   6   69.66    3.30
   8   2   7   17.42    2.37
   8   2   8   16.64    2.58
   8   2   9   16.77    2.76
   8   3   4   66.34    3.10
   8   3   5   16.64    2.27
   8   3   6   16.05    2.38
   8   3   7   22.75    2.54
   8   3   8   -1.64    2.33
   8   3   9   17.65    2.73
   8   4   5   92.82    3.88
   8   4   6    1.88    2.29
   8   4   7   44.93    2.99
   8   4   8   39.19    2.93
   8   5   5   14.60    2.27
   8   5   6    3.46    2.28
   8   5   7    8.85    2.50
   8   5   8   28.96    2.88
   8   6   6   31.69    2.72
   8   6   7    1.78    2.50
   9   1   5    6.64    2.32
   9   1   6   13.03    2.54
   9   1   7   17.57    2.75
   9   1   8    7.78    2.71
   9   2   5   38.62    2.81
   9   2   6   -0.45    2.46
   9   2   7   24.55    2.84
   9   3   5   41.70    2.87
   9   3   6   15.92    2.60
   9   3   7    9.48    2.69
   9   4   6   12.70    2.62
   9   4   7    1.30    2.64
   9   5   6   28.29    2.84
   0   0   0    0.00    0.00
;
_shelx_hkl_checksum              84427
loop_
_space_group_symop_operation_xyz
'x, y, z'
'-x, -y, -z'
loop_
_atom_site_label
_atom_site_type_symbol
_atom_site_fract_x
_atom_site_fract_y
_atom_site_fract_z
_atom_site_U_iso_or_equiv
_atom_site_adp_type
_atom_site_occupancy
_atom_site_site_symmetry_order
_atom_site_calc_flag
_atom_site_refinement_flags_posn
_atom_site_refinement_flags_adp
Br1 Br 0.18870(3) 0.07546(3) 0.31856(2) 0.02376(11) Uani 1 1 d . .
C1 C 0.2409(4) 0.1263(3) 0.0144(2) 0.0239(5) Uani 1 1 d . .
H1 H 0.3339 0.0805 0.0692 0.029 Uiso 1 1 calc R U
C2 C 0.2458(4) 0.1545(3) -0.1277(2) 0.0219(5) Uani 1 1 d . .
H2 H 0.2673 0.0541 -0.1716 0.026 Uiso 1 1 calc R U
C3 C 0.3820(4) 0.2490(3) -0.1816(3) 0.0246(5) Uani 1 1 d . .
H3A H 0.5059 0.1987 -0.1535 0.030 Uiso 1 1 calc R U
H3B H 0.3449 0.3534 -0.1456 0.030 Uiso 1 1 calc R U
C4 C 0.3970(4) 0.2678(3) -0.3253(2) 0.0228(5) Uani 1 1 d . .
H4A H 0.4101 0.1652 -0.3620 0.027 Uiso 1 1 calc R U
H4B H 0.5111 0.3012 -0.3491 0.027 Uiso 1 1 calc R U
C5 C 0.2316(4) 0.3852(3) -0.3848(2) 0.0218(5) Uani 1 1 d . .
H5A H 0.2100 0.4849 -0.3418 0.026 Uiso 1 1 calc R U
H5B H 0.2683 0.4036 -0.4726 0.026 Uiso 1 1 calc R U
C6 C 0.0465(4) 0.3356(3) -0.3807(2) 0.0236(5) Uani 1 1 d . .
H6A H 0.0713 0.2233 -0.3614 0.028 Uiso 1 1 calc R U
H6B H -0.0036 0.3531 -0.4640 0.028 Uiso 1 1 calc R U
C7 C -0.1032(4) 0.4240(3) -0.2829(2) 0.0243(5) Uani 1 1 d . .
H7A H -0.1339 0.5355 -0.3056 0.029 Uiso 1 1 calc R U
H7B H -0.2163 0.3868 -0.2877 0.029 Uiso 1 1 calc R U
C8 C -0.0443(4) 0.4048(3) -0.1454(2) 0.0229(5) Uani 1 1 d . .
H8A H 0.0539 0.4593 -0.1362 0.027 Uiso 1 1 calc R U
H8B H -0.1510 0.4534 -0.0894 0.027 Uiso 1 1 calc R U
C9 C 0.0271(4) 0.2312(3) -0.1064(2) 0.0219(5) Uani 1 1 d . .
H9 H -0.0466 0.1658 -0.1423 0.026 Uiso 1 1 calc R U
C10 C 0.0552(4) 0.1908(3) 0.0339(2) 0.0203(5) Uani 1 1 d . .
C11 C -0.0890(3) 0.2064(3) 0.1382(2) 0.0190(5) Uani 1 1 d . .
C12 C -0.2782(4) 0.2677(3) 0.1100(2) 0.0216(5) Uani 1 1 d . .
H12 H -0.3057 0.2984 0.0270 0.026 Uiso 1 1 calc R U
C13 C -0.4246(4) 0.2841(3) 0.2015(3) 0.0228(5) Uani 1 1 d . .
H13 H -0.5476 0.3260 0.1796 0.027 Uiso 1 1 calc R U
C14 C -0.3877(4) 0.2381(3) 0.3253(3) 0.0241(5) Uani 1 1 d . .
H14 H -0.4858 0.2486 0.3869 0.029 Uiso 1 1 calc R U
C15 C -0.2033(4) 0.1761(3) 0.3574(2) 0.0220(5) Uani 1 1 d . .
H15 H -0.1775 0.1439 0.4404 0.026 Uiso 1 1 calc R U
C16 C -0.0576(3) 0.1625(3) 0.2646(2) 0.0196(5) Uani 1 1 d . .
loop_
_atom_site_aniso_label
_atom_site_aniso_U_11
_atom_site_aniso_U_22
_atom_site_aniso_U_33
_atom_site_aniso_U_23
_atom_site_aniso_U_13
_atom_site_aniso_U_12
Br1 0.02108(15) 0.02397(16) 0.02249(16) 0.00393(10) -0.00285(10) 0.00141(10)
C1 0.0227(12) 0.0212(11) 0.0231(12) 0.0050(9) -0.0013(9) 0.0027(9)
C2 0.0227(12) 0.0137(10) 0.0251(13) -0.0006(9) 0.0000(9) 0.0031(9)
C3 0.0185(12) 0.0220(12) 0.0286(14) 0.0028(10) -0.0004(10) 0.0035(9)
C4 0.0182(12) 0.0203(11) 0.0256(13) 0.0031(9) 0.0014(9) 0.0025(9)
C5 0.0216(12) 0.0169(11) 0.0224(12) 0.0027(9) 0.0001(9) 0.0034(9)
C6 0.0263(13) 0.0182(11) 0.0232(13) 0.0013(9) -0.0055(10) 0.0013(9)
C7 0.0196(12) 0.0239(12) 0.0257(13) 0.0056(10) -0.0042(9) 0.0014(9)
C8 0.0235(12) 0.0172(11) 0.0241(13) 0.0014(9) -0.0001(10) 0.0016(9)
C9 0.0209(12) 0.0176(11) 0.0236(12) 0.0005(9) -0.0006(9) 0.0018(9)
C10 0.0201(12) 0.0165(10) 0.0213(12) 0.0027(9) -0.0019(9) 0.0010(9)
C11 0.0185(11) 0.0117(10) 0.0241(12) 0.0002(9) -0.0008(9) 0.0014(8)
C12 0.0211(12) 0.0176(11) 0.0230(12) 0.0021(9) -0.0020(9) 0.0010(9)
C13 0.0172(11) 0.0177(11) 0.0305(14) -0.0020(10) -0.0002(10) 0.0013(9)
C14 0.0237(13) 0.0182(11) 0.0273(13) -0.0050(10) 0.0065(10) -0.0006(9)
C15 0.0268(13) 0.0180(11) 0.0204(12) -0.0012(9) 0.0005(9) -0.0040(9)
C16 0.0189(11) 0.0123(10) 0.0252(12) -0.0008(9) -0.0005(9) 0.0006(8)
loop_
_atom_type_symbol
_atom_type_description
_atom_type_scat_dispersion_real
_atom_type_scat_dispersion_imag
_atom_type_scat_source
C C 0.0033 0.0016 'International Tables Vol C Tables 4.2.6.8 and 6.1.1.4'
H H 0.0000 0.0000 'International Tables Vol C Tables 4.2.6.8 and 6.1.1.4'
Br Br -0.2901 2.4595 'International Tables Vol C Tables 4.2.6.8 and 6.1.1.4'
loop_
_geom_angle_atom_site_label_1
_geom_angle_atom_site_label_2
_geom_angle_atom_site_label_3
_geom_angle
C10 C1 C2 95.4(2)
C1 C2 C3 116.3(2)
C1 C2 C9 85.25(19)
C3 C2 C9 122.0(2)
C2 C3 C4 116.4(2)
C3 C4 C5 116.0(2)
C6 C5 C4 116.1(2)
C5 C6 C7 114.1(2)
C8 C7 C6 114.6(2)
C9 C8 C7 112.0(2)
C10 C9 C8 118.3(2)
C10 C9 C2 85.73(18)
C8 C9 C2 117.4(2)
C1 C10 C11 138.1(2)
C1 C10 C9 93.6(2)
C11 C10 C9 127.9(2)
C16 C11 C12 115.9(2)
C16 C11 C10 126.0(2)
C12 C11 C10 118.1(2)
C13 C12 C11 122.4(2)
C14 C13 C12 119.9(2)
C13 C14 C15 119.7(2)
C14 C15 C16 119.6(2)
C15 C16 C11 122.5(2)
C15 C16 Br1 116.17(19)
C11 C16 Br1 121.36(18)
loop_
_geom_bond_atom_site_label_1
_geom_bond_atom_site_label_2
_geom_bond_distance
Br1 C16 1.900(2)
C1 C10 1.348(3)
C1 C2 1.514(4)
C2 C3 1.521(4)
C2 C9 1.587(3)
C3 C4 1.524(4)
C4 C5 1.538(3)
C5 C6 1.525(4)
C6 C7 1.539(4)
C7 C8 1.536(4)
C8 C9 1.530(3)
C9 C10 1.529(3)
C10 C11 1.465(3)
C11 C16 1.397(3)
C11 C12 1.410(3)
C12 C13 1.384(4)
C13 C14 1.381(4)
C14 C15 1.391(4)
C15 C16 1.391(4)
loop_
_geom_torsion_atom_site_label_1
_geom_torsion_atom_site_label_2
_geom_torsion_atom_site_label_3
_geom_torsion_atom_site_label_4
_geom_torsion
C10 C1 C2 C3 123.7(2)
C10 C1 C2 C9 0.1(2)
C1 C2 C3 C4 175.9(2)
C9 C2 C3 C4 -82.5(3)
C2 C3 C4 C5 74.7(3)
C3 C4 C5 C6 -69.8(3)
C4 C5 C6 C7 105.8(3)
C5 C6 C7 C8 -59.4(3)
C6 C7 C8 C9 -52.2(3)
C7 C8 C9 C10 -168.4(2)
C7 C8 C9 C2 91.0(3)
C1 C2 C9 C10 -0.12(18)
C3 C2 C9 C10 -118.3(2)
C1 C2 C9 C8 119.6(2)
C3 C2 C9 C8 1.5(3)
C2 C1 C10 C11 172.2(3)
C2 C1 C10 C9 -0.1(2)
C8 C9 C10 C1 -118.8(2)
C2 C9 C10 C1 0.1(2)
C8 C9 C10 C11 67.7(3)
C2 C9 C10 C11 -173.4(2)
C1 C10 C11 C16 7.2(5)
C9 C10 C11 C16 177.5(2)
C1 C10 C11 C12 -171.3(3)
C9 C10 C11 C12 -1.0(4)
C16 C11 C12 C13 0.1(3)
C10 C11 C12 C13 178.7(2)
C11 C12 C13 C14 -0.6(4)
C12 C13 C14 C15 0.2(4)
C13 C14 C15 C16 0.7(4)
C14 C15 C16 C11 -1.2(4)
C14 C15 C16 Br1 -179.74(18)
C12 C11 C16 C15 0.9(3)
C10 C11 C16 C15 -177.7(2)
C12 C11 C16 Br1 179.28(17)
C10 C11 C16 Br1 0.7(3)
