#------------------------------------------------------------------------------
#$Date: 2019-11-25 21:41:16 +0200 (Mon, 25 Nov 2019) $
#$Revision: 241879 $
#$URL: file:///home/coder/svn-repositories/cod/cif/4/13/17/4131710.cif $
#------------------------------------------------------------------------------
#
# This file is available in the Crystallography Open Database (COD),
# http://www.crystallography.net/
#
# All data on this site have been placed in the public domain by the
# contributors.
#
data_4131710
loop_
_publ_author_name
'Wu, Lipeng'
'Chitnis, Saurabh S.'
'Jiao, Haijun'
'Annibale, Vincent T.'
'Manners, Ian'
_publ_section_title
;
 Non-Metal-Catalyzed Heterodehydrocoupling of Phosphines and Hydrosilanes:
 Mechanistic Studies of B(C<sub>6</sub>F<sub>5</sub>)<sub>3</sub>-Mediated
 Formation of P-Si Bonds.
;
_journal_issue                   46
_journal_name_full               'Journal of the American Chemical Society'
_journal_page_first              16780
_journal_page_last               16790
_journal_paper_doi               10.1021/jacs.7b09175
_journal_volume                  139
_journal_year                    2017
_chemical_formula_sum            'C32 H42 P2 Si4'
_chemical_formula_weight         600.95
_space_group_crystal_system      triclinic
_space_group_IT_number           2
_space_group_name_Hall           '-P 1'
_space_group_name_H-M_alt        'P -1'
_atom_sites_solution_hydrogens   geom
_audit_creation_method           SHELXL-2013
_cell_angle_alpha                95.921(2)
_cell_angle_beta                 90.442(3)
_cell_angle_gamma                111.095(2)
_cell_formula_units_Z            1
_cell_length_a                   7.7920(3)
_cell_length_b                   10.0353(4)
_cell_length_c                   11.4214(5)
_cell_measurement_reflns_used    3840
_cell_measurement_temperature    100(2)
_cell_measurement_theta_max      27.774
_cell_measurement_theta_min      1.795
_cell_volume                     827.83(6)
_computing_structure_refinement  'SHELXL-2013 (Sheldrick, 2013)'
_diffrn_ambient_temperature      100(2)
_diffrn_detector_area_resol_mean 7.9
_diffrn_measured_fraction_theta_full 0.993
_diffrn_measured_fraction_theta_max 0.984
_diffrn_measurement_device_type  'Bruker APEX II area detector'
_diffrn_measurement_method       '\w and \f scans'
_diffrn_radiation_type           MoK\a
_diffrn_radiation_wavelength     0.71073
_diffrn_reflns_av_R_equivalents  0.0275
_diffrn_reflns_av_unetI/netI     0.0275
_diffrn_reflns_Laue_measured_fraction_full 0.993
_diffrn_reflns_Laue_measured_fraction_max 0.984
_diffrn_reflns_limit_h_max       9
_diffrn_reflns_limit_h_min       -10
_diffrn_reflns_limit_k_max       13
_diffrn_reflns_limit_k_min       -13
_diffrn_reflns_limit_l_max       14
_diffrn_reflns_limit_l_min       -14
_diffrn_reflns_number            14463
_diffrn_reflns_point_group_measured_fraction_full 0.993
_diffrn_reflns_point_group_measured_fraction_max 0.984
_diffrn_reflns_theta_full        25.242
_diffrn_reflns_theta_max         27.774
_diffrn_reflns_theta_min         1.795
_diffrn_source                   'sealed X-ray tube'
_exptl_absorpt_coefficient_mu    0.296
_exptl_absorpt_correction_T_max  0.7456
_exptl_absorpt_correction_T_min  0.5942
_exptl_absorpt_correction_type   multi-scan
_exptl_absorpt_process_details   'Bruker Apex 2'
_exptl_crystal_colour            Colorless
_exptl_crystal_density_diffrn    1.205
_exptl_crystal_description       Plate
_exptl_crystal_F_000             320
_exptl_crystal_size_max          0.360
_exptl_crystal_size_mid          0.220
_exptl_crystal_size_min          0.050
_refine_diff_density_max         0.710
_refine_diff_density_min         -0.323
_refine_diff_density_rms         0.085
_refine_ls_extinction_method     none
_refine_ls_goodness_of_fit_ref   1.174
_refine_ls_hydrogen_treatment    constr
_refine_ls_matrix_type           full
_refine_ls_number_parameters     176
_refine_ls_number_reflns         3840
_refine_ls_number_restraints     0
_refine_ls_restrained_S_all      1.174
_refine_ls_R_factor_all          0.0533
_refine_ls_R_factor_gt           0.0459
_refine_ls_shift/su_max          0.000
_refine_ls_shift/su_mean         0.000
_refine_ls_structure_factor_coef Fsqd
_refine_ls_weighting_details
'w=1/[\s^2^(Fo^2^)+(0.0310P)^2^+1.8369P] where P=(Fo^2^+2Fc^2^)/3'
_refine_ls_weighting_scheme      calc
_refine_ls_wR_factor_gt          0.1227
_refine_ls_wR_factor_ref         0.1257
_reflns_Friedel_coverage         0.000
_reflns_number_gt                3323
_reflns_number_total             3840
_reflns_threshold_expression     'I > 2\s(I)'
_cod_data_source_file            ja7b09175_si_001.cif
_cod_data_source_block           3e
_cod_depositor_comments
;
The following automatic conversions were performed:

data item '_exptl_absorpt_correction_type' value 'Multi-Scan' was
changed to 'multi-scan' in accordance with the
/home/saulius/struct/COD-crude-data/automatic-downloads/DataCite-retrospective/ACS/depositions/lib/dictionaries/cif_core.dic
dictionary named 'cif_core.dic' version 2.4.2 last updated on
2011-04-26.

Automatic conversion script
Id: cif_fix_values 6909 2019-04-08 15:41:33Z antanas 
;
_cod_database_code               4131710
_shelx_space_group_comment
;
The symmetry employed for this shelxl refinement is uniquely defined
by the following loop, which should always be used as a source of
symmetry information in preference to the above space-group names.
They are only intended as comments.
;
_shelx_estimated_absorpt_t_min   0.901
_shelx_estimated_absorpt_t_max   0.985
_shelxl_version_number           2013-4
_shelx_res_file
;
TITL 3g.res in P-1
CELL  0.71073   7.7920  10.0353  11.4214   95.921   90.442  111.095
ZERR    1.000   0.0003   0.0004   0.0005    0.002    0.003    0.002
LATT 1
SFAC C  H  Si P
UNIT 32  42  4  2
REM Old TITL 3g in P-1
REM SHELXT solution in P-1
REM R1 0.094,  Rweak 0.007,  Alpha 0.045,  Orientation as input
REM Formula found by SHELXT:  C16 P3
L.S. 100
BOND $H
OMIT 1   2   0
OMIT 1  -5   1
OMIT -1   4   3
FMAP 2
ACTA
PLAN 5
SIZE 0.05 0.22 0.36
TEMP -173.15
WGHT    0.031000    1.836900
FVAR       0.83080
P1    4    0.934111    0.222212    0.325538    11.00000    0.01436    0.01268 =
         0.01177    0.00214    0.00205    0.00321
SI1   3    0.697836    0.301132    0.330726    11.00000    0.01628    0.01484 =
         0.01251    0.00391    0.00284    0.00537
SI2   3    0.175263    0.008825    0.755555    11.00000    0.01615    0.01353 =
         0.01136    0.00179    0.00260    0.00376
C1    1    1.074884    0.332829    0.217046    11.00000    0.01769    0.01433 =
         0.01811    0.00423    0.00574    0.00655
C2    1    1.038471    0.306658    0.095547    11.00000    0.03291    0.02119 =
         0.01981    0.00412    0.00493    0.00059
AFIX  43
H2    2    0.935172    0.226093    0.063337    11.00000   -1.20000
AFIX   0
C3    1    1.152612    0.397907    0.020940    11.00000    0.04820    0.02638 =
         0.02063    0.00646    0.01172    0.00440
AFIX  43
H3    2    1.126255    0.379360   -0.061773    11.00000   -1.20000
AFIX   0
C4    1    1.302912    0.514443    0.066124    11.00000    0.03680    0.01678 =
         0.03578    0.00969    0.02027    0.00782
AFIX  43
H4    2    1.380771    0.575730    0.014715    11.00000   -1.20000
AFIX   0
C5    1    1.340737    0.542433    0.186411    11.00000    0.02671    0.01484 =
         0.03911    0.00514    0.01166    0.00212
AFIX  43
H5    2    1.444120    0.623405    0.217884    11.00000   -1.20000
AFIX   0
C6    1    1.227270    0.451917    0.261399    11.00000    0.02369    0.01561 =
         0.02290    0.00244    0.00524    0.00442
AFIX  43
H6    2    1.254106    0.471613    0.344044    11.00000   -1.20000
AFIX   0
C7    1    0.544300    0.243436    0.193781    11.00000    0.02359    0.02803 =
         0.01647    0.00625    0.00104    0.01120
AFIX 137
H7A   2    0.464847    0.300124    0.193812    11.00000   -1.50000
H7B   2    0.467970    0.141267    0.191213    11.00000   -1.50000
H7C   2    0.619640    0.258687    0.124568    11.00000   -1.50000
AFIX   0
C8    1    0.801926    0.501479    0.353529    11.00000    0.02904    0.01602 =
         0.02624    0.00499    0.00805    0.00800
AFIX 137
H8A   2    0.703877    0.540996    0.361036    11.00000   -1.50000
H8B   2    0.874758    0.536657    0.285993    11.00000   -1.50000
H8C   2    0.881803    0.531990    0.425531    11.00000   -1.50000
AFIX   0
C9    1    0.558375    0.227310    0.458703    11.00000    0.01772    0.01007 =
         0.01262    0.00058    0.00295    0.00379
C10   1    0.371962    0.208467    0.457186    11.00000    0.01913    0.01693 =
         0.01539    0.00432    0.00080    0.00720
AFIX  43
H10   2    0.320172    0.237982    0.393681    11.00000   -1.20000
AFIX   0
C11   1    0.260546    0.147543    0.546431    11.00000    0.01410    0.01543 =
         0.01787    0.00208    0.00206    0.00503
AFIX  43
H11   2    0.134203    0.136399    0.542904    11.00000   -1.20000
AFIX   0
C12   1    0.330881    0.102229    0.641514    11.00000    0.01685    0.01178 =
         0.01282    0.00030    0.00236    0.00332
C13   1    0.518901    0.123841    0.644267    11.00000    0.01843    0.01611 =
         0.01281    0.00329   -0.00005    0.00556
AFIX  43
H13   2    0.571137    0.095674    0.708369    11.00000   -1.20000
AFIX   0
C14   1    0.630498    0.185558    0.555282    11.00000    0.01511    0.01803 =
         0.01392    0.00238    0.00140    0.00556
AFIX  43
H14   2    0.757749    0.199694    0.559961    11.00000   -1.20000
AFIX   0
C15   1   -0.029743    0.063044    0.766565    11.00000    0.02103    0.02105 =
         0.02509    0.00248    0.00666    0.00893
AFIX 137
H15A  2    0.010554    0.166642    0.790811    11.00000   -1.50000
H15B  2   -0.110916    0.010764    0.824986    11.00000   -1.50000
H15C  2   -0.096591    0.040216    0.689683    11.00000   -1.50000
AFIX   0
C16   1    0.303892    0.059530    0.902495    11.00000    0.02760    0.02292 =
         0.01457    0.00138    0.00040    0.00435
AFIX 137
H16A  2    0.407472    0.025911    0.899951    11.00000   -1.50000
H16B  2    0.221040    0.014910    0.963173    11.00000   -1.50000
H16C  2    0.350442    0.164287    0.921216    11.00000   -1.50000

AFIX   0
HKLF 4

REM  3g.res in P-1
REM R1 =  0.0459 for    3323 Fo > 4sig(Fo)  and  0.0533 for all    3840 data
REM    176 parameters refined using      0 restraints

END

WGHT      0.0310      1.8374

REM Highest difference peak  0.710,  deepest hole -0.323,  1-sigma level  0.085
Q1    1   0.0544  0.0212  0.7548  11.00000  0.05    0.71
Q2    1   1.0593  0.2236  0.3350  11.00000  0.05    0.61
Q3    1   0.8062  0.2257  0.3252  11.00000  0.05    0.55
Q4    1   0.8279  0.2915  0.3215  11.00000  0.05    0.52
Q5    1   0.6139  0.2422  0.3997  11.00000  0.05    0.45
;
_shelx_res_checksum              87244
_shelx_hkl_file
;
  -1   0   0   12.60    0.90
  -1   0   0    9.00    0.70
  -1   0   0   12.60    0.90
  -1   0   0   12.30    1.00
   1   0   0   12.60    0.90
   1   0   0   11.10    0.90
   1   0   0   13.50    0.90
  -2   0   0  233.98    6.30
  -2   0   0  252.97    6.10
  -2   0   0  230.38    6.00
   2   0   0  238.08    6.40
   2   0   0  248.28    6.60
  -3   0   0  327.77    8.80
  -3   0   0  351.96    9.60
  -3   0   0  347.97    9.90
  -3   0   0  346.17    8.70
  -3   0   0  331.17    8.50
   3   0   0  344.37    9.10
  -4   0   0    0.20    2.20
  -4   0   0    0.70    1.50
  -4   0   0    0.80    1.50
  -4   0   0    1.00    2.10
  -4   0   0   -0.40    1.80
   4   0   0    0.60    1.90
  -5   0   0  133.09    7.00
  -5   0   0  131.49    6.00
  -5   0   0  126.69    5.80
  -5   0   0  121.19    5.20
   5   0   0  133.79    6.40
  -6   0   0   63.49    4.50
  -6   0   0   59.89    4.80
  -6   0   0   67.29    6.00
  -7   0   0   38.80    4.30
  -7   0   0   27.00    4.80
   7   0   0   28.00    4.20
  -8   0   0  412.56   13.50
  -8   0   0  433.76   15.10
   8   0   0  412.36   13.60
  -9   0   0   94.49    8.20
  -9   0   0   96.19    7.20
  -9   1   0    0.10    3.60
  -9   1   0    0.80    2.90
   8  -1   0   -3.20    2.30
  -8   1   0    0.80    2.70
  -8   1   0    0.80    3.60
   7  -1   0   83.69    5.40
  -7   1   0   97.39    5.70
  -7   1   0   83.79    6.40
  -7   1   0  101.79    6.00
  -6   1   0  219.08    8.00
  -6   1   0  217.18    7.90
  -6   1   0  209.28    8.70
   5  -1   0   47.80    3.90
  -5   1   0   41.90    4.20
  -5   1   0   55.09    4.10
  -5   1   0   51.49    3.90
  -5   1   0   52.29    3.80
   4  -1   0   94.19    3.70
   4  -1   0   98.79    4.50
   4  -1   0   97.79    4.20
  -4   1   0   90.69    4.50
  -4   1   0   91.59    5.30
  -4   1   0   94.39    3.90
  -4   1   0   96.09    4.70
  -4   1   0   87.19    4.20
  -4   1   0   93.09    4.10
   3  -1   0  626.24   13.70
   3  -1   0  631.64   14.00
   3  -1   0  640.64   13.90
  -3   1   0  611.64   14.40
  -3   1   0  603.64   14.10
  -3   1   0  616.44   14.60
  -3   1   0  633.74   14.60
  -3   1   0  620.24   15.30
  -3   1   0  608.04   13.80
   2  -1   0 1109.69   22.60
   2  -1   0 1127.09   22.60
   2  -1   0 1099.69   22.50
  -2   1   0 1081.59   23.60
  -2   1   0 1062.69   22.50
  -2   1   0 1101.69   23.10
  -2   1   0 1088.09   23.30
  -2   1   0 1049.70   23.20
  -2   1   0 1075.49   22.90
   1  -1   0  107.89    2.30
   1  -1   0  105.69    2.30
  -1   1   0  105.39    3.10
  -1   1   0  101.39    2.40
  -1   1   0  100.09    2.70
  -1   1   0  103.99    2.70
  -1   1   0   94.59    2.30
  -1   1   0  107.99    3.00
  -1   1   0  105.39    2.80
   0  -1   0  221.68    5.20
   0  -1   0  217.78    5.00
   0   1   0  215.98    4.70
   0   1   0  221.78    5.20
  -1  -1   0   30.30    2.20
   1   1   0   28.30    2.20
  -2  -1   0    4.00    2.50
  -2  -1   0    1.20    0.90
  -2  -1   0   -0.50    1.20
  -2  -1   0    1.70    1.80
  -2  -1   0    4.60    1.70
   2   1   0    1.50    1.80
  -3  -1   0   76.19    3.60
  -3  -1   0   79.19    4.70
  -3  -1   0   79.59    3.00
  -3  -1   0   82.59    4.80
  -3  -1   0   78.99    4.20
   3   1   0   77.89    4.30
  -4  -1   0   56.39    4.40
  -4  -1   0   59.59    3.90
  -4  -1   0   62.69    5.00
  -4  -1   0   58.19    3.10
  -4  -1   0   70.79    5.70
   4   1   0   67.19    4.60
  -5  -1   0  362.66    9.70
  -5  -1   0  363.26   10.80
  -5  -1   0  367.16   11.50
  -5  -1   0  369.86   12.40
   5   1   0  380.06   12.00
  -6  -1   0   -1.50    2.20
  -6  -1   0   -4.50    3.30
   6   1   0    0.10    3.10
  -7  -1   0  102.29    6.40
  -7  -1   0  106.99    7.50
   7   1   0  100.79    7.00
  -8  -1   0   13.20    4.60
  -8  -1   0   10.80    3.60
   8   1   0   10.60    3.70
  -9  -1   0  155.68    8.80
  -9  -1   0  159.48   10.90
   9   1   0  146.59    8.60
  -9   2   0    6.00    3.20
  -9   2   0    2.50    3.40
  -9   2   0    0.70    3.50
  -8   2   0   58.59    5.60
  -8   2   0   59.09    5.10
  -8   2   0   49.60    4.80
   7  -2   0   37.90    3.50
  -7   2   0   38.10    4.00
  -7   2   0   43.90    4.70
  -7   2   0   45.10    4.40
  -6   2   0   83.79    5.00
  -6   2   0   86.29    5.70
  -6   2   0   76.29    5.40
   5  -2   0   25.50    2.20
   5  -2   0   25.90    2.50
   5  -2   0   25.80    2.60
  -5   2   0   21.90    2.70
  -5   2   0   25.20    2.30
  -5   2   0   23.80    3.10
  -5   2   0   22.60    3.00
  -5   2   0   24.80    3.20
   4  -2   0  113.79    3.70
   4  -2   0  105.29    3.80
   4  -2   0  109.89    3.30
  -4   2   0  114.49    4.40
  -4   2   0  112.69    4.80
  -4   2   0  107.29    4.50
  -4   2   0  115.79    4.50
  -4   2   0  115.99    5.60
  -4   2   0  107.39    4.90
   3  -2   0 3379.06   68.89
   3  -2   0 3476.45   69.19
   3  -2   0 3438.56   69.29
  -3   2   0 3396.76   70.89
  -3   2   0 3429.96   70.49
  -3   2   0 3367.46   70.69
  -3   2   0 3319.67   71.39
  -3   2   0 3383.26   69.79
  -3   2   0 3425.76   70.19
  -3   2   0 3465.35   69.99
   2  -2   0 8234.28  162.48
   2  -2   0 8100.69  162.78
  -2   2   0 7874.61  168.28
  -2   2   0 7820.92  163.28
  -2   2   0 7908.81  162.98
  -2   2   0 7953.60  161.98
  -2   2   0 7926.61  165.78
  -2   2   0 8085.09  164.68
   1  -2   0  787.22   16.10
   1  -2   0  798.22   16.70
   1  -2   0  778.52   16.60
  -1   2   0  760.52   16.40
  -1   2   0  801.72   16.90
  -1   2   0  772.32   16.60
  -1   2   0  777.52   16.60
  -1   2   0  791.92   16.60
  -1   2   0  757.82   17.30
   0  -2   0   77.99    3.10
   0  -2   0   75.39    3.10
   0   2   0   78.39    2.30
  -1  -2   0  452.35   11.20
  -2  -2   0   70.39    3.10
  -2  -2   0   68.89    4.00
  -2  -2   0   60.09    4.10
  -2  -2   0   71.79    4.90
   2   2   0   72.39    4.30
  -3  -2   0    2.40    2.90
  -3  -2   0    0.80    1.50
  -3  -2   0    0.20    2.20
  -3  -2   0    3.00    2.30
  -3  -2   0    0.80    0.70
   3   2   0    2.90    2.30
  -4  -2   0   70.89    5.60
  -4  -2   0   66.29    4.40
  -4  -2   0   63.29    2.70
  -4  -2   0   67.49    6.00
   4   2   0   58.69    5.30
  -5  -2   0  759.42   20.90
  -5  -2   0  777.52   20.50
  -5  -2   0  782.92   19.20
  -6  -2   0  803.72   22.70
  -6  -2   0  826.22   20.80
   6   2   0  833.02   22.80
  -7  -2   0   11.00    3.40
  -7  -2   0    2.80    3.80
   7   2   0    9.60    4.00
  -8  -2   0   -5.50    2.80
  -8  -2   0   -2.80    3.80
   8   2   0    1.10    3.30
 -10   3   0   19.20    4.60
 -10   3   0   12.20    3.90
  -9   3   0  228.48   10.00
  -9   3   0  229.18    9.90
  -9   3   0  228.48    9.70
  -8   3   0  147.99    7.70
  -8   3   0  151.88    7.60
  -8   3   0  145.99    7.40
  -8   3   0  148.39    7.60
   7  -3   0  430.36   10.60
  -7   3   0  429.06   13.20
  -7   3   0  415.86   12.50
  -7   3   0  427.66   13.60
  -7   3   0  424.66   12.70
  -7   3   0  420.16   12.80
  -6   3   0   20.50    3.10
  -6   3   0   27.40    3.40
  -6   3   0   24.50    3.20
  -6   3   0   36.60    4.50
  -6   3   0   25.60    3.80
   5  -3   0   67.89    2.90
   5  -3   0   67.89    3.00
   5  -3   0   67.99    2.20
  -5   3   0   66.79    4.80
  -5   3   0   69.09    4.30
  -5   3   0   65.59    3.90
  -5   3   0   61.09    3.90
  -5   3   0   62.09    4.30
   4  -3   0   29.00    1.30
   4  -3   0   29.50    2.00
   4  -3   0   29.60    1.80
  -4   3   0   30.20    3.20
  -4   3   0   35.60    3.40
  -4   3   0   33.70    3.10
  -4   3   0   30.50    2.50
  -4   3   0   23.50    2.30
  -4   3   0   32.50    3.60
   3  -3   0   62.29    2.00
   3  -3   0   60.09    2.10
  -3   3   0   61.39    3.50
  -3   3   0   56.39    3.10
  -3   3   0   57.79    2.90
  -3   3   0   55.79    3.70
  -3   3   0   51.89    3.80
  -3   3   0   58.79    2.30
   2  -3   0   37.70    2.20
   2  -3   0   38.30    2.20
  -2   3   0   34.40    3.20
  -2   3   0   40.40    2.40
  -2   3   0   37.50    2.00
  -2   3   0   39.30    2.40
  -2   3   0   39.90    3.00
  -2   3   0   39.80    2.60
   1  -3   0 4789.12   94.99
   1  -3   0 4642.34   95.69
  -1   3   0 4692.83   95.59
  -1   3   0 4745.02   95.49
  -1   3   0 4676.83   95.69
  -1   3   0 4666.73   94.79
  -1   3   0 4588.44  100.99
   0  -3   0  153.38    5.30
   0  -3   0  152.48    5.60
   0   3   0  143.79    5.50
   0   3   0  157.18    4.20
  -1  -3   0  134.29    5.40
  -1  -3   0  134.49    5.70
   1   3   0  135.69    5.80
  -2  -3   0   66.59    4.80
  -2  -3   0   80.89    5.70
   2   3   0   69.99    4.60
  -3  -3   0   80.09    4.30
  -3  -3   0   84.89    5.90
  -3  -3   0   83.59    5.70
   3   3   0   85.29    5.80
  -4  -3   0   69.89    6.20
  -4  -3   0   76.39    4.90
  -4  -3   0   66.39    6.10
  -5  -3   0   64.39    6.30
  -5  -3   0   60.19    6.10
  -5  -3   0   54.09    4.60
   5   3   0   57.39    6.20
  -6  -3   0  244.38   11.20
  -6  -3   0  259.57    9.60
   6   3   0  255.27   11.40
  -7  -3   0   36.70    5.70
  -7  -3   0   30.60    4.30
   7   3   0   43.80    6.10
  -8  -3   0   61.99    7.50
  -8  -3   0   55.99    5.90
   8   3   0   65.89    7.40
 -10   4   0   49.80    5.80
 -10   4   0   45.50    5.70
  -9   4   0   59.49    5.80
  -9   4   0   68.79    6.30
  -8   4   0  648.84   18.90
  -8   4   0  662.73   18.30
  -8   4   0  652.03   19.20
  -7   4   0   -1.30    2.90
  -7   4   0   -1.30    2.50
  -7   4   0   -0.70    2.20
  -7   4   0    0.50    2.80
  -6   4   0  171.78    7.40
  -6   4   0  176.88    6.40
  -6   4   0  176.38    7.90
  -6   4   0  168.08    7.10
   5  -4   0  150.88    4.60
  -5   4   0  152.28    6.40
  -5   4   0  145.49    6.90
  -5   4   0  152.18    5.20
  -5   4   0  143.69    7.30
  -5   4   0  149.19    6.20
   4  -4   0    1.30    0.90
   4  -4   0    2.30    0.90
  -4   4   0    1.00    0.70
  -4   4   0    0.10    1.60
  -4   4   0    0.60    2.20
  -4   4   0    0.90    1.00
  -4   4   0    1.50    1.70
   3  -4   0  454.15   10.60
  -3   4   0  473.35   11.60
  -3   4   0  464.85   13.10
  -3   4   0  471.45   10.50
  -3   4   0  456.65   12.30
  -3   4   0  461.05   11.60
   2  -4   0   20.80    2.20
   2  -4   0   20.30    1.80
  -2   4   0   28.20    3.30
  -2   4   0   24.30    2.50
  -2   4   0   23.50    2.10
  -2   4   0   20.90    2.00
   1  -4   0   91.49    3.90
   1  -4   0   86.59    4.50
  -1   4   0   96.59    5.10
  -1   4   0   90.49    4.20
  -1   4   0   98.09    3.90
   0  -4   0 1763.82   38.10
   0  -4   0 1750.52   38.90
   0   4   0 1836.72   37.10
   0   4   0 1784.72   39.00
  -1  -4   0  109.19    5.90
  -1  -4   0  102.99    5.80
  -2  -4   0  212.38    8.50
  -2  -4   0  160.98    7.70
  -3  -4   0  520.35   13.40
  -3  -4   0  520.05   15.70
  -3  -4   0  490.05   15.30
  -4  -4   0   63.89    6.70
  -4  -4   0   63.19    6.30
  -4  -4   0   49.99    4.20
   4   4   0   54.39    6.10
  -5  -4   0    9.70    4.50
  -5  -4   0    7.40    4.20
  -5  -4   0    8.50    3.00
   5   4   0    5.60    3.90
  -6  -4   0   38.20    4.50
  -6  -4   0   30.20    5.40
   6   4   0   40.20    6.10
  -7  -4   0   29.70    4.60
  -7  -4   0   24.80    5.90
   7   4   0   27.30    5.60
 -10   5   0   91.79    7.80
 -10   5   0   83.69    7.00
  -9   5   0   68.39    6.90
  -9   5   0   92.49    6.80
  -9   5   0   92.09    7.00
  -8   5   0    4.80    3.10
  -8   5   0    6.20    3.50
  -8   5   0    5.80    3.40
  -7   5   0  174.48    7.70
  -7   5   0  161.98    8.30
  -7   5   0  175.88    8.10
  -6   5   0   56.39    4.50
  -6   5   0   48.30    4.50
  -6   5   0   52.79    5.20
  -6   5   0   55.99    6.20
  -6   5   0   42.20    4.20
  -5   5   0   38.30    4.50
  -5   5   0   44.30    3.90
  -5   5   0   42.80    3.90
  -5   5   0   40.20    2.50
  -5   5   0   36.10    4.60
   4  -5   0 1276.97   26.70
   4  -5   0 1248.48   26.50
  -4   5   0 1265.37   28.30
  -4   5   0 1240.78   30.10
  -4   5   0 1211.38   27.90
  -4   5   0 1251.37   29.00
   3  -5   0 2231.68   46.00
  -3   5   0 2147.49   47.20
  -3   5   0 2274.17   45.90
  -3   5   0 2130.09   46.60
  -3   5   0 2167.08   48.50
  -3   5   0 2192.58   46.60
   2  -5   0   68.29    3.10
   2  -5   0   67.89    4.00
  -2   5   0   69.69    4.80
  -2   5   0   65.19    3.40
  -2   5   0   70.39    4.20
  -2   5   0   68.19    3.60
   1  -5   0   82.09    4.30
   1  -5   0   86.19    4.90
  -1   5   0   90.69    4.60
  -1   5   0   84.69    4.00
  -1   5   0   83.59    5.40
   0  -5   0    1.30    2.50
   0  -5   0   -1.00    2.40
   0   5   0    0.50    1.20
   0   5   0    2.70    2.00
  -1  -5   0  267.17    9.50
  -1  -5   0  263.77    9.90
   1   5   0  256.27    9.80
  -2  -5   0  162.48    8.70
  -2  -5   0  166.28    8.30
   2   5   0  179.88    8.90
  -3  -5   0   26.60    5.40
  -3  -5   0   23.60    3.50
  -3  -5   0   26.80    5.30
   3   5   0   20.20    5.00
  -4  -5   0    6.10    4.40
  -4  -5   0    5.60    2.80
  -4  -5   0    8.30    4.80
   4   5   0    1.40    3.90
  -5  -5   0  646.54   20.30
  -5  -5   0  657.73   17.80
  -5  -5   0  638.64   20.30
   5   5   0  661.63   20.90
  -6  -5   0    8.30    3.40
  -6  -5   0    7.40    5.20
   6   5   0    7.20    4.50
  -7  -5   0   10.20    5.90
  -7  -5   0   30.80    4.90
   7   5   0   16.90    5.50
 -10   6   0   21.70    4.50
 -10   6   0   30.90    5.20
  -9   6   0  156.58    8.40
  -9   6   0  147.89    9.00
  -9   6   0  154.88    9.20
  -8   6   0    5.60    3.00
  -8   6   0    9.80    3.60
  -8   6   0    6.60    3.50
  -7   6   0   79.79    5.80
  -7   6   0   74.89    5.80
  -7   6   0   77.99    7.00
  -7   6   0   72.39    6.30
  -6   6   0   44.70    4.30
  -6   6   0   50.79    5.80
  -6   6   0   46.30    5.20
  -6   6   0   46.70    4.60
   5  -6   0  298.37    7.30
  -5   6   0  294.67    9.60
  -5   6   0  288.27    9.50
  -5   6   0  296.47   10.60
  -5   6   0  266.27   11.20
   4  -6   0    5.80    1.80
  -4   6   0    5.20    3.10
  -4   6   0    6.00    2.40
  -4   6   0    4.90    2.90
  -4   6   0    4.60    2.40
  -4   6   0    7.50    1.70
   3  -6   0  556.34   13.90
  -3   6   0  552.74   14.10
  -3   6   0  561.34   16.30
  -3   6   0  556.84   13.80
  -3   6   0  548.85   14.70
   2  -6   0 1530.35   34.00
   2  -6   0 1533.45   32.20
  -2   6   0 1505.25   35.70
  -2   6   0 1503.15   33.80
  -2   6   0 1531.85   33.70
  -2   6   0 1525.95   33.30
   1  -6   0  226.48    7.70
   1  -6   0  235.58    8.80
  -1   6   0  230.58    7.20
  -1   6   0  225.68    8.20
  -1   6   0  237.98    9.60
   0  -6   0  121.19    6.40
   0  -6   0  111.19    7.00
   0   6   0  122.09    4.40
   0   6   0  114.19    6.60
  -1  -6   0   16.90    4.40
  -1  -6   0   15.40    4.40
   1   6   0   11.40    3.60
  -2  -6   0   11.90    4.20
  -2  -6   0    1.70    3.80
   2   6   0    3.80    3.50
  -3  -6   0   49.50    6.50
  -3  -6   0   47.20    4.40
  -3  -6   0   49.60    6.20
   3   6   0   48.30    5.80
  -4  -6   0   -2.70    4.50
  -4  -6   0    1.30    4.30
  -4  -6   0    2.70    2.80
   4   6   0   -1.70    3.60
  -5  -6   0  404.76   15.40
  -5  -6   0  392.76   13.00
  -5  -6   0  419.06   16.00
   5   6   0  419.06   16.30
  -6  -6   0  261.87   10.60
  -6  -6   0  246.38   13.40
   6   6   0  269.07   13.40
  -9   7   0    6.20    3.70
  -9   7   0   -0.30    3.20
  -9   7   0    0.60    3.50
  -8   7   0    2.00    3.30
  -8   7   0   -1.20    3.00
  -8   7   0   -3.80    2.30
  -7   7   0  169.28    7.90
  -7   7   0  160.68    9.60
  -7   7   0  180.98    8.30
  -7   7   0  172.58    9.00
  -6   7   0  415.56   12.80
  -6   7   0  418.46   15.30
  -6   7   0  422.66   14.00
  -6   7   0  427.86   13.20
   5  -7   0  335.67    8.80
  -5   7   0  326.17   11.40
  -5   7   0  329.77   10.70
  -5   7   0  342.97   13.00
  -5   7   0  331.47   10.80
   4  -7   0   58.69    4.10
  -4   7   0   57.29    5.80
  -4   7   0   66.09    5.40
  -4   7   0   64.19    4.60
   3  -7   0    7.20    2.90
  -3   7   0    7.60    3.10
  -3   7   0    2.20    2.10
   2  -7   0   30.00    3.20
   2  -7   0   24.30    3.90
  -2   7   0   44.50    3.90
  -2   7   0   39.90    5.20
  -2   7   0   29.70    3.60
  -2   7   0   21.90    3.20
   1  -7   0   64.39    6.10
   1  -7   0   68.79    5.70
  -1   7   0   71.69    6.80
  -1   7   0   68.69    4.40
  -1   7   0   70.99    5.50
   0  -7   0   -0.70    3.60
   0  -7   0    1.40    3.70
   0   7   0    4.10    3.30
   0   7   0    2.60    1.70
  -1  -7   0   16.30    4.70
  -1  -7   0   27.60    5.20
   1   7   0   11.30    4.20
  -2  -7   0  939.91   26.00
  -2  -7   0  932.91   25.00
   2   7   0  936.71   26.10
  -3  -7   0  259.47   12.00
  -3  -7   0  267.27    9.70
  -3  -7   0  248.58   12.30
   3   7   0  257.07   12.40
  -4  -7   0  140.39    7.40
  -4  -7   0  140.89   10.00
  -4  -7   0  133.19    9.80
   4   7   0  140.29    9.80
  -5  -7   0  108.59    7.70
  -5  -7   0  111.59    9.60
  -5  -7   0   92.59    8.90
   5   7   0  112.89    9.40
  -6  -7   0   16.30    6.20
  -6  -7   0   18.70    4.30
   6   7   0   29.90    6.40
  -9   8   0    3.60    3.80
  -9   8   0    3.20    3.70
  -9   8   0    1.20    3.40
  -8   8   0    3.10    2.80
  -8   8   0    3.10    3.60
  -8   8   0    5.00    3.30
  -8   8   0    7.20    4.40
  -7   8   0   14.70    3.60
  -7   8   0   17.30    3.80
  -7   8   0   17.10    4.00
  -7   8   0   14.90    4.80
  -6   8   0   63.19    5.40
  -6   8   0   60.49    6.20
  -6   8   0   48.70    4.80
  -6   8   0   70.79    7.60
   5  -8   0  313.87    9.00
  -5   8   0  305.67   10.40
  -5   8   0  299.97   12.50
  -5   8   0  312.27   11.50
   4  -8   0   14.40    3.00
  -4   8   0   10.00    3.50
  -4   8   0    8.10    2.80
  -4   8   0   11.30    4.10
   3  -8   0  325.57   11.00
  -3   8   0  339.67   10.70
  -3   8   0  330.37   10.50
  -3   8   0  300.37   12.30
  -3   8   0  329.27   10.80
   2  -8   0  202.88    7.30
   2  -8   0  200.68    9.20
  -2   8   0  197.28    7.60
  -2   8   0  187.78   10.00
  -2   8   0  210.28    7.90
  -2   8   0  208.98    8.50
   1  -8   0   30.00    4.30
   1  -8   0   24.80    4.80
  -1   8   0   34.60    3.40
  -1   8   0   30.30    5.40
  -1   8   0   33.50    4.60
   0  -8   0    2.90    4.00
   0  -8   0   -2.40    3.60
   0   8   0    2.30    3.30
  -1  -8   0   46.10    6.10
  -1  -8   0   36.80    5.40
   1   8   0   20.60    4.50
  -2  -8   0   83.39    8.10
  -2  -8   0  102.79    8.40
   2   8   0   93.69    8.20
  -3  -8   0  818.32   24.70
  -3  -8   0  791.52   21.00
  -3  -8   0  799.22   23.70
   3   8   0  827.32   25.10
  -4  -8   0    0.20    3.30
  -4  -8   0    0.70    4.80
  -4  -8   0   -0.10    4.50
   4   8   0    0.20    3.90
  -5  -8   0   -2.50    5.10
  -5  -8   0    0.00    3.70
  -5  -8   0    8.60    5.60
   5   8   0    3.00    4.70
  -9   9   0   86.99    7.90
  -9   9   0   93.09    8.10
  -9   9   0  103.69    7.80
  -9   9   0  100.69    9.80
  -8   9   0    6.60    3.70
  -8   9   0    8.30    3.60
  -8   9   0    9.10    4.40
  -8   9   0    7.20    4.00
  -7   9   0  135.49    8.80
  -7   9   0  156.48    8.10
  -7   9   0  147.09    8.10
  -7   9   0  152.18   10.20
  -6   9   0   31.60    5.00
  -6   9   0   30.10    4.30
  -6   9   0   28.10    5.70
   5  -9   0    1.90    2.20
  -5   9   0    5.30    3.50
  -5   9   0    5.60    2.80
  -5   9   0    6.10    3.60
   4  -9   0    8.20    3.00
  -4   9   0   11.50    4.70
  -4   9   0   12.70    3.60
  -4   9   0    9.00    3.00
   3  -9   0  315.77   11.30
  -3   9   0  324.87   10.70
  -3   9   0  328.87   11.00
  -3   9   0  297.77   13.10
  -2   9   0  206.58    9.50
  -2   9   0  242.98    8.90
  -2   9   0  258.97   12.00
   1  -9   0  246.68   11.30
   1  -9   0  243.68    9.60
  -1   9   0  261.97   12.60
  -1   9   0  257.97   10.80
   0  -9   0  343.27   13.60
   0  -9   0  313.37   11.90
   0   9   0  330.97   13.00
  -1  -9   0    8.30    4.50
  -1  -9   0   12.00    5.00
   1   9   0   10.00    4.40
  -2  -9   0   29.10    5.80
  -2  -9   0   31.70    6.10
   2   9   0   30.60    5.60
  -3  -9   0   13.50    5.40
  -3  -9   0    4.60    5.10
  -3  -9   0    1.10    3.70
   3   9   0    7.20    4.50
  -4  -9   0   14.10    4.40
  -4  -9   0   14.80    6.00
  -4  -9   0   16.20    6.20
   4   9   0   18.60    5.80
  -8  10   0   27.10    5.50
  -8  10   0   30.00    5.00
  -8  10   0   26.90    6.10
  -8  10   0   32.30    5.10
  -7  10   0   -1.50    2.80
  -7  10   0   -0.20    4.20
  -7  10   0    0.90    3.60
  -6  10   0  278.97   11.90
  -6  10   0  283.77   13.70
  -6  10   0  293.77   11.30
   5 -10   0  168.68    7.30
  -5  10   0  161.38    8.70
  -5  10   0  157.58    7.90
  -5  10   0  172.38   10.60
   4 -10   0  112.39    7.10
  -4  10   0   97.49    6.60
  -4  10   0  114.49    7.40
  -4  10   0  108.29    9.40
   3 -10   0   35.40    5.20
  -3  10   0   60.09    5.20
  -3  10   0   34.80    4.30
  -3  10   0   33.50    5.80
   2 -10   0  141.79    9.00
  -2  10   0  136.39    9.90
  -2  10   0  143.29    7.30
  -2  10   0  142.69    8.40
   1 -10   0   17.50    5.10
  -1  10   0   28.50    5.10
  -1  10   0   22.20    6.00
   0 -10   0  243.58   12.40
   0  10   0  237.78   11.70
  -1 -10   0    5.40    4.30
  -1 -10   0   12.10    5.50
   1  10   0    7.20    4.20
  -2 -10   0   19.80    6.50
  -2 -10   0   17.20    5.60
   2  10   0   19.70    5.60
  -3 -10   0   40.40    7.90
  -3 -10   0   20.30    5.00
  -3 -10   0   30.90    6.70
   3  10   0   29.00    6.70
  -8  11   0   57.89    8.60
  -8  11   0   71.39    7.00
  -8  11   0   51.59    6.70
  -7  11   0    8.60    4.20
  -7  11   0    6.40    4.60
  -7  11   0    7.20    3.50
  -6  11   0  386.46   13.50
  -6  11   0  382.86   14.40
  -6  11   0  381.56   16.90
   5 -11   0   20.60    3.90
  -5  11   0   20.40    4.10
  -5  11   0   20.40    4.30
  -5  11   0   16.00    5.20
   4 -11   0  429.86   14.40
  -4  11   0  424.86   14.10
  -4  11   0  410.86   13.80
  -4  11   0  431.26   17.60
   3 -11   0    3.60    3.60
  -3  11   0    6.50    3.10
   2 -11   0   31.80    5.90
  -2  11   0   24.70    6.30
  -2  11   0   24.00    4.10
   1 -11   0   84.69    8.50
  -1  11   0   78.49    6.80
  -1  11   0   83.29    9.60
   0 -11   0   93.09    9.20
   0  11   0   97.79    9.30
   0  11   0   88.29   10.30
  -1 -11   0   19.00    6.10
   1  11   0   10.30    4.50
  -7  12   0  147.59   11.90
  -7  12   0  156.68    9.10
  -7  12   0  171.18   10.20
  -6  12   0    2.60    3.80
  -6  12   0    3.10    3.10
  -6  12   0    3.50    4.50
   5 -12   0  156.28    8.30
  -5  12   0  160.98   11.70
  -5  12   0  153.68    9.20
  -5  12   0  157.78    8.60
   4 -12   0    6.30    4.00
  -4  12   0    8.00    3.70
  -4  12   0    7.50    4.90
  -4  12   0   12.50    3.60
   3 -12   0   48.40    6.60
  -3  12   0   50.79    5.60
  -3  12   0   47.40    7.70
   2 -12   0    1.90    4.70
  -2  12   0    2.10    3.00
  -2  12   0    0.30    4.70
   1 -12   0  147.49   11.50
  -1  12   0  133.39   11.90
  -1  12   0  132.09    8.20
   0 -12   0   23.80    6.80
   0  12   0   10.50    6.10
  -4  13   0   33.30    5.10
  -4  13   0   40.90    8.10
  -3  13   0   46.90    5.90
  -3  13  -1    5.50    5.30
   3 -13   1    4.40    4.70
  -4  13  -1    7.60    5.60
   4 -13   1    4.50    4.10
   0  12  -1   53.19    7.20
   0  12  -1   46.10    9.00
   0 -12   1   54.79    8.10
  -1  12  -1   16.70    6.30
  -1  12  -1   12.40    4.10
   1 -12   1   17.60    5.90
  -2  12  -1    0.40    4.70
  -2  12  -1    2.00    2.80
   2 -12   1    1.50    4.50
  -3  12  -1   50.19    7.90
  -3  12  -1   36.50    4.70
   3 -12   1   37.40    6.10
  -4  12  -1  202.88   13.20
  -4  12  -1  219.98   10.00
  -4  12  -1  217.48    9.70
   4 -12   1  229.58   10.70
  -5  12  -1   51.59    6.20
  -5  12  -1   57.39    8.60
  -5  12  -1   61.49    6.00
   5 -12   1   57.19    6.10
  -6  12  -1   16.40    4.90
  -6  12  -1    7.30    3.60
  -6  12  -1    8.60    5.30
  -7  12  -1   -1.20    4.10
  -7  12  -1    3.00    3.30
  -7  12  -1   -2.20    4.40
   2  11  -1   18.20    5.80
   1  11  -1   17.90    5.40
  -1 -11   1   21.10    6.50
   0  11  -1   45.00    6.80
   0 -11   1   24.10    6.20
  -1  11  -1    2.90    2.90
  -1  11  -1    5.40    3.90
  -1  11  -1    4.00    5.00
   1 -11   1    2.00    4.40
  -2  11  -1   40.60    7.20
  -2  11  -1   45.20    4.80
   2 -11   1   45.10    6.50
  -3  11  -1   51.59    5.00
  -3  11  -1   44.00    7.30
  -3  11  -1   51.39    5.20
   3 -11   1   56.79    6.50
  -4  11  -1   13.30    3.90
  -4  11  -1   11.60    5.00
  -4  11  -1    9.30    3.10
   4 -11   1    7.60    3.60
  -5  11  -1  117.89    8.10
  -5  11  -1  101.09    9.10
  -5  11  -1  112.09    7.00
   5 -11   1  109.49    6.70
  -6  11  -1   97.49    7.90
  -6  11  -1  117.09    7.30
  -6  11  -1  125.19   10.30
   6 -11   1  109.39    6.20
  -7  11  -1   46.50    6.30
  -7  11  -1   52.79    8.00
  -7  11  -1   40.80    5.20
  -8  11  -1   -1.70    4.30
  -8  11  -1   -1.30    3.30
  -8  11  -1    4.50    4.30
   3  10  -1   16.00    5.90
  -3 -10   1   16.40    5.90
  -3 -10   1   11.00    5.90
   2  10  -1   16.40    4.90
  -2 -10   1   12.60    5.80
  -2 -10   1    9.10    4.60
   1  10  -1   22.50    5.20
  -1 -10   1   21.80    5.60
  -1 -10   1   28.70    5.20
   0  10  -1   15.40    4.80
   0 -10   1   14.10    5.40
  -1  10  -1  904.01   27.90
  -1  10  -1  914.81   23.40
  -1  10  -1  915.21   25.60
   1 -10   1  896.81   25.70
  -2  10  -1  372.76   11.90
  -2  10  -1  365.56   15.60
  -2  10  -1  372.86   11.90
  -2  10  -1  383.76   14.80
   2 -10   1  374.06   14.00
  -3  10  -1   11.60    3.30
  -3  10  -1    7.80    2.70
  -3  10  -1   15.70    4.90
   3 -10   1    7.90    3.80
  -4  10  -1   79.39    8.80
  -4  10  -1   65.49    5.40
  -4  10  -1   66.29    5.90
   4 -10   1   61.69    5.80
  -5  10  -1    1.50    3.40
  -5  10  -1   -1.70    3.40
  -5  10  -1    2.50    2.50
   5 -10   1    2.30    2.50
  -6  10  -1  171.38    8.20
  -6  10  -1  157.08   10.70
  -6  10  -1  167.48    9.30
   6 -10   1  150.98    6.60
  -7  10  -1  137.09   10.50
  -7  10  -1  131.89    8.90
  -7  10  -1  131.89    7.60
  -8  10  -1    8.20    4.20
  -8  10  -1   -0.10    3.30
  -8  10  -1   -4.10    3.40
  -8  10  -1   -0.10    4.20
   4   9  -1   33.00    6.80
  -4  -9   1   34.30    7.00
  -4  -9   1   31.60    4.80
  -4  -9   1   20.90    5.80
   3   9  -1  179.48   11.20
  -3  -9   1  181.68   11.70
  -3  -9   1  162.98   10.30
  -3  -9   1  187.28    8.80
   2   9  -1   73.29    8.00
  -2  -9   1   61.39    6.90
  -2  -9   1   67.19    8.00
  -1  -9   1  131.09    8.40
  -1  -9   1  161.58   10.20
   0   9  -1  483.05   16.30
   0  -9   1  466.55   16.40
   0  -9   1  460.95   14.50
  -1   9  -1  128.69    8.30
  -1   9  -1  175.58   10.60
  -2   9  -1  281.47    9.80
  -2   9  -1  300.07   13.30
  -2   9  -1  306.67   10.10
  -2   9  -1  311.17   11.40
   2  -9   1  314.67   11.90
  -3   9  -1   98.19    7.80
  -3   9  -1   95.29    5.40
  -3   9  -1  105.09    6.60
   3  -9   1   89.29    6.60
  -4   9  -1   36.60    4.00
  -4   9  -1   27.80    4.40
  -4   9  -1   29.20    5.60
   4  -9   1   32.40    4.00
  -5   9  -1   93.39    7.00
  -5   9  -1   91.79    5.90
  -5   9  -1   96.89    7.80
   5  -9   1  103.09    5.50
  -6   9  -1   16.30    4.30
  -6   9  -1   21.00    4.80
  -6   9  -1   13.40    3.30
   6  -9   1   13.40    2.50
  -7   9  -1   20.50    3.90
  -7   9  -1   19.10    5.20
  -7   9  -1    9.80    4.20
  -7   9  -1   13.80    3.70
  -8   9  -1  126.19    8.00
  -8   9  -1  105.99    7.50
  -8   9  -1  122.39    8.70
  -8   9  -1  126.89    9.90
  -9   9  -1   33.10    6.80
  -9   9  -1   20.20    4.90
  -9   9  -1   27.30    4.80
  -9   9  -1   19.70    4.80
   5   8  -1   36.00    6.70
  -5  -8   1   36.80    7.30
  -5  -8   1   32.00    4.90
  -5  -8   1   27.60    6.60
   4   8  -1   18.20    5.30
  -4  -8   1   19.70    5.90
  -4  -8   1   12.50    3.60
  -4  -8   1   10.50    5.00
   3   8  -1   80.49    8.50
  -3  -8   1   73.59    5.60
  -3  -8   1   53.59    6.70
  -3  -8   1   65.49    8.00
   2   8  -1  349.87   14.20
  -2  -8   1  348.67   14.30
  -2  -8   1  347.77   13.50
   1   8  -1  780.32   22.80
  -1  -8   1  768.72   22.80
  -1  -8   1  790.12   21.20
   0   8  -1   95.99    7.20
   0  -8   1   89.89    7.80
   0  -8   1  106.99    7.00
  -1   8  -1   32.80    3.30
  -1   8  -1   37.60    5.00
  -1   8  -1   31.30    5.60
   1  -8   1   26.10    4.90
   1  -8   1   29.90    4.00
  -2   8  -1   71.89    4.50
  -2   8  -1   62.99    5.10
  -2   8  -1   54.29    6.50
  -2   8  -1   68.19    5.50
   2  -8   1   59.69    5.90
  -3   8  -1  266.37    9.80
  -3   8  -1  291.37    9.20
  -3   8  -1  288.47    9.60
  -3   8  -1  258.37   11.30
   3  -8   1  271.77   10.00
  -4   8  -1  269.77   10.40
  -4   8  -1  264.97    9.10
  -4   8  -1  261.97   11.90
   4  -8   1  266.07    9.10
  -5   8  -1  311.17   12.80
  -5   8  -1  298.17   10.20
  -5   8  -1  311.47   11.50
   5  -8   1  318.27    9.40
  -6   8  -1  685.33   18.60
  -6   8  -1  684.83   18.60
  -6   8  -1  685.73   21.40
  -6   8  -1  676.03   19.80
   6  -8   1  698.83   16.30
  -7   8  -1  377.76   15.20
  -7   8  -1  400.26   13.10
  -7   8  -1  389.76   12.80
  -7   8  -1  366.26   13.90
  -8   8  -1   29.20    5.20
  -8   8  -1   46.20    7.00
  -8   8  -1   40.50    5.30
  -8   8  -1   29.80    4.50
  -9   8  -1   95.69    8.00
  -9   8  -1   80.69    7.00
  -9   8  -1   96.99    8.00
   6   7  -1    5.90    4.70
  -6  -7   1   -1.90    5.00
  -6  -7   1   -0.40    3.60
   5   7  -1  154.88   10.70
  -5  -7   1  157.28   10.70
  -5  -7   1  154.28   10.40
  -5  -7   1  145.49    8.10
   4   7  -1    0.20    3.60
  -4  -7   1   -1.60    4.20
  -4  -7   1   -0.40    2.80
  -4  -7   1    0.40    4.10
   3   7  -1  180.48   10.00
  -3  -7   1  143.29    9.30
  -3  -7   1  161.08    9.80
  -3  -7   1  151.08    7.40
   2   7  -1  172.48    9.30
  -2  -7   1  185.38   10.00
  -2  -7   1  192.48    9.50
   1   7  -1   78.49    6.90
  -1  -7   1   81.79    7.30
  -1  -7   1   78.29    7.30
   0   7  -1    3.30    1.80
   0   7  -1    2.00    3.10
   0  -7   1    4.00    3.50
   0  -7   1    3.80    3.60
  -1   7  -1  175.68    6.40
  -1   7  -1  165.48    7.70
   1  -7   1  162.48    6.70
   1  -7   1  170.78    8.20
  -3   7  -1  117.39    7.60
  -3   7  -1  126.69    5.70
  -3   7  -1  125.69    5.60
  -3   7  -1  109.09    6.40
   3  -7   1  111.49    6.00
  -4   7  -1    2.90    2.20
  -4   7  -1    4.50    3.40
  -4   7  -1    1.60    3.10
   4  -7   1    1.60    2.00
  -5   7  -1  147.59    8.00
  -5   7  -1  159.68    7.10
  -5   7  -1  144.59    6.70
  -5   7  -1  145.29    8.30
   5  -7   1  157.58    5.70
  -6   7  -1   80.39    5.70
  -6   7  -1   71.19    6.30
  -6   7  -1   89.79    7.30
  -6   7  -1   85.49    5.60
   6  -7   1   82.19    3.80
  -7   7  -1   -0.10    3.10
  -7   7  -1    3.30    3.50
  -7   7  -1    0.50    2.60
  -7   7  -1   -1.30    2.60
  -8   7  -1  106.89    7.00
  -8   7  -1  117.49    7.40
  -8   7  -1  121.19    8.20
  -9   7  -1   -0.90    3.40
  -9   7  -1    1.90    3.30
  -9   7  -1    3.60    3.70
   6   6  -1   54.99    7.40
  -6  -6   1   53.59    7.40
  -6  -6   1   53.59    5.50
   5   6  -1    6.40    4.20
  -5  -6   1    8.00    3.30
   4   6  -1   48.50    6.30
  -4  -6   1   49.40    6.10
  -4  -6   1   48.40    5.90
  -4  -6   1   61.79    4.90
   3   6  -1  120.89    8.20
  -3  -6   1  113.69    8.20
  -3  -6   1  108.29    8.20
  -3  -6   1  118.69    6.10
   2   6  -1  139.19    8.30
  -2  -6   1  141.09    8.20
  -2  -6   1  135.49    8.40
   1   6  -1  142.59    4.20
   1   6  -1  149.59    8.00
  -1  -6   1  172.28    7.90
  -1  -6   1  157.38    8.40
   0   6  -1   19.40    3.60
   0   6  -1   30.20    2.50
   0  -6   1   22.50    4.00
   0  -6   1   23.90    3.50
  -1   6  -1  380.56   10.20
  -1   6  -1  364.16   11.30
  -1   6  -1  376.56    9.10
   1  -6   1  380.46   10.00
   1  -6   1  374.06   11.50
  -2   6  -1 1476.05   32.60
  -2   6  -1 1472.65   35.20
  -2   6  -1 1500.25   33.30
  -2   6  -1 1523.85   32.00
  -2   6  -1 1524.85   33.60
   2  -6   1 1496.25   33.60
   2  -6   1 1511.25   31.30
  -3   6  -1  145.59    5.50
  -3   6  -1  146.29    5.50
  -3   6  -1  144.49    5.80
  -3   6  -1  144.99    7.60
  -3   6  -1  149.19    6.60
   3  -6   1  143.89    5.90
  -4   6  -1  528.45   14.90
  -4   6  -1  496.65   15.70
  -4   6  -1  527.55   13.80
  -4   6  -1  524.85   13.90
  -4   6  -1  537.95   12.80
   4  -6   1  525.15   13.00
  -5   6  -1  245.88    8.50
  -5   6  -1  248.98    9.60
  -5   6  -1  249.08   10.50
  -5   6  -1  253.27    8.70
   5  -6   1  250.67    7.10
  -6   6  -1   31.70    4.10
  -6   6  -1   28.90    4.90
  -6   6  -1   33.10    4.80
  -6   6  -1   24.50    3.50
   6  -6   1   27.20    2.40
  -7   6  -1   90.49    7.40
  -7   6  -1   97.99    7.00
  -7   6  -1   89.89    6.20
  -7   6  -1   88.39    6.00
  -8   6  -1    6.80    3.70
  -8   6  -1   12.20    3.50
  -8   6  -1   16.70    4.20
  -9   6  -1    0.80    3.40
  -9   6  -1    2.20    3.40
  -9   6  -1    1.20    3.20
 -10   6  -1   87.69    7.60
 -10   6  -1   95.79    7.90
   7   5  -1   14.90    4.90
  -7  -5   1    5.50    5.40
  -7  -5   1   10.00    3.80
   6   5  -1   84.29    7.80
  -6  -5   1   79.19    8.00
  -6  -5   1   96.79    6.80
   5   5  -1  245.48   11.80
  -5  -5   1  274.67    9.60
  -5  -5   1  249.18   11.60
  -5  -5   1  278.17   11.90
   4   5  -1  180.38    9.50
  -4  -5   1  157.08    8.90
  -4  -5   1  170.08    9.30
  -4  -5   1  173.18    7.10
   3   5  -1  595.44   18.20
  -3  -5   1  601.74   17.70
  -3  -5   1  598.24   17.90
  -3  -5   1  604.94   15.30
   2   5  -1  969.70   24.80
  -2  -5   1  946.31   23.80
  -2  -5   1  966.40   24.60
  -2  -5   1  954.90   22.80
   1   5  -1   95.99    6.00
  -1  -5   1  110.89    6.40
  -1  -5   1   98.79    4.60
  -1  -5   1  112.89    6.10
   0   5  -1    1.10    1.50
   0   5  -1    2.20    2.10
   0  -5   1   -0.20    2.30
   0  -5   1    0.20    1.20
   0  -5   1    2.10    2.30
  -1   5  -1  341.07    9.90
  -2   5  -1  629.74   14.60
  -2   5  -1  627.44   15.50
  -2   5  -1  633.24   15.20
  -2   5  -1  622.64   14.70
  -2   5  -1  620.94   16.70
   2  -5   1  631.94   15.30
   2  -5   1  638.94   13.30
  -3   5  -1   20.20    2.20
  -3   5  -1   18.90    3.40
  -3   5  -1   15.00    2.80
  -3   5  -1   20.10    2.30
  -3   5  -1   21.60    2.50
  -3   5  -1   18.10    2.70
   3  -5   1   21.60    2.30
  -4   5  -1    3.00    2.10
  -4   5  -1    3.00    1.80
  -4   5  -1    4.30    2.40
  -4   5  -1    3.60    2.80
  -4   5  -1    4.40    1.30
   4  -5   1    4.60    1.40
   4  -5   1    4.70    1.50
  -5   5  -1  132.09    4.00
  -5   5  -1  132.79    7.40
  -5   5  -1  141.69    6.10
  -5   5  -1  141.19    7.20
  -5   5  -1  138.29    5.90
   5  -5   1  133.59    4.70
  -6   5  -1   89.19    6.10
  -6   5  -1   80.39    6.40
  -6   5  -1   78.29    5.30
  -6   5  -1   86.59    5.50
   6  -5   1   75.09    3.60
  -7   5  -1   42.40    4.80
  -7   5  -1   39.80    4.00
  -7   5  -1   44.40    5.10
  -8   5  -1    1.00    3.10
  -8   5  -1    0.40    2.90
  -8   5  -1    2.10    3.30
  -9   5  -1    3.10    3.10
  -9   5  -1    4.20    3.50
 -10   5  -1   69.39    6.70
 -10   5  -1   63.99    6.70
   7   4  -1   26.20    5.30
  -7  -4   1   22.40    5.60
  -7  -4   1   21.30    4.10
   6   4  -1   76.39    7.40
  -6  -4   1   64.19    5.40
  -6  -4   1   65.49    7.20
   5   4  -1  268.57   11.40
  -5  -4   1  249.88   11.10
  -5  -4   1  280.97   11.50
  -5  -4   1  257.17    9.30
   4   4  -1   15.90    4.30
  -4  -4   1   10.80    2.90
  -4  -4   1   11.70    4.10
  -4  -4   1   17.10    4.40
   3   4  -1  127.49    7.50
  -3  -4   1  122.19    7.50
  -3  -4   1  118.49    6.70
  -3  -4   1  131.49    5.50
  -3  -4   1  114.29    7.50
   2   4  -1  644.14   18.30
  -2  -4   1  715.33   18.50
  -2  -4   1  699.33   17.10
  -2  -4   1  718.33   18.00
   1   4  -1 2317.87   49.90
   1   4  -1 2301.27   46.60
  -1  -4   1 2309.47   48.10
  -1  -4   1 2242.68   49.70
  -1  -4   1 2292.47   49.00
   0   4  -1   46.60    3.60
   0  -4   1   42.40    3.70
   0  -4   1   45.90    2.30
   0  -4   1   48.00    3.30
  -1   4  -1  109.89    3.90
  -1   4  -1  113.59    3.90
  -1   4  -1  110.49    5.30
  -1   4  -1  104.69    4.40
   1  -4   1  106.29    3.70
   1  -4   1  103.59    4.70
  -2   4  -1    7.60    1.40
  -2   4  -1    5.40    1.50
  -2   4  -1    6.20    2.20
  -2   4  -1    7.20    1.50
  -2   4  -1    6.10    1.90
   2  -4   1    6.30    1.70
  -3   4  -1  487.05   13.10
  -3   4  -1  504.55   12.80
  -3   4  -1  515.75   11.60
  -3   4  -1  500.15   12.30
  -3   4  -1  505.05   12.20
  -3   4  -1  491.25   13.70
   3  -4   1  490.75   11.60
  -4   4  -1   16.00    2.30
  -4   4  -1   15.20    2.90
  -4   4  -1   14.70    1.40
  -4   4  -1   14.80    3.10
  -4   4  -1   13.10    2.20
  -4   4  -1   16.10    1.60
   4  -4   1   14.90    1.50
   4  -4   1   15.50    1.80
  -5   4  -1   91.59    4.00
  -5   4  -1   93.19    5.00
  -5   4  -1   94.49    6.00
  -5   4  -1   88.19    4.70
  -5   4  -1   94.69    6.10
   5  -4   1   86.79    3.90
   5  -4   1   92.29    3.20
  -6   4  -1   33.30    3.30
  -6   4  -1   37.20    3.60
  -6   4  -1   33.10    4.50
  -6   4  -1   28.90    3.80
  -6   4  -1   38.10    4.00
   6  -4   1   33.80    2.80
  -7   4  -1  714.23   19.40
  -7   4  -1  722.33   19.30
  -7   4  -1  738.43   18.40
  -7   4  -1  692.33   17.70
  -7   4  -1  698.93   18.70
   7  -4   1  672.43   16.50
  -8   4  -1  120.69    7.10
  -8   4  -1  118.19    7.30
  -8   4  -1  115.89    6.70
  -9   4  -1   36.30    4.50
  -9   4  -1   44.90    5.10
  -9   4  -1   44.80    5.30
 -10   4  -1   26.30    4.90
 -10   4  -1   23.50    4.60
   8   3  -1   81.59    7.70
  -8  -3   1   77.89    6.40
  -8  -3   1   75.39    8.00
   7   3  -1   79.39    7.30
  -7  -3   1   85.09    6.20
  -7  -3   1   99.99    8.40
   6   3  -1    6.40    3.50
  -6  -3   1    0.60    3.60
  -6  -3   1    4.60    2.90
   5   3  -1 1501.85   36.60
  -5  -3   1 1491.35   34.10
  -5  -3   1 1547.85   36.90
  -5  -3   1 1512.45   36.10
   4   3  -1  261.97   10.30
  -4  -3   1  262.77   10.10
  -4  -3   1  277.77   10.20
  -4  -3   1  260.47    8.40
  -4  -3   1  270.77   10.70
   3   3  -1    8.60    2.90
  -3  -3   1    9.70    2.00
  -3  -3   1   11.40    3.20
  -3  -3   1   10.60    2.80
  -3  -3   1   11.00    3.60
   2   3  -1   26.30    3.30
  -2  -3   1   31.40    3.40
   1   3  -1  105.39    5.00
  -1  -3   1  108.79    4.10
  -1  -3   1  111.79    5.10
  -1  -3   1  105.19    4.80
   0   3  -1  789.92   18.30
   0  -3   1  796.42   18.40
   0  -3   1  795.52   16.90
   0  -3   1  805.42   17.70
  -1   3  -1  427.16   11.10
  -1   3  -1  426.36   10.30
  -1   3  -1  437.26   10.10
  -1   3  -1  415.16    9.60
   1  -3   1  421.96   10.40
   1  -3   1  429.26    9.30
  -2   3  -1  623.74   13.80
  -2   3  -1  611.14   14.00
  -2   3  -1  645.04   13.80
  -2   3  -1  588.44   15.00
  -2   3  -1  616.04   14.40
   2  -3   1  610.14   13.80
  -3   3  -1 2547.15   55.09
  -3   3  -1 2657.73   55.89
  -3   3  -1 2637.74   54.49
  -3   3  -1 2621.74   53.59
  -3   3  -1 2588.54   54.39
  -3   3  -1 2588.44   53.29
   3  -3   1 2630.54   53.59
   3  -3   1 2624.04   53.69
  -4   3  -1  719.53   15.60
  -4   3  -1  687.93   17.90
  -4   3  -1  685.53   17.40
  -4   3  -1  712.63   16.20
  -4   3  -1  710.53   16.60
  -4   3  -1  687.73   16.70
  -4   3  -1  692.63   15.90
   4  -3   1  714.63   15.30
   4  -3   1  696.73   15.70
  -5   3  -1   18.50    3.50
  -5   3  -1   21.40    2.20
  -5   3  -1   20.00    2.60
  -5   3  -1   19.30    2.70
  -5   3  -1   20.50    3.10
  -5   3  -1   16.10    2.40
   5  -3   1   17.40    2.30
   5  -3   1   21.00    1.80
  -6   3  -1  320.27   10.50
  -6   3  -1  296.37    9.60
  -6   3  -1  294.07    9.50
  -6   3  -1  308.97   10.10
  -6   3  -1  333.97   11.00
   6  -3   1  313.27    8.90
  -7   3  -1    2.70    3.10
  -7   3  -1    1.30    2.70
  -7   3  -1    5.40    2.60
  -7   3  -1    2.80    2.80
   7  -3   1    3.10    2.10
  -8   3  -1  504.25   15.00
  -8   3  -1  520.45   15.80
  -8   3  -1  513.95   15.20
  -8   3  -1  514.35   15.50
  -9   3  -1    4.70    3.20
  -9   3  -1    2.20    3.10
  -9   3  -1    5.90    3.20
 -10   3  -1   30.50    5.00
 -10   3  -1   35.80    5.30
   8   2  -1   10.60    3.80
  -8  -2   1    4.90    4.60
  -8  -2   1    4.90    3.20
   7   2  -1    8.10    3.60
  -7  -2   1    9.30    3.30
  -7  -2   1    9.10    4.60
   6   2  -1  185.48    8.90
  -6  -2   1  200.18    7.90
  -6  -2   1  175.98    9.00
   5   2  -1  197.38    8.90
  -5  -2   1  196.18    8.50
  -5  -2   1  188.68    7.40
  -5  -2   1  194.78    9.30
  -5  -2   1  209.98    9.70
   4   2  -1  331.17   10.90
  -4  -2   1  338.27    8.00
  -4  -2   1  319.27   10.60
  -4  -2   1  342.57   11.20
  -4  -2   1  335.17    9.50
  -4  -2   1  335.67   11.20
   3   2  -1  126.99    5.80
  -3  -2   1  121.29    4.60
  -3  -2   1  121.19    6.10
  -3  -2   1  124.39    5.70
  -3  -2   1  124.59    5.60
   2   2  -1   93.19    4.50
  -2  -2   1   89.89    4.50
  -2  -2   1   78.49    4.60
  -2  -2   1   94.79    3.50
  -2  -2   1   87.49    4.20
  -1  -2   1   64.89    3.70
  -1  -2   1   64.49    3.60
   0   2  -1    1.20    1.70
   0   2  -1   -0.60    1.10
   0  -2   1    0.30    1.00
   0  -2   1    0.10    1.30
  -1   2  -1 1345.87   27.70
  -1   2  -1 1396.06   27.90
  -1   2  -1 1348.67   28.00
  -1   2  -1 1329.97   27.50
  -1   2  -1 1272.57   28.30
   1  -2   1 1327.37   27.90
   1  -2   1 1305.77   27.00
  -2   2  -1    3.30    1.70
  -2   2  -1    6.40    1.30
  -2   2  -1    3.40    2.10
  -2   2  -1    5.20    1.10
  -2   2  -1    7.30    1.30
  -2   2  -1    6.00    1.00
  -2   2  -1    3.50    1.20
   2  -2   1    6.40    1.20
   2  -2   1    5.90    1.00
  -3   2  -1   36.10    2.10
  -3   2  -1   35.50    2.50
  -3   2  -1   33.80    2.40
  -3   2  -1   26.60    2.20
  -3   2  -1   33.10    2.90
  -3   2  -1   34.20    3.10
   3  -2   1   31.30    2.30
   3  -2   1   33.80    1.80
  -4   2  -1 2531.25   52.89
  -4   2  -1 2521.15   51.89
  -4   2  -1 2488.15   52.49
  -4   2  -1 2501.95   52.19
   4  -2   1 2449.16   51.59
   4  -2   1 2478.25   52.09
  -5   2  -1  423.86   12.10
  -5   2  -1  454.05   11.30
  -5   2  -1  450.35   11.80
  -5   2  -1  446.46   12.60
  -5   2  -1  456.35   12.50
   5  -2   1  420.76   11.50
  -6   2  -1    6.40    3.10
  -6   2  -1    8.00    2.80
  -6   2  -1    9.60    3.20
   6  -2   1    5.50    2.60
  -7   2  -1    3.30    3.00
  -7   2  -1   -0.50    2.60
  -7   2  -1    3.70    2.80
   7  -2   1    3.70    2.40
  -8   2  -1    6.90    3.10
  -8   2  -1    6.70    3.00
  -8   2  -1    6.30    3.60
  -9   2  -1   10.50    3.40
  -9   2  -1    3.30    3.70
  -9   2  -1    8.40    3.70
   9   1  -1    6.90    3.70
  -9  -1   1   10.80    4.00
  -9  -1   1   14.60    5.10
   8   1  -1  283.67   11.20
  -8  -1   1  303.57   12.60
  -8  -1   1  272.07   10.70
   7   1  -1  186.68    8.60
  -7  -1   1  185.18    9.70
  -7  -1   1  184.88    8.10
   6   1  -1  170.88    8.00
  -6  -1   1  175.68    9.40
  -6  -1   1  175.48    8.50
  -6  -1   1  184.48    7.50
   5   1  -1   89.19    5.80
  -5  -1   1   82.59    6.60
  -5  -1   1   89.29    5.70
  -5  -1   1   92.59    6.70
  -5  -1   1   87.59    4.00
  -5  -1   1   87.89    5.10
   4   1  -1    6.60    2.50
  -4  -1   1    6.10    3.10
  -4  -1   1    7.40    2.00
  -4  -1   1   11.80    2.60
  -4  -1   1    9.90    1.60
  -4  -1   1    4.00    2.40
   3   1  -1    8.10    2.10
   3   1  -1   11.60    2.90
  -3  -1   1   12.40    1.40
  -3  -1   1    9.80    1.70
  -3  -1   1    6.50    2.20
  -3  -1   1    9.50    2.40
  -3  -1   1    7.60    2.10
   2   1  -1   33.00    2.80
   2   1  -1   27.90    3.10
  -2  -1   1   33.30    1.60
  -2  -1   1   33.90    2.30
  -2  -1   1   43.90    3.00
   1   1  -1  588.44   13.10
   1   1  -1  517.55   13.50
  -1  -1   1  516.25   12.40
  -1  -1   1  659.83   13.20
  -1  -1   1  647.84   13.30
   0   1  -1  390.66    8.80
   0   1  -1  400.06    9.10
   0  -1   1  394.26    8.80
   0  -1   1  402.76    8.60
  -1   1  -1 4672.93   94.99
  -1   1  -1 4722.33   93.89
  -1   1  -1 4616.64   95.29
  -1   1  -1 4047.20   96.59
  -1   1  -1 4898.41   94.49
  -1   1  -1 4700.63   95.69
   1  -1   1 4543.05   94.39
   1  -1   1 4784.42   95.69
  -2   1  -1  390.66   10.00
  -2   1  -1  393.06    9.00
  -2   1  -1  396.56    9.50
  -2   1  -1  384.06    9.10
  -2   1  -1  385.36    9.20
   2  -1   1  385.46    9.20
   2  -1   1  394.66    8.90
  -3   1  -1  175.48    5.70
  -3   1  -1  146.89    4.70
  -3   1  -1  147.69    4.90
   3  -1   1  147.59    5.00
  -4   1  -1   96.39    5.10
  -4   1  -1   91.39    4.30
  -4   1  -1   93.09    4.20
   4  -1   1   93.69    4.50
  -5   1  -1  122.99    5.50
  -5   1  -1  115.99    6.40
  -5   1  -1  121.39    5.70
  -5   1  -1  117.89    5.40
   5  -1   1  117.29    5.80
  -6   1  -1   65.19    4.90
  -6   1  -1   50.59    5.10
  -6   1  -1   57.09    4.50
   6  -1   1   54.29    4.80
  -7   1  -1  141.09    6.90
  -7   1  -1  138.59    6.70
  -7   1  -1  148.69    8.00
   7  -1   1  125.09    6.80
  -8   1  -1  233.38   10.40
  -8   1  -1  244.28    9.70
  -9   1  -1  167.48    8.40
  -9   1  -1  166.38    9.60
  -9   0   1  272.57   12.60
  -9   0   1  284.57   11.30
   8   0  -1   33.20    4.20
  -8   0   1   40.60    5.80
  -8   0   1   21.60    3.90
   7   0  -1   90.99    5.60
  -7   0   1   87.29    6.90
  -7   0   1   88.69    5.90
   6   0  -1  162.48    7.00
  -6   0   1  157.68    8.10
  -6   0   1  154.68    8.80
  -6   0   1  166.38    6.30
  -6   0   1  162.48    7.00
   5   0  -1   45.10    5.10
   5   0  -1   35.50    3.60
  -5   0   1   31.90    3.20
  -5   0   1   39.70    3.20
  -5   0   1   23.30    3.70
  -5   0   1   38.60    3.60
  -5   0   1   36.10    4.20
   4   0  -1    1.90    1.80
   4   0  -1   -0.60    2.30
  -4   0   1    0.10    2.20
  -4   0   1    1.90    1.50
  -4   0   1    1.50    1.50
  -4   0   1    3.00    1.80
  -4   0   1    0.80    2.20
   3   0  -1    0.40    1.30
   3   0  -1    2.00    1.90
  -3   0   1    2.60    1.30
  -3   0   1    3.90    1.50
  -3   0   1    3.10    1.40
  -3   0   1    1.20    1.60
  -3   0   1    3.40    1.70
  -3   0   1    2.80    1.20
   2   0  -1   38.30    2.20
   2   0  -1   42.90    3.00
   2   0  -1   37.70    2.40
  -2   0   1   37.30    2.30
  -2   0   1   39.90    2.80
  -2   0   1   33.70    2.60
  -2   0   1   34.50    2.20
  -2   0   1   35.60    2.10
   1   0  -1  180.48    4.10
   1   0  -1  174.08    4.60
  -1   0   1  175.48    4.40
  -1   0   1  176.68    4.10
  -1   0   1  174.98    4.20
  -1   0   1  168.68    4.20
  -1   0   1  171.28    4.10
   0   0  -1  898.91   19.00
   0   0   1  939.21   19.00
  -1   0  -1 3228.98   66.59
  -1   0  -1 3291.87   66.49
  -1   0  -1 3270.97   66.59
   1   0   1 3253.97   66.59
  -2   0  -1  218.68    6.20
  -2   0  -1  218.08    5.80
  -2   0  -1  212.98    6.70
   2   0   1  221.08    6.50
  -3   0  -1  115.99    4.80
  -3   0  -1  116.79    4.30
  -3   0  -1  144.29    5.80
   3   0   1  114.29    4.90
  -4   0  -1    4.00    2.10
  -4   0  -1   -0.10    1.50
  -4   0  -1    1.00    2.80
  -4   0  -1    4.30    1.90
   4   0   1    2.40    2.30
  -5   0  -1    2.10    2.20
  -5   0  -1    5.70    3.40
  -5   0  -1    0.20    2.20
  -5   0  -1    2.90    2.70
   5   0   1    2.70    2.90
  -6   0  -1    3.10    2.40
  -6   0  -1    0.60    3.40
  -6   0  -1    6.40    2.80
   6   0   1    1.00    3.00
  -7   0  -1  428.56   14.50
  -7   0  -1  417.96   12.90
   7   0   1  406.46   13.50
  -8   0  -1   42.60    5.90
  -8   0  -1   37.60    4.70
   8   0   1   42.90    5.50
  -9   0  -1  143.39    8.30
  -9   0  -1  126.69    9.30
   9   0   1  110.69    7.70
  -9   1   1   25.90    4.30
  -9   1   1   25.30    5.00
   8  -1  -1  191.28    7.40
  -8   1   1  177.98    8.10
  -8   1   1  211.58    9.90
   7  -1  -1   35.20    3.50
  -7   1   1   32.20    3.60
  -7   1   1   38.00    4.80
  -7   1   1   34.60    3.90
   6  -1  -1    9.20    4.00
   6  -1  -1   11.80    2.50
  -6   1   1   12.40    2.80
  -6   1   1    9.90    2.90
  -6   1   1    9.30    3.30
  -6   1   1   10.40    3.40
   5  -1  -1 1079.59   23.80
   5  -1  -1 1105.69   24.80
   5  -1  -1 1056.09   23.50
  -5   1   1 1051.09   24.40
  -5   1   1 1042.70   25.10
  -5   1   1 1044.20   23.50
  -5   1   1 1100.19   25.20
  -5   1   1 1043.20   24.30
  -5   1   1 1059.29   26.10
   4  -1  -1  187.98    5.60
   4  -1  -1  183.38    6.30
   4  -1  -1  183.48    5.40
  -4   1   1  194.88    6.70
  -4   1   1  220.28    7.50
  -4   1   1  181.78    5.40
  -4   1   1  181.08    6.20
   3  -1  -1   49.10    2.20
   3  -1  -1   50.49    3.00
   3  -1  -1   48.30    2.20
  -3   1   1   49.40    3.00
  -3   1   1   53.69    2.60
  -3   1   1   52.89    3.00
  -3   1   1   47.90    2.00
  -3   1   1   46.30    3.00
  -3   1   1   49.40    3.40
   2  -1  -1  156.28    3.60
   2  -1  -1  162.58    3.60
   2  -1  -1  160.88    4.70
  -2   1   1  149.99    4.70
  -2   1   1  155.28    4.60
  -2   1   1  149.29    4.50
  -2   1   1  154.28    4.40
  -2   1   1  154.68    4.30
  -2   1   1  156.08    4.90
   1  -1  -1 1061.09   21.50
   1  -1  -1 1023.20   21.50
  -1   1   1 1071.59   22.00
  -1   1   1 1078.19   22.30
  -1   1   1 1047.50   21.90
  -1   1   1 1027.30   21.70
  -1   1   1 1036.70   21.50
  -1   1   1 1052.29   21.70
   0  -1  -1 4967.10  101.29
   0   1   1 4854.51  100.09
  -1  -1  -1  112.89    3.70
  -1  -1  -1  112.39    4.70
  -1  -1  -1  107.69    4.10
   1   1   1  105.89    4.10
  -2  -1  -1  254.07    8.20
  -2  -1  -1  258.87    6.70
  -2  -1  -1  247.08    7.60
   2   1   1  256.87    7.80
  -3  -1  -1  903.81   20.10
  -3  -1  -1  888.01   21.00
  -3  -1  -1  879.71   21.40
   3   1   1  916.51   21.40
  -4  -1  -1   78.59    6.30
  -4  -1  -1   73.29    4.30
  -4  -1  -1   76.79    5.00
  -4  -1  -1   76.19    3.80
   4   1   1   89.39    5.50
  -5  -1  -1   -0.20    3.00
  -5  -1  -1    5.70    4.20
  -5  -1  -1    1.90    2.40
  -5  -1  -1   -0.50    1.80
   5   1   1    0.70    3.10
  -6  -1  -1  216.88    8.40
  -6  -1  -1  213.48   10.20
   6   1   1  208.48    9.40
  -7  -1  -1   15.60    3.60
  -7  -1  -1   16.10    4.40
  -8  -1  -1   70.29    6.10
  -8  -1  -1   84.89    8.00
   8   1   1   81.99    7.40
  -9  -1  -1   45.80    5.80
  -9  -1  -1   40.70    6.80
   9   1   1   34.90    5.50
  -9   2   1   21.40    3.90
  -9   2   1   28.80    5.00
  -9   2   1   27.00    4.50
  -8   2   1  211.58    9.00
  -8   2   1  197.78    8.40
  -8   2   1  220.38    9.60
  -8   2   1  209.58    8.60
   7  -2  -1   10.50    1.90
  -7   2   1   10.50    3.30
  -7   2   1   12.10    3.00
  -7   2   1   13.20    3.00
   6  -2  -1   -2.70    2.50
   6  -2  -1    0.40    1.40
  -6   2   1    2.20    2.60
  -6   2   1    0.30    2.40
  -6   2   1    3.60    3.20
  -6   2   1    0.20    2.60
  -6   2   1   -1.10    2.00
   5  -2  -1   75.09    2.90
   5  -2  -1   74.69    4.20
   5  -2  -1   75.09    2.80
  -5   2   1   79.39    4.70
  -5   2   1   74.89    4.60
  -5   2   1   76.49    4.50
  -5   2   1   74.79    5.60
  -5   2   1   78.59    4.50
  -5   2   1   74.59    4.70
   4  -2  -1  771.32   17.20
  -4   2   1  757.52   17.40
  -4   2   1  759.52   18.50
  -4   2   1  762.82   17.50
  -4   2   1  758.72   17.50
  -4   2   1  754.82   18.00
  -4   2   1  721.43   17.90
   3  -2  -1 2152.58   43.80
  -3   2   1 2062.39   45.20
  -3   2   1 2100.39   43.70
  -3   2   1 2114.69   43.80
  -3   2   1 2073.89   44.40
  -3   2   1 2086.39   44.40
  -2   2   1 2054.89   43.70
  -2   2   1 2066.49   42.90
  -2   2   1 2048.70   42.50
  -2   2   1 2060.29   43.10
  -2   2   1 2065.19   42.30
   1  -2  -1  505.55   11.30
   1  -2  -1  488.35   11.30
  -1   2   1  509.15   11.40
  -1   2   1  520.45   11.50
  -1   2   1  485.65   11.80
  -1   2   1  533.65   11.30
   0  -2  -1 7436.16  150.38
   0  -2  -1 7284.37  149.99
   0   2   1 7245.18  150.68
   0   2   1 7410.16  150.38
  -1  -2  -1   91.09    4.30
  -1  -2  -1   97.09    4.90
   1   2   1   89.49    4.30
  -2  -2  -1   77.39    5.10
  -2  -2  -1   64.49    4.30
   2   2   1   63.49    4.30
  -3  -2  -1   58.39    3.80
  -3  -2  -1   71.69    5.80
  -3  -2  -1   58.69    4.70
   3   2   1   66.09    4.90
  -4  -2  -1  373.56   10.70
  -4  -2  -1  382.56   13.10
  -4  -2  -1  375.56    9.10
  -4  -2  -1  375.06   12.10
   4   2   1  376.46   12.50
  -5  -2  -1  955.40   22.90
  -5  -2  -1  949.51   25.10
  -5  -2  -1  963.30   24.50
   5   2   1  959.10   25.10
  -6  -2  -1   53.59    4.50
  -6  -2  -1   58.79    6.80
   6   2   1   65.39    6.50
  -7  -2  -1   11.40    4.80
  -7  -2  -1   16.20    3.70
   7   2   1   14.00    4.80
  -8  -2  -1   -2.00    2.90
  -8  -2  -1    0.70    4.60
   8   2   1   -0.10    3.80
 -10   3   1   39.50    5.40
  -9   3   1    2.10    3.10
  -9   3   1    2.40    2.80
  -8   3   1  233.28    9.50
  -8   3   1  227.48    9.20
  -8   3   1  209.88    8.70
  -8   3   1  222.68    9.20
  -7   3   1  516.35   14.70
  -7   3   1  511.45   15.10
  -7   3   1  543.45   14.80
  -7   3   1  508.85   15.50
  -7   3   1  531.75   14.80
  -6   3   1   22.50    3.20
  -6   3   1   30.90    4.00
  -6   3   1   24.60    3.60
  -6   3   1   32.70    3.60
  -6   3   1   25.70    4.00
   5  -3  -1   19.60    2.40
  -5   3   1   24.40    3.30
  -5   3   1   24.10    3.50
  -5   3   1   22.70    2.80
  -5   3   1   18.70    2.70
  -5   3   1   21.90    3.10
   4  -3  -1    1.60    1.40
  -4   3   1    3.30    2.10
  -4   3   1    1.50    2.10
  -4   3   1    2.10    1.90
  -4   3   1    2.20    1.70
  -4   3   1    2.50    1.40
  -4   3   1    2.30    1.40
  -3   3   1 1138.19   25.50
  -3   3   1 1120.59   24.10
  -3   3   1 1143.19   24.80
  -3   3   1 1147.69   25.00
  -3   3   1 1156.08   26.40
  -3   3   1 1148.49   25.30
   2  -3  -1 2094.49   43.60
   2  -3  -1 2147.99   43.80
  -2   3   1 2102.59   44.10
  -2   3   1 2158.78   44.70
  -2   3   1 2181.58   43.60
  -2   3   1 2049.89   45.20
  -2   3   1 2086.29   44.30
   1  -3  -1  727.63   16.50
  -1   3   1  732.13   16.50
  -1   3   1  731.53   17.20
  -1   3   1  717.63   16.20
   0  -3  -1 9579.34  197.58
   0  -3  -1 9633.84  199.38
   0   3   1 9767.02  199.48
   0   3   1 9999.00  198.68
  -1  -3  -1 1064.09   24.40
  -1  -3  -1 1043.10   24.50
   1   3   1 1070.09   24.70
  -2  -3  -1    2.40    2.50
  -2  -3  -1    4.00    2.90
   2   3   1   -2.50    2.40
  -3  -3  -1   20.50    2.80
  -3  -3  -1   27.10    4.70
  -3  -3  -1   23.10    3.90
   3   3   1   24.90    4.10
  -4  -3  -1   -2.30    4.20
  -4  -3  -1   -1.70    3.60
  -4  -3  -1    0.10    2.20
   4   3   1    2.40    3.60
  -5  -3  -1  181.58    9.70
  -5  -3  -1  185.38    7.80
  -5  -3  -1  185.18    9.40
   5   3   1  188.98    9.90
  -6  -3  -1   44.80    4.50
  -6  -3  -1   39.50    6.30
  -7  -3  -1    2.30    3.00
  -7  -3  -1    0.40    4.40
   7   3   1    4.60    4.10
  -8  -3  -1   16.70    4.40
  -8  -3  -1   16.80    6.10
   8   3   1   11.70    5.00
 -10   4   1   61.29    6.20
 -10   4   1   46.50    5.80
  -9   4   1   28.50    4.50
  -9   4   1   22.60    4.00
  -8   4   1   36.60    5.10
  -8   4   1   39.70    4.40
  -8   4   1   30.00    4.40
  -7   4   1  287.67   10.60
  -7   4   1  292.07   10.00
  -7   4   1  291.27    9.40
  -7   4   1  289.37   10.60
  -6   4   1  130.39    6.60
  -6   4   1  128.99    5.80
  -6   4   1  118.39    6.80
  -6   4   1  133.19    7.30
  -6   4   1  124.29    5.40
   5  -4  -1    0.90    1.80
  -5   4   1   -0.50    2.10
  -5   4   1   -1.20    1.60
  -5   4   1    1.30    2.00
  -5   4   1   -1.00    2.50
  -5   4   1   -1.10    2.60
  -5   4   1    2.00    2.60
  -4   4   1 1213.18   27.70
  -4   4   1 1206.88   26.10
  -4   4   1 1241.78   27.40
  -4   4   1 1227.38   28.10
  -4   4   1 1248.88   27.30
  -4   4   1 1221.78   29.20
   3  -4  -1 1071.79   23.20
   3  -4  -1 1085.29   23.00
  -3   4   1 1076.69   24.40
  -3   4   1 1085.69   24.00
  -3   4   1 1083.49   24.80
  -3   4   1 1101.79   23.70
  -3   4   1 1104.19   25.80
   2  -4  -1  763.92   17.20
  -2   4   1  750.82   17.50
  -2   4   1  763.22   17.10
  -2   4   1  787.32   17.80
  -2   4   1  737.33   18.60
   0  -4  -1    3.50    2.40
   0  -4  -1    3.40    2.30
   0   4   1    1.00    1.00
   0   4   1    4.20    2.20
  -1  -4  -1   56.89    5.00
  -1  -4  -1   62.59    5.40
   1   4   1   61.79    4.90
  -2  -4  -1  740.03   19.70
  -2  -4  -1  762.42   19.60
   2   4   1  750.62   19.90
  -3  -4  -1  156.38    8.60
  -3  -4  -1  156.18    8.50
   3   4   1  165.48    8.60
  -4  -4  -1   75.39    5.20
  -4  -4  -1   67.29    6.90
  -4  -4  -1   57.89    6.00
   4   4   1   64.89    6.70
  -5  -4  -1   95.69    7.80
  -5  -4  -1   88.69    7.90
  -5  -4  -1   91.19    6.20
  -6  -4  -1   31.20    6.10
  -6  -4  -1   40.50    4.80
   6   4   1   33.90    6.10
  -7  -4  -1   10.80    5.00
  -7  -4  -1   12.10    3.80
   7   4   1   22.40    5.50
 -10   5   1  293.27   12.20
 -10   5   1  286.47   12.40
  -9   5   1    3.80    3.00
  -9   5   1    3.50    3.40
  -9   5   1   -3.00    2.80
  -8   5   1   -2.60    2.60
  -8   5   1    4.30    3.30
  -8   5   1    3.20    3.10
  -7   5   1   17.80    3.30
  -7   5   1   27.30    4.20
  -7   5   1   18.30    4.00
  -6   5   1    8.60    2.90
  -6   5   1    6.90    3.40
  -6   5   1    5.50    3.20
  -6   5   1    8.90    3.60
  -6   5   1    5.30    2.00
  -6   5   1    8.00    2.60
  -5   5   1   49.30    5.20
  -5   5   1   40.90    4.00
  -5   5   1   44.00    2.80
  -5   5   1   47.30    4.20
  -5   5   1   42.00    3.70
  -5   5   1   39.50    4.00
   4  -5  -1   61.39    2.50
   4  -5  -1   56.09    2.80
  -4   5   1   58.69    4.00
  -4   5   1   64.49    4.10
  -4   5   1   65.69    4.90
  -4   5   1   65.89    3.90
  -4   5   1   65.09    5.20
   3  -5  -1  654.13   16.30
   3  -5  -1  666.03   15.10
  -3   5   1  629.54   17.30
  -3   5   1  627.24   15.90
  -3   5   1  646.64   14.60
  -3   5   1  651.43   16.40
  -3   5   1  677.03   15.00
   2  -5  -1 1726.73   37.20
   2  -5  -1 1726.73   36.30
  -2   5   1 1691.03   38.70
  -2   5   1 1680.83   37.00
  -2   5   1 1707.83   35.00
  -2   5   1 1724.03   37.00
  -2   5   1 1740.33   37.20
   1  -5  -1   59.19    4.40
   1  -5  -1   58.19    4.40
  -1   5   1   73.79    5.10
  -1   5   1   71.79    3.60
   0  -5  -1   42.90    4.30
   0  -5  -1   36.40    4.00
   0   5   1   45.60    4.40
   0   5   1   40.80    2.50
  -1  -5  -1    8.20    3.40
  -1  -5  -1    7.40    3.70
   1   5   1    6.90    3.20
  -2  -5  -1   20.30    4.50
  -2  -5  -1   15.10    4.90
   2   5   1   13.30    3.90
  -3  -5  -1  150.58    9.00
  -3  -5  -1  141.59    8.80
   3   5   1  153.98    9.00
  -4  -5  -1  116.99    6.90
  -4  -5  -1  194.28   10.00
  -4  -5  -1  167.28   10.10
  -5  -5  -1    1.00    3.00
  -5  -5  -1    0.80    4.20
  -5  -5  -1   -1.70    4.00
   5   5   1    0.50    4.00
  -6  -5  -1  525.95   15.90
  -6  -5  -1  542.85   19.00
   6   5   1  509.85   18.80
  -7  -5  -1  145.69   11.50
  -7  -5  -1  165.28    9.40
   7   5   1  165.48   11.20
 -10   6   1   47.00    6.00
 -10   6   1   38.40    5.20
 -10   6   1   36.00    6.10
  -9   6   1   14.90    4.10
  -9   6   1    8.00    3.20
  -9   6   1    6.70    3.80
  -8   6   1  236.18   10.50
  -8   6   1  239.68   10.30
  -8   6   1  239.18    9.70
  -7   6   1    3.00    2.70
  -7   6   1    4.00    3.40
  -7   6   1    4.50    3.30
  -7   6   1    3.10    2.70
  -6   6   1   11.70    3.90
  -6   6   1   16.00    3.10
  -6   6   1    9.20    3.50
  -6   6   1    9.40    3.00
  -5   6   1  231.08    8.50
  -5   6   1  242.88    8.40
  -5   6   1  231.48    9.10
  -5   6   1  246.68   10.40
   4  -6  -1  651.63   15.00
  -4   6   1  618.84   18.40
  -4   6   1  626.14   16.50
  -4   6   1  652.63   15.30
  -4   6   1  668.73   16.40
  -4   6   1  648.54   17.20
   3  -6  -1  559.84   12.90
   3  -6  -1  548.05   13.80
  -3   6   1  546.35   13.60
  -3   6   1  557.24   14.30
  -3   6   1  547.15   16.30
  -3   6   1  535.05   14.60
   2  -6  -1  160.68    6.90
   2  -6  -1  147.69    6.10
  -2   6   1  178.88    6.40
  -2   6   1  173.98    6.50
   1  -6  -1    9.40    3.30
   1  -6  -1    9.00    3.30
  -1   6   1    7.50    2.00
  -1   6   1    9.10    3.60
  -1   6   1    9.20    2.90
   0  -6  -1    0.90    3.00
   0  -6  -1    1.50    3.50
   0   6   1    2.00    1.50
   0   6   1    1.50    3.10
  -1  -6  -1    4.70    3.50
  -1  -6  -1    5.40    4.20
  -2  -6  -1   27.30    5.30
  -2  -6  -1   18.90    4.80
  -3  -6  -1  126.19    9.10
  -3  -6  -1  137.39    9.50
   3   6   1  137.59    9.20
  -4  -6  -1   79.79    7.90
  -4  -6  -1   67.99    7.30
  -4  -6  -1   74.09    5.80
   4   6   1   74.69    7.80
  -5  -6  -1   54.99    5.50
  -5  -6  -1   63.49    7.80
  -5  -6  -1   83.69    8.40
   5   6   1   81.39    8.50
  -6  -6  -1    9.90    5.80
  -6  -6  -1    8.50    3.90
   6   6   1    3.70    4.60
  -9   7   1    2.60    3.50
  -9   7   1    7.00    3.40
  -9   7   1   -0.40    3.30
  -8   7   1  165.18    8.80
  -8   7   1  161.88    9.10
  -8   7   1  166.88    8.30
  -7   7   1  223.78   11.10
  -7   7   1  207.58    8.60
  -7   7   1  211.68    9.90
  -7   7   1  235.48    9.60
  -6   7   1   29.90    3.80
  -6   7   1   21.50    4.50
  -6   7   1   31.00    4.20
  -6   7   1   23.70    4.30
   5  -7  -1  870.51   19.00
  -5   7   1  864.11   21.70
  -5   7   1  836.82   23.80
  -5   7   1  837.02   21.30
  -5   7   1  868.91   22.40
   4  -7  -1   12.90    2.50
  -4   7   1   12.00    2.90
  -4   7   1   14.50    3.90
  -4   7   1    9.40    3.30
   3  -7  -1    2.60    2.50
   3  -7  -1    3.40    2.70
  -3   7   1    3.00    2.30
  -3   7   1    1.50    2.60
  -3   7   1    2.10    2.00
  -3   7   1    7.00    3.70
   2  -7  -1  124.39    6.10
   2  -7  -1  130.79    6.90
  -2   7   1  127.79    6.00
  -2   7   1  121.09    6.10
  -2   7   1  129.89    7.80
  -2   7   1  122.29    6.00
   1  -7  -1   -2.00    3.30
   1  -7  -1   -2.90    3.40
  -1   7   1    5.10    3.00
  -1   7   1    1.30    2.10
  -1   7   1    0.50    3.60
   0  -7  -1   28.60    4.80
   0  -7  -1   19.80    4.70
   0   7   1   26.20    2.40
   0   7   1   21.90    4.20
  -1  -7  -1  196.08    9.70
  -1  -7  -1  168.68    9.30
   1   7   1  198.08    9.60
  -2  -7  -1  257.67   12.00
  -2  -7  -1  244.48   11.40
   2   7   1  246.48   11.80
  -3  -7  -1  183.68   10.90
  -3  -7  -1  180.58   10.80
   3   7   1  177.18   10.60
  -4  -7  -1  360.76   15.10
  -4  -7  -1  339.27   12.10
  -4  -7  -1  361.16   15.30
   4   7   1  339.97   15.00
  -5  -7  -1    6.30    5.40
  -5  -7  -1    0.50    5.20
  -5  -7  -1    5.10    3.80
   5   7   1    3.20    4.90
  -9   8   1  112.59    8.20
  -9   8   1  120.69    8.60
  -9   8   1  111.79    7.70
  -8   8   1    2.80    3.00
  -8   8   1    7.10    3.70
  -8   8   1    1.00    3.70
  -8   8   1    5.40    3.40
  -7   8   1   90.09    6.50
  -7   8   1  107.89    8.40
  -7   8   1   88.59    6.90
  -7   8   1  116.89    6.90
  -6   8   1  696.53   22.10
  -6   8   1  717.73   19.10
  -6   8   1  697.13   19.40
  -6   8   1  724.13   20.40
   5  -8  -1   77.69    4.10
  -5   8   1   77.09    6.40
  -5   8   1   76.69    5.50
  -5   8   1   76.69    7.00
   4  -8  -1   84.89    5.30
  -4   8   1   81.39    6.10
  -4   8   1   86.29    7.40
  -4   8   1   85.69    5.80
   3  -8  -1  290.27   10.30
  -3   8   1  282.47    9.90
  -3   8   1  290.37   10.10
  -3   8   1  279.27   11.80
   2  -8  -1  285.17   11.10
   2  -8  -1  301.17    9.70
  -2   8   1  287.67   10.50
  -2   8   1  313.17   10.20
  -2   8   1  299.07    9.70
  -2   8   1  303.97   12.40
   1  -8  -1   81.99    6.40
   1  -8  -1   86.39    7.50
  -1   8   1   84.99    4.60
  -1   8   1   80.89    6.50
  -1   8   1   86.19    8.10
   0  -8  -1   84.09    6.70
   0  -8  -1   82.19    7.70
   0   8   1   84.09    7.10
  -1  -8  -1  144.39    9.00
  -1  -8  -1  157.68    9.90
   1   8   1  150.38    9.20
  -2  -8  -1  388.16   15.50
  -2  -8  -1  377.36   14.60
   2   8   1  406.06   15.60
  -3  -8  -1   19.30    6.20
  -3  -8  -1   27.10    6.50
   3   8   1   21.90    5.70
  -4  -8  -1  157.58    9.20
  -4  -8  -1  170.88   11.70
  -4  -8  -1  164.98   10.70
   4   8   1  178.08   11.50
  -5  -8  -1   89.99    7.20
  -5  -8  -1   98.09   10.20
  -5  -8  -1   88.69    9.30
   5   8   1   79.59    9.20
  -9   9   1   -3.50    3.70
  -9   9   1    8.20    3.90
  -9   9   1    2.40    4.50
  -9   9   1    1.30    3.90
  -8   9   1   92.59    7.10
  -8   9   1   98.49    7.30
  -8   9   1   93.09    9.10
  -8   9   1   99.39    7.80
  -7   9   1   23.90    4.70
  -7   9   1   27.50    6.00
  -7   9   1   31.70    4.50
  -7   9   1   29.30    4.50
  -6   9   1   30.00    4.70
  -6   9   1   29.50    5.60
  -6   9   1   33.80    4.70
   5  -9  -1   17.70    2.90
  -5   9   1   14.00    3.30
  -5   9   1    6.70    3.30
  -5   9   1   17.10    5.00
   4  -9  -1   31.80    4.10
  -4   9   1   42.00    6.40
  -4   9   1   24.70    3.80
  -4   9   1   34.50    4.30
   3  -9  -1   30.00    4.50
  -3   9   1   20.30    3.60
  -3   9   1   22.90    3.80
  -3   9   1   18.80    4.50
   2  -9  -1  473.45   15.70
  -2   9   1  530.35   15.10
  -2   9   1  506.65   17.80
  -2   9   1  514.25   14.10
  -2   9   1  498.85   15.40
   1  -9  -1  142.89    9.30
   1  -9  -1  136.19    8.20
  -1   9   1  158.88   10.10
  -1   9   1  151.28    8.60
   0  -9  -1   11.10    4.80
   0  -9  -1    7.90    4.60
   0   9   1    9.00    4.10
  -1  -9  -1  154.08   10.40
  -1  -9  -1  140.29    9.20
   1   9   1  133.39    9.30
  -2  -9  -1   12.20    5.40
  -2  -9  -1    8.10    4.80
   2   9   1   12.90    4.70
  -3  -9  -1   28.90    6.90
  -3  -9  -1   18.60    6.10
   3   9   1   21.60    6.10
  -4  -9  -1   35.00    5.50
  -4  -9  -1   22.80    6.40
  -4  -9  -1   30.60    7.10
   4   9   1   30.70    6.40
  -8  10   1   33.40    6.70
  -8  10   1   37.30    5.50
  -8  10   1   38.30    5.90
  -7  10   1   11.10    5.00
  -7  10   1   10.50    3.80
  -7  10   1   11.90    4.30
  -6  10   1    1.60    2.80
  -6  10   1    3.20    3.60
  -6  10   1    3.60    3.80
   5 -10  -1  425.56   12.70
  -5  10   1  434.06   16.70
  -5  10   1  411.96   14.30
  -5  10   1  407.26   13.80
   4 -10  -1   13.40    3.70
  -4  10   1    9.90    3.60
  -4  10   1   16.50    3.60
  -4  10   1   22.20    5.90
   3 -10  -1   59.79    6.40
  -3  10   1   57.79    5.20
  -3  10   1   79.19    7.70
  -3  10   1   74.59    5.90
   2 -10  -1   78.79    7.50
  -2  10   1   92.89    8.80
   1 -10  -1  247.88   11.90
  -1  10   1  258.77   13.50
  -1  10   1  258.47   11.40
   0 -10  -1  204.38   10.70
   0 -10  -1  212.18   11.70
   0  10   1  215.48   11.00
  -1 -10  -1  106.59    9.30
  -1 -10  -1  102.89    9.60
   1  10   1  111.49    8.90
  -2 -10  -1   10.00    5.70
  -2 -10  -1   13.30    5.90
   2  10   1   16.90    5.30
  -3 -10  -1  427.66   18.20
  -3 -10  -1  383.96   14.30
  -3 -10  -1  401.96   17.00
   3  10   1  400.96   17.60
  -8  11   1   19.50    5.80
  -8  11   1   25.70    5.10
  -8  11   1   29.60    6.00
  -7  11   1   42.30    6.10
  -7  11   1   40.10    5.60
  -7  11   1   36.10    7.30
  -6  11   1    4.30    3.20
  -6  11   1    3.00    4.20
  -6  11   1    4.60    4.00
   5 -11  -1  279.97   10.30
  -5  11   1  262.17   11.20
  -5  11   1  264.47   13.80
  -5  11   1  277.47   11.10
   4 -11  -1   86.99    7.20
  -4  11   1   89.19    6.90
  -4  11   1   88.59    6.60
  -4  11   1  101.79    9.40
   3 -11  -1  127.89    8.60
  -3  11   1  135.69   10.00
  -3  11   1  120.39    7.70
  -3  11   1  125.99    7.00
   2 -11  -1    9.40    4.80
  -2  11   1   10.70    3.50
  -2  11   1   11.20    5.10
   1 -11  -1   23.50    5.70
  -1  11   1   25.80    4.70
  -1  11   1   36.10    7.10
   0 -11  -1   10.70    5.50
   0  11   1    9.20    4.40
   0  11   1    6.00    5.50
  -1 -11  -1   35.20    7.20
   1  11   1   33.10    6.40
  -6  12   1   -0.40    3.10
  -6  12   1    3.80    3.90
  -6  12   1   -2.10    4.30
   5 -12  -1   14.80    4.00
  -5  12   1   20.60    6.10
  -5  12   1   21.30    4.40
  -5  12   1   23.50    4.50
   4 -12  -1   58.39    6.60
  -4  12   1   69.19    6.60
  -4  12   1   49.70    5.50
  -4  12   1   78.29    9.40
   3 -12  -1    4.20    4.50
  -3  12   1    4.60    3.40
  -3  12   1    7.70    4.90
   2 -12  -1   -0.10    5.10
  -2  12   1   -0.60    4.70
  -2  12   1    2.60    3.00
   1 -12  -1   19.20    6.20
  -1  12   1   20.70    6.50
  -1  12   1   16.20    4.50
  -3  13  -2   12.10    6.10
   3 -13   2    6.60    4.70
  -4  13  -2  195.78   13.60
   4 -13   2  183.88   10.60
   0  12  -2  103.09   12.10
   0  12  -2   97.39    9.70
   0 -12   2  106.29   10.40
  -1  12  -2   96.29   11.20
   1 -12   2   92.69    9.30
  -2  12  -2  100.59   11.40
   2 -12   2   76.89    8.30
  -3  12  -2  246.88   14.30
   3 -12   2  243.38   12.00
  -4  12  -2   28.40    4.80
  -4  12  -2   22.70    6.20
   4 -12   2   27.20    5.10
  -5  12  -2  175.18   12.20
  -5  12  -2  163.38    9.40
   5 -12   2  165.38    8.90
  -6  12  -2   97.19   11.10
  -6  12  -2   79.19    7.60
   6 -12   2   84.19    6.50
  -7  12  -2    7.50    5.50
  -7  12  -2    9.60    4.80
   2  11  -2   38.00    6.90
   1  11  -2   25.20    5.60
  -1 -11   2   18.10    6.20
   0  11  -2  121.99    9.40
   0 -11   2  111.29    9.90
  -1  11  -2   78.69    7.50
  -1  11  -2   67.89    9.20
  -1  11  -2   72.19    8.00
   1 -11   2   83.79    8.30
  -2  11  -2  270.77    9.90
  -2  11  -2  277.97   14.40
   2 -11   2  295.07   13.20
  -3  11  -2  107.69    7.00
  -3  11  -2  114.29    6.60
  -3  11  -2  117.09   10.00
   3 -11   2  128.79    8.30
  -4  11  -2  125.39    6.90
  -4  11  -2  143.79    8.30
  -4  11  -2  143.19   10.50
   4 -11   2  140.69    8.20
  -5  11  -2   44.50    7.30
  -5  11  -2   42.70    4.70
  -5  11  -2   41.90    5.50
   5 -11   2   39.90    5.10
  -6  11  -2    4.50    3.90
  -6  11  -2   -1.40    2.60
  -6  11  -2    4.90    4.50
   6 -11   2    2.90    2.70
  -7  11  -2   91.49    8.40
  -7  11  -2   86.79    9.10
  -7  11  -2   92.89    7.00
  -8  11  -2   26.00    6.50
  -8  11  -2   11.90    4.20
  -8  11  -2   16.90    5.40
   3  10  -2    1.90    4.50
  -3 -10   2    6.90    5.20
  -3 -10   2   -0.40    5.60
   2  10  -2   18.60    5.20
  -2 -10   2   19.50    6.10
  -2 -10   2   18.80    5.30
   1  10  -2    8.10    4.30
  -1 -10   2   12.10    4.30
  -1 -10   2   11.40    5.40
   0  10  -2   49.10    6.60
   0 -10   2   47.70    7.00
  -1  10  -2  331.47   13.10
  -1  10  -2  300.47   14.80
  -1  10  -2  310.27   10.70
   1 -10   2  303.57   13.20
  -2  10  -2   41.10    5.40
  -2  10  -2   35.90    6.20
  -2  10  -2   28.30    3.90
  -2  10  -2   36.90    4.00
   2 -10   2   40.60    5.80
  -3  10  -2   84.79    5.50
  -3  10  -2   82.99    6.30
  -3  10  -2   76.29    8.40
   3 -10   2   83.09    6.80
  -4  10  -2    6.80    2.70
  -4  10  -2    7.80    3.60
  -4  10  -2   10.40    4.60
   4 -10   2    6.30    3.30
  -5  10  -2    7.60    4.40
  -5  10  -2    6.90    2.80
  -5  10  -2    7.60    3.80
   5 -10   2    4.20    2.80
  -6  10  -2   98.79    7.80
  -6  10  -2   91.39    6.10
  -6  10  -2  102.39    8.90
   6 -10   2   90.89    5.60
  -7  10  -2  216.08    9.50
  -7  10  -2  213.38   12.40
  -7  10  -2  205.08   10.90
  -8  10  -2   82.69    9.60
  -8  10  -2   59.59    7.10
  -8  10  -2   58.09    6.20
  -8  10  -2   78.19    7.10
   4   9  -2  224.18   13.20
  -4  -9   2  202.28   12.00
  -4  -9   2  215.68   13.00
   3   9  -2  122.79    9.90
  -3  -9   2  130.99   10.50
  -3  -9   2  103.99    9.40
   2   9  -2   42.20    6.70
  -2  -9   2   34.70    4.30
  -2  -9   2   39.20    5.80
  -2  -9   2   51.39    6.90
   1   9  -2   42.90    5.80
  -1  -9   2   58.79    7.30
  -1  -9   2   55.49    5.80
   0   9  -2  166.88    9.40
   0  -9   2  165.08    9.90
   0  -9   2  173.88    8.30
  -1   9  -2  561.74   15.10
  -1   9  -2  571.74   17.50
  -1   9  -2  513.45   18.80
   1  -9   2  529.95   17.30
  -3   9  -2   -2.10    2.90
  -3   9  -2    0.50    3.60
  -3   9  -2    3.80    2.20
   3  -9   2   -1.60    2.90
  -4   9  -2   21.40    4.20
  -4   9  -2   29.80    5.60
  -4   9  -2   26.60    3.40
   4  -9   2   28.60    4.00
  -5   9  -2   55.89    6.00
  -5   9  -2   51.89    6.70
  -5   9  -2   48.10    4.50
   5  -9   2   50.89    4.60
  -6   9  -2   21.00    3.60
  -6   9  -2   16.60    4.60
  -6   9  -2   13.00    4.40
  -6   9  -2   17.70    3.90
   6  -9   2   18.00    3.00
  -7   9  -2   24.30    4.90
  -7   9  -2   16.40    4.00
  -7   9  -2   23.30    5.40
  -7   9  -2   24.60    4.20
  -8   9  -2    3.80    3.30
  -8   9  -2    2.40    3.80
  -8   9  -2    1.70    3.90
  -8   9  -2    6.70    3.40
  -9   9  -2  160.28   10.50
  -9   9  -2  181.58   12.10
  -9   9  -2  176.38    9.80
  -9   9  -2  180.98    9.70
   5   8  -2  105.79    9.80
  -5  -8   2   83.49    8.40
  -5  -8   2  123.39   16.10
  -5  -8   2   83.69    6.40
   4   8  -2    9.40    4.50
  -4  -8   2    1.80    4.90
  -4  -8   2    2.90    3.00
  -4  -8   2    6.70    5.00
   3   8  -2  228.68   11.90
  -3  -8   2  215.08   11.30
  -3  -8   2  209.68   10.80
  -3  -8   2  214.38    8.40
   2   8  -2  126.69    8.90
  -2  -8   2  128.69    9.20
  -2  -8   2  112.99    8.20
  -2  -8   2  113.79    6.30
  -1  -8   2   86.99    8.20
  -1  -8   2   92.29    6.60
   0   8  -2   13.60    4.20
   0  -8   2   14.80    4.80
   0  -8   2   11.20    3.60
  -1   8  -2  235.78   11.50
  -1   8  -2  212.98    9.80
  -1   8  -2  253.47    8.20
   2  -8   2    6.60    3.40
  -3   8  -2   21.40    3.10
  -3   8  -2   18.50    4.30
  -3   8  -2   17.50    3.30
  -3   8  -2   21.40    4.00
  -3   8  -2   23.00    3.40
   3  -8   2   25.90    4.20
  -4   8  -2  117.49    5.80
  -4   8  -2  121.79    7.40
  -4   8  -2  123.79    8.30
   4  -8   2  130.29    6.40
  -5   8  -2   -1.00    2.10
  -5   8  -2    0.40    2.80
  -5   8  -2    0.10    3.30
  -5   8  -2   -1.00    3.40
   5  -8   2    2.40    2.10
  -6   8  -2 1028.40   27.10
  -6   8  -2 1044.30   28.60
  -6   8  -2 1026.40   25.50
  -6   8  -2 1011.50   25.30
   6  -8   2 1022.30   23.60
  -7   8  -2    2.20    3.60
  -7   8  -2    0.20    3.70
  -7   8  -2    1.00    3.10
  -7   8  -2    1.20    2.90
  -8   8  -2    7.40    3.60
  -8   8  -2    8.10    3.50
  -8   8  -2   17.00    5.20
  -8   8  -2    9.40    4.20
  -9   8  -2   -1.00    3.50
  -9   8  -2    0.10    3.20
  -9   8  -2    0.60    3.70
   6   7  -2  316.47   15.30
  -6  -7   2  331.37   15.10
  -6  -7   2  313.57   12.10
   5   7  -2   12.00    4.90
  -5  -7   2    7.60    3.30
  -5  -7   2    9.20    4.90
  -5  -7   2    9.70    5.20
   4   7  -2   -2.50    3.40
  -4  -7   2   -1.40    4.20
  -4  -7   2   -0.20    4.10
  -4  -7   2   -1.50    2.80
   3   7  -2   24.60    5.10
  -3  -7   2   15.90    3.20
  -3  -7   2   20.80    5.10
  -3  -7   2   14.70    4.40
   2   7  -2  404.36   14.60
  -2  -7   2  382.56   11.10
  -2  -7   2  372.96   13.10
  -2  -7   2  395.66   14.40
   1   7  -2  906.21   24.40
  -1  -7   2  889.91   24.20
  -1  -7   2  909.11   22.80
   0   7  -2  391.36   10.20
   0   7  -2  377.76   13.10
   0  -7   2  383.56   11.50
   0  -7   2  386.26   13.50
  -1   7  -2  224.98    7.40
  -1   7  -2  224.98    7.80
  -1   7  -2  233.68    9.30
   1  -7   2  230.38    7.60
   1  -7   2  222.38    9.50
  -2   7  -2  807.52   20.10
  -2   7  -2  808.92   19.10
  -2   7  -2  824.92   22.50
  -2   7  -2  795.22   18.90
  -2   7  -2  824.12   20.60
   2  -7   2  839.72   18.10
   2  -7   2  804.92   20.90
  -3   7  -2  107.49    5.50
  -3   7  -2  108.69    5.00
  -3   7  -2   91.99    6.30
  -3   7  -2  128.49    7.40
  -3   7  -2   94.29    5.70
   3  -7   2   93.49    5.70
  -4   7  -2   47.50    4.10
  -4   7  -2   46.20    5.00
  -4   7  -2   50.99    4.60
  -4   7  -2   49.99    4.30
  -4   7  -2   46.30    3.90
  -4   7  -2   59.99    6.00
   4  -7   2   49.10    4.20
  -5   7  -2  104.09    7.30
  -5   7  -2  109.49    7.40
  -5   7  -2  105.29    5.50
  -5   7  -2  103.19    5.70
   5  -7   2  102.49    4.90
  -6   7  -2  358.66   11.50
  -6   7  -2  338.77   12.40
  -6   7  -2  345.07   11.20
  -6   7  -2  356.46   13.70
   6  -7   2  355.36    9.80
  -7   7  -2  103.09    6.50
  -7   7  -2  109.39    6.70
  -7   7  -2   97.49    7.80
  -7   7  -2   91.59    7.70
  -8   7  -2    9.10    3.70
  -8   7  -2   11.20    4.20
  -8   7  -2    6.00    3.30
  -9   7  -2   21.80    4.70
  -9   7  -2   36.60    5.70
  -9   7  -2   27.80    4.70
   6   6  -2  128.99    9.70
  -6  -6   2  127.19   10.20
  -6  -6   2  125.89    7.30
   5   6  -2   64.99    7.30
  -5  -6   2   58.19    7.00
  -5  -6   2   71.69    7.60
  -5  -6   2   62.89    5.10
   4   6  -2   -0.80    3.60
  -4  -6   2   -2.20    3.90
  -4  -6   2   -0.20    2.60
  -4  -6   2    2.50    3.90
   3   6  -2   13.50    4.40
  -3  -6   2   12.10    3.90
  -3  -6   2   10.10    2.70
  -3  -6   2   14.40    3.50
  -3  -6   2    5.50    4.10
   2   6  -2  295.37   11.80
  -2  -6   2  294.57    9.80
  -2  -6   2  304.07    9.10
  -2  -6   2  299.27   11.60
  -2  -6   2  306.57   11.20
   1   6  -2   35.90    4.80
  -1  -6   2   62.89    6.00
  -1  -6   2   47.50    4.70
  -1  -6   2   52.79    4.00
   0   6  -2  287.17   10.20
   0   6  -2  305.67    8.30
   0  -6   2  283.77   10.30
   0  -6   2  282.67    7.60
   0  -6   2  296.67    9.10
  -1   6  -2  702.93   15.80
  -1   6  -2  661.73   17.30
   1  -6   2  610.24   14.10
   1  -6   2  675.93   17.50
   1  -6   2  673.73   15.60
  -3   6  -2 1507.85   33.50
  -3   6  -2 1498.15   35.70
  -3   6  -2 1522.75   33.00
  -3   6  -2 1522.65   33.40
   3  -6   2 1525.05   33.60
  -4   6  -2   98.99    5.30
  -4   6  -2   87.09    6.30
  -4   6  -2   87.99    6.20
  -4   6  -2   99.79    4.50
  -4   6  -2   88.49    4.60
  -4   6  -2  102.69    6.60
   4  -6   2   98.09    4.60
  -5   6  -2    5.20    3.50
  -5   6  -2    5.60    2.60
  -5   6  -2    5.70    3.60
  -5   6  -2    8.90    2.50
   5  -6   2    7.50    2.10
  -6   6  -2  151.88    7.30
  -6   6  -2  172.58    8.60
  -6   6  -2  154.78    8.60
  -6   6  -2  171.98    7.40
   6  -6   2  170.78    6.00
  -7   6  -2    3.80    3.40
  -7   6  -2   -1.90    2.50
  -7   6  -2    0.00    2.60
  -7   6  -2   -0.70    3.30
  -8   6  -2   14.30    3.70
  -8   6  -2   15.30    3.80
  -8   6  -2   16.10    4.30
  -9   6  -2  128.79    8.60
  -9   6  -2  132.09    8.10
 -10   6  -2    5.90    4.10
 -10   6  -2    7.00    3.90
   7   5  -2   -2.00    3.70
  -7  -5   2   -7.60    4.20
  -7  -5   2   -4.10    3.10
   6   5  -2    5.90    3.90
  -6  -5   2   -3.70    2.60
  -6  -5   2    1.00    4.40
   5   5  -2   55.39    6.60
  -5  -5   2   51.59    6.20
  -5  -5   2   73.99    7.00
  -5  -5   2   52.29    4.60
   4   5  -2  339.37   13.40
  -4  -5   2  378.36   13.50
  -4  -5   2  366.46   10.90
  -4  -5   2  364.76   13.30
  -4  -5   2  363.76   12.50
   3   5  -2   10.00    3.90
  -3  -5   2   10.10    2.60
  -3  -5   2   12.70    3.30
  -3  -5   2    8.50    3.60
  -3  -5   2    8.10    4.00
   2   5  -2  181.78    8.90
  -2  -5   2  202.08    6.80
  -2  -5   2  223.18    8.80
  -2  -5   2  226.18    9.50
  -2  -5   2  208.28    7.60
   1   5  -2 1120.79   27.90
  -1  -5   2 1131.39   27.70
  -1  -5   2 1235.18   25.90
  -1  -5   2 1168.58   26.90
   0   5  -2  415.86   12.10
   0  -5   2  402.96   10.90
   0  -5   2  428.56   12.40
   0  -5   2  410.76    9.90
  -1   5  -2    2.30    1.90
  -1   5  -2   -0.80    1.30
  -1   5  -2   -0.30    1.80
   1  -5   2   -0.80    1.40
   1  -5   2    0.40    2.10
  -2   5  -2  313.37    8.20
  -2   5  -2  311.47   10.20
  -2   5  -2  323.07    9.10
  -2   5  -2  321.37    9.10
   2  -5   2  325.27    9.30
   2  -5   2  322.17    7.20
  -3   5  -2  117.69    4.90
  -3   5  -2  113.79    6.00
  -3   5  -2  113.19    5.60
  -3   5  -2  118.79    4.60
  -3   5  -2  117.09    4.50
   3  -5   2  116.49    4.80
  -4   5  -2  382.36   12.00
  -4   5  -2  368.36   10.20
  -4   5  -2  376.56    9.60
  -4   5  -2  358.16   11.30
  -4   5  -2  370.56   10.50
   4  -5   2  368.76    9.80
  -5   5  -2   60.59    2.90
  -5   5  -2   73.39    5.90
  -5   5  -2   58.59    4.50
  -5   5  -2   60.99    4.70
  -5   5  -2   63.29    5.50
   5  -5   2   63.09    3.80
  -6   5  -2   -0.20    2.50
  -6   5  -2    5.50    3.30
  -6   5  -2    4.40    3.40
  -6   5  -2    1.00    2.50
   6  -5   2    2.60    2.10
  -7   5  -2  306.97   11.60
  -7   5  -2  301.17   10.50
  -7   5  -2  307.77   10.90
   7  -5   2  285.87    8.70
  -8   5  -2  153.38    8.40
  -8   5  -2  131.69    7.50
  -9   5  -2   50.99    6.00
  -9   5  -2   41.50    5.20
 -10   5  -2   41.90    5.90
 -10   5  -2   42.10    5.70
   7   4  -2   44.70    6.30
  -7  -4   2   46.30    6.80
  -7  -4   2   34.60    4.50
   6   4  -2   20.70    4.70
  -6  -4   2   21.00    3.50
  -6  -4   2   18.10    4.70
   5   4  -2   23.80    4.70
  -5  -4   2   19.50    4.40
  -5  -4   2   18.20    3.20
  -5  -4   2   18.30    4.40
  -5  -4   2   19.80    4.30
   4   4  -2   16.00    4.10
  -4  -4   2   13.80    4.10
  -4  -4   2    6.70    4.10
  -4  -4   2   16.30    2.90
  -4  -4   2   13.90    3.60
   3   4  -2  572.24   16.60
  -3  -4   2  571.74   16.30
  -3  -4   2  563.64   16.40
  -3  -4   2  572.34   15.50
  -3  -4   2  576.24   14.10
   2   4  -2 2068.89   45.30
  -2  -4   2 2004.10   44.30
  -2  -4   2 1979.70   44.90
  -2  -4   2 2026.60   43.60
  -2  -4   2 2028.10   42.50
   1   4  -2    1.70    2.10
  -1  -4   2    3.30    2.50
  -1  -4   2    3.00    1.50
  -1  -4   2    1.90    2.20
   0   4  -2  558.44   14.40
   0  -4   2  567.44   13.40
   0  -4   2  567.04   14.50
  -1   4  -2   59.09    4.10
  -1   4  -2   56.89    3.40
  -1   4  -2   59.89    2.50
   1  -4   2   59.89    2.70
   1  -4   2   59.99    3.70
  -2   4  -2  245.18    7.10
  -2   4  -2  234.98    6.40
  -2   4  -2  250.67    7.00
  -2   4  -2  256.77    8.10
  -2   4  -2  258.07    7.60
   2  -4   2  248.38    7.20
  -3   4  -2    1.40    1.30
  -3   4  -2    0.50    1.50
  -3   4  -2    1.20    0.80
  -3   4  -2    2.50    2.10
  -3   4  -2    0.40    1.20
  -3   4  -2    4.80    2.50
   3  -4   2    0.70    1.40
  -4   4  -2   66.19    3.00
  -4   4  -2   72.49    3.80
  -4   4  -2   74.29    5.50
  -4   4  -2   69.69    3.20
  -4   4  -2   61.89    3.70
   4  -4   2   66.59    3.50
  -5   4  -2    3.20    2.30
  -5   4  -2    1.50    1.90
  -5   4  -2    2.90    2.20
  -5   4  -2    4.80    1.90
  -5   4  -2    4.90    2.00
  -5   4  -2    6.90    3.10
   5  -4   2    4.70    2.00
  -6   4  -2  364.26   11.50
  -6   4  -2  367.86   10.60
  -6   4  -2  362.86   11.20
  -6   4  -2  366.96   10.30
  -6   4  -2  343.27   12.10
   6  -4   2  343.27   10.00
  -7   4  -2  210.28    7.80
  -7   4  -2  202.58    8.00
  -7   4  -2  227.68    9.50
  -7   4  -2  202.28    8.50
   7  -4   2  205.38    7.30
  -8   4  -2  131.19    6.90
  -8   4  -2  142.09    8.10
  -8   4  -2  125.09    7.30
  -9   4  -2  149.19    7.90
  -9   4  -2  159.28    8.60
  -9   4  -2  164.08    8.80
 -10   4  -2   27.90    4.80
 -10   4  -2   26.20    4.80
 -10   4  -2   37.90    5.40
   8   3  -2    2.30    3.40
  -8  -3   2    0.40    4.30
  -8  -3   2    2.90    3.30
   7   3  -2   56.49    6.30
  -7  -3   2   49.20    6.20
  -7  -3   2   71.19    5.70
   6   3  -2  113.99    7.70
  -6  -3   2  111.39    6.50
  -6  -3   2  113.29    8.30
  -6  -3   2  105.79    8.20
   5   3  -2   69.19    6.10
  -5  -3   2   55.59    5.70
  -5  -3   2   64.09    4.80
  -5  -3   2   74.59    6.70
  -5  -3   2   64.49    6.00
   4   3  -2  173.28    8.20
  -4  -3   2  181.08    6.60
  -4  -3   2  169.38    8.00
  -4  -3   2  169.28    8.50
  -4  -3   2  164.48    7.80
   3   3  -2   31.90    3.80
  -3  -3   2   29.20    3.80
  -3  -3   2   28.10    3.40
  -3  -3   2   21.70    3.70
   2   3  -2  101.79    7.00
   2   3  -2   70.99    4.70
  -2  -3   2   84.39    3.50
  -2  -3   2   87.29    4.90
  -2  -3   2   75.89    4.30
  -2  -3   2   88.69    5.00
   1   3  -2   42.70    3.50
   1   3  -2   43.00    4.70
  -1  -3   2   40.80    2.20
  -1  -3   2   41.50    3.70
  -1  -3   2   45.10    3.50
   0   3  -2  189.78    7.50
   0   3  -2  183.18    6.10
   0  -3   2  189.78    5.50
   0  -3   2  178.58    6.20
  -1   3  -2   71.59    3.40
  -2   3  -2  735.83   16.30
  -2   3  -2  703.53   17.20
  -2   3  -2  732.03   15.90
  -2   3  -2  715.43   16.20
  -2   3  -2  741.43   17.10
   2  -3   2  727.93   16.40
  -3   3  -2    2.70    1.20
  -3   3  -2    3.90    1.50
  -3   3  -2    1.50    1.90
  -3   3  -2    4.20    2.50
  -3   3  -2    1.80    1.10
  -3   3  -2    3.20    1.50
  -3   3  -2    3.30    1.30
   3  -3   2    3.90    1.50
  -4   3  -2   36.90    3.00
  -4   3  -2   38.60    3.90
  -4   3  -2   34.90    2.80
  -4   3  -2   36.10    3.10
  -4   3  -2   35.30    4.10
  -4   3  -2   40.20    2.80
  -4   3  -2   32.50    2.60
   4  -3   2   34.40    2.90
  -5   3  -2  240.98    7.40
  -5   3  -2  243.38    7.90
  -5   3  -2  244.98    7.70
  -5   3  -2  240.48    8.30
  -5   3  -2  233.58    8.00
   5  -3   2  231.78    7.70
  -6   3  -2   76.49    5.00
  -6   3  -2   84.09    6.20
  -6   3  -2   80.49    5.10
  -6   3  -2   86.09    5.50
   6  -3   2   81.59    5.10
  -7   3  -2  175.08    7.70
  -7   3  -2  170.98    7.30
  -7   3  -2  173.38    8.40
  -7   3  -2  175.78    7.80
   7  -3   2  156.18    6.90
  -8   3  -2    3.80    3.20
  -8   3  -2    8.20    3.30
  -8   3  -2    3.60    2.80
  -8   3  -2   -4.20    2.70
   8  -3   2    5.80    2.60
  -9   3  -2   39.30    5.10
  -9   3  -2   33.60    4.80
  -9   3  -2   37.30    5.10
   8   2  -2   31.80    4.90
  -8  -2   2   27.40    5.60
  -8  -2   2   25.30    4.30
   7   2  -2    7.00    3.50
  -7  -2   2   10.10    3.30
  -7  -2   2    4.30    4.00
   6   2  -2   29.70    4.40
  -6  -2   2   29.00    3.60
  -6  -2   2   29.80    4.70
  -6  -2   2   29.50    5.00
   5   2  -2 2769.52   60.19
  -5  -2   2 2755.42   60.69
  -5  -2   2 2725.83   60.59
  -5  -2   2 2756.12   58.39
  -5  -2   2 2697.13   59.49
   4   2  -2  198.38   10.10
   4   2  -2  188.98    7.60
  -4  -2   2  169.68    8.10
  -4  -2   2  189.28    6.60
  -4  -2   2  180.28    7.40
  -4  -2   2  177.58    7.60
   3   2  -2   89.89    6.30
   3   2  -2   82.39    4.80
  -3  -2   2   85.79    5.20
  -3  -2   2   78.79    4.70
  -3  -2   2   81.09    4.60
  -3  -2   2   85.99    3.80
   2   2  -2  394.76   10.70
   2   2  -2  400.66   11.60
  -2  -2   2  393.46    9.30
  -2  -2   2  398.06   10.40
  -2  -2   2  383.46   10.60
  -2  -2   2  393.56   10.60
   1   2  -2  830.42   19.60
   1   2  -2  821.32   18.70
  -1  -2   2  806.42   18.70
  -1  -2   2  802.42   18.40
  -1  -2   2  847.92   17.30
   0   2  -2   68.79    3.20
   0   2  -2   75.99    4.30
   0  -2   2   63.89    3.40
   0  -2   2   70.49    2.90
  -1   2  -2  614.04   13.60
  -1   2  -2  583.64   12.60
  -1   2  -2  606.84   13.10
  -1   2  -2  618.54   13.80
   1  -2   2  589.94   13.70
  -2   2  -2  363.56    8.70
  -2   2  -2  350.66    8.60
  -2   2  -2  341.47    9.20
  -2   2  -2  351.76    8.40
  -2   2  -2  357.96    9.80
  -2   2  -2  365.76    8.70
  -2   2  -2  363.36    8.20
  -2   2  -2  370.36    8.30
   2  -2   2  356.26    8.90
  -3   2  -2  607.54   14.00
  -3   2  -2  593.14   15.20
  -3   2  -2  597.14   14.10
  -3   2  -2  614.94   13.70
  -3   2  -2  611.84   14.30
  -3   2  -2  607.94   15.00
   3  -2   2  604.34   14.20
  -4   2  -2 1215.78   26.50
  -4   2  -2 1213.48   26.30
  -4   2  -2 1187.58   26.80
  -4   2  -2 1172.38   28.00
   4  -2   2 1206.98   26.70
  -5   2  -2   23.30    3.00
  -5   2  -2   24.50    3.60
  -5   2  -2   28.10    3.00
   5  -2   2   24.60    3.40
  -6   2  -2    4.00    3.10
  -6   2  -2    7.50    3.30
  -6   2  -2    6.00    2.50
   6  -2   2    5.40    2.90
  -7   2  -2   10.00    3.40
  -7   2  -2   13.10    3.10
  -7   2  -2   11.40    3.30
   7  -2   2   14.00    3.30
  -8   2  -2    2.20    3.50
  -8   2  -2   -3.50    2.70
  -8   2  -2   -1.90    2.90
   8  -2   2    1.10    2.60
  -9   2  -2   15.00    4.40
  -9   2  -2   16.20    3.70
  -9  -1   2  142.99    8.60
  -9  -1   2  169.58   10.60
   8   1  -2  191.38    8.70
  -8  -1   2  174.68    8.50
  -8  -1   2  218.58   10.70
   7   1  -2  216.88    9.10
  -7  -1   2  224.68    8.90
  -7  -1   2  226.88   10.50
  -7  -1   2  220.68   10.60
   6   1  -2    4.90    2.70
  -6  -1   2   10.10    3.50
  -6  -1   2    6.60    2.70
  -6  -1   2    5.30    3.40
   5   1  -2    8.10    2.80
   5   1  -2    6.10    4.30
  -5  -1   2    4.50    2.30
  -5  -1   2    1.90    3.30
  -5  -1   2    4.30    3.50
  -5  -1   2    5.70    2.70
  -5  -1   2    2.50    1.60
   4   1  -2   64.79    4.30
   4   1  -2   62.29    5.80
  -4  -1   2   69.59    3.20
  -4  -1   2   71.79    5.20
  -4  -1   2   68.49    3.90
  -4  -1   2   64.19    4.60
  -4  -1   2   69.89    4.30
   3   1  -2    5.40    1.80
   3   1  -2    4.70    2.70
  -3  -1   2    3.00    1.90
  -3  -1   2    3.00    1.10
  -3  -1   2    5.40    2.20
  -3  -1   2    4.20    1.40
  -3  -1   2    3.90    1.80
   2   1  -2   58.99    3.30
   2   1  -2   60.19    4.30
  -2  -1   2   75.29    3.90
  -2  -1   2   60.29    2.60
   1   1  -2 5738.73  117.29
   1   1  -2 5855.01  117.99
  -1  -1   2 5762.32  118.79
  -1  -1   2 5732.73  117.29
  -1  -1   2 5839.72  117.79
  -1  -1   2 5692.33  118.29
   0   1  -2  464.15   10.60
   0   1  -2  467.15   10.90
   0  -1   2  462.55   10.70
   0  -1   2  474.35   10.40
  -1   1  -2  188.08    4.90
  -1   1  -2  185.38    5.80
  -1   1  -2  195.08    4.50
  -1   1  -2  195.38    5.00
  -1   1  -2  195.68    5.10
   1  -1   2  198.58    5.30
  -2   1  -2   36.60    2.60
  -2   1  -2   35.50    2.10
  -2   1  -2   33.10    3.20
  -2   1  -2   33.30    1.90
  -2   1  -2   35.10    2.80
   2  -1   2   34.60    2.60
  -3   1  -2    2.90    1.60
  -3   1  -2    1.10    1.30
  -3   1  -2   -1.50    2.10
  -3   1  -2    2.90    2.20
   3  -1   2    2.40    1.80
  -4   1  -2  548.65   13.40
  -4   1  -2  551.94   13.90
  -4   1  -2  554.04   14.50
   4  -1   2  540.35   14.10
  -5   1  -2   18.20    3.30
  -5   1  -2   16.30    3.80
  -5   1  -2   14.70    2.70
   5  -1   2   15.90    3.40
  -6   1  -2  198.98    8.00
  -6   1  -2  182.48    8.60
  -6   1  -2  189.78    7.60
   6  -1   2  193.58    8.30
  -7   1  -2   31.50    4.00
  -7   1  -2   28.10    4.60
  -7   1  -2   31.90    4.00
   7  -1   2   28.70    4.30
  -8   1  -2  413.56   13.60
  -8   1  -2  452.15   15.10
   8  -1   2  425.96   14.10
  -9   1  -2   41.40    5.20
  -9   1  -2   65.19    7.10
  -9   0   2   30.00    4.70
  -9   0   2   27.80    5.60
   8   0  -2  342.37   11.30
  -8   0   2  360.76   13.60
  -8   0   2  361.86   12.10
   7   0  -2  253.27    9.00
  -7   0   2  253.17   11.40
  -7   0   2  265.27    9.30
  -7   0   2  265.87   10.80
   6   0  -2   35.30    3.70
   6   0  -2   52.89    6.00
  -6   0   2   45.20    3.60
  -6   0   2   38.50    5.20
  -6   0   2   40.40    4.10
  -6   0   2   41.30    4.80
   5   0  -2  105.69    5.00
   5   0  -2   98.39    6.80
  -5   0   2  101.89    6.30
  -5   0   2  105.89    5.00
  -5   0   2  102.59    5.40
  -5   0   2  107.69    4.70
  -5   0   2  109.89    6.70
   4   0  -2  515.35   12.60
   4   0  -2  514.15   13.90
  -4   0   2  522.45   12.70
  -4   0   2  506.85   14.00
  -4   0   2  510.45   12.50
  -4   0   2  499.85   12.40
  -4   0   2  503.05   13.10
  -4   0   2  496.15   13.60
   3   0  -2  140.99    5.70
   3   0  -2  143.59    4.60
  -3   0   2  145.79    4.60
  -3   0   2  137.19    4.60
  -3   0   2  139.39    4.90
  -3   0   2  142.79    4.60
  -3   0   2  135.29    5.40
  -3   0   2  141.39    5.50
   2   0  -2   57.89    2.90
   2   0  -2   59.79    2.60
   2   0  -2   60.89    3.60
  -2   0   2   55.39    2.60
  -2   0   2   60.39    3.40
  -2   0   2   56.09    2.60
  -2   0   2   56.79    2.50
  -2   0   2   59.69    2.70
   1   0  -2   28.60    1.60
   1   0  -2   25.20    2.10
  -1   0   2   25.90    1.70
  -1   0   2   25.20    1.90
  -1   0   2   30.20    1.60
   0   0  -2 1777.62   36.20
   0   0  -2 1691.03   35.80
   0   0   2 1724.43   35.90
  -1   0  -2 4118.99   84.49
  -1   0  -2 4286.67   84.69
   1   0   2 3995.90   84.49
  -2   0  -2  428.36   11.50
  -2   0  -2  431.66   11.20
  -2   0  -2  451.55   10.30
  -2   0  -2  429.56   10.90
   2   0   2  424.26   11.00
  -3   0  -2   64.39    4.30
  -3   0  -2   62.89    3.80
  -3   0  -2   57.59    3.20
  -3   0  -2   62.69    4.90
   3   0   2   60.49    4.00
  -4   0  -2 1277.97   29.70
  -4   0  -2 1261.07   29.20
  -4   0  -2 1302.07   28.30
   4   0   2 1277.47   29.50
  -5   0  -2   46.10    5.30
  -5   0  -2   46.90    4.80
  -5   0  -2   43.50    3.80
   5   0   2   47.10    5.00
  -6   0  -2   35.90    4.10
  -6   0  -2   38.20    5.20
  -6   0  -2   37.50    3.90
   6   0   2   39.60    5.00
  -7   0  -2    8.40    3.10
  -7   0  -2    7.90    4.10
   7   0   2    8.30    3.70
  -8   0  -2  155.68    7.80
  -8   0  -2  180.58    9.80
   8   0   2  167.38    9.00
  -9   0  -2  211.28   11.30
  -9   0  -2  196.98    9.70
   9   0   2  171.08   10.00
  -9   1   2   25.60    5.30
  -9   1   2   21.80    4.10
  -8   1   2    8.90    3.90
  -8   1   2    0.30    2.70
  -8   1   2    3.10    3.70
   7  -1  -2   25.40    2.90
  -7   1   2   28.50    4.90
  -7   1   2   22.70    4.20
  -7   1   2   28.10    3.80
  -7   1   2   26.40    3.40
   6  -1  -2  266.07    7.80
   6  -1  -2  264.47   10.00
  -6   1   2  262.57    8.70
  -6   1   2  260.17    9.70
  -6   1   2  275.27   10.50
  -6   1   2  259.17    9.60
  -6   1   2  244.68    8.60
   5  -1  -2  139.09    5.40
   5  -1  -2  137.79    6.40
   5  -1  -2  122.19    4.60
  -5   1   2  122.79    6.10
  -5   1   2  118.89    6.10
  -5   1   2  125.99    6.50
  -5   1   2  125.89    5.50
  -5   1   2  123.09    4.70
  -5   1   2  121.49    5.50
   4  -1  -2  217.78    7.30
   4  -1  -2  216.78    6.00
   4  -1  -2  226.98    5.90
  -4   1   2  219.98    6.80
  -4   1   2  212.18    6.70
  -4   1   2  215.28    5.90
  -4   1   2  215.98    7.10
  -4   1   2  221.98    7.30
  -4   1   2  221.48    7.80
   3  -1  -2 1373.26   29.00
   3  -1  -2 1395.36   30.40
   3  -1  -2 1430.26   28.90
  -3   1   2 1396.86   30.20
  -3   1   2 1422.46   30.10
  -3   1   2 1363.16   30.60
  -3   1   2 1422.96   29.80
  -3   1   2 1367.16   28.90
  -3   1   2 1387.86   30.20
   2  -1  -2  139.09    4.90
   2  -1  -2  130.49    3.40
   2  -1  -2  131.19    3.50
  -2   1   2  133.19    4.30
  -2   1   2  131.09    4.30
  -2   1   2  131.09    4.20
  -2   1   2  136.39    3.80
  -2   1   2  128.49    3.50
   1  -1  -2  451.05   10.00
   1  -1  -2  441.26   10.00
  -1   1   2  440.86   10.00
  -1   1   2  455.95   10.30
  -1   1   2  444.46    9.70
  -1   1   2  460.45   10.40
  -1   1   2  456.95   10.20
   0  -1  -2    1.70    1.10
   0   1   2    1.80    1.20
  -1  -1  -2   39.10    3.20
  -1  -1  -2   22.80    2.60
  -1  -1  -2   21.30    2.70
   1   1   2   26.40    2.70
  -2  -1  -2  750.42   17.70
  -2  -1  -2  713.63   17.90
  -2  -1  -2  742.43   17.30
   2   1   2  748.33   17.90
  -3  -1  -2  644.24   15.10
  -3  -1  -2  622.84   16.10
  -3  -1  -2  617.04   16.60
   3   1   2  637.04   16.30
  -4  -1  -2   77.69    5.90
  -4  -1  -2   94.09    4.80
  -4  -1  -2   89.39    6.90
   4   1   2   75.99    5.90
  -5  -1  -2  606.74   17.00
  -5  -1  -2  584.44   17.40
  -5  -1  -2  620.54   15.70
   5   1   2  577.14   17.10
  -6  -1  -2  261.57    9.50
  -6  -1  -2  275.27   11.60
   6   1   2  258.47   11.00
  -7  -1  -2    4.90    2.80
  -7  -1  -2    6.00    4.50
   7   1   2    5.00    3.80
  -8  -1  -2   61.59    5.90
  -8  -1  -2   51.99    6.50
  -9  -1  -2    1.50    3.40
  -9  -1  -2   -7.60    4.40
   9   1   2    1.10    4.20
  -9   2   2   54.09    6.10
  -9   2   2   54.19    5.40
  -8   2   2  191.08   10.50
  -8   2   2  188.38    8.30
  -8   2   2  190.48    8.40
  -8   2   2  193.38    9.30
  -8   2   2  189.28    8.60
  -7   2   2  124.09    6.30
  -7   2   2  129.49    6.50
  -7   2   2  120.39    6.20
  -7   2   2  128.49    8.10
  -7   2   2  124.59    7.00
  -7   2   2  120.39    6.80
   6  -2  -2  107.79    6.20
   6  -2  -2  113.49    3.60
  -6   2   2  116.99    6.60
  -6   2   2  105.19    6.30
  -6   2   2  106.49    5.90
  -6   2   2  113.59    5.70
  -6   2   2  109.19    5.90
  -6   2   2  112.29    7.10
   5  -2  -2  382.66    8.80
   5  -2  -2  401.76   11.20
   5  -2  -2  405.46    8.70
  -5   2   2  391.06   11.20
  -5   2   2  389.16   11.20
  -5   2   2  378.66   11.90
  -5   2   2  378.56   10.60
  -5   2   2  391.66   11.40
   4  -2  -2  113.79    4.90
  -4   2   2  118.29    5.00
  -4   2   2  109.09    4.90
  -4   2   2  122.19    4.50
  -4   2   2  120.99    4.80
  -4   2   2  112.19    5.30
   3  -2  -2   74.69    3.80
  -3   2   2   73.79    3.10
  -3   2   2   73.79    3.70
  -3   2   2   73.49    4.10
  -3   2   2   72.59    3.50
  -3   2   2   68.39    3.30
   2  -2  -2  430.26    9.70
   2  -2  -2  448.66    9.80
  -2   2   2  445.16   10.10
  -2   2   2  448.96   11.30
  -2   2   2  441.16   10.30
  -2   2   2  436.36    9.70
  -2   2   2  450.65   10.70
  -2   2   2  434.56   10.80
   1  -2  -2  769.72   17.00
  -1   2   2  772.82   16.90
  -1   2   2  760.52   16.90
  -1   2   2  773.62   16.90
  -1   2   2  765.72   17.30
   0  -2  -2 1220.68   26.40
   0  -2  -2 1180.08   25.20
   0   2   2 1209.48   26.40
  -1  -2  -2  680.03   16.60
  -1  -2  -2  648.54   16.20
  -1  -2  -2  691.43   15.10
   1   2   2  651.73   16.20
  -2  -2  -2  809.02   19.80
  -2  -2  -2  801.82   20.00
   2   2   2  825.32   20.00
  -3  -2  -2  208.58    8.50
  -3  -2  -2  199.38    8.20
  -3  -2  -2  203.48    6.80
   3   2   2  203.08    8.30
  -4  -2  -2  199.58    7.40
  -4  -2  -2  197.48    9.10
  -4  -2  -2  199.68    9.30
   4   2   2  203.38    9.00
  -5  -2  -2  145.19    9.50
  -5  -2  -2  142.49    6.90
  -5  -2  -2  141.19    8.30
   5   2   2  152.88    8.50
  -6  -2  -2  535.05   17.50
  -6  -2  -2  517.95   15.00
   6   2   2  520.45   17.10
  -7  -2  -2   27.20    5.80
  -7  -2  -2   27.10    4.20
   7   2   2   29.40    5.50
  -8  -2  -2   -0.60    3.10
  -8  -2  -2   -2.20    4.20
 -10   3   2    3.00    3.50
  -9   3   2  358.26   13.10
  -9   3   2  341.97   12.40
  -9   3   2  361.56   12.60
  -8   3   2  330.37   11.50
  -8   3   2  326.17   11.40
  -8   3   2  326.87   13.20
  -8   3   2  316.87   11.10
  -8   3   2  314.47   12.10
  -7   3   2    2.20    3.30
  -7   3   2    3.00    2.70
  -7   3   2    7.70    2.90
  -7   3   2    8.70    3.00
  -7   3   2    5.30    2.60
   6  -3  -2  178.48    7.00
  -6   3   2  172.18    8.20
  -6   3   2  180.58    7.50
  -6   3   2  160.78    6.80
  -6   3   2  184.58    7.70
  -6   3   2  165.88    6.90
   5  -3  -2   19.60    2.80
  -5   3   2   16.90    3.10
  -5   3   2   32.00    3.60
  -5   3   2   17.20    2.70
  -5   3   2   23.30    3.40
  -5   3   2   18.50    2.60
   4  -3  -2   29.80    2.90
  -4   3   2   25.10    2.90
  -4   3   2   21.90    2.30
  -4   3   2   24.30    3.50
  -4   3   2   25.80    2.40
  -4   3   2   24.30    2.80
  -4   3   2   32.30    3.10
  -3   3   2   16.10    2.30
  -3   3   2   13.80    2.10
  -3   3   2   14.80    1.70
  -3   3   2   10.80    2.40
  -3   3   2   14.00    1.80
   2  -3  -2    3.80    1.50
   2  -3  -2    3.10    1.40
  -2   3   2    3.40    1.60
  -2   3   2    2.00    1.30
  -2   3   2    2.70    1.80
   1  -3  -2  133.79    5.20
  -1   3   2  148.59    5.20
   0  -3  -2 2551.44   53.59
   0  -3  -2 2493.65   51.69
   0  -3  -2 2593.84   53.79
   0   3   2 2493.15   53.59
  -1  -3  -2   66.19    4.90
  -1  -3  -2   76.89    5.00
   1   3   2   67.89    4.70
  -2  -3  -2  357.16   11.50
  -2  -3  -2  343.47   11.20
   2   3   2  336.37   11.00
  -3  -3  -2   12.40    3.70
  -3  -3  -2   14.60    4.70
   3   3   2    8.00    3.60
  -4  -3  -2   59.39    4.70
  -4  -3  -2   56.39    6.00
  -4  -3  -2   60.09    6.70
   4   3   2   58.89    6.10
  -5  -3  -2   93.89    8.10
  -5  -3  -2   85.09    7.70
  -5  -3  -2   93.19    6.00
   5   3   2  101.49    7.60
  -6  -3  -2    6.20    5.10
  -6  -3  -2   10.30    3.20
   6   3   2    2.40    3.90
  -7  -3  -2    5.30    5.00
  -7  -3  -2   -1.10    3.00
  -8  -3  -2   18.60    6.20
  -8  -3  -2   19.20    4.60
   8   3   2   11.30    5.30
 -10   4   2  183.78    9.60
 -10   4   2  184.68    9.60
  -9   4   2    6.50    3.00
  -9   4   2    7.10    3.80
  -9   4   2   15.30    3.70
  -8   4   2  131.69    6.90
  -8   4   2  122.89    8.50
  -8   4   2  112.59    7.20
  -8   4   2  124.39    7.90
  -8   4   2  116.59    7.50
  -7   4   2  474.25   15.30
  -7   4   2  468.85   14.50
  -7   4   2  461.65   13.10
  -7   4   2  471.35   14.40
  -7   4   2  461.15   13.50
   6  -4  -2   10.80    2.60
  -6   4   2    7.70    3.20
  -6   4   2    7.00    2.40
  -6   4   2    9.20    3.10
  -6   4   2    6.10    2.70
  -6   4   2    9.10    2.60
   5  -4  -2   -0.10    2.10
  -5   4   2    1.60    1.90
  -5   4   2    1.00    2.30
  -5   4   2   -2.00    2.40
  -5   4   2    2.30    2.30
  -5   4   2    2.40    2.60
  -5   4   2    2.30    1.90
  -4   4   2  211.38    6.10
  -4   4   2  209.58    7.60
  -4   4   2  215.88    6.80
  -4   4   2  215.28    7.40
  -4   4   2  217.48    7.20
  -4   4   2  199.48    8.20
   3  -4  -2  173.88    5.00
   3  -4  -2  169.98    5.00
  -3   4   2  182.88    7.30
  -3   4   2  178.68    6.00
  -3   4   2  181.38    5.80
  -3   4   2  177.18    6.30
   2  -4  -2  135.89    5.10
  -2   4   2  127.79    6.00
  -2   4   2  166.68    5.40
  -2   4   2  149.39    5.40
  -2   4   2  137.29    4.90
   1  -4  -2  401.36   10.90
   1  -4  -2  387.56   10.80
  -1   4   2  408.06   10.80
  -1   4   2  396.96   11.30
  -1   4   2  395.66   10.00
   0  -4  -2  766.72   19.10
   0  -4  -2  787.12   18.90
   0   4   2  760.52   19.10
  -1  -4  -2 1354.66   31.50
  -1  -4  -2 1400.66   31.40
   1   4   2 1292.97   31.40
  -2  -4  -2    1.80    3.40
   2   4   2    4.70    3.30
  -3  -4  -2  259.27   10.90
  -3  -4  -2  255.77   11.50
   3   4   2  257.67   10.60
  -4  -4  -2   -0.20    2.70
  -4  -4  -2    5.50    4.30
  -4  -4  -2    0.10    4.70
   4   4   2    6.60    4.00
  -5  -4  -2  277.57   12.10
  -5  -4  -2  254.07    9.60
  -5  -4  -2  244.48   11.80
   5   4   2  242.98   11.70
  -6  -4  -2    1.70    4.50
  -6  -4  -2    6.80    3.30
   6   4   2   12.70    4.60
  -7  -4  -2   24.00    6.60
  -7  -4  -2   25.90    4.60
   7   4   2   18.10    5.80
 -10   5   2   35.50    5.00
 -10   5   2   33.40    6.00
 -10   5   2   33.10    5.30
  -9   5   2   35.60    5.70
  -9   5   2   25.30    4.30
  -9   5   2   31.90    4.90
  -8   5   2    5.40    3.20
  -8   5   2    3.80    2.90
  -8   5   2    7.80    3.30
  -7   5   2   49.40    5.00
  -7   5   2   46.30    4.20
  -7   5   2   43.50    5.00
  -7   5   2   50.09    5.00
   6  -5  -2   18.90    3.10
  -6   5   2   18.50    2.60
  -6   5   2   17.20    2.90
  -6   5   2   11.90    3.80
  -6   5   2   18.40    3.50
  -6   5   2   17.70    3.70
  -6   5   2   19.10    3.60
   5  -5  -2    0.60    2.40
  -5   5   2    3.80    2.40
  -5   5   2    1.40    1.80
  -5   5   2    4.00    2.20
  -5   5   2    3.00    2.90
  -5   5   2    3.30    2.40
  -5   5   2    1.20    3.00
   4  -5  -2   24.50    2.00
   4  -5  -2   24.60    1.90
  -4   5   2   30.20    3.60
  -4   5   2   28.10    4.20
  -4   5   2   27.60    2.90
  -4   5   2   30.00    3.40
  -4   5   2   29.90    2.90
   3  -5  -2 2577.84   58.49
   3  -5  -2 2848.92   57.69
  -3   5   2 2787.22   60.19
  -3   5   2 2788.52   58.69
  -3   5   2 2758.12   58.89
  -3   5   2 2826.92   57.49
   2  -5  -2  265.77    8.70
  -2   5   2  273.07    8.40
  -2   5   2  313.97    8.70
  -2   5   2  274.97    8.50
  -2   5   2  308.07    9.80
   1  -5  -2 1699.23   38.00
   1  -5  -2 1670.13   38.60
  -1   5   2 1738.43   38.40
  -1   5   2 1770.72   39.40
  -1   5   2 1814.92   37.30
   0  -5  -2  833.62   21.30
   0  -5  -2  849.52   20.90
   0   5   2  839.72   21.20
  -1  -5  -2   99.19    7.30
  -1  -5  -2   90.49    6.70
   1   5   2   81.89    6.30
  -2  -5  -2  155.48    9.20
  -2  -5  -2  132.19    8.60
   2   5   2  142.89    8.40
  -3  -5  -2   11.00    4.50
  -3  -5  -2   14.80    5.00
   3   5   2   10.40    4.10
  -4  -5  -2   28.70    6.40
  -4  -5  -2   23.10    4.00
  -4  -5  -2   18.90    5.00
   4   5   2   31.50    5.50
  -5  -5  -2  332.97   14.60
  -5  -5  -2  332.57   14.00
  -5  -5  -2  326.47   11.60
   5   5   2  326.67   14.10
  -6  -5  -2   55.89    7.50
  -6  -5  -2   72.19    6.10
   6   5   2   71.69    8.60
  -7  -5  -2   -1.40    3.60
  -7  -5  -2    2.30    5.70
   7   5   2   -9.00    4.30
 -10   6   2   66.49    6.30
 -10   6   2   63.19    6.80
  -9   6   2   -3.80    3.10
  -9   6   2    5.50    3.20
  -9   6   2    4.90    3.60
  -8   6   2   28.10    4.50
  -8   6   2   30.00    4.20
  -8   6   2   32.90    5.10
  -7   6   2  237.58   11.20
  -7   6   2  223.48    9.90
  -7   6   2  235.68    9.90
  -7   6   2  239.38    9.80
  -7   6   2  238.68    9.10
   6  -6  -2  214.38    9.40
  -6   6   2  191.08    8.70
  -6   6   2  194.88    7.80
  -6   6   2  185.28    8.30
  -6   6   2  195.48    9.60
  -6   6   2  201.78    8.30
  -5   6   2   28.00    4.80
  -5   6   2   25.20    3.20
  -5   6   2   30.90    3.30
  -5   6   2   29.00    3.70
  -5   6   2   30.30    4.20
   4  -6  -2  159.18    5.40
  -4   6   2  156.58    5.70
  -4   6   2  153.38    6.60
  -4   6   2  157.58    7.30
  -4   6   2  174.58    8.30
   3  -6  -2   97.89    5.10
  -3   6   2   95.39    3.60
  -3   6   2   98.49    4.60
  -3   6   2   98.69    5.20
  -3   6   2   96.89    5.50
  -3   6   2   90.09    6.40
   2  -6  -2 1064.29   25.20
   2  -6  -2 1072.19   24.60
  -2   6   2 1073.29   24.60
  -2   6   2 1079.49   25.00
  -2   6   2 1052.89   26.50
   1  -6  -2   32.90    4.40
   1  -6  -2   32.90    4.40
  -1   6   2   40.80    4.30
  -1   6   2   50.39    5.40
  -1   6   2   56.59    3.70
   0  -6  -2   16.50    4.50
   0  -6  -2   13.50    4.20
   0   6   2   16.90    4.00
  -1  -6  -2    4.50    4.10
  -1  -6  -2    3.80    4.30
   1   6   2    6.90    3.90
  -2  -6  -2  272.07   11.80
  -2  -6  -2  278.27   12.10
   2   6   2  276.77   11.60
  -3  -6  -2  110.29    9.20
  -3  -6  -2   99.89    8.60
   3   6   2   96.29    8.10
  -4  -6  -2   11.10    5.00
  -4  -6  -2   10.20    3.70
  -4  -6  -2    8.30    5.00
  -5  -6  -2   77.69    8.70
  -5  -6  -2   60.89    5.90
  -5  -6  -2   64.79    8.10
   5   6   2   85.99    9.30
  -6  -6  -2  142.09    8.70
  -6  -6  -2  133.59   11.30
   6   6   2  148.99   11.20
  -9   7   2   22.20    4.40
  -9   7   2   28.80    5.10
  -9   7   2   28.60    5.10
  -8   7   2   65.69    5.70
  -8   7   2   57.59    6.10
  -8   7   2   68.99    6.50
  -7   7   2   14.10    3.20
  -7   7   2   14.20    3.90
  -7   7   2   13.90    3.70
  -7   7   2   13.00    4.50
  -6   7   2  310.17   10.20
  -6   7   2  310.57   10.50
  -6   7   2  302.07   11.40
  -6   7   2  307.17   12.60
  -6   7   2  297.97   10.80
   5  -7  -2  494.55   11.80
  -5   7   2  501.35   14.20
  -5   7   2  494.85   15.10
  -5   7   2  520.45   16.80
  -5   7   2  520.05   14.80
   4  -7  -2  407.16   10.90
  -4   7   2  367.86   13.40
  -4   7   2  400.66   12.50
  -4   7   2  389.36   12.00
   3  -7  -2   11.90    3.20
   3  -7  -2   11.20    3.40
  -3   7   2   12.50    3.00
  -3   7   2   15.70    2.80
   2  -7  -2  404.86   12.70
   2  -7  -2  404.66   12.20
  -2   7   2  411.66   12.10
  -2   7   2  404.16   12.40
  -2   7   2  404.76   11.60
  -2   7   2  405.06   13.80
   1  -7  -2    9.30    4.30
   1  -7  -2   11.40    4.00
  -1   7   2   14.70    2.60
  -1   7   2   15.30    4.30
   0  -7  -2   -6.00    4.20
   0  -7  -2    0.80    3.80
  -1  -7  -2    2.80    4.70
  -1  -7  -2   -1.30    4.10
   1   7   2    2.30    3.80
  -2  -7  -2  525.85   17.70
  -2  -7  -2  545.85   17.50
  -3  -7  -2  417.26   16.30
  -3  -7  -2  451.45   16.90
  -4  -7  -2   -0.40    4.50
  -4  -7  -2    2.20    5.10
  -4  -7  -2    8.10    3.90
   4   7   2    6.20    4.90
  -5  -7  -2   11.00    5.90
  -5  -7  -2    3.70    5.90
  -5  -7  -2    5.80    4.10
   5   7   2    5.60    4.90
  -9   8   2   88.39    7.60
  -9   8   2   86.89    8.00
  -9   8   2   91.99    7.10
  -8   8   2    5.10    3.50
  -8   8   2    1.10    3.20
  -8   8   2    0.80    3.80
  -8   8   2   -0.90    2.80
  -7   8   2    2.20    3.70
  -7   8   2   -2.30    2.80
  -7   8   2    8.50    3.40
  -7   8   2    9.00    4.20
  -6   8   2    0.80    3.30
  -6   8   2    1.30    3.80
  -6   8   2    1.60    2.70
   5  -8  -2  126.59    5.10
  -5   8   2  135.19    7.00
  -5   8   2  127.09    8.60
  -5   8   2  128.09    7.40
   4  -8  -2   29.50    3.80
  -4   8   2   22.80    3.60
  -4   8   2   37.30    5.60
  -4   8   2   22.20    3.70
   3  -8  -2   11.90    3.60
  -3   8   2   19.60    4.80
  -3   8   2   14.30    3.20
  -3   8   2   16.50    3.40
   2  -8  -2  136.89    7.80
   2  -8  -2  133.29    8.00
  -2   8   2  144.69    7.40
  -2   8   2  157.08    8.90
  -2   8   2  150.48    6.60
  -2   8   2  160.08    7.30
   1  -8  -2   17.80    4.70
   1  -8  -2   21.50    4.80
  -1   8   2   22.40    5.20
  -1   8   2   23.00    4.50
  -1   8   2   18.70    2.70
   0  -8  -2   89.09    7.50
   0  -8  -2   82.19    7.70
   0   8   2   84.39    7.50
  -1  -8  -2   73.49    7.20
  -1  -8  -2   90.29    8.40
   1   8   2  100.99    8.30
  -2  -8  -2   14.80    5.70
  -2  -8  -2   21.20    5.90
   2   8   2   18.50    5.40
  -3  -8  -2  185.28   11.00
  -3  -8  -2  211.38   12.30
   3   8   2  195.58   11.80
  -4  -8  -2   67.19    8.60
  -4  -8  -2   62.89    8.30
  -4  -8  -2   60.49    6.40
   4   8   2   73.49    8.50
  -9   9   2  125.49    8.20
  -9   9   2  114.39    8.90
  -9   9   2  108.99    8.50
  -8   9   2   -2.30    3.20
  -8   9   2    0.90    3.10
  -8   9   2    4.80    4.40
  -8   9   2    2.80    3.50
  -7   9   2   17.80    4.10
  -7   9   2   18.80    4.40
  -7   9   2   10.00    4.50
  -6   9   2    8.60    3.80
  -6   9   2    6.60    4.10
  -6   9   2    4.40    2.90
   5  -9  -2  235.88    8.20
  -5   9   2  236.28   10.10
  -5   9   2  243.78   11.90
  -5   9   2  243.78    9.90
   4  -9  -2   95.69    6.20
  -4   9   2   90.29    8.00
  -4   9   2   94.89    6.30
  -4   9   2   92.59    6.40
   3  -9  -2  362.16   12.60
  -3   9   2  379.06   14.70
  -3   9   2  371.16   11.80
  -3   9   2  371.96   12.30
   2  -9  -2  135.19    8.80
  -2   9   2  148.59    7.60
  -2   9   2  151.78    9.20
   1  -9  -2  104.09    8.30
   1  -9  -2  113.19    7.90
  -1   9   2  112.29    8.80
  -1   9   2  112.99    7.70
   0  -9  -2  435.16   14.90
   0  -9  -2  425.66   16.00
   0   9   2  417.06   15.40
  -1  -9  -2   19.70    5.60
  -1  -9  -2   13.50    5.30
   1   9   2    5.30    4.20
  -2  -9  -2   82.39    9.20
  -2  -9  -2   85.09    8.60
   2   9   2   75.19    8.60
  -3  -9  -2   12.80    6.10
  -3  -9  -2   30.20    7.30
   3   9   2   18.50    6.10
  -4  -9  -2   85.19    7.50
   4   9   2   97.59   10.50
  -8  10   2    6.10    4.50
  -8  10   2    0.90    3.40
  -8  10   2    2.50    4.10
  -7  10   2   31.70    6.60
  -7  10   2   23.50    4.90
  -7  10   2   24.30    4.50
  -6  10   2  236.18   12.40
  -6  10   2  224.18   10.60
  -6  10   2  231.18   10.20
   5 -10  -2   61.59    5.20
  -5  10   2   66.39    8.00
  -5  10   2   49.70    5.40
  -5  10   2   61.89    5.90
   4 -10  -2   95.69    6.90
  -4  10   2   89.79    6.40
  -4  10   2   95.89    8.80
  -4  10   2  103.39    7.00
   3 -10  -2   13.70    4.30
  -3  10   2   13.80    3.30
   2 -10  -2   42.90    6.20
  -2  10   2   43.20    6.80
  -2  10   2   43.40    5.10
   1 -10  -2  131.79   10.00
  -1  10   2  136.19   10.30
  -1  10   2  132.89    8.80
   0 -10  -2   -0.30    4.50
   0 -10  -2    9.50    5.00
   0  10   2   -1.30    3.50
   0  10   2   -0.30    4.50
  -1 -10  -2    9.00    5.40
  -1 -10  -2    9.10    5.60
   1  10   2   15.00    5.10
  -2 -10  -2  137.29   11.40
  -2 -10  -2  130.49   10.90
   2  10   2  157.68   11.00
  -7  11   2   52.49    6.30
  -7  11   2   44.70    6.40
  -7  11   2   51.29    7.80
  -6  11   2  201.28   12.20
  -6  11   2  175.18    9.70
  -6  11   2  184.28    9.70
   5 -11  -2  308.47   11.10
  -5  11   2  285.47   14.30
  -5  11   2  304.17   12.10
  -5  11   2  315.07   12.30
   4 -11  -2    6.40    3.80
  -4  11   2    5.00    3.20
  -4  11   2   10.60    5.30
  -4  11   2    6.70    3.40
   3 -11  -2  111.09    8.20
  -3  11   2  122.59    7.60
  -3  11   2  120.99    9.80
  -3  11   2  107.39    7.10
   2 -11  -2   23.80    5.50
  -2  11   2   20.10    4.10
  -2  11   2   22.00    5.90
   1 -11  -2   12.90    5.30
  -1  11   2    7.00    3.90
  -1  11   2   13.30    5.30
   0 -11  -2   -4.10    4.90
   0  11   2    1.10    3.80
   0  11   2   -4.20    4.70
  -1 -11  -2   71.69    9.00
   1  11   2   66.19    7.80
  -6  12   2   21.30    4.80
  -6  12   2   44.50    7.80
  -6  12   2   19.80    4.80
   5 -12  -2    3.50    3.40
  -5  12   2    1.90    3.20
  -5  12   2    1.90    4.50
  -5  12   2    1.90    3.40
   4 -12  -2   24.80    5.20
  -4  12   2   28.10    5.10
  -4  12   2   30.80    7.10
  -4  12   2   29.30    4.60
   3 -12  -2    6.40    4.70
  -3  12   2   15.30    5.70
  -3  12   2    7.30    3.90
   2 -12  -2   23.00    6.00
  -2  12   2   25.00    4.60
  -2  12   2   25.70    6.30
   1 -12  -2  154.58   11.40
  -1  12   2  145.69    9.40
  -1  12   2  141.19   11.80
  -4  13  -3   57.09    9.10
   0  12  -3   15.20    6.90
   0  12  -3   28.00    5.80
   0 -12   3   23.20    6.60
  -1  12  -3    6.60    5.90
   1 -12   3   13.30    5.60
  -2  12  -3  145.79   11.90
   2 -12   3  144.99   10.10
  -3  12  -3    2.60    4.60
   3 -12   3    4.20    4.20
  -4  12  -3  273.77   15.00
  -4  12  -3  281.07   11.70
   4 -12   3  271.07   11.80
  -5  12  -3  147.49   11.40
  -5  12  -3  140.39    9.00
   5 -12   3  139.39    8.50
  -6  12  -3   29.20    5.70
  -6  12  -3   31.60    7.10
   6 -12   3   35.90    4.90
   2  11  -3   16.50    5.70
   1  11  -3   32.60    6.20
  -1 -11   3   14.00    6.10
   0  11  -3   34.30    6.00
   0 -11   3   32.90    6.50
  -1  11  -3  200.48   12.90
  -1  11  -3  203.58   11.00
   1 -11   3  189.78   11.20
  -2  11  -3   22.00    5.80
   2 -11   3   16.60    4.70
  -3  11  -3   90.99    8.90
  -3  11  -3   54.09    5.50
   3 -11   3   60.39    6.60
  -4  11  -3   -1.00    4.10
  -4  11  -3    4.10    3.60
   4 -11   3   -1.30    3.00
  -5  11  -3   50.49    6.10
  -5  11  -3   54.29    7.90
   5 -11   3   47.40    5.40
  -6  11  -3   10.90    5.00
  -6  11  -3    7.80    4.40
   6 -11   3   10.50    3.40
  -7  11  -3    8.60    4.90
  -7  11  -3    7.20    5.00
  -8  11  -3    2.10    4.60
   3  10  -3   85.79    9.50
  -3 -10   3  106.79   10.40
  -3 -10   3   86.99    8.40
   2  10  -3   15.90    5.40
  -2 -10   3   13.40    5.30
  -2 -10   3   13.40    4.80
   1  10  -3  196.78   11.20
  -1 -10   3  173.88    9.30
  -1 -10   3  180.58   11.30
   0  10  -3  488.95   17.60
   0 -10   3  505.65   17.80
  -1  10  -3  596.14   19.00
  -1  10  -3  576.94   21.00
   1 -10   3  611.64   19.60
  -2  10  -3  589.04   20.90
  -2  10  -3  631.04   18.80
  -2  10  -3  598.84   16.70
   2 -10   3  604.94   19.00
  -3  10  -3    6.20    3.50
  -3  10  -3    3.10    4.10
  -3  10  -3    6.40    2.60
   3 -10   3    5.30    3.50
  -4  10  -3   83.49    8.20
  -4  10  -3   79.59    5.20
  -4  10  -3   74.39    6.50
   4 -10   3   86.09    6.50
  -5  10  -3   90.69    7.50
  -5  10  -3   92.89    5.70
  -5  10  -3   92.29    8.60
   5 -10   3   96.99    6.20
  -6  10  -3   16.40    4.60
  -6  10  -3   15.90    5.10
  -6  10  -3   13.20    3.30
   6 -10   3   17.40    3.30
  -7  10  -3   10.90    4.80
  -7  10  -3    3.50    3.80
  -7  10  -3    2.40    4.20
  -7  10  -3   -0.70    2.70
  -8  10  -3  186.28    9.90
  -8  10  -3  180.38    9.10
  -8  10  -3  167.88   11.40
  -8  10  -3  162.78   10.70
   4   9  -3  108.49    9.90
  -4  -9   3  121.29    9.90
  -4  -9   3  141.49   11.00
   3   9  -3    1.50    3.80
  -3  -9   3    2.80    4.40
  -3  -9   3    3.30    4.90
   2   9  -3  248.28   12.70
  -2  -9   3  256.57   12.90
  -2  -9   3  256.27   11.20
  -1  -9   3   96.29    7.20
  -1  -9   3  114.79    8.60
   0   9  -3   -1.40    3.00
   0  -9   3   -0.70    3.90
   0  -9   3    4.40    3.10
  -1   9  -3  172.38   10.40
  -1   9  -3  166.68    6.70
  -1   9  -3  141.09    8.40
   1  -9   3  144.49    9.00
  -2   9  -3   95.79    6.70
  -2   9  -3   76.79    7.90
  -2   9  -3   77.99    5.90
  -2   9  -3   74.99    4.70
   2  -9   3   74.59    6.90
  -3   9  -3    2.20    3.60
  -3   9  -3    1.70    2.00
  -3   9  -3   -1.80    3.10
  -3   9  -3   -0.50    2.70
   3  -9   3    0.10    3.10
  -4   9  -3   64.79    6.20
  -4   9  -3   62.39    4.50
  -4   9  -3   67.49    7.10
   4  -9   3   65.39    5.60
  -5   9  -3    7.10    3.90
  -5   9  -3   -1.10    2.00
  -5   9  -3    3.10    3.40
   5  -9   3    3.90    2.60
  -6   9  -3  112.99    8.30
  -6   9  -3  115.19    8.80
  -6   9  -3  105.99    7.10
  -6   9  -3  105.99    6.20
   6  -9   3  103.49    5.80
  -7   9  -3  112.59    7.40
  -7   9  -3  118.59    8.80
  -7   9  -3  111.39    6.80
  -7   9  -3  112.09    9.20
  -8   9  -3   73.89    7.50
  -8   9  -3   87.19    6.70
  -8   9  -3   90.19    8.90
  -8   9  -3   87.49    6.70
  -9   9  -3  120.09    8.60
  -9   9  -3  123.89    8.50
  -9   9  -3  108.19    9.30
   5   8  -3    3.00    4.40
  -5  -8   3   13.10    5.60
   4   8  -3  107.99    9.10
  -4  -8   3  102.99    8.80
  -4  -8   3  110.39    9.40
   3   8  -3  379.56   15.40
  -3  -8   3  372.16   15.20
  -3  -8   3  358.46   14.00
  -2  -8   3    8.70    2.80
   1   8  -3  573.74   18.50
  -1  -8   3  568.94   18.40
  -1  -8   3  579.04   16.60
   0   8  -3   79.49    7.00
   0  -8   3   82.39    7.40
   0  -8   3   63.49    5.50
  -1   8  -3    1.70    2.00
  -1   8  -3   -0.80    2.90
  -1   8  -3    3.30    3.00
   1  -8   3   -1.80    2.50
   1  -8   3    2.60    3.40
  -2   8  -3  137.09    9.00
  -2   8  -3  133.19    6.80
  -2   8  -3  143.19    7.30
  -2   8  -3  134.89    7.30
  -2   8  -3  137.79    5.60
   2  -8   3  136.59    8.00
  -3   8  -3  123.79    6.60
  -3   8  -3  123.99    6.60
  -3   8  -3  115.89    7.90
  -3   8  -3  133.29    7.50
  -3   8  -3  126.79    5.50
   3  -8   3  124.69    6.90
  -4   8  -3   32.40    4.80
  -4   8  -3   38.20    6.00
  -4   8  -3   30.90    3.40
  -4   8  -3   39.30    4.50
   4  -8   3   30.10    4.00
  -5   8  -3  163.28    9.00
  -5   8  -3  177.88    7.90
  -5   8  -3  176.88    8.30
  -5   8  -3  173.98    9.50
  -5   8  -3  166.98    7.00
   5  -8   3  171.58    7.20
  -6   8  -3  296.37   10.20
  -6   8  -3  300.87   12.20
  -6   8  -3  295.77   10.60
  -6   8  -3  287.87   12.70
   6  -8   3  282.17    9.30
  -7   8  -3  668.43   20.80
  -7   8  -3  714.93   22.50
  -7   8  -3  735.23   19.70
  -7   8  -3  740.13   20.00
   7  -8   3  710.33   19.30
  -8   8  -3   25.50    5.70
  -8   8  -3   25.00    4.50
  -8   8  -3   25.20    4.40
  -8   8  -3   24.50    5.10
  -9   8  -3   -5.50    3.20
  -9   8  -3    1.00    3.70
  -9   8  -3   -1.60    4.00
   6   7  -3   17.10    5.50
  -6  -7   3   11.70    5.70
  -6  -7   3   21.40    4.20
   5   7  -3   21.30    5.40
  -5  -7   3   20.30    5.80
  -5  -7   3   16.00    3.60
   4   7  -3   17.70    5.00
  -4  -7   3   15.90    3.20
  -4  -7   3   13.70    4.90
  -4  -7   3   15.00    5.00
   3   7  -3    0.50    3.50
  -3  -7   3    3.40    2.50
  -3  -7   3    0.30    4.00
  -3  -7   3   -2.50    2.90
  -3  -7   3    1.00    3.90
   2   7  -3   27.00    5.10
  -2  -7   3   29.50    3.10
  -2  -7   3   26.00    4.50
  -2  -7   3   26.40    3.60
  -2  -7   3   22.40    4.90
   1   7  -3    1.00    3.50
  -1  -7   3   -0.60    3.20
  -1  -7   3    1.50    2.10
  -1  -7   3   -0.40    3.90
   0   7  -3   -0.40    3.40
   0  -7   3    4.30    3.00
   0  -7   3    4.20    3.90
   0  -7   3    6.50    1.90
  -1   7  -3  736.43   18.00
  -1   7  -3  711.63   19.40
  -1   7  -3  725.13   17.10
   1  -7   3  732.93   17.40
   1  -7   3  716.13   19.70
   1  -7   3  726.23   16.30
  -3   7  -3    0.50    3.20
  -3   7  -3    1.80    3.10
  -3   7  -3    1.90    1.70
  -3   7  -3    2.20    2.20
   3  -7   3   -1.70    2.40
  -4   7  -3   78.19    6.60
  -4   7  -3   77.29    5.90
  -4   7  -3   67.79    4.50
  -4   7  -3   68.99    4.30
  -4   7  -3   67.39    5.20
   4  -7   3   69.69    4.90
  -5   7  -3   13.40    4.00
  -5   7  -3   14.90    3.30
  -5   7  -3   20.50    4.50
  -5   7  -3   19.60    3.00
  -5   7  -3   17.10    4.60
   5  -7   3   10.30    2.60
  -6   7  -3  593.94   16.50
  -6   7  -3  594.24   18.00
  -6   7  -3  575.24   18.70
  -6   7  -3  580.74   16.10
   6  -7   3  605.34   15.20
  -7   7  -3   55.09    5.30
  -7   7  -3   48.90    6.60
  -7   7  -3   42.00    4.80
  -7   7  -3   33.50    5.30
   7  -7   3   43.90    3.80
  -8   7  -3   41.50    5.80
  -8   7  -3   37.40    4.90
  -8   7  -3   48.70    5.30
  -9   7  -3  128.29    9.10
  -9   7  -3  130.09    8.20
   6   6  -3  320.07   14.40
  -6  -6   3  297.97   11.10
  -6  -6   3  318.37   14.40
   5   6  -3    5.10    4.00
  -5  -6   3    6.30    4.10
  -5  -6   3    1.20    4.40
  -5  -6   3    2.40    2.70
   4   6  -3   51.49    6.40
  -4  -6   3   48.10    4.30
  -4  -6   3   60.79    6.60
  -4  -6   3   51.69    5.50
  -4  -6   3   58.29    6.40
   3   6  -3    0.50    3.70
  -3  -6   3   -0.40    2.20
  -3  -6   3    5.70    3.90
  -3  -6   3    3.20    3.80
  -3  -6   3    2.10    2.80
   2   6  -3    3.10    3.50
  -2  -6   3    1.10    2.10
  -2  -6   3    1.90    3.50
  -2  -6   3    1.30    2.40
  -1  -6   3  117.09    6.50
  -1  -6   3  115.59    5.30
  -1  -6   3  129.39    7.90
   0   6  -3   36.80    4.20
   0  -6   3   34.20    4.40
   0  -6   3   45.70    3.90
   0  -6   3   34.80    3.10
  -1   6  -3  742.03   19.10
  -1   6  -3  769.02   16.90
   1  -6   3  737.23   17.20
   1  -6   3  709.83   19.10
  -2   6  -3  377.86    9.70
  -2   6  -3  382.86   11.30
  -2   6  -3  395.06   11.40
  -2   6  -3  379.16   12.50
   2  -6   3  392.16    9.20
   2  -6   3  401.66   11.80
  -3   6  -3  417.36   12.50
  -3   6  -3  432.16   13.80
  -3   6  -3  430.16   11.00
  -3   6  -3  437.96   11.90
  -3   6  -3  440.46   12.00
   3  -6   3  425.36   12.20
  -4   6  -3   75.79    4.30
  -4   6  -3   70.29    4.90
  -4   6  -3   70.39    5.90
  -4   6  -3   79.99    6.10
  -4   6  -3   77.19    4.20
   4  -6   3   80.79    4.80
  -5   6  -3  164.98    8.60
  -5   6  -3  168.48    9.00
  -5   6  -3  168.98    7.20
  -5   6  -3  177.18    6.90
   5  -6   3  186.08    6.80
  -6   6  -3  211.78    8.60
  -6   6  -3  227.18    8.60
  -6   6  -3  220.88   10.10
  -6   6  -3  217.58   10.00
   6  -6   3  220.08    7.60
  -7   6  -3    9.00    3.20
  -7   6  -3   11.40    4.10
  -7   6  -3   13.80    3.40
  -7   6  -3    6.80    3.70
   7  -6   3    9.40    2.60
  -8   6  -3   -3.00    3.30
  -8   6  -3    1.80    3.20
  -9   6  -3   41.50    5.80
  -9   6  -3   36.70    4.90
   7   5  -3   17.10    5.20
  -7  -5   3   17.50    4.00
  -7  -5   3   19.40    5.90
   6   5  -3   11.60    4.30
  -6  -5   3    7.00    4.60
  -6  -5   3   11.80    3.30
   5   5  -3   21.10    4.80
  -5  -5   3   21.90    4.60
  -5  -5   3   14.00    3.20
  -5  -5   3   20.40    4.80
  -5  -5   3   16.70    5.00
   4   5  -3   41.10    5.60
  -4  -5   3   42.60    3.80
  -4  -5   3   40.30    5.30
  -4  -5   3   43.60    5.60
  -4  -5   3   40.40    4.70
   3   5  -3    1.50    3.30
  -3  -5   3    3.20    2.80
  -3  -5   3    1.90    3.60
  -3  -5   3    7.40    2.30
  -3  -5   3    3.70    3.80
   2   5  -3 1267.47   31.00
  -2  -5   3 1274.67   27.60
  -2  -5   3 1281.57   30.00
  -2  -5   3 1292.67   29.10
  -2  -5   3 1235.18   30.70
   1   5  -3 1470.85   34.60
  -1  -5   3 1506.95   32.50
  -1  -5   3 1492.45   34.60
  -1  -5   3 1478.15   33.40
  -1  -5   3 1499.85   31.50
   0   5  -3   52.09    4.20
   0  -5   3   39.70    4.00
   0  -5   3   49.00    3.90
  -1   5  -3  857.31   17.70
  -1   5  -3  760.82   19.60
  -2   5  -3   67.09    2.90
  -2   5  -3   70.99    4.00
  -2   5  -3   76.49    4.90
  -2   5  -3   65.49    4.70
   2  -5   3   68.99    2.70
   2  -5   3   61.39    4.10
  -3   5  -3  207.28    6.10
  -3   5  -3  208.08    6.80
  -3   5  -3  211.98    8.00
  -3   5  -3  202.48    6.70
  -3   5  -3  207.58    5.10
  -3   5  -3  202.38    8.10
   3  -5   3  203.98    7.10
  -4   5  -3   47.80    3.40
  -4   5  -3   47.50    3.70
  -4   5  -3   43.70    2.40
  -4   5  -3   48.00    3.40
  -4   5  -3   57.39    5.30
  -4   5  -3   56.59    5.30
   4  -5   3   45.80    3.80
  -5   5  -3  432.86   14.10
  -5   5  -3  436.66   12.30
  -5   5  -3  430.56   12.20
  -5   5  -3  435.46   13.90
  -5   5  -3  432.26   10.60
   5  -5   3  459.85   11.90
  -6   5  -3  808.02   20.10
  -6   5  -3  778.62   21.90
  -6   5  -3  773.62   19.90
   6  -5   3  784.32   19.10
  -7   5  -3  174.48    7.90
  -7   5  -3  156.88    6.90
  -7   5  -3  173.68    9.00
   7  -5   3  153.68    6.60
  -8   5  -3    1.90    3.60
  -8   5  -3    0.20    3.00
  -8   5  -3   -1.40    2.40
  -9   5  -3    1.80    2.80
  -9   5  -3    1.70    3.20
  -9   5  -3    6.70    3.90
   7   4  -3   13.80    4.30
  -7  -4   3    8.10    4.80
  -7  -4   3   20.30    3.90
   6   4  -3  296.37   12.40
  -6  -4   3  290.47   12.50
  -6  -4   3  293.77   12.80
  -6  -4   3  298.77   10.20
   5   4  -3   61.39    6.30
  -5  -4   3   43.80    5.50
  -5  -4   3   53.59    5.80
  -5  -4   3   55.59    4.40
  -5  -4   3   44.80    5.40
   4   4  -3  108.69    7.20
  -4  -4   3   97.49    7.30
  -4  -4   3   97.69    7.20
  -4  -4   3   95.19    5.30
  -4  -4   3   96.99    6.50
   3   4  -3   15.50    3.70
  -3  -4   3   18.00    4.00
  -3  -4   3   19.50    3.40
  -3  -4   3   17.30    2.50
  -3  -4   3   22.30    4.20
   2   4  -3  100.29    6.10
   2   4  -3   79.89    7.30
  -2  -4   3  128.69    6.60
  -2  -4   3  112.59    6.10
  -2  -4   3  113.49    5.20
   1   4  -3 3907.71   83.79
   1   4  -3 3928.21   82.39
  -1  -4   3 3931.01   82.19
  -1  -4   3 3783.52   81.29
  -1  -4   3 3978.50   79.59
   0   4  -3  179.08    8.20
   0   4  -3  175.58    6.50
   0  -4   3  175.18    6.80
   0  -4   3  177.88    5.90
  -1   4  -3   54.59    4.10
  -1   4  -3   42.00    3.40
  -2   4  -3    1.50    1.00
  -2   4  -3    2.10    1.50
  -2   4  -3    1.90    1.40
   2  -4   3    0.30    1.60
  -3   4  -3  449.26   12.70
  -3   4  -3  456.95   10.50
  -3   4  -3  432.46   12.70
  -3   4  -3  457.55   11.40
  -3   4  -3  451.95   11.40
  -3   4  -3  441.06   10.90
   3  -4   3  461.45   11.70
  -4   4  -3  111.69    4.40
  -4   4  -3  108.99    4.50
  -4   4  -3   99.79    6.20
  -4   4  -3  107.99    5.80
  -4   4  -3  107.99    4.60
  -4   4  -3  101.89    4.90
  -4   4  -3  109.79    4.30
   4  -4   3  115.79    5.00
  -5   4  -3  244.08    8.40
  -5   4  -3  267.07    8.50
  -5   4  -3  259.07   10.60
  -5   4  -3  255.27    7.80
  -5   4  -3  241.78    9.60
  -5   4  -3  257.77    8.00
  -5   4  -3  257.57    7.90
   5  -4   3  267.37    8.30
  -6   4  -3    1.10    2.20
  -6   4  -3   -3.70    2.40
  -6   4  -3   -0.30    2.40
   6  -4   3    2.30    2.60
  -7   4  -3  383.96   12.50
  -7   4  -3  409.56   13.80
  -7   4  -3  382.36   14.50
  -7   4  -3  416.86   12.00
   7  -4   3  375.66   11.80
  -8   4  -3  107.29    7.00
  -8   4  -3  120.89    7.70
  -8   4  -3  121.99    6.70
   8  -4   3  103.09    6.00
  -9   4  -3   -2.90    3.20
  -9   4  -3    0.60    3.00
  -9   4  -3    6.50    3.20
   8   3  -3   29.70    5.10
  -8  -3   3   30.10    4.70
  -8  -3   3   34.80    6.60
   7   3  -3  131.79    8.30
  -7  -3   3  130.39    7.10
  -7  -3   3  134.49    9.30
  -7  -3   3  120.09    9.10
   6   3  -3   11.10    3.80
  -6  -3   3    6.40    3.80
  -6  -3   3    5.20    3.80
  -6  -3   3    5.90    2.90
   5   3  -3   12.50    3.70
  -5  -3   3   11.40    3.70
  -5  -3   3   11.40    4.20
  -5  -3   3    6.70    3.50
  -5  -3   3    6.60    2.50
   4   3  -3 1751.42   42.00
   4   3  -3 1744.03   39.90
  -4  -3   3 1727.63   37.50
  -4  -3   3 1704.93   39.90
  -4  -3   3 1720.73   39.50
  -4  -3   3 1706.63   39.40
   3   3  -3   26.40    5.40
   3   3  -3   24.50    3.60
  -3  -3   3   19.50    3.40
  -3  -3   3   25.90    2.60
  -3  -3   3   20.00    3.20
  -3  -3   3   22.30    3.50
   2   3  -3    6.20    3.30
   2   3  -3    4.30    2.20
  -2  -3   3    1.90    2.40
  -2  -3   3    3.00    2.30
  -2  -3   3    3.00    1.30
   1   3  -3  303.77   10.10
   1   3  -3  296.07    8.90
  -1  -3   3  310.07    7.10
  -1  -3   3  306.07    8.60
  -1  -3   3  296.57    9.10
   0   3  -3  128.69    6.20
   0   3  -3  128.19    5.00
   0  -3   3  125.09    4.40
   0  -3   3  122.49    5.20
  -1   3  -3    6.50    1.60
  -1   3  -3    9.40    2.50
   1  -3   3    9.00    1.50
   1  -3   3    5.60    1.70
  -2   3  -3  274.57    7.70
  -2   3  -3  258.37    7.80
  -2   3  -3  271.77    7.60
  -2   3  -3  279.47    7.10
  -2   3  -3  275.57    6.40
  -2   3  -3  265.77    6.60
   2  -3   3  270.37    7.80
  -3   3  -3  625.04   14.50
  -3   3  -3  612.14   14.70
  -3   3  -3  632.94   14.00
  -3   3  -3  606.54   15.60
  -3   3  -3  627.94   14.70
  -3   3  -3  620.24   14.40
  -3   3  -3  639.14   14.00
  -3   3  -3  618.44   16.20
   3  -3   3  629.04   15.00
  -4   3  -3 1573.54   33.90
  -4   3  -3 1540.45   35.50
  -4   3  -3 1551.64   33.90
  -4   3  -3 1542.15   35.10
  -4   3  -3 1549.05   33.80
  -4   3  -3 1523.15   33.90
  -4   3  -3 1562.24   33.30
   4  -3   3 1600.24   34.10
  -5   3  -3    1.00    1.90
  -5   3  -3    2.80    2.40
  -5   3  -3   -3.10    2.20
  -5   3  -3    1.80    2.70
  -5   3  -3   -1.70    4.00
   5  -3   3    2.40    2.50
  -6   3  -3  121.79    6.50
  -6   3  -3  125.99    6.60
  -6   3  -3  118.39    5.80
   6  -3   3  115.99    6.40
  -7   3  -3   60.79    5.90
  -7   3  -3   58.59    5.20
  -7   3  -3   63.89    4.90
  -7   3  -3   58.69    5.00
   7  -3   3   59.79    5.20
  -8   3  -3   -2.80    3.10
  -8   3  -3    3.80    2.80
  -8   3  -3   -0.50    3.00
  -8   3  -3   -2.90    2.90
   8  -3   3    1.20    2.60
  -9   3  -3   35.50    5.00
  -9   3  -3   16.90    4.00
  -9   3  -3   29.20    4.30
   8   2  -3  102.09    7.20
  -8  -2   3   97.19    6.80
  -8  -2   3  111.99    9.00
   7   2  -3   15.60    3.70
  -7  -2   3   14.90    3.40
  -7  -2   3   19.10    4.80
  -7  -2   3   10.00    4.20
   6   2  -3    7.00    3.00
  -6  -2   3   10.30    4.00
  -6  -2   3   11.30    4.10
  -6  -2   3    9.10    2.80
   5   2  -3  228.38    9.10
   5   2  -3  230.18   11.60
  -5  -2   3  228.48    8.90
  -5  -2   3  219.28    7.80
  -5  -2   3  226.08    9.80
  -5  -2   3  229.38    9.70
   4   2  -3  463.55   15.20
   4   2  -3  479.55   13.50
  -4  -2   3  451.15   13.50
  -4  -2   3  451.75   13.10
  -4  -2   3  466.25   12.00
  -4  -2   3  459.35   13.90
   3   2  -3  395.46   12.90
   3   2  -3  410.36   11.50
  -3  -2   3  410.56   10.10
  -3  -2   3  389.26   11.30
  -3  -2   3  402.86   11.70
  -3  -2   3  385.96   11.30
   2   2  -3 1041.00   24.90
   2   2  -3 1021.40   23.70
  -2  -2   3 1034.00   23.70
  -2  -2   3 1038.00   23.80
  -2  -2   3 1053.69   22.20
   1   2  -3   91.69    4.20
   1   2  -3   97.99    5.40
  -1  -2   3   94.39    4.40
  -1  -2   3   91.69    2.70
  -1  -2   3   84.49    4.00
   0   2  -3  101.19    4.00
   0   2  -3  111.99    5.10
   0  -2   3  102.89    4.20
   0  -2   3  101.69    3.80
  -1   2  -3   73.09    2.70
  -1   2  -3   75.29    3.80
  -1   2  -3   75.59    3.40
  -1   2  -3   74.29    2.70
   1  -2   3   71.29    3.70
  -2   2  -3  440.66   11.00
  -2   2  -3  443.86   10.00
  -2   2  -3  442.96   12.10
  -2   2  -3  459.75   10.50
  -2   2  -3  438.46   11.00
  -2   2  -3  451.45   10.50
   2  -2   3  445.16   11.20
  -3   2  -3  638.94   15.30
  -3   2  -3  630.44   15.40
  -3   2  -3  618.74   15.50
  -3   2  -3  627.84   16.40
  -3   2  -3  658.13   13.80
  -3   2  -3  641.74   14.50
   3  -2   3  656.63   15.40
  -4   2  -3  552.74   14.50
  -4   2  -3  579.64   13.60
  -4   2  -3  570.44   15.70
  -4   2  -3  553.04   14.20
   4  -2   3  553.34   14.40
  -5   2  -3  640.94   16.00
  -5   2  -3  655.73   17.10
  -5   2  -3  647.84   16.60
   5  -2   3  645.54   16.90
  -6   2  -3    1.40    3.20
  -6   2  -3    0.10    2.30
   6  -2   3   -1.20    2.80
  -7   2  -3   -2.00    2.40
  -7   2  -3   -5.90    3.00
  -7   2  -3   -4.60    2.90
   7  -2   3    2.70    2.90
  -8   2  -3   32.30    5.10
  -8   2  -3   33.00    4.80
  -8   2  -3   34.30    4.50
   8  -2   3   29.80    4.60
  -9   2  -3   77.09    6.60
  -9   2  -3   81.09    7.60
   9  -2   3   68.29    6.50
  -9  -1   3   49.70    5.60
  -9  -1   3   50.19    7.40
   8   1  -3    3.20    2.70
  -8  -1   3   -5.10    2.60
  -8  -1   3   -0.30    3.90
  -8  -1   3   -4.00    3.80
   7   1  -3   11.80    3.10
  -7  -1   3    9.80    4.00
  -7  -1   3   12.70    3.20
  -7  -1   3   12.00    4.00
   6   1  -3  131.99    9.20
   6   1  -3  130.09    6.60
  -6  -1   3  139.99    7.60
  -6  -1   3  136.09    6.40
  -6  -1   3  130.99    8.00
   5   1  -3   48.70    4.40
   5   1  -3   44.20    5.70
  -5  -1   3   44.70    5.10
  -5  -1   3   40.40    3.70
  -5  -1   3   46.50    4.30
  -5  -1   3   35.20    4.30
   4   1  -3   10.00    2.40
   4   1  -3   12.20    3.80
  -4  -1   3   13.00    2.70
  -4  -1   3    8.30    2.90
  -4  -1   3    9.70    2.90
  -4  -1   3   11.50    2.30
   3   1  -3   92.39    4.30
   3   1  -3   94.49    5.60
  -3  -1   3   89.09    3.70
  -3  -1   3   93.89    4.30
  -3  -1   3   89.19    3.90
  -3  -1   3   92.59    5.00
   2   1  -3 3236.88   65.99
   2   1  -3 3078.99   67.09
  -2  -1   3 3234.78   65.39
  -2  -1   3 3121.39   65.89
  -2  -1   3 3123.19   66.29
  -2  -1   3 3276.17   65.09
   1   1  -3  573.64   14.40
   1   1  -3  601.44   13.60
  -1  -1   3  581.64   13.70
  -1  -1   3  581.34   13.70
  -1  -1   3  588.54   12.70
   0   1  -3  661.13   15.00
   0   1  -3  676.13   13.60
   0   1  -3  658.53   15.50
   0  -1   3  659.23   13.60
   0  -1   3  650.93   14.80
   0  -1   3  658.93   15.10
  -1   1  -3  773.82   16.80
  -1   1  -3  796.72   17.50
  -1   1  -3  749.13   15.90
  -1   1  -3  697.33   16.70
   1  -1   3  721.43   16.90
  -2   1  -3   -0.10    1.40
  -2   1  -3    0.20    2.50
  -2   1  -3    3.30    1.20
  -2   1  -3   -0.30    1.50
   2  -1   3   -0.20    1.60
  -3   1  -3   12.60    2.30
  -3   1  -3   15.10    1.90
  -3   1  -3   21.70    3.50
  -3   1  -3   18.40    3.10
   3  -1   3   14.00    2.50
  -4   1  -3  144.09    6.30
  -4   1  -3  150.78    7.60
  -4   1  -3  152.58    7.00
  -4   1  -3  148.09    5.40
   4  -1   3  140.29    6.50
  -5   1  -3   -0.20    2.30
  -5   1  -3    2.90    3.50
  -5   1  -3   -1.50    2.80
   5  -1   3   -0.80    2.90
  -6   1  -3   37.00    5.00
  -6   1  -3   41.60    4.00
   6  -1   3   39.70    4.80
  -7   1  -3   96.49    7.10
  -7   1  -3   91.39    6.00
  -7   1  -3   81.59    6.20
   7  -1   3   82.99    6.70
  -8   1  -3   -0.80    3.50
  -8   1  -3    1.40    2.80
   8  -1   3    0.90    3.00
  -9   1  -3  154.78    9.80
  -9   1  -3  147.99    8.40
   9  -1   3  137.09    8.40
  -9   0   3   43.20    5.30
  -9   0   3   42.30    6.30
   8   0  -3   74.29    5.30
  -8   0   3   87.99    7.80
  -8   0   3   73.99    5.90
  -8   0   3   55.59    6.40
   7   0  -3   37.30    3.70
  -7   0   3   31.90    5.00
  -7   0   3   26.90    3.80
  -7   0   3   23.40    4.70
   6   0  -3   29.80    5.20
   6   0  -3   32.70    3.30
  -6   0   3   34.00    4.80
  -6   0   3   34.50    3.70
  -6   0   3   37.20    3.40
  -6   0   3   35.70    4.70
   5   0  -3 1094.39   24.40
   5   0  -3 1117.69   26.70
  -5   0   3 1041.30   26.40
  -5   0   3 1019.40   25.90
  -5   0   3 1076.09   24.60
  -5   0   3 1085.29   24.40
  -5   0   3 1055.99   25.40
   4   0  -3   35.60    4.00
   4   0  -3   32.40    2.80
  -4   0   3   32.50    3.80
  -4   0   3   37.20    2.90
  -4   0   3   34.80    3.30
  -4   0   3   32.90    3.60
  -4   0   3   30.80    2.70
  -4   0   3   35.40    2.90
   3   0  -3   88.09    4.90
   3   0  -3   85.39    3.50
  -3   0   3   87.49    3.80
  -3   0   3   85.49    3.60
  -3   0   3   90.49    4.50
  -3   0   3   85.69    3.60
   2   0  -3   84.69    3.30
   2   0  -3   89.39    4.60
  -2   0   3   82.69    3.40
  -2   0   3   89.29    4.00
  -2   0   3   85.99    3.30
   1   0  -3  511.55   11.70
   1   0  -3  510.75   12.60
  -1   0   3  518.95   11.30
  -1   0   3  501.45   11.80
  -1   0   3  502.05   11.90
   0   0  -3  744.33   16.90
   0   0  -3  780.42   17.60
   0   0   3  761.52   17.10
  -1   0  -3  437.76   10.70
  -1   0  -3  383.76   10.10
   1   0   3  376.06   10.20
  -2   0  -3  463.35   12.20
  -2   0  -3  454.75   12.20
  -2   0  -3  440.56   11.80
   2   0   3  457.75   11.90
  -3   0  -3    2.00    1.70
  -3   0  -3    1.40    3.00
  -3   0  -3    0.90    2.80
  -3   0  -3   -1.30    2.10
   3   0   3   -0.40    2.20
  -4   0  -3  252.27    9.70
  -4   0  -3  241.18    8.80
  -4   0  -3  244.48    9.30
  -4   0  -3  243.48    7.60
   4   0   3  257.57    9.30
  -5   0  -3   18.20    3.10
  -5   0  -3    8.20    4.20
  -5   0  -3   17.20    4.00
   5   0   3   14.60    3.90
  -6   0  -3   19.00    4.30
  -6   0  -3   12.00    3.00
   6   0   3   17.50    4.00
  -7   0  -3  123.59    8.50
  -7   0  -3  123.19    6.60
   7   0   3  122.39    8.00
  -8   0  -3  270.67   10.70
  -8   0  -3  275.27   12.20
   8   0   3  252.17   11.40
  -9   0  -3   27.40    4.70
  -9   0  -3   32.80    6.30
   9   0   3   34.10    5.60
  -9   1   3   53.39    5.60
  -9   1   3   59.19    6.90
  -8   1   3   33.40    4.40
  -8   1   3   37.00    5.30
  -8   1   3   35.20    5.70
   7  -1  -3  131.29    5.10
  -7   1   3  141.19    6.40
  -7   1   3  118.79    6.60
  -7   1   3  121.69    8.10
  -7   1   3  136.69    7.60
   6  -1  -3   17.70    2.20
   6  -1  -3   18.10    4.10
  -6   1   3   18.50    2.90
  -6   1   3   16.30    3.40
  -6   1   3   13.10    3.80
  -6   1   3   14.20    3.80
  -6   1   3   13.30    2.80
   5  -1  -3 1122.99   26.30
   5  -1  -3 1110.39   23.80
  -5   1   3 1093.39   25.20
  -5   1   3 1096.19   25.10
  -5   1   3 1068.19   25.90
  -5   1   3 1075.79   25.70
  -5   1   3 1077.49   26.50
   4  -1  -3 2907.91   63.49
   4  -1  -3 3022.00   61.69
   4  -1  -3 3101.09   61.49
  -4   1   3 2803.22   63.39
  -4   1   3 3040.50   63.09
  -4   1   3 3030.30   61.49
  -4   1   3 2987.10   63.19
  -4   1   3 3002.60   62.69
   3  -1  -3    2.20    1.00
   3  -1  -3    1.10    1.90
   3  -1  -3    0.00    1.10
  -3   1   3    1.20    1.40
  -3   1   3    0.20    1.30
  -3   1   3    2.00    1.70
  -3   1   3    1.40    1.00
  -3   1   3    0.80    1.10
   2  -1  -3  248.98    7.70
   2  -1  -3  231.98    6.10
   2  -1  -3  238.68    6.10
  -2   1   3  240.98    6.20
  -2   1   3  239.08    6.80
  -2   1   3  238.48    5.80
  -2   1   3  246.58    6.60
   1  -1  -3  604.94   14.90
   1  -1  -3  596.84   13.70
  -1   1   3  600.54   13.60
  -1   1   3  638.04   13.60
  -1   1   3  600.34   13.80
   0  -1  -3   37.60    3.10
   0   1   3   35.30    1.90
   0   1   3   32.60    3.00
  -1  -1  -3    9.90    2.20
   1   1   3    7.20    2.10
  -2  -1  -3    2.50    2.20
  -2  -1  -3    2.50    2.30
  -2  -1  -3   -0.20    2.60
   2   1   3    2.20    2.20
  -3  -1  -3   54.09    3.80
  -3  -1  -3   56.29    4.90
  -3  -1  -3   59.39    4.80
  -3  -1  -3   48.40    4.80
   3   1   3   54.49    4.80
  -4  -1  -3 1989.80   45.20
  -4  -1  -3 2006.90   44.80
  -4  -1  -3 1965.40   43.00
   4   1   3 1995.10   44.90
  -5  -1  -3   52.49    6.40
  -5  -1  -3   59.49    5.90
  -5  -1  -3   42.30    3.90
   5   1   3   54.89    5.90
  -6  -1  -3   93.39    8.10
  -6  -1  -3  101.09    5.80
   6   1   3  105.59    7.40
  -7  -1  -3   76.19    6.00
  -7  -1  -3   77.99    7.60
   7   1   3   85.99    7.30
  -8  -1  -3   17.00    3.80
  -8  -1  -3   22.20    5.50
   8   1   3   17.30    4.90
  -9   2   3   32.60    5.30
  -9   2   3   28.90    4.40
  -9   2   3   21.50    5.30
  -8   2   3  422.06   14.10
  -8   2   3  408.56   13.00
  -8   2   3  414.96   13.00
  -8   2   3  405.36   15.30
  -7   2   3  184.08    8.50
  -7   2   3  178.78    9.20
  -7   2   3  167.28    7.30
  -7   2   3  165.18    7.30
  -7   2   3  184.58    8.20
   6  -2  -3   44.70    2.20
   6  -2  -3   48.20    4.80
  -6   2   3   41.20    3.70
  -6   2   3   41.90    4.40
  -6   2   3   44.30    4.30
  -6   2   3   49.20    5.20
  -6   2   3   53.09    4.40
   5  -2  -3    1.00    0.90
   5  -2  -3    0.70    2.50
   5  -2  -3    0.80    1.20
  -5   2   3   -0.50    2.00
  -5   2   3   -1.50    1.70
  -5   2   3   -1.80    2.50
  -5   2   3    1.30    2.20
  -5   2   3    1.10    2.30
   4  -2  -3   29.20    3.10
   4  -2  -3   32.20    1.60
   4  -2  -3   27.10    1.70
  -4   2   3   26.00    2.30
  -4   2   3   25.60    2.80
  -4   2   3   36.20    3.50
  -4   2   3   24.80    2.80
  -4   2   3   22.90    2.60
   3  -2  -3  665.03   14.70
   3  -2  -3  693.63   14.80
   3  -2  -3  725.03   17.10
  -3   2   3  685.93   15.40
  -3   2   3  699.13   16.30
  -3   2   3  669.93   16.00
  -3   2   3  668.53   16.30
  -3   2   3  688.13   17.00
   2  -2  -3   13.10    1.50
   2  -2  -3   14.70    1.70
  -2   2   3   18.40    2.00
  -2   2   3   18.20    2.10
  -2   2   3   14.70    1.40
  -2   2   3   17.20    2.00
  -2   2   3   19.10    2.40
  -2   2   3   16.70    1.70
   1  -2  -3 1120.99   24.80
  -1   2   3 1151.58   24.70
  -1   2   3 1127.69   24.70
  -1   2   3 1135.59   24.60
   0  -2  -3   38.20    3.50
   0   2   3   36.10    3.30
  -1  -2  -3  787.62   19.30
  -1  -2  -3  806.02   18.30
  -1  -2  -3  811.22   19.60
   1   2   3  797.52   19.30
  -2  -2  -3   32.20    3.40
  -2  -2  -3   25.70    4.40
  -2  -2  -3   22.40    3.40
   2   2   3   27.00    3.50
  -3  -2  -3   12.20    3.50
  -3  -2  -3   14.20    4.10
   3   2   3   12.90    3.60
  -4  -2  -3   37.30    5.20
  -4  -2  -3   36.80    4.00
  -4  -2  -3   44.30    6.20
   4   2   3   34.00    4.90
  -5  -2  -3  414.26   14.20
  -5  -2  -3  394.46   14.70
  -5  -2  -3  408.46   12.30
   5   2   3  407.06   14.20
  -6  -2  -3  111.49    9.10
  -6  -2  -3  108.09    6.60
   6   2   3  106.39    8.10
  -7  -2  -3   27.10    4.00
  -7  -2  -3   23.60    5.80
   7   2   3   27.70    5.40
  -8  -2  -3    9.60    5.00
  -8  -2  -3   31.70    4.90
   8   2   3   26.30    5.40
  -9   3   3    6.00    3.10
  -9   3   3    5.70    3.10
  -9   3   3   13.20    3.90
  -9   3   3    0.00    4.00
  -8   3   3  117.79    8.40
  -8   3   3  126.69    7.00
  -8   3   3  130.19    7.10
  -8   3   3  124.09    7.10
  -8   3   3  121.09    7.60
  -7   3   3  657.03   17.00
  -7   3   3  640.34   17.40
  -7   3   3  617.34   18.70
  -7   3   3  658.03   17.80
  -7   3   3  644.14   18.20
   6  -3  -3  167.68    7.30
  -6   3   3  151.98    7.80
  -6   3   3  171.08    7.40
  -6   3   3  155.68    6.90
  -6   3   3  159.58    6.70
  -6   3   3  166.38    7.50
   5  -3  -3  222.88    8.20
  -5   3   3  221.88    8.00
  -5   3   3  226.18    7.40
  -5   3   3  222.58    8.50
  -5   3   3  225.88    7.70
  -5   3   3  229.38    8.30
   4  -3  -3   69.59    4.70
  -4   3   3   61.49    3.50
  -4   3   3   62.89    4.30
  -4   3   3   64.69    4.00
  -4   3   3   59.39    4.70
  -4   3   3   57.79    3.70
   3  -3  -3  118.49    3.60
   3  -3  -3  123.39    3.80
  -3   3   3  123.69    5.60
  -3   3   3  125.59    5.00
  -3   3   3  121.79    4.90
  -3   3   3  118.19    4.20
  -3   3   3  124.69    4.60
   2  -3  -3    1.10    1.60
  -2   3   3    1.60    1.30
  -2   3   3    2.80    1.50
  -2   3   3    2.10    1.90
  -2   3   3    2.60    1.40
   1  -3  -3    6.10    2.10
   0  -3  -3   96.89    3.90
   0  -3  -3   95.69    5.10
   0   3   3   95.39    4.80
  -1  -3  -3 2925.21   60.69
  -1  -3  -3 2936.41   62.79
  -1  -3  -3 2903.11   62.69
   1   3   3 2945.91   62.79
  -2  -3  -3 1860.21   41.70
  -2  -3  -3 1898.11   42.00
  -2  -3  -3 1839.32   39.70
   2   3   3 1767.02   41.50
  -3  -3  -3  379.46   13.40
  -3  -3  -3  369.36   12.90
   3   3   3  343.07   12.30
  -4  -3  -3   42.80    6.10
  -4  -3  -3   54.89    6.40
  -4  -3  -3   42.50    4.40
   4   3   3   45.50    5.80
  -5  -3  -3    7.50    2.90
  -5  -3  -3    8.10    4.50
  -5  -3  -3    5.30    5.10
   5   3   3    1.60    3.70
  -6  -3  -3   20.60    5.70
  -6  -3  -3   23.20    4.00
   6   3   3   22.40    5.20
  -7  -3  -3   -4.00    2.90
  -7  -3  -3   -2.60    4.70
   7   3   3    3.80    4.10
  -8  -3  -3   -1.30    3.60
  -8  -3  -3   -3.40    5.20
  -9   4   3    6.60    4.40
  -9   4   3   12.30    3.50
  -9   4   3    0.60    3.30
  -9   4   3    8.60    3.30
  -8   4   3   52.09    5.00
  -8   4   3   52.49    5.20
  -8   4   3   34.40    5.20
  -8   4   3   51.39    4.80
  -8   4   3   57.69    5.90
  -7   4   3    1.20    3.00
  -7   4   3    3.60    2.80
  -7   4   3    3.90    2.60
  -7   4   3    2.20    2.60
  -7   4   3    4.50    2.40
   6  -4  -3   18.10    3.40
  -6   4   3   15.50    2.80
  -6   4   3   13.40    3.40
  -6   4   3   19.20    3.50
  -6   4   3   18.10    3.70
  -6   4   3   18.10    3.00
   5  -4  -3  156.98    7.30
  -5   4   3  189.38    7.80
  -5   4   3  186.68    6.60
  -5   4   3  172.78    7.40
  -5   4   3  172.58    8.30
  -5   4   3  162.48    6.30
  -5   4   3  185.08    7.40
  -4   4   3   24.90    3.70
  -4   4   3   18.60    3.00
  -4   4   3   22.40    2.50
  -4   4   3   22.60    2.90
  -4   4   3   21.80    2.50
   3  -4  -3  338.27    8.50
   3  -4  -3  304.87    8.20
  -3   4   3  334.87    8.20
  -3   4   3  330.27    9.70
  -3   4   3  323.07   10.30
  -3   4   3  322.57    9.40
   2  -4  -3  141.49    5.60
  -2   4   3  142.69    5.50
  -2   4   3  148.29    5.30
  -2   4   3  145.09    6.10
  -2   4   3  133.49    5.20
  -1   4   3  730.23   18.00
   0  -4  -3   39.20    2.80
   0  -4  -3   36.50    4.20
   0  -4  -3   42.50    4.40
   0   4   3   38.80    4.00
  -2  -4  -3  453.05   14.80
  -2  -4  -3  457.55   14.90
   2   4   3  475.45   14.80
  -3  -4  -3   -0.40    4.30
  -3  -4  -3    0.90    5.00
   3   4   3   -4.90    3.70
  -4  -4  -3   -1.90    4.20
  -4  -4  -3   -1.90    2.90
  -4  -4  -3    2.80    5.20
   4   4   3    2.80    3.90
  -5  -4  -3   89.09    6.10
  -5  -4  -3   99.59    8.70
  -5  -4  -3   92.49    8.70
   5   4   3   98.89    8.20
  -6  -4  -3  346.37   15.50
  -6  -4  -3  374.96   12.90
   6   4   3  364.66   15.10
  -7  -4  -3   18.10    4.40
  -7  -4  -3   14.50    6.30
   7   4   3   19.50    5.60
  -9   5   3    9.80    3.90
  -9   5   3    1.10    4.10
  -9   5   3    4.50    3.20
  -9   5   3    5.80    3.40
  -8   5   3    3.00    3.00
  -8   5   3   -0.50    2.50
  -8   5   3   -2.80    3.10
  -8   5   3    0.70    2.70
  -7   5   3    2.20    2.90
  -7   5   3    4.10    3.10
  -7   5   3    2.60    2.60
  -7   5   3    2.10    2.40
   6  -5  -3  160.88    7.20
  -6   5   3  156.18    7.70
  -6   5   3  149.88    7.30
  -6   5   3  150.08    8.40
  -6   5   3  152.98    6.10
  -6   5   3  155.58    6.70
  -6   5   3  164.28    7.40
   5  -5  -3   86.19    6.10
  -5   5   3   77.19    6.10
  -5   5   3   82.69    4.90
  -5   5   3   83.69    5.30
  -5   5   3   89.59    4.50
  -5   5   3   84.09    5.30
  -5   5   3   80.29    5.80
   4  -5  -3  288.17    7.30
   4  -5  -3  245.88    7.10
  -4   5   3  281.47    8.70
  -4   5   3  288.57    9.30
  -4   5   3  303.07    9.80
  -4   5   3  300.87   10.90
   3  -5  -3   89.09    4.60
  -3   5   3   91.59    4.90
  -3   5   3   91.99    4.10
  -3   5   3   87.49    5.60
  -3   5   3   80.89    5.00
   2  -5  -3  149.99    6.40
  -2   5   3  150.48    6.00
   1  -5  -3 1826.02   40.10
   1  -5  -3 1818.22   40.30
  -1   5   3 1778.82   40.60
  -1   5   3 1788.52   40.10
   0  -5  -3  471.85   14.20
   0  -5  -3  493.05   14.40
   0   5   3  473.45   14.10
  -1  -5  -3   13.90    5.10
  -1  -5  -3    6.90    3.80
   1   5   3   -0.50    3.20
  -2  -5  -3  147.29    9.20
  -2  -5  -3  132.79    8.70
   2   5   3  146.39    8.80
  -3  -5  -3    1.10    4.50
  -3  -5  -3   -5.80    4.30
   3   5   3   -0.60    3.90
  -4  -5  -3  163.38   10.40
  -4  -5  -3  150.98    7.80
  -4  -5  -3  155.28   10.40
   4   5   3  158.98    9.80
  -5  -5  -3   62.29    7.80
  -5  -5  -3   63.09    8.20
  -5  -5  -3   60.49    5.60
   5   5   3   66.29    7.80
  -6  -5  -3  120.09    8.00
  -6  -5  -3  120.79   10.50
   6   5   3  118.19    9.70
  -9   6   3   11.50    4.00
  -9   6   3    6.90    3.60
  -9   6   3    8.60    3.50
  -8   6   3  121.59    6.90
  -8   6   3  123.29    7.80
  -8   6   3  119.79    7.60
  -8   6   3  113.69    8.00
  -7   6   3  453.35   14.80
  -7   6   3  467.35   13.60
  -7   6   3  464.45   14.40
  -7   6   3  427.46   14.40
   6  -6  -3  130.49    7.20
  -6   6   3  135.79    8.20
  -6   6   3  125.29    6.90
  -6   6   3  143.79    6.60
  -6   6   3  135.59    6.80
  -6   6   3  128.39    7.30
  -5   6   3  109.69    7.40
  -5   6   3  120.29    5.70
  -5   6   3  102.69    6.60
  -5   6   3  109.69    5.90
  -5   6   3  115.29    6.20
   4  -6  -3   74.19    4.10
  -4   6   3   73.89    6.50
  -4   6   3   73.29    4.10
  -4   6   3   77.09    5.50
  -4   6   3   74.09    4.90
   3  -6  -3   75.89    5.10
  -3   6   3   87.89    6.20
  -3   6   3   77.49    4.60
  -3   6   3   81.89    5.30
   2  -6  -3   72.59    5.60
   2  -6  -3   65.29    5.60
  -2   6   3   55.39    4.60
   1  -6  -3   91.99    6.50
   1  -6  -3   88.79    7.40
  -1   6   3   88.19    6.10
  -1   6   3   59.39    5.70
   0  -6  -3  258.17   11.00
   0  -6  -3  269.47   10.90
   0   6   3  262.87   10.30
  -1  -6  -3  519.75   16.50
  -1  -6  -3  480.75   16.00
   1   6   3  499.65   15.90
  -2  -6  -3   56.69    7.00
  -2  -6  -3   62.69    7.30
   2   6   3   66.19    7.00
  -3  -6  -3  187.48   11.30
  -3  -6  -3  211.58   11.50
   3   6   3  199.58   10.80
  -4  -6  -3  120.59    9.40
  -4  -6  -3  113.99    9.90
   4   6   3  105.89    9.00
  -5  -6  -3   27.70    6.50
  -5  -6  -3   17.80    5.80
  -5  -6  -3   32.90    5.10
   5   6   3   31.60    6.10
  -6  -6  -3  107.69   10.60
  -6  -6  -3   86.79    7.20
  -9   7   3   31.60    5.40
  -9   7   3   33.30    4.80
  -9   7   3   33.10    5.40
  -8   7   3   53.99    5.10
  -8   7   3   65.39    6.50
  -8   7   3   52.19    5.70
  -7   7   3  338.17   12.40
  -7   7   3  347.17   11.60
  -7   7   3  336.27   12.50
  -7   7   3  359.66   14.60
  -7   7   3  342.67   12.80
  -6   7   3  156.78    7.40
  -6   7   3  170.08    7.50
  -6   7   3  175.18    9.40
  -6   7   3  154.98    7.70
  -6   7   3  156.18    8.30
   5  -7  -3   61.49    3.20
  -5   7   3   62.39    5.50
  -5   7   3   64.99    5.60
  -5   7   3   64.59    6.70
  -5   7   3   59.89    5.00
   4  -7  -3   95.99    5.20
  -4   7   3   98.19    5.90
  -4   7   3   92.69    7.50
  -4   7   3   95.29    6.20
   3  -7  -3  187.48    8.40
   3  -7  -3  198.48    7.90
  -3   7   3  192.28    7.80
  -3   7   3  181.08    9.20
  -3   7   3  186.38    7.90
   2  -7  -3   31.90    5.00
   2  -7  -3   32.70    4.70
  -2   7   3   31.40    3.70
  -2   7   3   40.00    4.50
  -2   7   3   38.40    3.70
  -2   7   3   46.10    5.40
   1  -7  -3  505.05   15.90
   1  -7  -3  517.45   15.80
  -1   7   3  504.65   16.30
  -1   7   3  505.65   15.50
   0  -7  -3    5.80    5.00
   0  -7  -3    0.50    3.70
   0   7   3    2.60    3.50
  -1  -7  -3  269.77   12.20
  -1  -7  -3  267.57   12.40
   1   7   3  277.27   11.90
  -2  -7  -3  409.86   16.00
  -2  -7  -3  399.36   15.40
   2   7   3  414.46   15.50
  -3  -7  -3   -2.20    5.20
  -3  -7  -3    0.60    4.70
   3   7   3   -2.30    3.90
  -4  -7  -3   59.49    6.20
  -4  -7  -3   57.39    8.40
  -4  -7  -3   74.99    8.60
  -5  -7  -3   11.20    6.20
  -5  -7  -3    0.30    5.80
  -5  -7  -3   10.10    4.40
   5   7   3   -1.20    5.10
  -9   8   3   15.00    4.10
  -9   8   3   13.80    4.50
  -9   8   3   14.70    4.50
  -8   8   3  132.29    8.60
  -8   8   3  140.09   10.00
  -8   8   3  132.89    8.30
  -8   8   3  138.69    7.80
  -7   8   3    0.80    2.70
  -7   8   3    3.00    3.00
  -7   8   3    5.70    3.70
  -7   8   3    8.10    4.00
  -6   8   3   66.69    7.50
  -6   8   3   69.39    6.40
  -6   8   3   63.29    6.00
   5  -8  -3  116.39    5.00
  -5   8   3  109.19    6.60
  -5   8   3  109.09    7.00
  -5   8   3  118.59    8.40
   4  -8  -3   11.90    3.10
  -4   8   3   10.10    3.20
  -4   8   3    7.60    3.70
  -4   8   3   13.20    3.20
   3  -8  -3  144.99    7.60
  -3   8   3  148.39    7.40
  -3   8   3  140.09    8.70
  -3   8   3  145.59    7.10
   2  -8  -3  999.30   24.80
   2  -8  -3  996.00   25.70
  -2   8   3 1006.90   23.80
  -2   8   3  965.90   26.70
  -2   8   3  962.10   24.80
  -2   8   3 1010.60   25.40
   1  -8  -3   11.70    5.00
  -1   8   3   58.19    6.60
   0  -8  -3   24.50    5.70
   0  -8  -3   18.70    4.80
   0   8   3   21.70    4.60
  -1  -8  -3   93.89    8.20
  -1  -8  -3   98.59    8.80
   1   8   3   84.59    7.80
  -2  -8  -3  135.19   10.40
  -2  -8  -3  142.89   10.30
  -3  -8  -3   48.00    7.80
  -3  -8  -3   28.20    6.70
  -4  -8  -3    2.10    4.30
  -4  -8  -3    8.60    6.00
  -4  -8  -3    3.20    6.00
   4   8   3    5.70    5.60
  -9   9   3   79.99    7.80
  -9   9   3   75.69    7.60
  -9   9   3   80.29    7.00
  -8   9   3   92.19    7.50
  -8   9   3   95.29   10.20
  -8   9   3   73.69    7.20
  -7   9   3   26.00    5.80
  -7   9   3   21.90    4.80
  -7   9   3   18.60    4.10
  -6   9   3  137.99    8.30
  -6   9   3  144.69    8.00
  -6   9   3  145.09   10.00
   5  -9  -3  113.59    5.70
  -5   9   3  109.39    7.00
  -5   9   3  110.99    8.50
  -5   9   3  109.09    7.20
   4  -9  -3   99.69    6.40
  -4   9   3   98.09    8.00
  -4   9   3   87.49    6.20
  -4   9   3   91.39    6.50
   3  -9  -3   31.80    4.90
  -3   9   3   34.10    5.80
  -3   9   3   30.50    4.00
  -3   9   3   27.80    4.10
   2  -9  -3  133.99    9.00
  -2   9   3  177.18    8.30
  -2   9   3  160.88    7.10
  -2   9   3  189.98   10.20
   1  -9  -3  319.67   13.40
   1  -9  -3  334.77   13.00
  -1   9   3  339.17   14.20
  -1   9   3  336.57   13.00
   0  -9  -3   12.50    5.60
   0  -9  -3   22.60    5.60
   0   9   3   18.20    5.50
   0   9   3   17.80    5.20
  -1  -9  -3   12.50    5.60
  -1  -9  -3   18.50    5.70
   1   9   3    7.40    4.70
  -2  -9  -3   64.29    8.70
  -2  -9  -3   62.09    8.30
   2   9   3   67.69    8.50
  -3  -9  -3   76.49    9.30
  -3  -9  -3   63.19    8.80
   3   9   3   56.09    8.00
  -8  10   3   -1.50    4.10
  -8  10   3    6.70    3.90
  -8  10   3    1.70    4.20
  -7  10   3   11.00    5.00
  -7  10   3    6.90    3.60
  -7  10   3    4.10    3.80
  -6  10   3   15.50    4.20
  -6  10   3    9.60    3.50
  -6  10   3   14.50    5.10
   5 -10  -3  388.06   12.10
  -5  10   3  396.56   13.70
  -5  10   3  394.56   13.90
  -5  10   3  390.66   16.40
   4 -10  -3   19.00    4.30
  -4  10   3   19.00    4.00
  -4  10   3   26.50    5.70
  -4  10   3   21.50    4.00
   3 -10  -3   -1.60    3.60
  -3  10   3   -3.50    2.50
  -3  10   3    3.20    4.00
  -3  10   3   -0.30    2.60
   2 -10  -3   11.90    4.80
  -2  10   3   24.40    5.10
  -2  10   3   20.30    3.80
   1 -10  -3   68.09    7.70
  -1  10   3   69.09    8.40
   0 -10  -3  109.09    9.50
   0 -10  -3  115.19   10.40
   0  10   3   97.49    9.30
   0  10   3  117.79    9.30
  -1 -10  -3   39.00    7.30
  -1 -10  -3   33.70    6.90
   1  10   3   31.10    6.30
  -2 -10  -3    0.70    5.80
  -2 -10  -3   -0.90    5.70
   2  10   3   -0.30    4.80
  -7  11   3   30.90    6.60
  -7  11   3   27.40    5.40
  -7  11   3   19.10    4.80
  -6  11   3   17.20    4.50
  -6  11   3   15.50    5.50
  -6  11   3   16.90    4.40
   5 -11  -3   26.20    4.30
  -5  11   3   24.90    4.60
  -5  11   3   30.10    6.20
  -5  11   3   30.10    4.70
   4 -11  -3   67.89    6.70
  -4  11   3   75.39    6.20
  -4  11   3   73.29    8.80
  -4  11   3   69.69    6.90
   3 -11  -3    7.30    4.30
  -3  11   3    7.20    3.30
  -3  11   3    6.50    4.50
   2 -11  -3   64.09    7.60
  -2  11   3   70.09    6.90
  -2  11   3   71.19    8.50
   1 -11  -3   71.09    8.30
  -1  11   3   58.99    6.70
  -1  11   3   64.09    8.60
   0 -11  -3  215.88   13.00
   0  11   3  198.18   13.20
  -1 -11  -3   46.30    8.10
   1  11   3   40.50    8.10
   1  11   3   43.60    7.10
  -6  12   3    2.00    4.50
  -6  12   3   -0.40    3.60
  -6  12   3   -0.20    3.20
   5 -12  -3   87.59    7.10
  -5  12   3   94.29    7.40
  -5  12   3   83.99    7.60
  -5  12   3   97.49    9.80
   4 -12  -3   14.90    5.00
  -4  12   3   17.30    6.00
  -4  12   3   15.90    5.60
  -4  12   3    9.70    4.10
   3 -12  -3    0.90    4.60
  -3  12   3    4.00    4.80
  -3  12   3    0.90    3.50
   2 -12  -3   19.80    6.10
  -2  12   3   20.10    6.30
  -2  12   3   19.80    4.80
  -1  12   3   63.29    7.20
   0  12  -4   -2.70    4.00
   0  12  -4   -6.40    5.40
   0 -12   4    4.80    5.50
  -1  12  -4  136.29   12.80
  -1  12  -4  122.49   11.70
   1 -12   4  142.69   10.80
  -2  12  -4   72.29    9.50
   2 -12   4   57.39    7.50
  -3  12  -4   92.89    9.90
   3 -12   4   70.09    7.60
  -4  12  -4  261.77   11.60
  -4  12  -4  261.57   14.40
   4 -12   4  268.47   12.20
  -5  12  -4   15.40    5.70
  -5  12  -4    9.90    4.70
   5 -12   4   13.50    4.30
  -6  12  -4  145.99   11.70
  -6  12  -4  128.09    9.40
   6 -12   4  124.39    8.00
   1  11  -4   11.90    4.80
  -1 -11   4   26.00    6.80
   0  11  -4  291.57   13.90
   0 -11   4  300.37   14.30
  -1  11  -4  119.29   10.40
  -1  11  -4  120.09    8.80
   1 -11   4  118.19    9.50
  -2  11  -4  220.98   12.90
   2 -11   4  193.28   10.80
  -3  11  -4   40.80    6.70
  -3  11  -4   37.90    5.20
   3 -11   4   33.80    5.60
  -4  11  -4   39.60    6.90
  -4  11  -4   64.79    6.50
   4 -11   4   54.89    6.20
  -5  11  -4   95.39    8.00
  -5  11  -4   93.19    8.90
   5 -11   4   99.29    7.10
  -6  11  -4   13.60    5.40
  -6  11  -4    2.00    4.40
   6 -11   4    3.90    3.10
  -7  11  -4   19.70    5.90
  -7  11  -4   20.20    5.40
   3  10  -4   30.80    6.50
  -3 -10   4   18.80    5.50
  -3 -10   4   19.70    6.40
   2  10  -4    1.50    4.00
  -2 -10   4    1.70    5.00
  -2 -10   4   -1.50    4.00
   1  10  -4   12.40    4.60
  -1 -10   4   21.30    6.00
  -1 -10   4   14.10    4.80
   0  10  -4    2.90    3.70
   0 -10   4   -3.70    4.20
  -1  10  -4  619.04   19.50
  -1  10  -4  582.04   21.40
   1 -10   4  641.34   20.10
  -3  10  -4   39.00    6.20
  -3  10  -4   43.50    5.50
   3 -10   4   64.59    6.50
  -4  10  -4   -1.10    4.10
  -4  10  -4   -1.10    3.90
   4 -10   4    2.50    3.20
  -5  10  -4   14.80    5.00
  -5  10  -4   17.10    4.90
   5 -10   4   12.90    3.60
  -6  10  -4    0.50    3.50
  -6  10  -4   -0.20    4.20
   6 -10   4    0.50    2.60
  -7  10  -4   23.40    5.70
  -7  10  -4   14.10    4.10
  -7  10  -4   23.30    6.10
   7 -10   4   16.60    3.50
  -8  10  -4   19.30    5.70
  -8  10  -4   29.00    5.00
  -8  10  -4   27.50    6.50
   4   9  -4  114.69   10.10
  -4  -9   4  122.39   10.40
  -4  -9   4  116.79    9.70
   3   9  -4  318.67   14.90
  -3  -9   4  332.17   14.90
  -3  -9   4  321.57   13.50
   2   9  -4  357.36   15.10
  -2  -9   4  351.56   14.80
  -2  -9   4  341.47   13.10
  -1  -9   4  115.89    9.30
   0   9  -4   12.10    4.20
   0  -9   4   10.20    3.40
   0  -9   4   13.20    4.90
  -1   9  -4   79.79    8.40
  -1   9  -4   81.39    6.20
  -1   9  -4   83.39    6.90
   1  -9   4   82.49    7.70
  -2   9  -4    4.30    4.20
  -2   9  -4   -0.60    2.90
   2  -9   4    4.00    3.80
  -3   9  -4   23.30    3.90
   3  -9   4   22.60    4.10
   4  -9   4   28.20    4.30
  -5   9  -4  323.87   12.00
  -5   9  -4  342.07   14.00
  -5   9  -4  322.97   12.90
  -5   9  -4  337.47   12.70
   5  -9   4  334.07   11.40
  -6   9  -4  129.99    6.60
  -6   9  -4  116.29    8.90
  -6   9  -4  123.19    7.50
  -6   9  -4  126.39    9.20
   6  -9   4  123.69    6.60
  -7   9  -4    9.60    4.40
  -7   9  -4    6.70    3.20
  -7   9  -4   13.80    5.00
  -7   9  -4   12.00    3.90
   7  -9   4   12.30    3.10
  -8   9  -4    5.30    3.70
  -8   9  -4   -2.40    3.90
  -8   9  -4    1.70    4.00
  -8   9  -4    0.10    3.20
  -9   9  -4    3.00    4.40
  -9   9  -4   -0.70    3.80
  -9   9  -4   -0.50    3.70
   5   8  -4   13.50    5.20
  -5  -8   4    2.60    5.10
   4   8  -4   69.09    8.00
  -4  -8   4   63.49    7.90
  -4  -8   4   59.69    7.30
   3   8  -4    3.20    3.90
  -3  -8   4    2.40    4.30
  -3  -8   4   -7.10    3.40
   2   8  -4  593.94   19.60
  -2  -8   4  567.64   19.10
  -2  -8   4  591.24   17.70
   1   8  -4    3.10    3.40
  -1  -8   4   11.20    3.60
  -1  -8   4    7.40    4.40
   0   8  -4  126.69    8.20
   0  -8   4  124.29    6.80
   0  -8   4  138.49    8.70
  -1   8  -4  283.77   12.70
  -1   8  -4  290.17   11.30
  -1   8  -4  281.07    8.30
  -1   8  -4  298.47   10.40
   1  -8   4  290.87   11.90
   1  -8   4  303.97    9.30
  -2   8  -4   65.19    6.10
  -2   8  -4   67.69    7.20
  -2   8  -4   57.89    3.80
  -2   8  -4   68.39    5.70
   2  -8   4   56.19    5.80
  -3   8  -4   45.90    3.50
  -3   8  -4   41.20    4.90
  -3   8  -4   61.79    6.50
  -3   8  -4   40.40    4.50
   3  -8   4   38.80    4.80
  -4   8  -4  170.58    6.40
  -4   8  -4  166.78    8.40
  -4   8  -4  173.38    9.70
   4  -8   4  171.48    7.60
  -5   8  -4   47.40    6.20
  -5   8  -4   36.50    3.60
  -5   8  -4   37.00    4.30
  -5   8  -4   34.10    5.00
   5  -8   4   35.30    4.20
  -6   8  -4  186.48    8.60
  -6   8  -4  197.88    8.10
  -6   8  -4  198.18   10.40
  -6   8  -4  213.18    9.90
  -6   8  -4  210.08   10.60
   6  -8   4  204.78    8.00
  -7   8  -4  388.16   12.80
  -7   8  -4  378.96   15.10
  -7   8  -4  386.16   13.20
  -7   8  -4  383.16   14.90
   7  -8   4  418.96   12.00
  -8   8  -4    2.40    4.10
  -8   8  -4   12.20    3.80
  -8   8  -4   12.10    4.60
  -8   8  -4    7.00    3.50
  -9   8  -4    1.30    4.50
  -9   8  -4    1.70    3.90
   5   7  -4  152.18   10.50
  -5  -7   4  143.59    9.50
  -5  -7   4  149.88   10.20
   4   7  -4   11.80    4.50
  -4  -7   4    7.00    4.20
  -4  -7   4    5.70    4.20
  -4  -7   4    2.80    3.60
   3   7  -4   44.40    5.90
  -3  -7   4   47.60    6.30
  -3  -7   4   47.10    4.90
  -3  -7   4   49.90    5.90
   2   7  -4    2.40    3.20
  -2  -7   4   -1.30    3.80
  -2  -7   4    0.40    3.20
  -2  -7   4   -0.10    2.40
   1   7  -4   58.19    6.20
  -1  -7   4   79.09    6.00
  -1  -7   4   84.49    4.90
  -1  -7   4   89.69    7.60
   0   7  -4  366.26   12.90
   0  -7   4  395.86   11.60
   0  -7   4  379.36   13.40
  -1   7  -4   54.79    3.20
  -1   7  -4   35.00    4.30
  -2   7  -4 1128.89   25.50
  -2   7  -4 1191.28   27.90
  -2   7  -4 1170.98   28.10
  -2   7  -4 1182.08   29.80
   2  -7   4 1166.18   28.40
   2  -7   4 1186.28   25.40
  -3   7  -4  575.34   16.00
  -3   7  -4  559.94   13.70
  -3   7  -4  579.24   15.60
  -3   7  -4  526.45   16.90
   3  -7   4  576.94   15.90
  -4   7  -4   32.50    3.70
  -4   7  -4   33.20    4.80
  -4   7  -4   36.10    5.00
  -4   7  -4   35.50    3.20
  -4   7  -4   36.50    3.90
   4  -7   4   36.30    4.20
  -5   7  -4   10.80    4.30
  -5   7  -4    4.90    2.90
  -5   7  -4    6.90    2.40
  -5   7  -4    6.00    3.70
   5  -7   4    7.20    2.70
  -6   7  -4   57.49    6.50
  -6   7  -4   52.09    4.70
  -6   7  -4   44.30    4.50
  -6   7  -4   55.19    6.10
   6  -7   4   50.39    4.40
  -7   7  -4   53.09    6.40
  -7   7  -4   46.40    4.70
  -7   7  -4   51.69    5.10
  -7   7  -4   71.39    7.50
   7  -7   4   44.40    4.20
  -8   7  -4   39.60    5.70
  -8   7  -4   37.90    4.90
  -9   7  -4   62.69    6.30
  -9   7  -4   55.99    7.00
   6   6  -4   13.50    5.10
  -6  -6   4   13.90    3.60
  -6  -6   4   11.70    4.90
  -6  -6   4   16.50    5.50
   5   6  -4   64.19    7.10
  -5  -6   4   62.79    4.90
  -5  -6   4   67.09    7.20
  -5  -6   4   71.19    6.70
   4   6  -4    0.60    3.70
  -4  -6   4    4.00    4.00
  -4  -6   4    4.20    2.50
  -4  -6   4    0.90    3.00
  -4  -6   4    4.90    4.00
   3   6  -4  342.17   13.40
  -3  -6   4  367.16   11.70
  -3  -6   4  345.37   12.70
  -3  -6   4  356.46   10.00
  -3  -6   4  367.76   13.40
   2   6  -4   39.70    5.30
  -2  -6   4   35.90    3.00
  -2  -6   4   40.60    4.10
  -2  -6   4   35.70    5.20
  -2  -6   4   28.50    4.40
   1   6  -4  337.07   11.90
  -1  -6   4  334.27   12.00
  -1  -6   4  349.47   10.10
  -1  -6   4  340.37   11.10
  -1  -6   4  335.87    8.60
   0   6  -4    5.50    3.10
   0  -6   4    4.90    3.80
   0  -6   4    8.20    2.90
  -1   6  -4  255.97    6.80
  -1   6  -4  268.57    9.50
   1  -6   4  262.37    9.90
   1  -6   4  261.97    7.90
  -2   6  -4  174.38    8.10
  -2   6  -4  164.88    7.90
  -2   6  -4  167.68    7.00
  -2   6  -4  158.38    4.90
   2  -6   4  163.28    7.30
   2  -6   4  161.38    5.20
  -3   6  -4    8.40    1.80
  -3   6  -4    6.40    2.40
  -3   6  -4    5.90    3.70
  -3   6  -4    7.00    2.60
  -3   6  -4    9.20    3.60
   3  -6   4    9.60    2.90
  -4   6  -4  416.46   13.30
  -4   6  -4  398.76   13.30
  -4   6  -4  409.86   11.70
  -4   6  -4  402.86   10.90
  -4   6  -4  429.16   11.70
   4  -6   4  397.26   11.90
  -5   6  -4   22.20    5.20
  -5   6  -4   27.60    3.30
  -5   6  -4   31.90    4.90
  -5   6  -4   33.90    3.50
   5  -6   4   30.40    3.60
  -6   6  -4    5.50    2.90
  -6   6  -4   11.20    2.80
  -6   6  -4   10.80    4.50
  -6   6  -4    4.80    3.30
   6  -6   4   10.30    2.70
  -7   6  -4  207.28    9.10
  -7   6  -4  221.18   10.60
   7  -6   4  208.88    8.10
  -8   6  -4   78.69    7.40
  -8   6  -4   71.99    6.30
  -9   6  -4  118.59    8.00
  -9   6  -4  103.79    8.50
   7   5  -4   -5.80    3.50
  -7  -5   4   -0.70    3.20
  -7  -5   4    1.60    4.50
   6   5  -4   11.60    4.30
  -6  -5   4   15.40    4.60
  -6  -5   4    8.10    4.10
  -6  -5   4   10.80    3.20
   5   5  -4   -3.00    3.20
  -5  -5   4   -1.70    3.20
  -5  -5   4   -5.00    3.20
  -5  -5   4    2.20    2.50
   4   5  -4   41.50    5.60
  -4  -5   4   36.00    5.30
  -4  -5   4   38.50    4.60
  -4  -5   4   34.50    3.40
  -4  -5   4   47.90    5.80
   3   5  -4  272.57   11.10
  -3  -5   4  267.37   10.80
  -3  -5   4  269.47    9.80
  -3  -5   4  272.27   11.00
  -3  -5   4  270.17    8.10
   2   5  -4  314.27   12.00
   2   5  -4  330.77   14.90
  -2  -5   4  373.16   11.80
  -2  -5   4  348.67    9.00
  -2  -5   4  387.86   12.50
  -2  -5   4  342.37   10.60
   1   5  -4  221.38    9.20
   1   5  -4  231.58   11.00
  -1  -5   4  239.38    8.60
  -1  -5   4  247.38    6.30
  -1  -5   4  235.88    9.40
   0   5  -4 1133.59   28.70
   0   5  -4 1077.39   26.70
   0  -5   4 1159.08   25.60
   0  -5   4 1142.19   23.50
   0  -5   4 1138.49   27.00
  -1   5  -4  113.49    7.20
  -1   5  -4  116.19    5.70
  -1   5  -4  124.09    3.50
   1  -5   4  116.39    6.10
   1  -5   4  121.69    4.60
  -2   5  -4   12.50    3.50
  -2   5  -4   10.50    2.90
  -2   5  -4    9.50    3.10
  -2   5  -4    8.30    2.20
  -2   5  -4   12.40    1.40
   2  -5   4   13.90    2.80
  -3   5  -4   39.90    2.70
  -3   5  -4   41.40    3.50
  -3   5  -4   37.30    4.50
  -3   5  -4   42.50    4.20
  -3   5  -4   43.80    3.40
   3  -5   4   43.90    4.00
  -4   5  -4   51.29    5.40
  -4   5  -4   47.30    3.70
  -4   5  -4   45.10    4.80
  -4   5  -4   44.20    3.60
  -4   5  -4   44.20    3.50
  -4   5  -4   41.10    3.70
   4  -5   4   46.80    4.10
  -5   5  -4   14.30    3.00
  -5   5  -4   13.00    2.40
  -5   5  -4   19.30    4.30
  -5   5  -4   10.50    2.60
  -5   5  -4    5.30    4.40
  -5   5  -4    7.80    3.50
  -5   5  -4   16.20    2.60
   5  -5   4   13.50    2.90
  -6   5  -4 1370.06   31.20
  -6   5  -4 1271.67   32.90
  -6   5  -4 1318.97   30.00
  -6   5  -4 1318.27   33.00
   6  -5   4 1371.56   30.80
  -7   5  -4  255.27    8.80
  -7   5  -4  251.57    9.80
   7  -5   4  247.58    9.20
  -8   5  -4  237.68   11.30
  -8   5  -4  214.38    9.70
  -8   5  -4  241.98    9.00
   8  -5   4  216.48    8.90
  -9   5  -4    2.30    3.60
  -9   5  -4   -1.20    3.80
  -9   5  -4    3.70    2.90
   7   4  -4  169.18    9.70
  -7  -4   4  180.38   10.70
  -7  -4   4  150.48    7.90
  -7  -4   4  156.18   10.60
   6   4  -4  257.87   11.60
  -6  -4   4  256.67   11.70
  -6  -4   4  254.87   12.00
  -6  -4   4  256.67    9.20
   5   4  -4   28.60    4.80
  -5  -4   4   27.00    3.40
  -5  -4   4   23.60    4.60
  -5  -4   4   32.80    4.80
   4   4  -4    5.00    3.40
   4   4  -4    4.00    5.50
  -4  -4   4    3.40    3.40
  -4  -4   4   12.60    2.50
  -4  -4   4    5.00    3.30
  -4  -4   4   10.80    3.40
   3   4  -4   59.29    5.60
   3   4  -4   50.69    6.80
  -3  -4   4   55.29    3.90
  -3  -4   4   57.99    5.50
  -3  -4   4   59.09    5.00
  -3  -4   4   40.10    4.60
   2   4  -4  125.79    9.20
   2   4  -4  125.99    6.70
  -2  -4   4  138.09    4.60
  -2  -4   4  148.89    7.00
  -2  -4   4  139.29    6.90
   1   4  -4  438.86   14.40
   1   4  -4  424.66   12.50
  -1  -4   4  456.05    9.90
  -1  -4   4  448.56   12.10
  -1  -4   4  411.36   12.50
   0   4  -4   -1.10    2.70
   0   4  -4   -0.60    1.70
   0  -4   4   -0.80    1.70
   0  -4   4    1.50    2.30
  -1   4  -4  239.68    8.00
  -1   4  -4  228.18    7.60
  -1   4  -4  220.28    5.20
  -1   4  -4  226.58    8.60
   1  -4   4  225.48    7.80
   1  -4   4  230.68    6.50
  -2   4  -4   -0.40    0.80
  -2   4  -4    0.50    1.60
  -2   4  -4    0.60    2.80
  -2   4  -4    0.50    2.30
  -2   4  -4    0.00    1.40
  -2   4  -4    0.90    2.00
   2  -4   4    0.20    1.90
  -3   4  -4  113.29    3.70
  -3   4  -4  100.19    6.40
  -3   4  -4  106.19    4.70
  -3   4  -4  111.09    5.00
  -3   4  -4  104.39    3.90
  -3   4  -4  112.49    4.70
  -3   4  -4  103.29    5.30
   3  -4   4  100.89    5.10
  -4   4  -4  186.48    6.30
  -4   4  -4  181.58    6.60
  -4   4  -4  190.68    6.50
  -4   4  -4  187.68    5.80
  -4   4  -4  184.18    6.70
  -4   4  -4  181.48    7.50
  -4   4  -4  195.58    9.00
   4  -4   4  176.88    6.90
  -5   4  -4    7.80    4.60
  -5   4  -4   11.60    3.10
  -5   4  -4   13.40    3.00
  -5   4  -4   10.30    2.40
  -5   4  -4   10.90    2.70
  -5   4  -4   13.40    3.40
   5  -4   4   10.30    2.90
  -6   4  -4  363.06   13.50
  -6   4  -4  367.26   10.80
  -6   4  -4  377.06   11.30
  -6   4  -4  393.86   11.80
   6  -4   4  373.16   11.70
  -7   4  -4  139.99    7.40
  -7   4  -4  164.68    7.10
   7  -4   4  152.08    7.40
  -8   4  -4    4.00    2.80
  -8   4  -4    6.70    4.00
  -8   4  -4    7.10    2.80
   8  -4   4    8.60    3.20
  -9   4  -4   17.70    4.20
  -9   4  -4   18.70    3.90
  -9   4  -4   21.80    4.80
   8   3  -4    3.90    3.50
  -8  -3   4   -2.40    3.10
  -8  -3   4   -7.10    4.30
  -8  -3   4   -2.20    4.30
   7   3  -4    7.80    3.40
  -7  -3   4    3.10    4.30
  -7  -3   4   -0.40    3.90
  -7  -3   4    3.40    2.80
   6   3  -4  755.12   21.40
  -6  -3   4  754.52   19.30
  -6  -3   4  768.82   22.00
  -6  -3   4  735.63   22.00
   5   3  -4  181.28    8.70
   5   3  -4  174.38   11.30
  -5  -3   4  174.38    9.10
  -5  -3   4  186.88    8.90
  -5  -3   4  169.68    6.80
   4   3  -4   25.10    5.80
   4   3  -4   22.00    3.80
  -4  -3   4   22.30    4.00
  -4  -3   4   20.90    2.80
  -4  -3   4   18.30    3.60
  -4  -3   4   18.00    4.10
   3   3  -4  196.48    8.00
   3   3  -4  202.18   10.50
  -3  -3   4  202.58    8.40
  -3  -3   4  191.58    6.10
  -3  -3   4  187.98    7.70
  -3  -3   4  184.48    7.90
   2   3  -4    5.10    3.30
   2   3  -4    4.10    2.30
  -2  -3   4    2.90    1.30
  -2  -3   4    0.70    2.30
  -2  -3   4    6.10    2.60
   1   3  -4   61.89    5.60
   1   3  -4   57.69    3.80
  -1  -3   4   65.69    4.20
  -1  -3   4   79.59    4.60
   0   3  -4   21.00    3.30
   0   3  -4   23.00    2.70
   0  -3   4   19.90    2.30
   0  -3   4   22.30    2.90
  -2   3  -4   38.80    3.40
  -2   3  -4   47.80    2.80
  -2   3  -4   40.00    3.10
  -2   3  -4   41.90    3.10
  -2   3  -4   40.30    1.90
   2  -3   4   47.90    3.60
  -3   3  -4 3072.19   66.09
  -3   3  -4 3077.69   63.39
  -3   3  -4 3075.89   64.79
  -3   3  -4 3041.50   64.99
  -3   3  -4 3120.49   63.79
  -3   3  -4 3081.49   64.19
   3  -3   4 3133.19   65.09
  -4   3  -4  352.56    9.90
  -4   3  -4  334.87    9.20
  -4   3  -4  359.86    8.20
  -4   3  -4  357.36   10.30
  -4   3  -4  360.46   12.20
  -4   3  -4  337.47   10.60
  -4   3  -4  359.16   10.40
   4  -3   4  356.76   10.50
  -5   3  -4  806.52   19.90
  -5   3  -4  797.82   18.70
  -5   3  -4  823.42   19.60
  -5   3  -4  784.72   19.70
  -5   3  -4  769.82   21.60
   5  -3   4  761.42   19.70
  -6   3  -4   69.39    5.20
  -6   3  -4   69.79    5.70
  -6   3  -4   63.09    4.60
   6  -3   4   67.19    5.70
  -7   3  -4   -1.00    2.40
  -7   3  -4   -1.70    2.80
  -7   3  -4   -5.80    2.90
   7  -3   4   -0.70    2.90
  -8   3  -4   22.00    3.80
  -8   3  -4   24.40    4.70
  -8   3  -4   18.90    3.60
  -8   3  -4   13.40    4.20
   8  -3   4   16.00    3.90
  -9   3  -4   -1.30    3.40
  -9   3  -4    0.30    3.10
  -9   3  -4    1.30    3.60
   9  -3   4    2.70    3.90
   8   2  -4    1.80    2.80
  -8  -2   4   -2.00    4.20
  -8  -2   4   -5.60    2.70
  -8  -2   4   -5.90    4.10
   7   2  -4    6.00    3.00
  -7  -2   4    3.20    2.70
  -7  -2   4    2.60    4.00
  -7  -2   4    4.80    3.70
   6   2  -4    2.10    5.00
   6   2  -4    3.40    2.80
  -6  -2   4    2.80    3.80
  -6  -2   4    1.60    3.00
  -6  -2   4    1.80    2.50
   5   2  -4   37.40    6.40
   5   2  -4   29.70    4.00
  -5  -2   4   27.50    4.60
  -5  -2   4   38.30    3.50
  -5  -2   4   29.50    4.10
   4   2  -4  783.62   19.60
   4   2  -4  762.92   21.80
  -4  -2   4  776.02   18.20
  -4  -2   4  770.62   19.50
  -4  -2   4  748.53   20.20
  -4  -2   4  788.82   20.30
   3   2  -4   64.89    4.30
   3   2  -4   70.09    5.90
  -3  -2   4   63.69    3.40
  -3  -2   4   69.29    4.60
  -3  -2   4   64.09    5.00
   2   2  -4   27.60    2.90
   2   2  -4   27.30    4.10
  -2  -2   4   27.70    2.10
  -2  -2   4   27.10    3.00
  -2  -2   4   25.90    3.00
   1   2  -4 4703.53   95.89
   1   2  -4 4543.15   96.89
  -1  -2   4 4592.64   95.89
  -1  -2   4 4719.63   95.69
   0   2  -4  146.79    6.10
   0   2  -4  143.69    5.10
   0  -2   4  142.79    4.90
   0  -2   4  140.49    5.20
  -1   2  -4   49.30    3.60
  -1   2  -4   56.29    2.40
  -2   2  -4    2.80    1.30
  -2   2  -4    2.30    1.50
  -2   2  -4    4.60    2.80
  -2   2  -4    3.60    1.10
  -2   2  -4    1.30    1.50
   2  -2   4    3.30    1.90
  -3   2  -4  121.19    5.30
  -3   2  -4  128.09    6.80
  -3   2  -4  122.29    5.80
  -3   2  -4  126.09    4.30
  -3   2  -4  121.79    4.30
   3  -2   4  128.09    5.60
  -4   2  -4  879.91   19.00
  -4   2  -4  897.11   21.70
  -4   2  -4  896.21   21.40
  -4   2  -4  889.21   22.70
  -4   2  -4  880.11   20.20
   4  -2   4  879.51   21.50
  -5   2  -4  152.38    6.20
  -5   2  -4  151.08    7.30
  -5   2  -4  166.28    9.40
  -5   2  -4  159.78    7.70
   5  -2   4  158.48    7.60
  -6   2  -4   29.00    3.40
  -6   2  -4   31.60    4.70
   6  -2   4   26.50    4.30
  -7   2  -4   70.39    5.40
  -7   2  -4   60.99    6.10
   7  -2   4   64.19    6.00
  -8   2  -4   45.60    4.80
  -8   2  -4   47.20    5.90
  -8   2  -4   38.40    5.30
   8  -2   4   51.19    5.70
  -9   2  -4    2.20    4.20
  -9   2  -4   -0.30    3.10
   9  -2   4    4.90    3.40
   8   1  -4  167.18    7.70
  -8  -1   4  180.68   10.90
  -8  -1   4  155.48    8.00
  -8  -1   4  177.68   10.30
   7   1  -4    6.90    2.70
   7   1  -4    4.40    4.90
  -7  -1   4    3.40    3.90
  -7  -1   4    1.80    3.70
  -7  -1   4    6.40    3.00
   6   1  -4   16.30    3.00
   6   1  -4   19.60    5.20
  -6  -1   4   17.30    3.10
  -6  -1   4   15.20    3.70
  -6  -1   4   20.10    4.30
   5   1  -4   -0.50    2.20
   5   1  -4   -0.90    4.10
  -5  -1   4   -0.20    2.90
  -5  -1   4   -0.40    2.20
  -5  -1   4    3.80    3.30
   4   1  -4   59.79    4.20
   4   1  -4   57.59    5.60
  -4  -1   4   59.89    5.10
  -4  -1   4   54.69    4.70
  -4  -1   4   56.89    3.80
  -4  -1   4   50.89    4.30
   3   1  -4   85.29    5.80
   3   1  -4   82.39    4.10
  -3  -1   4   74.99    3.50
  -3  -1   4   79.29    3.80
  -3  -1   4   73.39    4.80
  -3  -1   4   77.39    4.10
   2   1  -4  546.05   14.70
   2   1  -4  551.14   13.30
  -2  -1   4  537.45   13.30
  -2  -1   4  540.75   12.50
  -2  -1   4  526.35   13.60
   1   1  -4 1023.00   23.90
   1   1  -4 1034.70   22.80
  -1  -1   4 1031.40   22.90
  -1  -1   4 1054.49   21.60
  -1  -1   4  978.80   22.80
   0   1  -4 1047.40   23.50
   0   1  -4 1085.69   24.20
   0   1  -4 1091.69   21.70
   0  -1   4 1045.30   23.70
   0  -1   4 1060.19   22.00
   0  -1   4 1053.69   23.30
  -1   1  -4 3093.89   63.79
  -1   1  -4 3018.60   63.79
  -1   1  -4 3058.69   62.09
   1  -1   4 3065.29   63.99
  -2   1  -4  135.09    5.40
  -2   1  -4  144.09    6.50
  -2   1  -4  144.29    5.10
   2  -1   4  144.49    5.60
  -3   1  -4  180.98    7.40
  -3   1  -4  184.18    5.60
  -3   1  -4  174.78    7.80
  -3   1  -4  180.08    6.80
   3  -1   4  175.48    6.90
  -4   1  -4  136.29    6.70
  -4   1  -4  143.79    8.00
  -4   1  -4  137.69    7.40
  -4   1  -4  144.89    5.60
   4  -1   4  137.89    7.00
  -5   1  -4    6.70    4.20
  -5   1  -4   20.10    4.00
  -5   1  -4   19.50    4.50
  -5   1  -4   20.00    3.10
   5  -1   4   18.10    4.00
  -6   1  -4   40.30    4.20
  -6   1  -4   35.90    5.10
   6  -1   4   35.00    4.90
  -7   1  -4    3.50    2.90
  -7   1  -4    1.70    3.70
   7  -1   4    3.80    3.50
  -8   1  -4  122.29    7.20
  -8   1  -4  112.89    8.40
   8  -1   4  115.29    8.00
  -9   1  -4  232.18   12.10
  -9   1  -4  235.08   10.50
   9  -1   4  225.18   11.10
  -9   0   4   24.30    5.90
  -9   0   4   34.50    6.20
  -8   0   4   17.30    4.70
  -8   0   4   26.00    4.10
  -8   0   4   26.50    5.00
   7   0  -4   -4.90    4.10
   7   0  -4    0.20    1.90
  -7   0   4   -2.70    3.20
  -7   0   4   -0.60    2.60
  -7   0   4    0.20    3.40
   6   0  -4   55.59    4.00
   6   0  -4   57.29    6.40
  -6   0   4   50.49    4.40
  -6   0   4   47.80    5.00
  -6   0   4   44.70    4.90
   5   0  -4  587.64   17.20
   5   0  -4  595.64   14.70
  -5   0   4  591.34   15.10
  -5   0   4  569.54   16.60
  -5   0   4  581.54   16.40
  -5   0   4  606.04   15.80
   4   0  -4 1748.63   36.40
   4   0  -4 1665.93   38.50
  -4   0   4 1692.13   37.80
  -4   0   4 1636.64   36.20
  -4   0   4 1689.73   37.00
   3   0  -4 1283.17   30.10
   3   0  -4 1327.67   28.30
  -3   0   4 1298.27   28.50
  -3   0   4 1303.67   28.40
  -3   0   4 1296.27   29.30
   2   0  -4   20.90    3.10
   2   0  -4   22.90    2.10
  -2   0   4   14.70    2.20
  -2   0   4   20.70    1.40
  -2   0   4   20.80    1.90
  -2   0   4   21.70    2.20
   1   0  -4   95.89    4.90
   1   0  -4   94.79    3.90
  -1   0   4   97.69    4.00
  -1   0   4  110.89    3.40
   0   0  -4   76.29    3.70
   0   0  -4   79.59    4.70
   0   0   4   77.49    3.90
  -1   0  -4 1626.44   36.10
  -1   0  -4 1639.54   36.40
   1   0   4 1624.04   36.20
   1   0   4 1777.22   34.30
  -2   0  -4   71.29    5.20
  -2   0  -4   71.99    4.50
   2   0   4   72.79    4.50
  -3   0  -4  150.78    7.60
  -3   0  -4  163.68    6.80
  -3   0  -4  160.68    5.60
  -3   0  -4  157.18    7.40
   3   0   4  155.38    6.90
  -4   0  -4  674.43   18.50
  -4   0  -4  689.23   18.90
  -4   0  -4  680.33   16.50
  -4   0  -4  657.33   18.00
   4   0   4  657.43   18.20
  -5   0  -4  249.48    8.70
  -5   0  -4  244.28   10.90
  -5   0  -4  242.68   10.30
   5   0   4  242.38   10.30
  -6   0  -4  110.99    8.10
  -6   0  -4  108.19    6.20
   6   0   4  103.59    7.30
  -7   0  -4   24.40    5.30
  -7   0  -4   28.70    4.20
   7   0   4   41.20    5.70
  -8   0  -4   -2.60    4.30
  -8   0  -4    0.30    3.00
   8   0   4    0.60    3.50
  -9   0  -4  108.69    9.40
  -9   0  -4  110.09    8.00
  -9   1   4   -1.80    3.80
  -9   1   4   -0.10    3.00
  -9   1   4    2.50    4.50
  -8   1   4    1.30    2.50
  -8   1   4   -0.30    3.30
  -8   1   4    4.20    3.80
   7  -1  -4   49.80    6.00
   7  -1  -4   47.70    3.30
  -7   1   4   58.69    5.70
  -7   1   4   41.60    4.20
  -7   1   4   54.59    6.10
  -7   1   4   56.49    4.50
  -7   1   4   52.39    5.70
   6  -1  -4   59.99    3.40
   6  -1  -4   56.49    5.90
  -6   1   4   58.79    5.30
  -6   1   4   65.09    5.60
  -6   1   4   64.29    6.00
  -6   1   4   60.89    4.60
  -6   1   4   58.19    4.20
   5  -1  -4  605.64   13.80
   5  -1  -4  582.94   16.60
  -5   1   4  581.94   15.90
  -5   1   4  579.84   14.40
  -5   1   4  553.64   16.30
  -5   1   4  575.44   15.50
  -5   1   4  604.84   15.20
   4  -1  -4   21.70    3.50
   4  -1  -4   17.90    1.90
   4  -1  -4   20.60    2.20
  -4   1   4   20.00    3.20
  -4   1   4   19.60    2.10
  -4   1   4   19.20    2.10
  -4   1   4   17.30    2.50
  -4   1   4   17.50    2.70
   3  -1  -4 1054.59   25.10
   3  -1  -4 1072.69   23.00
  -3   1   4 1070.49   23.10
  -3   1   4 1080.39   23.90
  -3   1   4 1042.50   24.20
  -3   1   4 1063.69   22.70
   2  -1  -4  275.37    8.80
   2  -1  -4  283.17    7.30
  -2   1   4  273.57    6.40
  -2   1   4  276.07    7.40
  -2   1   4  265.97    7.90
  -2   1   4  283.87    7.50
   1  -1  -4   12.90    2.80
   1  -1  -4   13.00    2.00
  -1   1   4   15.20    1.70
  -1   1   4   12.50    1.90
   0  -1  -4  199.08    6.50
   0   1   4  183.18    6.40
   0   1   4  205.68    5.00
  -1  -1  -4  436.46   11.60
  -1  -1  -4  426.26   11.70
   1   1   4  423.96   11.70
  -2  -1  -4   12.00    3.00
  -2  -1  -4    8.30    2.90
  -2  -1  -4    8.40    3.60
   2   1   4    7.70    2.80
  -3  -1  -4  469.75   13.80
  -3  -1  -4  498.85   14.20
  -3  -1  -4  469.25   14.70
   3   1   4  485.25   14.20
  -4  -1  -4   11.60    4.50
  -4  -1  -4    7.60    4.50
  -4  -1  -4   14.10    3.00
  -4  -1  -4   17.90    4.20
   4   1   4   12.70    3.90
  -5  -1  -4  403.16   14.60
  -5  -1  -4  390.86   11.90
  -5  -1  -4  387.16   14.00
   5   1   4  405.46   14.20
  -6  -1  -4  212.98    8.60
  -6  -1  -4  197.88   10.10
   6   1   4  192.48   10.00
  -7  -1  -4   34.20    6.10
  -7  -1  -4   45.00    5.10
   7   1   4   40.70    6.00
  -8  -1  -4    4.00    5.20
  -8  -1  -4   -2.00    3.00
   8   1   4   10.90    4.50
  -9   2   4   72.29    6.90
  -9   2   4   76.29    6.20
  -9   2   4   81.29    8.40
  -8   2   4   66.39    5.20
  -8   2   4   54.69    5.10
  -8   2   4   64.79    6.90
  -8   2   4   65.19    6.30
  -8   2   4   63.79    6.30
  -7   2   4   33.20    4.40
  -7   2   4   21.90    3.50
  -7   2   4   24.50    4.50
  -7   2   4   19.30    3.90
  -7   2   4   27.20    3.40
   6  -2  -4  577.44   16.70
   6  -2  -4  576.94   12.70
  -6   2   4  567.64   16.00
  -6   2   4  588.84   15.70
  -6   2   4  561.04   16.00
  -6   2   4  580.94   14.90
  -6   2   4  555.84   16.70
   5  -2  -4   25.60    2.00
   5  -2  -4   21.90    3.80
  -5   2   4   20.60    3.10
  -5   2   4   31.70    3.60
  -5   2   4   22.00    2.60
  -5   2   4   22.90    3.60
  -5   2   4   21.10    3.40
   4  -2  -4  328.07   10.50
   4  -2  -4  309.07    7.90
   4  -2  -4  331.47    7.90
  -4   2   4  334.37    9.70
  -4   2   4  324.37    8.60
  -4   2   4  319.57    9.60
  -4   2   4  320.27    9.60
   3  -2  -4    5.50    1.30
   3  -2  -4    4.70    1.40
   3  -2  -4    7.60    2.70
  -3   2   4    6.00    1.30
  -3   2   4    4.10    1.70
  -3   2   4    5.10    1.70
  -3   2   4    4.60    1.40
  -3   2   4    3.40    1.70
   2  -2  -4   11.70    2.80
   2  -2  -4   12.60    1.90
  -2   2   4   12.30    1.90
  -2   2   4   13.70    1.90
  -2   2   4   11.60    2.10
   1  -2  -4   57.89    3.60
  -1   2   4   55.39    3.00
  -1   2   4   50.59    3.30
   0  -2  -4  777.62   18.70
   0   2   4  789.52   17.40
   0   2   4  751.52   18.60
  -1  -2  -4    9.50    2.50
  -1  -2  -4    5.80    2.70
   1   2   4    1.80    2.40
  -2  -2  -4  349.87   10.50
  -2  -2  -4  337.07   11.20
  -2  -2  -4  344.07   11.80
   2   2   4  339.37   11.20
  -3  -2  -4  104.49    7.10
  -3  -2  -4  111.09    7.30
  -3  -2  -4  109.49    7.70
   3   2   4  102.39    7.00
  -4  -2  -4  133.99    9.20
  -4  -2  -4  133.69    8.50
  -4  -2  -4  124.79    6.60
   4   2   4  116.89    7.90
  -5  -2  -4   13.20    5.10
  -5  -2  -4   17.60    3.50
  -5  -2  -4   10.20    5.10
   5   2   4   17.30    4.70
  -6  -2  -4   60.29    5.20
  -6  -2  -4   71.69    7.70
   6   2   4   63.89    7.20
  -7  -2  -4   52.09    7.20
  -7  -2  -4   42.20    5.00
   7   2   4   60.79    7.40
  -8  -2  -4   81.09    8.90
  -8  -2  -4   57.99    6.10
   8   2   4   84.79    8.70
  -9   3   4   22.00    3.90
  -9   3   4   26.80    4.30
  -9   3   4   22.30    4.70
  -9   3   4   28.50    4.80
  -9   3   4   18.80    5.30
  -8   3   4  545.05   16.20
  -8   3   4  529.95   16.80
  -8   3   4  516.65   17.40
  -8   3   4  513.45   15.80
  -8   3   4  523.25   15.00
  -7   3   4  196.78    9.50
  -7   3   4  222.58    8.70
  -7   3   4  219.08    9.10
  -7   3   4  197.58    8.70
  -7   3   4  216.68    7.90
   6  -3  -4  616.64   17.20
  -6   3   4  613.54   17.60
  -6   3   4  613.54   16.80
  -6   3   4  621.44   15.70
  -6   3   4  604.04   16.40
  -6   3   4  626.84   17.10
   5  -3  -4  163.08    7.40
  -5   3   4  155.28    5.90
  -5   3   4  156.68    7.00
  -5   3   4  154.18    6.80
  -5   3   4  150.08    7.00
  -5   3   4  157.48    6.50
   4  -3  -4  833.52   18.20
   4  -3  -4  843.62   21.50
   4  -3  -4  862.61   18.40
  -4   3   4  857.31   20.60
  -4   3   4  872.91   21.60
  -4   3   4  834.72   20.00
  -4   3   4  856.81   19.40
  -4   3   4  869.51   20.80
   3  -3  -4   35.50    4.20
   3  -3  -4   36.90    2.40
   3  -3  -4   33.60    2.80
  -3   3   4   35.30    3.60
  -3   3   4   34.40    2.60
  -3   3   4   35.90    2.70
  -3   3   4   42.20    3.20
  -3   3   4   37.10    3.20
  -3   3   4   34.80    3.10
   2  -3  -4  246.58    7.40
  -2   3   4  249.38    7.90
  -2   3   4  240.68    7.20
  -2   3   4  247.68    7.50
   1  -3  -4  285.77    8.80
  -1   3   4  276.97    8.60
  -1   3   4  280.87    8.20
   0  -3  -4  638.84   16.30
   0  -3  -4  625.34   14.90
   0   3   4  603.64   16.00
  -1  -3  -4 1001.00   24.70
  -1  -3  -4 1000.00   22.80
  -1  -3  -4 1022.20   25.00
   1   3   4 1001.40   24.50
  -2  -3  -4  220.98    8.10
  -2  -3  -4  226.28   10.40
  -2  -3  -4  211.28    9.60
   2   3   4  218.38    9.20
  -3  -3  -4  293.57   12.60
  -3  -3  -4  298.87   11.90
   3   3   4  281.77   11.60
  -4  -3  -4  209.48   11.30
  -4  -3  -4  209.58    8.60
  -4  -3  -4  213.78   10.80
   4   3   4  209.78   10.50
  -5  -3  -4   -0.80    2.90
  -5  -3  -4   -0.60    4.20
  -5  -3  -4    0.90    5.10
   5   3   4    2.70    4.00
  -6  -3  -4   64.29    7.80
  -6  -3  -4   58.19    5.50
   6   3   4   69.99    7.80
  -7  -3  -4    8.10    5.80
  -7  -3  -4   28.70    4.80
   7   3   4   22.90    5.50
  -9   4   4   76.89    7.70
  -9   4   4   74.99    7.90
  -9   4   4   79.69    6.20
  -9   4   4   66.69    6.30
  -8   4   4   -2.30    2.50
  -8   4   4    3.70    2.90
  -8   4   4    1.00    3.10
  -8   4   4   -7.90    2.90
  -8   4   4   -1.40    2.70
  -7   4   4  121.49    6.30
  -7   4   4  109.69    7.10
  -7   4   4  106.09    6.60
  -7   4   4  103.49    5.90
  -7   4   4  108.89    6.70
   6  -4  -4  124.79    6.90
  -6   4   4  132.79    6.80
  -6   4   4  111.19    6.80
  -6   4   4  128.29    6.20
  -6   4   4  127.59    6.00
  -6   4   4  116.99    6.70
   5  -4  -4    0.00    2.90
  -5   4   4    0.40    2.50
  -5   4   4   -1.20    1.90
  -5   4   4    0.20    2.30
  -5   4   4    0.20    2.20
  -5   4   4    2.80    2.40
  -5   4   4   -0.90    2.50
   4  -4  -4  558.94   12.60
   4  -4  -4  524.25   12.20
   4  -4  -4  583.74   16.20
  -4   4   4  556.34   14.80
  -4   4   4  569.84   14.10
  -4   4   4  525.95   14.70
  -4   4   4  535.15   13.60
  -4   4   4  552.64   15.70
   3  -4  -4  359.36    9.60
  -3   4   4  364.76   11.20
  -3   4   4  341.57    9.20
  -3   4   4  341.57   10.10
  -3   4   4  357.46   10.30
   2  -4  -4   78.59    4.70
  -2   4   4   77.49    4.70
  -2   4   4   71.79    4.20
   1  -4  -4   99.09    5.80
  -1   4   4  126.19    5.60
   0  -4  -4  167.58    7.70
   0  -4  -4  160.38    8.10
   0  -4  -4  153.58    5.70
   0   4   4  147.89    7.00
  -1  -4  -4  145.99    6.00
  -1  -4  -4  154.88    8.20
  -1  -4  -4  154.08    9.00
   1   4   4  149.39    7.80
  -2  -4  -4  125.89    9.40
  -2  -4  -4  112.19    8.30
   2   4   4  111.19    7.70
  -3  -4  -4   61.29    7.40
  -3  -4  -4   83.49    7.80
   3   4   4   79.39    7.40
  -4  -4  -4   57.69    6.90
  -4  -4  -4   63.79    7.00
   4   4   4   56.69    6.60
  -5  -4  -4  159.68   11.10
  -5  -4  -4  163.48   10.90
  -5  -4  -4  158.78    7.80
   5   4   4  155.48   10.00
  -6  -4  -4  149.88    8.40
  -6  -4  -4  145.59   11.30
   6   4   4  144.99   10.10
  -7  -4  -4   83.09    9.60
  -7  -4  -4  103.39    7.80
   7   4   4  105.29    9.90
  -9   5   4   65.59    5.80
  -9   5   4   69.99    7.10
  -9   5   4   63.59    6.90
  -9   5   4   65.69    6.40
  -8   5   4    2.40    2.60
  -8   5   4    1.80    2.80
  -8   5   4   -1.80    3.20
  -8   5   4    2.70    3.00
  -7   5   4  454.75   14.80
  -7   5   4  472.15   14.80
  -7   5   4  462.75   13.40
  -7   5   4  485.65   13.70
  -7   5   4  462.95   14.70
   6  -5  -4  100.99    6.60
  -6   5   4   95.79    5.40
  -6   5   4   96.59    6.00
  -6   5   4  105.29    6.50
  -6   5   4   98.59    5.40
  -6   5   4   93.69    6.00
   5  -5  -4   16.50    4.10
  -5   5   4   12.70    2.90
  -5   5   4   15.20    3.00
  -5   5   4   18.80    4.10
  -5   5   4   19.20    2.90
  -5   5   4   14.90    3.40
   4  -5  -4   88.89    4.30
  -4   5   4   86.69    5.20
  -4   5   4   89.69    5.70
  -4   5   4   86.69    6.10
   3  -5  -4  822.12   19.50
  -3   5   4  831.32   21.30
  -3   5   4  809.42   19.00
  -3   5   4  798.72   20.00
  -3   5   4  824.12   20.20
   2  -5  -4  487.85   13.60
  -2   5   4  494.15   13.40
  -2   5   4  495.35   13.20
  -2   5   4  490.65   13.40
  -2   5   4  507.65   14.30
   1  -5  -4  156.38    7.70
  -1   5   4  160.88    7.20
  -1   5   4  167.88    7.20
   0  -5  -4  774.72   20.90
   0  -5  -4  784.72   21.10
   0  -5  -4  782.92   17.40
   0   5   4  757.62   20.50
  -1  -5  -4  564.04   17.20
  -1  -5  -4  530.85   16.80
   1   5   4  535.15   16.60
  -2  -5  -4  321.37   13.80
  -2  -5  -4  329.37   13.20
   2   5   4  315.07   12.60
  -3  -5  -4   29.80    6.30
  -3  -5  -4   30.90    6.20
   3   5   4   33.10    5.90
  -4  -5  -4   39.20    6.90
  -4  -5  -4   42.10    6.90
   4   5   4   42.60    6.50
  -5  -5  -4  124.19    8.00
  -5  -5  -4  117.29   10.20
  -5  -5  -4  129.69   10.50
   5   5   4  127.19    9.60
  -6  -5  -4  320.67   12.70
  -6  -5  -4  339.67   16.20
   6   5   4  341.77   15.80
  -9   6   4    1.40    3.20
  -9   6   4   -0.40    3.20
  -9   6   4   -1.80    3.00
  -9   6   4    0.20    3.80
  -8   6   4    4.20    3.40
  -8   6   4    1.20    3.00
  -8   6   4    1.40    3.00
  -8   6   4   -0.30    2.60
  -7   6   4   87.99    6.60
  -7   6   4   83.19    6.40
  -7   6   4   88.19    6.40
  -7   6   4   86.79    5.80
   6  -6  -4  472.05   14.90
  -6   6   4  472.25   14.70
  -6   6   4  474.25   13.80
  -6   6   4  450.45   13.30
  -6   6   4  454.45   14.40
  -6   6   4  482.85   16.20
   5  -6  -4   50.59    2.60
  -5   6   4   55.39    6.20
  -5   6   4   42.90    4.40
  -5   6   4   57.59    4.40
  -5   6   4   49.80    5.00
   4  -6  -4   30.90    3.20
  -4   6   4   30.60    4.70
  -4   6   4   26.00    3.70
  -4   6   4   28.00    3.90
   3  -6  -4   68.59    5.40
  -3   6   4   67.89    6.00
  -3   6   4   67.59    5.30
  -3   6   4   63.69    5.00
  -3   6   4   71.39    4.80
   2  -6  -4   34.80    4.50
  -2   6   4   33.60    3.50
  -2   6   4   42.60    4.30
  -2   6   4   38.10    4.60
  -2   6   4   31.10    3.50
   1  -6  -4  178.78    9.10
   1  -6  -4  197.18    9.70
  -1   6   4  215.78    9.00
  -1   6   4  182.38    8.40
   0  -6  -4  187.88   10.20
   0  -6  -4  177.08    9.60
   0   6   4  178.58    8.90
  -1  -6  -4  125.49    8.40
   1   6   4   97.19    7.30
  -2  -6  -4  914.41   25.90
  -2  -6  -4  923.41   26.20
   2   6   4  912.31   25.90
  -3  -6  -4    4.40    5.00
  -3  -6  -4    8.60    5.80
   3   6   4    8.20    4.50
  -4  -6  -4   61.29    8.20
  -4  -6  -4   51.89    7.90
   4   6   4   50.79    7.30
  -5  -6  -4   -1.30    3.60
  -5  -6  -4    0.50    6.10
  -5  -6  -4    3.20    5.70
   5   6   4    4.60    4.60
  -6  -6  -4   -3.90    3.90
  -6  -6  -4    2.00    6.50
   6   6   4   11.10    5.20
  -9   7   4   86.99    6.70
  -9   7   4   97.09    8.10
  -9   7   4   86.39    7.70
  -8   7   4  102.19    7.50
  -8   7   4  102.59    6.80
  -8   7   4   96.99    7.30
  -7   7   4   59.89    6.20
  -7   7   4   62.39    7.30
  -7   7   4   55.19    5.90
  -7   7   4   57.39    5.10
   6  -7  -4  148.19    8.70
  -6   7   4  152.78    8.00
  -6   7   4  142.99    9.50
  -6   7   4  161.58    9.30
  -6   7   4  148.09    7.80
   5  -7  -4  154.98    5.50
  -5   7   4  170.38    7.80
  -5   7   4  169.98    8.10
  -5   7   4  169.08    9.20
   4  -7  -4    9.90    2.80
  -4   7   4    4.80    2.60
  -4   7   4    6.90    3.50
  -4   7   4    4.50    3.00
   3  -7  -4  119.79    7.10
  -3   7   4  120.29    6.50
  -3   7   4  131.49    7.80
  -3   7   4  118.29    6.40
   2  -7  -4   15.20    4.10
   2  -7  -4   15.10    5.10
  -2   7   4   15.50    3.80
   1  -7  -4  904.21   24.50
   1  -7  -4  906.11   24.20
  -1   7   4  908.61   24.60
  -1   7   4  932.91   24.10
   0  -7  -4    7.70    5.40
   0  -7  -4    0.10    4.00
   0   7   4    2.50    3.80
  -1  -7  -4  196.28   10.90
  -1  -7  -4  176.78   11.00
  -2  -7  -4  224.48   12.30
  -2  -7  -4  217.08   12.20
   2   7   4  232.58   11.60
  -3  -7  -4  274.27   13.50
  -3  -7  -4  264.57   13.80
   3   7   4  269.07   12.80
  -4  -7  -4   47.50    7.90
  -4  -7  -4   40.70    7.80
   4   7   4   52.99    7.60
  -5  -7  -4    5.00    5.90
  -5  -7  -4    9.30    4.70
  -5  -7  -4   -3.40    6.30
   5   7   4    8.00    5.10
  -9   8   4   78.89    6.70
  -9   8   4   73.59    7.50
  -9   8   4   76.59    7.30
  -8   8   4   20.60    4.00
  -8   8   4   13.30    3.90
  -8   8   4   20.80    5.20
  -8   8   4   13.60    4.20
  -7   8   4   77.69    7.60
  -7   8   4   84.59    6.80
  -7   8   4   71.99    6.50
  -6   8   4  168.38    8.50
  -6   8   4  179.18    8.90
  -6   8   4  169.68   10.20
   5  -8  -4   65.89    4.40
  -5   8   4   54.89    5.20
  -5   8   4   66.89    7.00
  -5   8   4   63.99    5.60
   4  -8  -4   24.30    3.70
  -4   8   4   36.90    5.60
  -4   8   4   28.90    4.30
  -4   8   4   21.00    3.90
   3  -8  -4  115.69    7.30
   3  -8  -4  113.79    7.90
  -3   8   4  121.19    8.20
  -3   8   4  113.29    6.80
  -3   8   4  109.49    6.40
   2  -8  -4  156.98    9.80
   2  -8  -4  176.08    9.30
  -2   8   4  259.17    9.40
   1  -8  -4  942.41   24.80
   1  -8  -4  914.31   25.20
  -1   8   4  848.12   25.00
  -1   8   4  900.71   24.40
   0  -8  -4    8.60    5.60
   0  -8  -4   -0.40    4.30
   0   8   4    1.80    3.80
   0   8   4   -1.80    3.60
  -1  -8  -4   24.40    6.20
  -1  -8  -4   20.10    6.40
   1   8   4   25.30    5.40
  -2  -8  -4  125.29    9.90
  -2  -8  -4  153.18   11.10
   2   8   4  132.69    9.30
  -3  -8  -4   -0.40    5.40
  -3  -8  -4    5.60    5.80
   3   8   4    4.00    4.50
  -4  -8  -4    8.60    6.60
  -4  -8  -4    1.30    6.60
  -8   9   4   88.79    7.50
  -8   9   4   76.99    8.70
  -8   9   4   65.29    6.80
  -7   9   4  125.69    8.30
  -7   9   4  140.29    8.50
  -7   9   4  150.48   10.10
  -6   9   4   15.30    4.80
  -6   9   4   13.60    3.80
  -6   9   4   25.10    4.70
   5  -9  -4   19.30    3.20
  -5   9   4   16.10    4.80
  -5   9   4   13.20    3.70
  -5   9   4   10.40    3.50
   4  -9  -4  258.47    9.90
  -4   9   4  254.97   12.10
  -4   9   4  245.18   10.00
  -4   9   4  259.57   10.50
   3  -9  -4  133.19    8.40
  -3   9   4  144.49    7.30
  -3   9   4  134.69    7.60
  -3   9   4  139.89    9.30
   2  -9  -4  153.78    9.60
   2  -9  -4  166.18   14.30
  -2   9   4  169.78    9.70
  -2   9   4  164.58    8.30
   1  -9  -4   15.70    4.90
   1  -9  -4   21.30    5.90
  -1   9   4   12.10    4.30
   0  -9  -4  200.08   11.80
   0  -9  -4  221.88   11.80
   0   9   4  201.58   11.40
  -1  -9  -4   14.80    5.70
  -1  -9  -4   13.10    6.00
  -2  -9  -4   37.40    7.40
  -2  -9  -4   47.60    7.80
  -3  -9  -4    6.80    6.50
  -3  -9  -4   17.20    6.90
   3   9   4    2.00    5.80
  -8  10   4   55.49    6.60
  -8  10   4   71.39    8.90
  -8  10   4   68.59    7.00
  -7  10   4   81.59    7.50
  -7  10   4   64.19    6.90
  -7  10   4   84.19    9.20
  -6  10   4  211.98   12.20
  -6  10   4  211.38   10.40
  -6  10   4  216.98   10.50
   5 -10  -4   70.39    5.80
  -5  10   4   71.19    6.80
  -5  10   4   86.49    9.00
  -5  10   4   70.99    6.40
   4 -10  -4   85.39    6.70
  -4  10   4   96.39    6.80
  -4  10   4   91.99    8.20
  -4  10   4   89.19    6.90
   3 -10  -4   39.50    5.90
  -3  10   4   71.09    6.20
  -3  10   4   57.29    7.60
   2 -10  -4  111.19    9.20
  -2  10   4  120.59    7.80
  -2  10   4  121.09    9.20
   1 -10  -4   89.09    8.80
  -1  10   4   77.69    8.20
   0 -10  -4   34.70    6.90
   0 -10  -4   32.30    6.80
   0  10   4   36.00    6.80
   0  10   4   33.70    6.40
  -1 -10  -4   45.70    8.00
  -1 -10  -4   40.00    7.50
   1  10   4   43.10    7.30
  -2 -10  -4   61.69    8.80
  -2 -10  -4   92.09   10.20
   2  10   4   72.09    9.10
  -7  11   4   12.40    4.40
  -7  11   4   15.10    5.70
  -7  11   4   10.90    4.70
  -6  11   4   42.90    6.10
  -6  11   4   40.20    5.50
  -6  11   4   49.50    7.50
   5 -11  -4  129.59    8.00
  -5  11   4  135.09   10.50
  -5  11   4  130.19    8.70
  -5  11   4  134.19    8.30
   4 -11  -4   46.70    6.30
  -4  11   4   56.49    7.90
  -4  11   4   51.49    6.40
  -4  11   4   46.20    5.10
   3 -11  -4   52.29    6.80
  -3  11   4   44.00    6.00
  -3  11   4   47.70    7.40
   2 -11  -4   35.40    6.70
  -2  11   4   48.60    7.40
  -2  11   4   34.20    5.20
   1 -11  -4   74.19    8.60
  -1  11   4   71.19    7.50
  -1  11   4   71.49    8.80
   0 -11  -4    7.40    5.70
   0  11   4    7.20    5.20
  -5  12   4   64.29    7.10
  -5  12   4   88.99   10.40
  -5  12   4   60.59    6.50
   4 -12  -4    4.80    4.40
  -4  12   4    7.00    5.00
  -4  12   4    3.10    3.70
   3 -12  -4    4.40    4.80
  -3  12   4   12.50    5.70
  -3  12   4    6.90    4.10
  -2  12   4    9.00    4.10
  -1  12  -5  105.89   11.70
  -1  12  -5  115.39    9.40
   1 -12   5  108.29   10.10
  -2  12  -5    7.10    5.30
   2 -12   5    4.10    4.70
  -3  12  -5   69.59    9.20
   3 -12   5   62.09    7.60
  -4  12  -5   17.60    5.80
  -4  12  -5   14.20    4.90
   4 -12   5   15.40    5.00
  -5  12  -5  279.17   14.70
  -5  12  -5  254.37   12.70
   5 -12   5  264.47   12.00
  -6  12  -5   16.90    5.60
  -6  12  -5   22.20    6.30
   6 -12   5   15.30    4.50
   1  11  -5  164.68   11.30
  -1 -11   5  173.58   12.00
   0  11  -5   21.40    5.40
   0 -11   5   16.50    5.80
  -1  11  -5  147.39    9.60
  -1  11  -5  117.79   10.70
   1 -11   5  153.58   10.30
  -2  11  -5  227.68   13.40
  -2  11  -5  243.38   13.90
   2 -11   5  246.48   12.30
  -3  11  -5   34.60    5.40
  -3  11  -5   32.50    6.20
   3 -11   5   29.60    5.50
  -4  11  -5   42.10    7.00
  -4  11  -5   36.90    5.80
   4 -11   5   36.80    5.60
  -5  11  -5   -8.60    4.00
  -5  11  -5    2.20    4.50
   5 -11   5   -1.10    3.00
  -6  11  -5   -0.50    4.40
  -6  11  -5    1.40    4.10
   6 -11   5    0.60    3.20
  -7  11  -5   42.80    7.00
  -7  11  -5   33.70    6.80
   7 -11   5   48.00    5.40
   2  10  -5  214.88   12.70
  -2 -10   5  204.18   10.70
  -2 -10   5  213.68   12.70
   1  10  -5   40.40    6.20
  -1 -10   5   53.89    7.60
   0  10  -5   60.79    7.30
   0 -10   5   76.39    8.60
  -1  10  -5  195.28   10.40
  -1  10  -5  200.88   12.10
   1 -10   5  186.78   10.70
  -2  10  -5  317.27   12.60
  -2  10  -5  294.87   13.90
   2 -10   5  308.77   12.80
  -3  10  -5   17.10    5.10
   3 -10   5   21.80    4.70
  -4  10  -5   46.90    6.80
  -4  10  -5   37.60    5.80
   4 -10   5   44.00    5.50
  -5  10  -5   91.19    8.20
  -5  10  -5   88.69    8.00
   5 -10   5   73.49    6.50
  -6  10  -5   97.99    8.50
  -6  10  -5  107.79    9.00
   6 -10   5  108.69    6.80
  -7  10  -5   20.80    4.80
  -7  10  -5   23.40    5.80
  -7  10  -5   21.70    6.00
   7 -10   5   28.00    4.30
  -8  10  -5  112.59    8.60
  -8  10  -5  121.09   10.20
  -8  10  -5  104.89    9.70
   4   9  -5  201.38   12.80
  -4  -9   5  198.98   11.90
   3   9  -5   66.29    8.00
  -3  -9   5   82.59    8.80
  -3  -9   5   75.89    7.70
   2   9  -5   96.99    9.00
  -2  -9   5  111.49    9.60
  -2  -9   5   98.99    7.70
   1   9  -5  173.18   10.30
  -1  -9   5  157.38    8.30
  -1  -9   5  179.28   10.80
   0   9  -5    5.50    3.80
   0  -9   5    1.60    2.90
   0  -9   5   -0.30    4.40
  -1   9  -5  110.49    7.80
  -1   9  -5  117.39    9.30
   1  -9   5  112.19    8.40
  -2   9  -5    2.00    3.80
  -2   9  -5   -1.30    2.70
   2  -9   5   -5.40    3.00
  -3   9  -5   31.10    5.60
  -3   9  -5   27.10    4.60
  -3   9  -5   36.40    4.60
   3  -9   5   30.00    4.80
  -4   9  -5  177.98   10.40
  -4   9  -5  174.48    9.00
   4  -9   5  188.98    8.80
  -5   9  -5  310.27   13.60
  -5   9  -5  325.27   12.60
   5  -9   5  319.07   11.50
  -6   9  -5   73.49    7.90
  -6   9  -5   71.99    7.20
  -6   9  -5   66.59    5.90
   6  -9   5   67.69    5.50
  -7   9  -5  152.18   10.10
  -7   9  -5  156.38    9.90
  -7   9  -5  145.09    8.50
   7  -9   5  162.48    7.70
  -8   9  -5   31.00    6.40
  -8   9  -5   23.10    4.60
  -8   9  -5   22.60    5.80
   4   8  -5  116.89    9.50
  -4  -8   5  112.09    9.30
  -4  -8   5  113.79    9.70
   3   8  -5   49.10    6.50
  -3  -8   5   56.19    7.20
  -3  -8   5   51.49    6.20
   2   8  -5  151.48    9.80
  -2  -8   5  168.08    9.00
  -2  -8   5  183.48   10.60
   1   8  -5   49.99    6.20
  -1  -8   5   68.79    7.10
  -1  -8   5   67.39    5.90
   0   8  -5   10.20    3.80
   0  -8   5   11.70    4.40
   0  -8   5    9.90    3.10
  -1   8  -5  487.05   15.40
  -1   8  -5  469.05   16.80
   1  -8   5  479.05   12.90
   1  -8   5  472.55   15.70
  -3   8  -5  114.09    6.70
  -3   8  -5  123.89    8.10
  -3   8  -5  133.49    8.30
   3  -8   5  125.09    7.40
  -4   8  -5   50.59    6.40
  -4   8  -5   51.19    5.70
   4  -8   5   41.60    4.80
  -5   8  -5  283.47   10.10
  -5   8  -5  259.27   11.70
  -5   8  -5  263.87   11.30
   5  -8   5  273.97   10.10
  -6   8  -5   63.39    7.00
  -6   8  -5   63.49    6.90
  -6   8  -5   55.89    5.20
   6  -8   5   67.19    5.50
  -7   8  -5   48.10    6.80
  -7   8  -5   45.90    5.00
  -7   8  -5   48.60    6.50
   7  -8   5   50.39    4.80
  -8   8  -5    2.70    3.80
  -8   8  -5    1.40    3.60
  -8   8  -5   -4.80    4.30
  -9   8  -5   -1.60    3.70
  -9   8  -5    5.70    4.80
   5   7  -5    6.10    4.30
  -5  -7   5   -2.20    3.90
  -5  -7   5   -4.90    4.20
   4   7  -5    2.30    3.70
  -4  -7   5   -1.50    3.20
  -4  -7   5    6.40    4.40
  -4  -7   5   -4.50    3.80
   3   7  -5   45.70    6.00
  -3  -7   5   44.20    6.00
  -3  -7   5   40.30    4.70
  -3  -7   5   42.30    6.20
   2   7  -5    3.60    3.80
  -2  -7   5    2.60    4.10
  -2  -7   5    0.70    3.30
  -2  -7   5    5.50    2.70
  -1  -7   5   77.89    7.20
  -1  -7   5   56.39    5.20
   0   7  -5   81.89    6.70
   0  -7   5   71.69    5.50
   0  -7   5   91.39    7.60
  -1   7  -5  501.55   15.20
  -1   7  -5  493.75   16.20
   1  -7   5  473.95   15.30
   1  -7   5  489.55   12.90
  -2   7  -5  591.64   17.00
  -2   7  -5  584.64   16.70
  -2   7  -5  635.54   18.20
   2  -7   5  576.44   17.00
   2  -7   5  580.14   14.20
  -3   7  -5    1.70    1.90
  -3   7  -5    2.30    3.50
  -3   7  -5    1.30    4.10
  -3   7  -5   -1.90    2.30
   3  -7   5   -2.30    2.80
  -4   7  -5   83.19    6.70
  -4   7  -5   79.19    6.70
  -4   7  -5   73.79    5.30
  -4   7  -5   83.19    5.60
  -4   7  -5   85.59    4.30
   4  -7   5   78.89    5.90
  -5   7  -5   22.50    3.50
  -5   7  -5   22.20    4.30
  -5   7  -5   22.20    5.10
  -5   7  -5   24.00    3.10
   5  -7   5   21.60    3.60
  -6   7  -5   32.30    4.90
  -6   7  -5   30.90    4.20
  -6   7  -5   39.70    5.90
  -6   7  -5   33.80    3.80
   6  -7   5   33.20    4.00
  -7   7  -5   34.00    4.60
  -7   7  -5   39.60    5.90
   7  -7   5   31.80    4.20
  -8   7  -5    0.50    3.40
  -8   7  -5   -8.90    3.50
   8  -7   5    5.20    3.20
  -9   7  -5   -0.80    3.60
  -9   7  -5    2.10    4.50
   6   6  -5  225.78   12.20
  -6  -6   5  243.58   12.40
  -6  -6   5  242.08   12.50
   5   6  -5   48.90    6.50
  -5  -6   5   50.99    6.90
  -5  -6   5   29.50    5.10
   4   6  -5    8.10    3.90
  -4  -6   5    4.60    3.40
  -4  -6   5    6.10    4.30
  -4  -6   5    5.50    4.30
   3   6  -5   40.60    5.40
  -3  -6   5   41.30    4.60
  -3  -6   5   39.70    5.40
  -3  -6   5   29.90    5.10
   2   6  -5 1023.40   27.10
  -2  -6   5 1015.40   25.70
  -2  -6   5 1020.30   26.90
  -2  -6   5 1021.00   24.70
   1   6  -5  140.69    7.70
   1   6  -5  140.99   11.10
  -1  -6   5  165.38    9.10
  -1  -6   5  155.78    7.80
  -1   6  -5  112.79    6.60
  -1   6  -5  132.49    3.80
  -2   6  -5  316.27   12.10
  -2   6  -5  317.37   10.40
  -2   6  -5  294.87    7.40
  -2   6  -5  294.87   11.20
  -2   6  -5  301.47   10.80
   2  -6   5  320.47    8.50
   2  -6   5  298.27   10.60
  -3   6  -5  288.07   10.70
  -3   6  -5  286.07   11.50
  -3   6  -5  273.47    7.60
  -3   6  -5  303.67    9.30
  -3   6  -5  292.87    9.80
   3  -6   5  286.17   10.10
  -4   6  -5   85.39    4.30
  -4   6  -5   85.49    7.50
  -4   6  -5   87.89    5.30
  -4   6  -5   86.79    5.40
  -4   6  -5   82.59    6.20
   4  -6   5   88.69    5.80
  -5   6  -5    3.20    3.30
  -5   6  -5    2.20    4.10
  -5   6  -5    7.60    2.30
  -5   6  -5    7.50    2.80
   5  -6   5    6.60    2.90
  -6   6  -5   94.09    7.60
  -6   6  -5   87.19    6.70
  -6   6  -5   82.59    5.50
   6  -6   5  104.59    5.90
  -7   6  -5  140.99    7.70
   7  -6   5  143.89    7.20
  -8   6  -5   -0.90    4.00
  -8   6  -5    6.00    3.40
   8  -6   5   -3.20    2.50
  -9   6  -5   -0.80    4.30
  -9   6  -5    3.10    4.00
   7   5  -5    1.40    3.90
  -7  -5   5   -5.00    4.10
  -7  -5   5   -3.10    5.00
   6   5  -5   90.59    8.10
  -6  -5   5   87.69    8.00
  -6  -5   5   77.89    5.90
  -6  -5   5   86.19    8.30
   5   5  -5   39.60    5.60
  -5  -5   5   38.70    3.90
  -5  -5   5   40.30    5.30
  -5  -5   5   49.20    6.40
   4   5  -5   31.40    7.40
   4   5  -5   33.50    4.90
  -4  -5   5   29.70    4.40
  -4  -5   5   31.30    5.10
  -4  -5   5   28.70    5.00
  -4  -5   5   38.80    3.40
   3   5  -5  200.98    9.70
   3   5  -5  224.58   13.20
  -3  -5   5  206.38    8.50
  -3  -5   5  200.98    9.50
  -3  -5   5  205.68    9.70
  -3  -5   5  195.48    6.60
   2   5  -5  706.53   22.60
   2   5  -5  748.83   20.50
  -2  -5   5  759.62   19.80
  -2  -5   5  787.42   20.80
  -2  -5   5  741.73   16.80
   1   5  -5  806.22   21.60
   1   5  -5  861.21   24.30
  -1  -5   5  826.12   20.70
  -1  -5   5  846.62   22.00
  -1  -5   5  852.41   17.90
   0   5  -5   14.00    3.20
   0   5  -5    7.90    4.60
   0  -5   5    6.70    2.60
   0  -5   5    8.60    3.30
  -1   5  -5    4.10    3.60
  -1   5  -5    2.10    2.20
  -1   5  -5    6.20    3.10
   1  -5   5    2.60    2.00
   1  -5   5    1.40    2.70
  -2   5  -5  240.68    9.60
  -2   5  -5  232.88    5.80
  -2   5  -5  239.68    8.40
  -2   5  -5  249.38    8.80
  -2   5  -5  238.78    9.70
   2  -5   5  238.48    8.80
  -3   5  -5  128.49    6.00
  -3   5  -5  132.89    7.00
  -3   5  -5  132.59    8.10
  -3   5  -5  125.89    4.40
  -3   5  -5  124.89    6.40
  -3   5  -5  121.99    5.60
   3  -5   5  153.88    6.70
  -4   5  -5   -1.80    2.40
  -4   5  -5   -1.40    2.20
  -4   5  -5    0.00    2.20
  -4   5  -5   -0.10    2.60
  -4   5  -5   -5.20    3.70
   4  -5   5   -0.90    2.50
  -5   5  -5    9.90    3.20
  -5   5  -5    7.40    3.10
  -5   5  -5    8.50    4.80
  -5   5  -5    9.00    2.20
  -5   5  -5   12.50    3.40
  -5   5  -5   14.40    3.20
   5  -5   5   10.20    3.10
  -6   5  -5    1.90    2.50
  -6   5  -5    0.70    1.90
  -6   5  -5    2.10    4.30
   6  -5   5   -1.10    2.40
  -7   5  -5  745.83   18.90
  -7   5  -5  759.52   20.10
   7  -5   5  731.03   19.90
  -8   5  -5  200.88    8.40
  -8   5  -5  226.48    9.80
   8  -5   5  201.18    9.00
  -9   5  -5   35.80    4.50
  -9   5  -5   35.70    5.20
  -9   5  -5   31.60    5.80
   7   4  -5   64.49    6.80
  -7  -4   5   67.89    5.70
  -7  -4   5   67.99    7.90
  -7  -4   5   58.19    7.20
   6   4  -5    0.30    3.30
  -6  -4   5    2.40    4.10
  -6  -4   5   -0.40    3.60
  -6  -4   5    0.60    2.60
   5   4  -5  544.85   17.30
   5   4  -5  572.74   20.70
  -5  -4   5  512.35   17.10
  -5  -4   5  536.25   14.50
  -5  -4   5  533.45   16.80
   4   4  -5  165.58    8.60
   4   4  -5  180.08   11.10
  -4  -4   5  156.48    8.40
  -4  -4   5  162.78    6.20
  -4  -4   5  162.48    8.70
  -4  -4   5  158.78    8.10
   3   4  -5    4.00    5.20
   3   4  -5   -1.50    2.80
  -3  -4   5    0.40    3.20
  -3  -4   5   -2.00    1.70
  -3  -4   5    0.50    2.80
   2   4  -5  136.89    9.60
   2   4  -5  129.09    6.90
  -2  -4   5  136.49    7.10
  -2  -4   5  153.48    7.50
  -2  -4   5  137.29    4.50
   1   4  -5   43.80    5.70
   1   4  -5   43.40    4.20
  -1  -4   5   50.69    4.40
  -1  -4   5   41.60    4.30
  -1  -4   5   44.00    2.10
   0   4  -5  428.76   12.50
   0   4  -5  447.66   14.00
   0  -4   5  447.66   11.60
   0  -4   5  427.06   12.60
  -1   4  -5    7.30    2.20
  -1   4  -5    7.70    3.00
  -1   4  -5   15.00    2.80
   1  -4   5    6.60    2.50
   1  -4   5    9.40    2.10
  -2   4  -5    3.20    2.20
  -2   4  -5    1.30    3.10
  -2   4  -5    4.10    1.70
  -2   4  -5    0.60    2.50
  -2   4  -5    1.80    1.90
   2  -4   5    1.30    2.30
  -3   4  -5  150.48    6.10
  -3   4  -5  144.09    6.20
  -3   4  -5  140.19    6.10
  -3   4  -5  146.09    5.40
  -3   4  -5  150.18    7.80
  -3   4  -5  154.68    4.50
   3  -4   5  155.08    6.60
  -4   4  -5  463.55   11.50
  -4   4  -5  440.06   12.90
  -4   4  -5  454.05   12.10
  -4   4  -5  443.56   12.50
  -4   4  -5  460.65   14.80
  -4   4  -5  433.66   12.60
  -4   4  -5  442.56   11.00
   4  -4   5  446.66   13.00
  -5   4  -5  274.17    9.60
  -5   4  -5  280.67    9.30
  -5   4  -5  279.37    9.70
  -5   4  -5  272.97   12.00
  -5   4  -5  271.97    8.30
   5  -4   5  289.17    9.90
  -6   4  -5   76.69    4.70
  -6   4  -5   70.79    5.70
  -6   4  -5   72.09    7.00
  -6   4  -5   68.99    5.40
   6  -4   5   71.29    5.60
  -7   4  -5   -1.00    2.80
  -7   4  -5    0.20    2.40
   7  -4   5   -2.80    2.70
  -8   4  -5   90.49    5.80
   8  -4   5   66.79    6.40
  -9   4  -5    0.90    4.10
  -9   4  -5   -1.10    3.00
  -9   4  -5    8.30    3.90
   8   3  -5   34.60    5.30
  -8  -3   5   26.40    6.30
  -8  -3   5   31.20    4.60
  -8  -3   5   25.20    6.20
   7   3  -5  157.68    8.90
  -7  -3   5  168.98    7.80
  -7  -3   5  160.98    9.70
  -7  -3   5  160.08   10.00
   6   3  -5  334.27   12.40
   6   3  -5  322.37   15.70
  -6  -3   5  340.37   10.90
  -6  -3   5  329.17   13.50
  -6  -3   5  359.96   13.50
   5   3  -5   43.00    7.20
   5   3  -5   39.60    4.80
  -5  -3   5   37.90    4.80
  -5  -3   5   35.40    4.90
  -5  -3   5   40.70    3.70
   4   3  -5  578.64   16.40
   4   3  -5  585.14   19.40
  -4  -3   5  548.85   16.70
  -4  -3   5  581.44   16.60
  -4  -3   5  571.24   16.50
  -4  -3   5  563.34   14.20
   3   3  -5   38.70    4.30
   3   3  -5   40.60    6.30
  -3  -3   5   31.70    2.80
  -3  -3   5   31.60    4.40
  -3  -3   5   37.70    4.40
   2   3  -5  152.58    8.80
   2   3  -5  152.68    6.70
  -2  -3   5  152.98    6.90
  -2  -3   5  160.28    6.90
  -2  -3   5  163.28    4.80
   1   3  -5   76.99    6.00
   1   3  -5   62.79    4.30
  -1  -3   5   67.19    4.70
  -1  -3   5   66.99    4.40
   0   3  -5  238.88    7.80
   0   3  -5  242.08    8.70
   0  -3   5  229.58    7.90
   0  -3   5  243.18    7.40
  -1   3  -5  253.07    6.50
  -1   3  -5  263.57    7.50
  -1   3  -5  251.87    8.10
  -1   3  -5  239.78    8.50
   1  -3   5  244.08    8.30
  -2   3  -5  191.48    6.70
  -2   3  -5  188.08    8.30
  -2   3  -5  182.78    4.80
  -2   3  -5  184.88    5.60
  -2   3  -5  196.48    6.90
  -2   3  -5  189.68    6.20
   2  -3   5  183.78    7.00
  -3   3  -5    5.80    2.00
  -3   3  -5    1.00    1.60
  -3   3  -5    0.80    1.30
  -3   3  -5    1.30    3.40
  -3   3  -5   -0.20    1.80
  -3   3  -5    3.00    2.10
   3  -3   5    4.20    2.30
  -4   3  -5 1118.79   25.50
  -4   3  -5 1102.19   26.40
  -4   3  -5 1125.89   26.50
  -4   3  -5 1125.39   24.40
  -4   3  -5 1104.59   28.10
  -4   3  -5 1135.69   24.80
   4  -3   5 1136.09   26.60
  -5   3  -5  614.04   15.50
  -5   3  -5  638.24   17.20
  -5   3  -5  627.74   17.10
  -5   3  -5  652.03   16.40
  -5   3  -5  619.84   19.00
   5  -3   5  622.14   17.20
  -6   3  -5   80.09    5.80
  -6   3  -5   87.79    7.70
  -6   3  -5   74.19    6.40
  -6   3  -5   81.79    5.00
   6  -3   5   79.29    6.20
  -7   3  -5  117.99    7.50
  -7   3  -5  127.79    6.60
  -7   3  -5  127.69    7.30
   7  -3   5  134.19    7.60
  -8   3  -5   90.99    6.10
  -8   3  -5   72.49    6.20
   8  -3   5   71.39    6.70
  -9   3  -5    2.10    3.30
  -9   3  -5   -2.80    3.80
  -9   3  -5   -0.90    3.30
   9  -3   5    2.90    3.40
   8   2  -5   90.79    6.60
  -8  -2   5   93.19    7.10
  -8  -2   5  106.69    9.60
  -8  -2   5   92.59    9.10
   7   2  -5   42.00    4.80
   7   2  -5   33.10    7.40
  -7  -2   5   29.30    4.00
  -7  -2   5   33.80    5.80
  -7  -2   5   32.00    5.30
   6   2  -5    3.30    2.70
   6   2  -5    6.90    5.50
  -6  -2   5    8.40    2.70
  -6  -2   5    2.30    3.30
  -6  -2   5    3.80    3.60
   5   2  -5   15.10    5.40
   5   2  -5   16.60    3.30
  -5  -2   5   17.60    4.10
  -5  -2   5   24.20    4.20
  -5  -2   5   16.90    2.80
   4   2  -5   62.89    7.00
   4   2  -5   60.39    4.90
  -4  -2   5   58.99    4.90
  -4  -2   5   67.99    4.20
  -4  -2   5   61.89    5.40
   3   2  -5    5.70    3.90
   3   2  -5    6.10    2.40
  -3  -2   5    3.80    1.70
  -3  -2   5    4.20    2.50
  -3  -2   5    1.10    2.90
   2   2  -5   33.00    4.10
   2   2  -5   37.70    3.40
  -2  -2   5   43.30    3.90
  -2  -2   5   29.20    3.30
   1   2  -5  214.78    7.20
   1   2  -5  192.88    8.10
  -1  -2   5  227.28    7.50
  -1  -2   5  206.28    5.30
  -1  -2   5  239.68    7.30
   0   2  -5  146.69    5.70
   0   2  -5  146.49    6.30
   0  -2   5  156.88    5.60
   0  -2   5  147.19    6.00
  -2   2  -5  115.09    5.10
  -2   2  -5  120.99    3.80
  -2   2  -5  118.89    4.20
  -2   2  -5  127.99    4.30
  -2   2  -5  119.39    6.80
  -2   2  -5  121.19    5.20
   2  -2   5  115.49    5.30
  -3   2  -5  688.03   16.20
  -3   2  -5  699.43   15.70
  -3   2  -5  670.83   18.60
  -3   2  -5  669.83   17.30
   3  -2   5  698.33   17.50
  -4   2  -5   18.50    4.30
  -4   2  -5   18.90    2.40
  -4   2  -5   18.70    4.40
  -4   2  -5   18.70    3.50
  -4   2  -5   19.20    2.50
   4  -2   5   13.50    3.40
  -5   2  -5  247.28    8.20
  -5   2  -5  269.77   10.10
  -5   2  -5  259.47   10.60
  -5   2  -5  237.08   10.90
   5  -2   5  258.07   10.00
  -6   2  -5  318.67   11.70
  -6   2  -5  313.37   12.70
  -6   2  -5  319.37   10.10
   6  -2   5  302.87   11.50
  -7   2  -5   41.90    4.40
  -7   2  -5   35.60    5.30
   7  -2   5   47.30    5.70
  -8   2  -5   53.59    5.20
  -8   2  -5   47.90    6.20
   8  -2   5   45.60    5.90
  -9   2  -5   29.40    4.70
   9  -2   5   33.50    5.50
   8   1  -5    9.00    2.90
  -8  -1   5    2.60    4.20
  -8  -1   5    7.70    4.20
   7   1  -5   56.99    4.70
   7   1  -5   47.20    7.40
  -7  -1   5   55.69    4.80
  -7  -1   5   51.49    6.30
  -7  -1   5   49.90    6.20
   6   1  -5  122.09    9.10
   6   1  -5  119.09    6.00
  -6  -1   5  113.39    7.30
  -6  -1   5  134.39    7.90
  -6  -1   5  102.99    5.90
   5   1  -5  141.49    6.20
   5   1  -5  126.09    8.90
  -5  -1   5  134.09    7.60
  -5  -1   5  146.19    7.90
   4   1  -5   26.30    4.90
   4   1  -5   24.30    3.10
  -4  -1   5   24.90    3.00
  -4  -1   5   24.40    4.10
  -4  -1   5   23.60    3.20
   3   1  -5   24.10    3.90
   3   1  -5   27.30    2.90
  -3  -1   5   30.70    3.30
  -3  -1   5   24.00    3.40
  -3  -1   5   28.00    2.60
   2   1  -5  225.78    8.60
   2   1  -5  238.18    7.40
  -2  -1   5  234.58    7.50
  -2  -1   5  243.58    8.00
  -2  -1   5  244.58    6.50
   1   1  -5 2075.29   45.00
   1   1  -5 2104.79   46.30
  -1  -1   5 2090.59   45.20
  -1  -1   5 2155.08   43.50
  -1  -1   5 2117.19   45.10
   0   1  -5  415.96    8.40
   0   1  -5  400.06   11.30
   0   1  -5  393.36   10.60
   0  -1   5  380.96   10.70
   0  -1   5  405.46    8.90
  -1   1  -5  730.93   17.50
  -1   1  -5  708.93   17.20
   1  -1   5  702.93   17.40
  -2   1  -5 1235.88   28.00
  -2   1  -5 1260.17   27.70
  -2   1  -5 1204.48   28.80
   2  -1   5 1194.78   28.00
  -3   1  -5  616.84   15.00
  -3   1  -5  623.94   17.10
  -3   1  -5  589.54   16.40
  -3   1  -5  613.84   14.50
  -3   1  -5  586.54   16.00
   3  -1   5  596.24   16.10
  -4   1  -5    2.30    4.10
  -4   1  -5   -0.70    2.00
  -4   1  -5    3.50    3.10
  -4   1  -5    3.80    4.00
   4  -1   5   -0.70    3.00
  -5   1  -5  178.38   10.30
  -5   1  -5  175.08    7.00
  -5   1  -5  163.48    9.30
  -5   1  -5  183.98    8.90
   5  -1   5  179.38    8.90
  -6   1  -5    7.40    4.20
  -6   1  -5    7.20    2.80
   6  -1   5    7.90    3.80
  -7   1  -5   77.49    6.00
  -7   1  -5   90.29    8.00
   7  -1   5   88.39    7.20
  -8   1  -5  102.49    7.00
  -8   1  -5   91.29    8.30
   8  -1   5  110.29    8.30
  -9   1  -5   23.70    6.10
  -9   1  -5   29.70    5.00
   9  -1   5   34.80    5.90
  -9   0   5   -4.10    4.40
  -9   0   5   -0.10    4.10
  -8   0   5   16.30    4.30
  -8   0   5   23.40    5.00
   7   0  -5   -2.40    4.40
   7   0  -5    2.20    1.90
  -7   0   5    4.90    3.50
  -7   0   5   -2.10    3.10
   6   0  -5  174.18    9.90
   6   0  -5  185.28    6.80
  -6   0   5  183.48    9.00
  -6   0   5  184.58    8.80
  -6   0   5  179.38    7.80
   5   0  -5  253.47   10.70
   5   0  -5  241.98    7.90
  -5   0   5  257.47    9.80
  -5   0   5  263.67    9.00
  -5   0   5  241.98    9.80
   4   0  -5  754.02   20.70
   4   0  -5  781.12   18.10
  -4   0   5  752.82   19.60
  -4   0   5  772.12   18.20
  -4   0   5  774.02   18.60
   3   0  -5  134.69    7.10
   3   0  -5  143.79    5.20
  -3   0   5  139.09    6.20
  -3   0   5  144.29    5.20
  -3   0   5  138.79    4.20
  -3   0   5  144.69    5.40
   2   0  -5   54.79    4.90
   2   0  -5   51.39    3.20
  -2   0   5   51.19    2.80
  -2   0   5   48.40    1.70
  -2   0   5   54.09    3.50
  -2   0   5   49.40    3.80
   1   0  -5  179.18    7.20
   1   0  -5  170.88    5.80
  -1   0   5  175.48    6.10
   0   0  -5   96.69    5.40
   0   0  -5   89.59    4.30
   0   0   5   90.19    4.30
  -1   0  -5  783.32   18.90
  -1   0  -5  796.02   19.40
   1   0   5  767.92   18.90
  -2   0  -5  312.77   10.50
  -2   0  -5  311.87   10.00
   2   0   5  308.97    9.90
  -3   0  -5  449.06   14.30
  -3   0  -5  479.35   14.20
  -3   0  -5  459.15   13.70
   3   0   5  468.55   13.80
  -4   0  -5 1252.67   30.20
  -4   0  -5 1216.28   30.60
  -4   0  -5 1243.08   28.10
  -4   0  -5 1251.57   30.50
   4   0   5 1234.28   30.20
  -5   0  -5   24.00    4.90
  -5   0  -5   19.80    3.30
  -5   0  -5    9.70    4.70
  -5   0  -5   16.40    5.10
   5   0   5   16.30    4.40
  -6   0  -5    2.90    4.50
  -6   0  -5   -1.50    2.60
   6   0   5   -1.30    3.40
  -7   0  -5    5.50    3.20
  -7   0  -5   -6.20    4.10
   7   0   5    2.50    3.80
  -8   0  -5   78.09    8.30
  -8   0  -5   89.69    7.00
   8   0   5   86.59    8.40
  -9   1   5  114.69    8.60
  -9   1   5  116.79    9.80
  -8   1   5   94.99    7.40
  -8   1   5   78.69    7.50
  -8   1   5  101.69    6.10
   7  -1  -5    3.60    4.30
  -7   1   5   11.10    3.80
  -7   1   5   11.80    2.70
  -7   1   5    8.90    3.80
  -7   1   5   13.00    3.50
   6  -1  -5   -1.00    3.50
   6  -1  -5    2.00    1.60
  -6   1   5    0.90    2.40
  -6   1   5   -0.30    1.90
  -6   1   5   -0.10    2.80
  -6   1   5    2.70    2.90
   5  -1  -5    3.90    1.70
   5  -1  -5    1.60    3.50
  -5   1   5    1.30    1.70
  -5   1   5    0.10    2.90
  -5   1   5    1.80    2.20
   4  -1  -5 1765.72   37.30
   4  -1  -5 1725.33   40.10
  -4   1   5 1762.72   37.00
  -4   1   5 1737.03   39.00
  -4   1   5 1748.93   38.40
  -4   1   5 1761.22   37.40
   3  -1  -5 1021.60   24.90
   3  -1  -5 1020.80   22.60
  -3   1   5 1015.40   21.70
  -3   1   5  994.20   23.70
  -3   1   5 1054.29   23.20
  -3   1   5 1009.00   22.70
   2  -1  -5  247.58    8.90
   2  -1  -5  254.67    7.40
  -2   1   5  249.28    7.50
  -2   1   5  247.78    7.80
  -2   1   5  257.47    7.20
   1  -1  -5   14.60    3.30
   1  -1  -5   10.50    2.00
   0  -1  -5  124.89    5.50
   0   1   5  130.29    3.40
   0   1   5  133.29    5.60
  -1  -1  -5  882.61   21.40
  -1  -1  -5  862.21   21.10
   1   1   5  885.21   21.30
  -2  -1  -5    0.50    2.40
  -2  -1  -5    8.00    3.90
  -2  -1  -5    1.20    3.00
   2   1   5    3.60    2.50
  -3  -1  -5   31.80    4.90
  -3  -1  -5   18.00    4.00
  -3  -1  -5   15.20    4.50
   3   1   5   18.80    4.00
  -4  -1  -5  383.96   13.20
  -4  -1  -5  352.86   13.40
  -4  -1  -5  371.86   11.00
  -4  -1  -5  372.46   13.30
   4   1   5  359.86   13.10
  -5  -1  -5  120.39    8.50
  -5  -1  -5  100.49    8.20
  -5  -1  -5  110.39    6.20
   5   1   5  114.59    7.90
  -6  -1  -5   10.20    3.30
  -6  -1  -5    6.60    4.90
   6   1   5   14.00    4.50
  -7  -1  -5   41.50    6.70
  -7  -1  -5   41.50    4.90
   7   1   5   44.60    6.40
  -8  -1  -5    4.40    5.40
  -8  -1  -5    9.50    4.00
   8   1   5    7.60    4.60
  -9   2   5   -2.10    3.50
  -9   2   5   -0.60    2.70
  -9   2   5   -3.40    3.90
  -8   2   5   96.79    7.80
  -8   2   5  103.39    7.30
  -8   2   5  110.49    7.20
  -8   2   5  101.99    6.20
   7  -2  -5  274.07   11.40
  -7   2   5  282.17    9.30
  -7   2   5  274.57   11.50
  -7   2   5  273.97   10.70
  -7   2   5  285.27   10.10
  -7   2   5  276.37   10.70
   6  -2  -5   24.40    2.30
   6  -2  -5   18.60    4.20
  -6   2   5   24.30    3.80
  -6   2   5   24.00    3.40
  -6   2   5   23.20    3.90
  -6   2   5   19.30    2.70
  -6   2   5   27.00    4.20
   5  -2  -5  348.97    8.60
   5  -2  -5  347.77   12.00
  -5   2   5  333.57   10.70
  -5   2   5  336.47    9.40
  -5   2   5  329.27   10.90
   4  -2  -5  207.58    8.80
   4  -2  -5  204.78    6.90
   4  -2  -5  198.88    6.00
  -4   2   5  207.18    6.20
  -4   2   5  209.88    7.40
  -4   2   5  205.58    7.80
  -4   2   5  206.18    6.20
   3  -2  -5    0.60    1.50
   3  -2  -5   -3.20    2.40
  -3   2   5    0.40    1.60
  -3   2   5    2.10    2.20
  -3   2   5    0.20    1.10
  -3   2   5   -2.20    1.40
   2  -2  -5   11.70    3.60
   2  -2  -5   12.10    2.20
  -2   2   5   12.90    2.20
  -2   2   5   16.00    2.10
  -2   2   5   14.50    2.30
   1  -2  -5   93.39    4.90
  -1   2   5  102.59    4.80
  -1   2   5   94.19    3.80
   0  -2  -5  458.35   12.80
   0   2   5  457.45   12.70
   0   2   5  458.25   10.90
  -1  -2  -5 2825.02   59.99
  -1  -2  -5 2812.12   60.89
   1   2   5 2808.32   60.79
  -2  -2  -5   56.39    5.00
  -2  -2  -5   47.30    5.90
  -2  -2  -5   53.19    5.50
   2   2   5   57.99    5.40
  -3  -2  -5   68.49    6.90
  -3  -2  -5   66.59    5.90
  -3  -2  -5   60.79    6.00
   3   2   5   53.49    5.60
  -4  -2  -5   62.29    7.50
  -4  -2  -5   44.40    6.10
  -4  -2  -5   63.49    5.10
  -4  -2  -5   42.40    6.00
   4   2   5   48.10    5.90
  -5  -2  -5   10.50    3.30
  -5  -2  -5   18.50    5.80
  -5  -2  -5   13.20    4.90
   5   2   5   12.80    4.50
  -6  -2  -5   63.29    5.60
  -6  -2  -5   66.29    7.90
   6   2   5   68.49    7.40
  -7  -2  -5   -0.50    3.20
  -7  -2  -5    2.30    5.10
   7   2   5    3.30    4.30
  -8  -2  -5    5.10    5.90
  -8  -2  -5    3.00    3.70
  -9   3   5   25.00    5.10
  -9   3   5   29.80    5.80
  -9   3   5   34.30    4.70
  -9   3   5   34.30    5.10
  -9   3   5   28.30    4.20
  -8   3   5   19.70    4.50
  -8   3   5   24.40    4.50
  -8   3   5   26.10    4.20
  -8   3   5   25.30    4.40
  -8   3   5   26.50    3.70
   7  -3  -5   26.40    4.60
  -7   3   5   28.60    4.10
  -7   3   5   29.10    3.50
  -7   3   5   24.20    4.30
  -7   3   5   29.60    4.30
  -7   3   5   26.80    4.10
   6  -3  -5  702.73   19.40
  -6   3   5  699.73   18.70
  -6   3   5  680.13   18.30
  -6   3   5  689.83   17.10
  -6   3   5  668.23   19.10
  -6   3   5  690.23   18.50
   5  -3  -5  475.45   14.70
   5  -3  -5  480.95   10.90
  -5   3   5  447.56   13.20
  -5   3   5  463.55   13.60
  -5   3   5  484.45   12.30
  -5   3   5  470.25   13.60
   4  -3  -5   23.70    4.20
   4  -3  -5   32.40    2.70
  -4   3   5   27.70    2.50
  -4   3   5   24.90    3.40
  -4   3   5   26.20    3.40
  -4   3   5   23.80    3.20
   3  -3  -5  319.47   11.50
   3  -3  -5  340.97    9.40
  -3   3   5  336.67    9.80
  -3   3   5  340.17   10.30
  -3   3   5  345.37    9.30
   2  -3  -5    0.60    2.00
  -2   3   5   -0.20    1.60
  -2   3   5    0.40    2.00
  -2   3   5   -0.60    1.70
   1  -3  -5  196.08    7.80
  -1   3   5  260.67    8.10
   0  -3  -5  196.48    7.90
   0   3   5  206.58    6.70
   0   3   5  199.58    7.90
  -1  -3  -5  708.83   17.80
  -1  -3  -5  703.53   19.20
  -1  -3  -5  708.73   19.50
   1   3   5  702.93   19.00
  -2  -3  -5  354.46   11.30
  -2  -3  -5  337.37   13.00
  -2  -3  -5  343.37   12.80
   2   3   5  360.96   12.60
  -3  -3  -5   54.89    6.20
  -3  -3  -5   55.99    5.80
  -3  -3  -5   53.79    6.80
   3   3   5   58.59    6.00
  -4  -3  -5    5.60    4.90
  -4  -3  -5    5.10    5.30
   4   3   5   -0.10    3.80
  -5  -3  -5   55.79    5.20
  -5  -3  -5   54.49    7.20
  -5  -3  -5   66.99    7.60
   5   3   5   68.19    7.60
  -6  -3  -5   64.99    7.60
  -6  -3  -5   75.79    6.20
   6   3   5   80.59    8.30
  -7  -3  -5   24.50    6.90
  -7  -3  -5   33.70    5.30
   7   3   5   33.10    6.50
  -9   4   5   39.20    5.70
  -9   4   5   37.60    4.50
  -9   4   5   29.50    5.50
  -8   4   5   30.00    5.00
  -8   4   5   25.90    4.40
  -8   4   5   25.90    3.70
  -8   4   5   31.10    4.50
  -8   4   5   27.60    4.20
   7  -4  -5   25.90    5.20
  -7   4   5   24.50    4.20
  -7   4   5   26.30    4.00
  -7   4   5   33.30    4.50
  -7   4   5   22.50    3.30
  -7   4   5   30.70    4.60
   6  -4  -5   61.29    6.10
  -6   4   5   62.89    4.80
  -6   4   5   55.19    5.10
  -6   4   5   59.99    5.10
  -6   4   5   57.09    4.30
  -6   4   5   59.09    5.40
   5  -4  -5  261.87   10.40
   5  -4  -5  256.47    6.30
  -5   4   5  243.58    7.90
  -5   4   5  238.78    9.00
  -5   4   5  240.08    8.70
  -5   4   5  243.18    9.30
   4  -4  -5  408.86   10.70
   4  -4  -5  417.66   14.10
  -4   4   5  420.76   12.50
  -4   4   5  412.66   13.00
  -4   4   5  416.96   12.20
   3  -4  -5  212.88    7.40
  -3   4   5  219.28    7.10
  -3   4   5  209.08    7.60
  -3   4   5  206.78    8.10
   2  -4  -5  873.41   21.20
  -2   4   5  884.81   20.90
  -2   4   5  842.72   20.70
  -2   4   5  883.11   21.30
   1  -4  -5  139.19    7.40
  -1   4   5  189.58    6.70
   0  -4  -5    4.50    3.00
   0  -4  -5    4.10    3.50
   0   4   5    8.10    2.60
   0   4   5    1.40    2.80
  -1  -4  -5  262.87   11.00
  -1  -4  -5  292.07    9.40
  -1  -4  -5  295.57   12.40
   1   4   5  281.07   10.90
  -2  -4  -5   -2.20    5.50
  -2  -4  -5   -1.50    3.40
  -2  -4  -5    2.60    4.00
   2   4   5   -0.30    3.40
  -3  -4  -5    1.50    5.90
  -3  -4  -5    8.10    5.10
   3   4   5    1.40    4.00
  -4  -4  -5   45.00    7.10
  -4  -4  -5   48.00    7.10
   4   4   5   50.29    6.60
  -5  -4  -5   -0.30    4.80
  -5  -4  -5   -0.60    4.90
  -5  -4  -5    0.40    3.40
   5   4   5    1.90    4.30
  -6  -4  -5  129.19   10.30
  -6  -4  -5  151.28    8.60
   6   4   5  145.29   10.50
  -7  -4  -5  239.98   14.60
  -7  -4  -5  228.98   11.10
   7   4   5  230.88   13.50
  -9   5   5   22.20    4.20
  -9   5   5   17.20    4.30
  -9   5   5   13.50    4.60
  -9   5   5   18.50    4.60
  -8   5   5  156.38    8.70
  -8   5   5  163.98    8.60
  -8   5   5  156.88    9.10
  -8   5   5  153.68    7.60
  -7   5   5  117.59    7.50
  -7   5   5  113.79    6.30
  -7   5   5  114.09    7.20
  -7   5   5  119.19    6.30
  -7   5   5  109.19    7.10
   6  -5  -5  579.34   17.40
  -6   5   5  567.64   16.70
  -6   5   5  573.54   15.20
  -6   5   5  573.74   16.80
  -6   5   5  582.04   16.60
  -6   5   5  580.84   15.60
   5  -5  -5   17.00    2.00
   5  -5  -5   18.90    4.50
  -5   5   5   12.80    3.00
  -5   5   5   12.90    3.60
  -5   5   5   15.10    3.40
  -5   5   5   12.40    2.60
   4  -5  -5   45.80    3.60
  -4   5   5   43.90    5.10
  -4   5   5   38.20    4.00
  -4   5   5   33.30    3.90
   3  -5  -5  352.36   10.70
  -3   5   5  340.27   10.20
  -3   5   5  343.37   10.80
  -3   5   5  360.06   11.70
   2  -5  -5   23.10    4.00
  -2   5   5   28.10    3.80
   1  -5  -5  234.38    9.90
  -1   5   5  259.47    9.10
  -1   5   5  244.68    9.60
   0  -5  -5   78.59    5.20
   0  -5  -5   71.09    6.90
   0  -5  -5   86.59    7.30
   0   5   5   91.59    6.70
   0   5   5   79.29    5.60
  -1  -5  -5  635.24   19.70
  -1  -5  -5  631.64   19.30
  -1  -5  -5  620.34   15.70
   1   5   5  637.64   18.80
  -2  -5  -5   38.70    7.20
  -2  -5  -5   24.20    5.90
   2   5   5   22.90    5.40
  -3  -5  -5  217.78   11.90
  -3  -5  -5  213.08   11.60
   3   5   5  213.78   11.10
  -4  -5  -5    9.80    5.60
  -4  -5  -5    0.80    4.90
   4   5   5   13.40    5.20
  -5  -5  -5   84.39    8.90
  -5  -5  -5  129.79   11.20
  -5  -5  -5  110.69    8.10
   5   5   5  125.29    9.80
  -6  -5  -5   -3.00    6.10
  -6  -5  -5    1.10    3.80
   6   5   5   -1.30    4.60
  -9   6   5   29.10    5.10
  -9   6   5   22.20    5.10
  -9   6   5   29.50    4.40
  -9   6   5   32.60    5.30
  -8   6   5  121.99    8.10
  -8   6   5  120.09    7.90
  -8   6   5  129.29    7.20
  -8   6   5  123.39    7.90
  -7   6   5  749.42   20.90
  -7   6   5  703.63   20.10
  -7   6   5  724.43   20.70
  -7   6   5  729.63   19.10
   6  -6  -5    1.20    3.30
  -6   6   5    0.90    2.20
  -6   6   5    3.60    2.50
  -6   6   5   -3.40    2.60
  -6   6   5    1.30    2.50
  -6   6   5    1.30    3.10
   5  -6  -5  165.58    5.40
   5  -6  -5  160.88    9.40
  -5   6   5  154.68    7.60
  -5   6   5  156.58    7.80
  -5   6   5  159.78    8.70
   4  -6  -5    8.00    2.80
  -4   6   5   10.00    3.70
  -4   6   5    3.70    2.80
  -4   6   5    8.10    2.90
   3  -6  -5    1.60    3.10
  -3   6   5    1.70    2.50
  -3   6   5    3.60    3.10
   2  -6  -5  107.69    7.30
  -2   6   5   98.39    5.80
  -2   6   5   98.49    6.50
  -2   6   5  108.89    6.50
   1  -6  -5  151.48    9.20
  -1   6   5  149.39    8.20
  -1   6   5  176.28    8.10
   0  -6  -5   62.19    6.90
   0  -6  -5   44.30    6.80
   0   6   5   53.79    5.70
   0   6   5   71.09    6.60
  -1  -6  -5  506.55   17.80
  -1  -6  -5  500.55   17.30
   1   6   5  510.95   16.80
  -2  -6  -5  139.19   11.00
  -2  -6  -5  138.59   10.10
   2   6   5  121.89    9.00
  -3  -6  -5  174.08   12.00
  -3  -6  -5  172.58   11.50
   3   6   5  171.48   10.70
  -4  -6  -5   16.30    6.50
  -4  -6  -5   30.80    7.30
   4   6   5   29.40    6.30
  -5  -6  -5    3.00    6.40
  -5  -6  -5   11.20    4.80
  -5  -6  -5   10.10    6.00
   5   6   5    3.80    4.70
  -9   7   5   86.19    7.60
  -9   7   5   73.69    7.40
  -9   7   5   88.69    6.80
  -8   7   5   58.79    6.60
  -8   7   5   53.39    5.20
  -8   7   5   48.60    5.80
  -7   7   5    9.10    3.10
  -7   7   5   17.50    4.70
  -7   7   5   19.20    4.20
  -7   7   5    5.40    3.30
   6  -7  -5  140.79    9.20
  -6   7   5  140.19    7.70
  -6   7   5  147.39    8.10
  -6   7   5  147.09    9.00
   5  -7  -5    4.60    2.20
  -5   7   5    1.20    2.60
  -5   7   5    3.80    3.20
  -5   7   5    2.60    3.30
   4  -7  -5   16.70    3.40
  -4   7   5   18.10    3.60
  -4   7   5   19.20    4.40
  -4   7   5   15.50    3.40
   3  -7  -5   89.69    6.60
  -3   7   5   81.79    5.90
  -3   7   5   90.79    6.80
   2  -7  -5  348.27   13.30
   2  -7  -5  342.57   12.40
  -2   7   5  322.87   12.10
  -2   7   5  326.37   11.30
  -2   7   5  331.57   12.00
   1  -7  -5  354.56   13.60
   1  -7  -5  372.46   14.30
  -1   7   5  368.16   13.20
  -1   7   5  379.76   13.20
   0  -7  -5  267.27   12.60
   0  -7  -5  262.87   12.10
   0   7   5  259.07   11.10
   0   7   5  259.77   11.40
  -1  -7  -5  165.08   10.70
  -1  -7  -5  146.69   11.10
   1   7   5  144.39    9.50
  -2  -7  -5  110.29   10.00
  -2  -7  -5   90.79    9.10
   2   7   5   92.09    8.50
  -3  -7  -5   46.60    8.10
  -3  -7  -5   45.20    7.30
   3   7   5   39.50    6.30
  -4  -7  -5   10.30    7.00
  -4  -7  -5   21.40    7.00
   4   7   5   17.50    5.30
  -8   8   5   36.80    5.50
  -8   8   5   25.40    4.80
  -7   8   5    8.80    3.50
  -7   8   5   15.80    4.60
  -7   8   5   11.50    3.90
  -6   8   5   33.60    5.80
  -6   8   5   26.60    4.70
  -6   8   5   31.00    4.80
   5  -8  -5   57.49    4.50
  -5   8   5   61.39    7.00
  -5   8   5   47.00    5.10
  -5   8   5   56.29    5.90
   4  -8  -5    4.70    3.10
  -4   8   5    5.70    3.60
  -4   8   5    8.10    3.10
  -4   8   5    1.20    2.80
   3  -8  -5   58.29    6.70
   3  -8  -5   62.59    6.10
  -3   8   5   58.79    5.80
  -3   8   5   67.09    6.70
   2  -8  -5  454.55   15.40
   2  -8  -5  475.55   15.90
  -2   8   5  415.96   14.80
  -2   8   5  435.56   14.10
   1  -8  -5  596.14   19.10
   1  -8  -5  565.14   18.90
  -1   8   5  548.75   18.00
  -1   8   5  587.54   18.10
   0  -8  -5  286.27   13.70
   0  -8  -5  290.27   13.40
   0   8   5  297.67   12.50
   0   8   5  278.27   12.30
  -1  -8  -5    7.10    6.20
  -1  -8  -5    8.70    5.30
   1   8   5   10.70    4.40
  -2  -8  -5   63.89    8.70
  -2  -8  -5   64.89    8.10
   2   8   5   60.99    7.30
  -3  -8  -5   24.50    7.30
  -3  -8  -5   35.30    7.90
   3   8   5   28.70    6.50
  -4  -8  -5   25.70    7.10
   4   8   5   37.20    7.30
  -8   9   5    7.60    3.90
  -8   9   5    4.70    3.90
  -8   9   5    4.90    4.40
  -7   9   5   81.19    8.10
  -7   9   5   73.59    7.20
  -7   9   5   64.69    6.70
  -6   9   5  215.98   10.30
  -6   9   5  229.38   12.00
  -6   9   5  217.28   10.50
   5  -9  -5   99.89    5.90
  -5   9   5  100.39    7.10
  -5   9   5  107.39    8.60
  -5   9   5   95.69    7.00
   4  -9  -5   98.49    6.80
  -4   9   5   84.39    6.70
  -4   9   5   87.79    6.40
  -4   9   5   88.99    7.70
   3  -9  -5    4.10    4.00
  -3   9   5    5.00    3.10
  -3   9   5    7.90    4.00
   2  -9  -5   25.40    6.30
   2  -9  -5   18.20    5.10
  -2   9   5   28.70    4.60
  -2   9   5   27.60    5.00
   1  -9  -5  112.19    9.70
   1  -9  -5  111.09    9.50
  -1   9   5   97.39    8.00
   0  -9  -5    2.70    5.80
   0  -9  -5    6.50    5.50
   0   9   5   11.10    4.40
   0   9   5    9.30    4.50
  -1  -9  -5   68.99    8.50
  -1  -9  -5   74.19    8.80
   1   9   5   63.29    7.40
  -2  -9  -5   82.49    9.80
  -2  -9  -5   83.29    9.90
   2   9   5   70.09    8.60
  -7  10   5    5.60    4.00
  -7  10   5    6.00    3.90
  -7  10   5    7.60    4.50
  -6  10   5    6.50    4.50
  -6  10   5    8.10    3.70
  -6  10   5    7.30    3.80
   5 -10  -5   68.29    8.30
  -5  10   5   66.89    8.10
  -5  10   5   65.89    6.30
  -5  10   5   68.19    6.80
   4 -10  -5  265.47   11.10
  -4  10   5  250.97   11.10
  -4  10   5  246.78   12.50
   3 -10  -5   35.80    5.70
  -3  10   5   24.30    4.60
  -3  10   5   26.80    5.80
   2 -10  -5  158.38   10.50
  -2  10   5  146.99    9.70
  -2  10   5  162.68    9.00
   1 -10  -5  370.26   15.70
  -1  10   5  327.07   14.40
  -1  10   5  336.47   13.50
   0 -10  -5   11.90    6.00
   0 -10  -5    1.20    5.90
   0  10   5   11.40    5.20
  -1 -10  -5    2.90    6.40
  -1 -10  -5    5.20    5.90
   1  10   5    7.20    5.00
  -6  11   5   64.09    8.60
  -6  11   5   50.19    6.50
  -6  11   5   52.89    6.30
  -5  11   5   29.70    5.30
  -5  11   5   17.20    5.50
  -5  11   5   15.70    4.20
   4 -11  -5    4.60    4.30
  -4  11   5    3.10    3.50
  -4  11   5    3.80    4.60
   3 -11  -5    0.50    4.40
  -3  11   5    2.70    4.10
  -3  11   5    3.70    3.60
   2 -11  -5  257.67   13.10
  -2  11   5  230.88   11.30
  -2  11   5  252.97   13.10
   1 -11  -5   16.90    6.20
  -1  11   5   21.80    6.10
  -1  11   5   23.10    5.30
  -1  12  -6   11.10    6.20
  -1  12  -6    8.10    4.70
   1 -12   6   13.60    5.90
  -2  12  -6   13.00    6.00
   2 -12   6   18.50    5.70
   3 -12   6   13.20    5.20
  -4  12  -6  108.59   10.50
  -4  12  -6  101.19    8.50
   4 -12   6  111.19    8.70
  -5  12  -6  158.58   11.80
  -5  12  -6  149.59   10.40
   5 -12   6  159.68    9.80
   1  11  -6   17.70    5.50
  -1 -11   6    9.80    5.80
   0  11  -6  552.04   20.10
   0 -11   6  560.14   20.30
  -1  11  -6   25.00    6.50
  -1  11  -6   21.30    4.90
   1 -11   6   21.60    5.80
   2 -11   6   12.30    4.60
  -3  11  -6   48.80    6.40
  -3  11  -6   59.29    8.10
   3 -11   6   60.29    7.30
  -4  11  -6   -1.30    4.50
  -4  11  -6    5.50    4.50
   4 -11   6    2.70    3.70
  -5  11  -6   28.20    6.30
  -5  11  -6   22.20    5.90
   5 -11   6   19.30    4.70
  -6  11  -6    3.70    4.60
  -6  11  -6   -7.80    4.40
   6 -11   6   -1.00    3.20
  -7  11  -6   -0.40    4.40
  -7  11  -6    1.30    5.20
   7 -11   6    0.60    3.20
   2  10  -6    3.30    4.90
  -2 -10   6    8.20    5.80
  -2 -10   6    7.10    4.50
   1  10  -6    9.20    4.30
  -1 -10   6   21.30    5.80
   0  10  -6   -1.40    3.70
   0 -10   6    3.20    4.60
  -1  10  -6    2.60    3.40
  -1  10  -6    1.40    4.50
   1 -10   6    1.40    3.90
  -2  10  -6  354.46   13.80
  -2  10  -6  328.97   14.90
   2 -10   6  362.96   14.30
  -3  10  -6    9.80    4.40
   3 -10   6   14.40    4.50
  -4  10  -6   17.10    5.20
   4 -10   6   17.30    4.40
  -5  10  -6  372.16   15.50
   5 -10   6  382.86   13.60
  -6  10  -6    8.00    4.50
  -6  10  -6   14.30    4.70
   6 -10   6   13.60    3.90
  -7  10  -6   -2.90    4.80
  -7  10  -6    6.10    3.70
  -7  10  -6    6.60    4.70
  -7  10  -6    1.60    4.30
   7 -10   6    1.50    3.20
   3   9  -6  513.25   19.80
  -3  -9   6  555.44   20.10
  -3  -9   6  529.45   18.30
   2   9  -6  368.06   15.50
  -2  -9   6  348.17   13.60
  -2  -9   6  349.37   15.20
   1   9  -6   10.50    4.40
  -1  -9   6    3.00    4.70
  -1  -9   6    9.60    3.80
   0   9  -6   12.90    4.50
   0  -9   6    6.90    3.40
   0  -9   6    9.70    5.00
  -1   9  -6   39.70    5.60
  -1   9  -6   44.20    6.90
   1  -9   6   52.49    6.50
  -2   9  -6   23.40    4.30
  -2   9  -6   13.60    4.50
  -2   9  -6   26.20    5.60
   2  -9   6   14.70    4.40
  -3   9  -6   33.00    5.30
  -3   9  -6   30.20    4.50
  -3   9  -6   21.90    5.20
   3  -9   6   30.30    4.90
  -4   9  -6  230.28   11.60
  -4   9  -6  240.38   10.90
   4  -9   6  243.18   10.50
  -5   9  -6  200.28   10.70
  -5   9  -6  191.88   10.80
   5  -9   6  187.48    9.10
  -6   9  -6  317.47   11.70
  -6   9  -6  321.07   13.80
  -6   9  -6  315.47   13.20
   6  -9   6  302.57   11.50
  -7   9  -6   11.50    4.00
  -7   9  -6   16.30    5.30
  -7   9  -6   15.10    4.80
   7  -9   6    9.80    3.50
  -8   9  -6   55.29    7.70
  -8   9  -6   29.10    6.20
  -8   9  -6   32.20    5.20
   4   8  -6    1.70    4.10
  -4  -8   6    0.60    4.80
  -4  -8   6   -0.80    4.30
   3   8  -6   29.60    5.70
  -3  -8   6   26.40    5.90
  -3  -8   6   23.30    5.10
   2   8  -6    3.70    3.80
  -2  -8   6    9.20    3.80
   1   8  -6    3.30    3.60
  -1  -8   6   11.10    4.70
  -1  -8   6    8.70    3.40
   0   8  -6   71.09    7.00
   0  -8   6   79.49    7.60
   0  -8   6   61.89    5.40
  -1   8  -6   27.90    4.60
  -1   8  -6   32.10    5.70
   1  -8   6   24.90    4.70
   1  -8   6   36.10    3.70
  -2   8  -6  548.15   17.80
  -2   8  -6  555.74   16.80
  -2   8  -6  561.24   17.20
   2  -8   6  525.15   17.00
  -3   8  -6  236.48   10.80
  -3   8  -6  251.87   10.00
  -3   8  -6  250.67   11.20
   3  -8   6  241.08   10.10
  -4   8  -6   42.60    5.80
  -4   8  -6   54.19    6.40
   4  -8   6   51.19    5.60
  -5   8  -6  137.59    9.60
  -5   8  -6  122.59    7.30
  -5   8  -6  136.29    8.60
   5  -8   6  131.29    7.40
  -6   8  -6    2.90    4.50
  -6   8  -6    2.10    3.70
  -6   8  -6    0.60    3.10
   6  -8   6    0.10    2.80
  -7   8  -6   67.29    5.80
  -7   8  -6   84.09    8.10
  -7   8  -6   71.39    7.40
   7  -8   6   70.29    5.90
  -8   8  -6   12.70    4.30
  -8   8  -6   -3.30    4.40
   8  -8   6    5.50    3.30
   5   7  -6  412.96   16.90
  -5  -7   6  411.26   15.50
  -5  -7   6  438.46   16.80
   4   7  -6   -0.50    3.70
  -4  -7   6    4.60    4.50
  -4  -7   6    3.10    4.20
  -4  -7   6    0.10    3.30
   3   7  -6   21.40    5.10
  -3  -7   6   16.50    3.80
  -3  -7   6   12.30    4.30
  -3  -7   6   16.30    5.00
   2   7  -6   65.59    6.90
  -2  -7   6   75.89    6.60
  -2  -7   6   73.39    5.40
  -2  -7   6   77.39    7.60
   1   7  -6   26.60    4.80
  -1  -7   6   23.20    3.90
  -1  -7   6   21.70    5.00
   0   7  -6   37.70    5.00
   0   7  -6   42.20    7.60
   0  -7   6   35.40    4.20
   0  -7   6   36.70    5.20
  -1   7  -6 1063.99   27.80
  -1   7  -6 1042.40   29.40
  -1   7  -6 1057.39   27.10
   1  -7   6 1060.89   27.30
   1  -7   6 1060.99   24.60
  -3   7  -6  914.91   23.00
  -3   7  -6  851.51   23.50
  -3   7  -6  879.21   23.80
   3  -7   6  876.21   23.10
  -4   7  -6   12.20    4.00
  -4   7  -6   14.50    3.40
  -4   7  -6   14.00    3.10
  -4   7  -6   19.00    5.00
   4  -7   6   10.30    3.50
  -5   7  -6   15.70    4.00
  -5   7  -6   15.20    5.00
  -5   7  -6   18.20    3.50
   5  -7   6   20.10    3.80
  -6   7  -6   27.10    4.80
  -6   7  -6   22.90    3.90
  -6   7  -6   21.20    5.50
   6  -7   6   23.50    4.10
  -7   7  -6   49.30    6.30
  -7   7  -6   44.70    5.10
  -7   7  -6   62.39    7.50
   7  -7   6   47.80    5.10
  -8   7  -6   20.60    4.30
   8  -7   6   20.50    4.10
  -9   7  -6   20.50    4.90
  -9   7  -6    9.50    5.40
   6   6  -6   20.10    5.40
  -6  -6   6   21.70    5.40
  -6  -6   6   21.10    5.80
   5   6  -6   -0.70    3.70
  -5  -6   6   -0.60    4.30
  -5  -6   6   -2.50    3.40
   4   6  -6  112.59    8.20
  -4  -6   6   90.39    7.80
  -4  -6   6   87.29    7.90
  -4  -6   6  100.19    7.30
   3   6  -6  230.78   14.50
   3   6  -6  257.97   11.40
  -3  -6   6  254.87   10.90
  -3  -6   6  245.78    9.70
  -3  -6   6  247.28   11.30
   2   6  -6    3.10    3.30
   2   6  -6    4.60    5.90
   1   6  -6  416.56   14.20
   1   6  -6  401.76   16.90
  -1  -6   6  443.46   14.60
  -1  -6   6  438.96   13.20
   0   6  -6  192.08    8.60
   0   6  -6  191.08   11.50
   0  -6   6  195.28    9.20
   0  -6   6  189.18    7.50
  -1   6  -6   64.39    6.40
  -1   6  -6   46.30    6.50
  -1   6  -6   49.80    5.00
   1  -6   6   55.99    4.50
   1  -6   6   43.10    5.10
  -2   6  -6  240.98   10.80
  -2   6  -6  229.98    9.40
  -2   6  -6  247.78    9.30
  -2   6  -6  238.08   10.80
   2  -6   6  229.08    9.50
  -3   6  -6    2.10    3.90
  -3   6  -6    4.70    2.70
  -3   6  -6    4.40    3.20
  -3   6  -6   -0.10    4.30
  -3   6  -6    0.00    2.40
   3  -6   6    1.80    3.00
  -4   6  -6   23.20    4.10
  -4   6  -6   21.90    5.20
  -4   6  -6   22.30    3.60
  -4   6  -6   19.30    3.20
   4  -6   6   20.90    4.00
  -5   6  -6  208.98    9.30
  -5   6  -6  205.38   10.80
  -5   6  -6  214.38    8.40
   5  -6   6  206.58    8.80
  -6   6  -6    3.50    3.00
  -6   6  -6    5.40    4.40
  -6   6  -6    9.20    3.50
   6  -6   6    1.10    2.80
  -7   6  -6   52.49    4.30
  -7   6  -6   59.99    5.50
  -7   6  -6   54.09    7.40
   7  -6   6   56.89    5.50
  -8   6  -6  113.69    7.60
  -8   6  -6  120.09    6.50
   8  -6   6  110.49    7.30
  -9   6  -6  110.29    9.40
  -9   6  -6  109.19    8.20
   6   5  -6   52.69    6.60
  -6  -5   6   36.30    5.70
  -6  -5   6   45.70    6.90
   5   5  -6    1.30    3.40
   5   5  -6   -3.10    6.20
  -5  -5   6   -0.90    3.30
  -5  -5   6   -5.20    3.70
   4   5  -6   12.90    3.90
   4   5  -6    9.60    6.50
  -4  -5   6    6.70    3.70
  -4  -5   6   19.30    4.50
   3   5  -6   28.50    4.50
   3   5  -6   37.90    7.60
  -3  -5   6   32.80    5.00
  -3  -5   6   32.80    4.60
   2   5  -6  948.01   25.10
   2   5  -6  994.60   28.10
  -2  -5   6  935.81   25.00
  -2  -5   6  993.00   24.50
   1   5  -6  215.58   11.80
   1   5  -6  218.48    9.30
  -1  -5   6  219.48    8.60
  -1  -5   6  227.98    9.50
   0   5  -6  605.54   18.60
   0   5  -6  573.14   16.50
   0  -5   6  575.04   15.30
   0  -5   6  585.64   16.80
  -1   5  -6    8.00    4.30
  -1   5  -6   14.70    3.60
  -1   5  -6    9.80    2.70
   1  -5   6   11.40    2.80
   1  -5   6    8.30    2.90
  -2   5  -6  300.97   11.70
  -2   5  -6  264.87    9.50
  -2   5  -6  285.07   11.00
  -2   5  -6  320.37    9.90
   2  -5   6  260.47    9.90
  -3   5  -6   10.00    4.70
  -3   5  -6   13.40    3.40
  -3   5  -6   16.30    3.20
  -3   5  -6   10.90    2.60
  -3   5  -6   18.80    3.90
   3  -5   6   17.20    3.60
  -4   5  -6    0.80    2.90
  -4   5  -6    2.70    2.40
  -4   5  -6   -0.70    3.90
  -4   5  -6    0.60    2.50
  -4   5  -6    3.40    1.60
  -4   5  -6    3.00    2.60
   4  -5   6    3.50    3.10
  -5   5  -6   70.59    5.30
  -5   5  -6   61.79    5.60
  -5   5  -6   83.89    6.70
  -5   5  -6   78.19    5.80
  -5   5  -6   75.89    4.10
  -5   5  -6   76.69    7.60
   5  -5   6   72.09    5.80
  -6   5  -6  191.08    8.10
  -6   5  -6  184.38    6.80
  -6   5  -6  173.38   10.60
   6  -5   6  178.68    8.30
  -7   5  -6   88.59    5.50
  -7   5  -6   97.59    9.00
  -7   5  -6   98.29    6.70
   7  -5   6   97.29    6.70
  -8   5  -6   41.30    5.10
  -8   5  -6   39.60    4.30
   8  -5   6   43.20    5.20
  -9   5  -6   80.99    7.20
  -9   5  -6   78.99    8.10
  -9   5  -6   70.69    6.00
   9  -5   6   70.49    9.40
   7   4  -6    8.60    3.90
  -7  -4   6    8.70    4.60
  -7  -4   6   13.70    4.20
  -7  -4   6    9.50    4.80
   6   4  -6  735.13   22.00
   6   4  -6  767.02   26.50
  -6  -4   6  769.12   23.10
  -6  -4   6  748.23   19.40
  -6  -4   6  762.62   22.60
   5   4  -6  283.17   11.70
   5   4  -6  278.77   15.20
  -5  -4   6  276.67   12.10
  -5  -4   6  303.17   12.00
  -5  -4   6  298.27    9.40
   4   4  -6  124.89    7.40
   4   4  -6  128.19   10.90
  -4  -4   6  133.69    8.00
  -4  -4   6  130.69    5.40
  -4  -4   6  126.19    7.50
  -4  -4   6  125.59    7.60
   3   4  -6   29.50    6.60
   3   4  -6   36.90    4.70
  -3  -4   6   35.10    2.80
  -3  -4   6   25.90    4.10
   2   4  -6   10.30    3.30
   2   4  -6    7.30    4.60
  -2  -4   6   15.70    3.60
   1   4  -6   53.99    4.60
   1   4  -6   55.29    6.40
  -1  -4   6   58.99    5.00
  -1  -4   6   50.09    4.90
   0   4  -6    0.10    2.20
   0   4  -6    1.70    3.70
   0  -4   6    2.20    2.80
   0  -4   6    0.30    2.20
  -1   4  -6   71.79    4.40
  -1   4  -6   47.80    4.50
  -2   4  -6  852.31   20.70
  -2   4  -6  882.21   21.50
  -2   4  -6  870.01   23.00
  -2   4  -6  873.41   19.60
  -2   4  -6  889.11   21.90
   2  -4   6  866.91   21.80
  -3   4  -6  476.05   12.20
  -3   4  -6  466.25   12.90
  -3   4  -6  483.45   13.20
  -3   4  -6  472.25   11.00
  -3   4  -6  458.35   15.10
  -3   4  -6  483.65   13.60
   3  -4   6  479.85   14.00
  -4   4  -6  172.88    6.60
  -4   4  -6  172.08    7.80
  -4   4  -6  175.78    5.60
  -4   4  -6  181.88    7.70
  -4   4  -6  178.08    7.10
  -4   4  -6  174.38    9.90
  -4   4  -6  168.28    6.60
   4  -4   6  165.08    7.80
  -5   4  -6    4.10    3.10
  -5   4  -6    2.20    5.00
  -5   4  -6    2.20    2.60
  -5   4  -6    3.60    3.60
  -5   4  -6    5.00    2.10
   5  -4   6    2.50    3.00
  -6   4  -6   37.60    3.60
  -6   4  -6   41.40    4.30
  -6   4  -6   38.00    6.30
  -6   4  -6   44.10    5.00
   6  -4   6   39.60    4.90
  -7   4  -6  212.58   11.20
  -7   4  -6  200.68    8.90
  -7   4  -6  194.58    8.00
   7  -4   6  198.58    9.30
  -8   4  -6  152.58    8.40
  -8   4  -6  147.29    7.40
   8  -4   6  143.19    8.40
  -9   4  -6   99.19    7.10
  -9   4  -6   96.99    7.60
  -9   4  -6   75.69    8.00
   9  -4   6   93.39    7.70
   7   3  -6    3.70    6.70
   7   3  -6    3.20    3.30
  -7  -3   6   -0.80    4.10
  -7  -3   6    7.20    3.20
  -7  -3   6    7.70    4.40
   6   3  -6   17.90    4.00
   6   3  -6   18.00    6.60
  -6  -3   6   21.20    3.40
  -6  -3   6   24.30    5.10
  -6  -3   6   25.00    4.70
   5   3  -6  506.15   15.60
   5   3  -6  501.25   19.00
  -5  -3   6  501.55   16.00
  -5  -3   6  515.45   13.60
  -5  -3   6  482.05   16.00
   4   3  -6  172.18   11.20
   4   3  -6  176.48    8.10
  -4  -3   6  179.58    8.80
  -4  -3   6  190.58    8.40
  -4  -3   6  182.08    6.50
   3   3  -6   59.39    7.30
   3   3  -6   61.09    5.30
  -3  -3   6   77.09    6.10
  -3  -3   6   66.09    5.50
   2   3  -6  394.56   14.10
   2   3  -6  379.56   11.90
  -2  -3   6  395.46   12.20
  -2  -3   6  388.06   11.90
   1   3  -6  297.27    9.70
   1   3  -6  296.87   11.20
  -1  -3   6  291.47    9.80
  -1  -3   6  283.97    9.30
   0   3  -6  154.98    7.60
   0   3  -6  144.29    6.40
   0  -3   6  156.98    6.90
   0  -3   6  151.48    6.10
  -1   3  -6  109.09    4.40
  -2   3  -6   12.40    1.80
  -2   3  -6   11.70    2.70
  -2   3  -6   14.20    4.20
  -2   3  -6   11.40    3.00
  -2   3  -6   17.50    2.40
  -2   3  -6   12.90    1.40
   2  -3   6   13.30    3.20
  -3   3  -6  477.55   15.40
  -3   3  -6  467.35   11.30
  -3   3  -6  484.25   12.10
  -3   3  -6  485.55   13.60
  -3   3  -6  479.75   12.90
  -3   3  -6  464.95   12.30
   3  -3   6  481.25   13.80
  -4   3  -6  205.78    7.50
  -4   3  -6  208.38    9.10
  -4   3  -6  213.38    7.10
  -4   3  -6  206.78    6.60
  -4   3  -6  213.38    8.60
  -4   3  -6  209.68   10.60
   4  -3   6  210.78    8.60
  -5   3  -6    5.40    3.40
  -5   3  -6    6.90    2.90
  -5   3  -6    8.80    5.20
  -5   3  -6   10.80    4.00
  -5   3  -6    7.30    2.30
   5  -3   6    5.00    3.40
  -6   3  -6  213.88   11.50
  -6   3  -6  211.18    8.60
  -6   3  -6  208.58    7.70
  -6   3  -6  209.88    9.50
   6  -3   6  209.28    9.30
  -7   3  -6  330.07   10.90
  -7   3  -6  325.97   11.80
  -7   3  -6  339.97   12.70
   7  -3   6  339.97   12.60
  -8   3  -6   90.69    6.90
  -8   3  -6   92.69    6.30
   8  -3   6   76.99    7.10
  -9   3  -6   -8.70    3.30
  -9   3  -6   -2.00    3.00
  -9   3  -6   -9.30    3.90
   9  -3   6    1.10    3.60
   8   2  -6  312.97   11.90
  -8  -2   6  334.07   14.80
  -8  -2   6  332.97   14.50
   7   2  -6    3.30    2.80
   7   2  -6    6.50    6.10
  -7  -2   6    1.80    3.50
  -7  -2   6    7.00    4.30
   6   2  -6   21.10    6.10
   6   2  -6   22.30    3.70
  -6  -2   6   16.70    4.00
  -6  -2   6   33.00    5.20
   5   2  -6   35.90    6.60
   5   2  -6   20.90    3.60
  -5  -2   6   24.00    4.30
  -5  -2   6   27.20    4.30
   4   2  -6   11.60    4.80
   4   2  -6   13.20    3.10
  -4  -2   6    9.50    3.30
  -4  -2   6   12.10    3.90
   3   2  -6  103.99    5.60
   3   2  -6  102.99    7.50
  -3  -2   6  106.09    6.10
  -3  -2   6   97.19    6.50
   2   2  -6   25.50    4.60
   2   2  -6   25.40    3.20
  -2  -2   6   26.30    2.20
   1   2  -6  455.65   13.90
   1   2  -6  462.85   12.60
  -1  -2   6  458.25   12.40
  -1  -2   6  446.56   12.70
  -1  -2   6  449.46   10.20
   0   2  -6 1614.84   37.00
   0   2  -6 1717.43   38.20
   0  -2   6 1741.23   34.30
   0  -2   6 1626.64   37.30
   0  -2   6 1686.43   36.70
  -1   2  -6   37.50    2.20
  -1   2  -6   29.60    3.10
  -1   2  -6   32.00    3.60
   1  -2   6   29.60    3.40
  -2   2  -6   -0.50    1.30
  -2   2  -6    1.40    2.20
  -2   2  -6   -0.50    1.10
  -2   2  -6   -1.40    2.20
  -2   2  -6   -1.10    1.40
  -2   2  -6   -0.70    3.00
   2  -2   6   -1.00    2.40
  -3   2  -6    6.80    1.80
  -3   2  -6    3.00    2.60
  -3   2  -6    2.20    2.30
  -3   2  -6    8.00    4.00
   3  -2   6    5.60    2.90
  -4   2  -6   18.70    3.90
  -4   2  -6   15.60    2.80
  -4   2  -6   12.10    4.50
  -4   2  -6   14.30    4.30
  -4   2  -6   14.60    2.50
   4  -2   6   18.50    3.70
  -5   2  -6  173.98    9.30
  -5   2  -6  174.78    7.00
  -5   2  -6  185.38    8.90
  -5   2  -6  172.58    9.80
   5  -2   6  183.78    8.80
  -6   2  -6   38.30    6.70
  -6   2  -6   35.00    5.60
  -6   2  -6   36.00    3.90
   6  -2   6   33.10    5.00
  -7   2  -6   29.30    4.00
  -7   2  -6   19.50    4.90
   7  -2   6   24.70    4.90
  -8   2  -6  375.46   14.50
  -8   2  -6  351.66   12.30
   8  -2   6  341.77   13.80
  -9   2  -6    0.70    3.30
  -8  -1   6  112.29    8.30
  -8  -1   6   96.09    8.70
   7   1  -6    4.30    5.40
   7   1  -6    7.70    2.70
  -7  -1   6    6.60    3.90
  -7  -1   6    5.10    4.00
   6   1  -6  279.97   13.60
   6   1  -6  288.67    9.90
  -6  -1   6  289.57   11.70
  -6  -1   6  289.57   11.40
   5   1  -6  194.38    7.60
   5   1  -6  204.88   10.50
  -5  -1   6  193.88    9.00
   4   1  -6  538.15   17.00
   4   1  -6  552.74   14.60
  -4  -1   6  543.45   14.10
  -4  -1   6  548.15   15.80
  -4  -1   6  523.95   14.60
   3   1  -6    4.10    3.40
   3   1  -6    7.00    2.30
  -3  -1   6    2.70    2.70
  -3  -1   6    8.90    2.00
  -3  -1   6    4.90    2.50
   2   1  -6  174.08    8.00
   2   1  -6  191.18    6.70
  -2  -1   6  186.28    5.50
  -2  -1   6  183.38    7.10
  -2  -1   6  179.28    7.20
   1   1  -6  134.19    7.00
   1   1  -6  134.19    5.50
  -1  -1   6  133.19    4.00
  -1  -1   6  121.69    5.50
  -1  -1   6  126.19    5.60
   0   1  -6  522.55   14.00
   0   1  -6  537.45   15.00
   0  -1   6  552.14   12.00
   0  -1   6  551.04   14.40
  -1   1  -6  242.58    8.40
  -1   1  -6  221.88    7.90
   1  -1   6  226.98    8.10
  -2   1  -6    0.00    2.40
  -2   1  -6   -2.10    2.40
  -2   1  -6    2.70    3.60
   2  -1   6    1.00    2.40
  -3   1  -6    0.60    2.10
  -3   1  -6   -1.00    2.50
  -3   1  -6    2.00    3.00
  -3   1  -6    5.70    4.20
   3  -1   6    1.50    3.00
  -4   1  -6  162.08    8.40
  -4   1  -6  162.08    6.30
  -4   1  -6  161.18    7.00
  -4   1  -6  159.18    9.10
  -4   1  -6  161.78    9.70
   4  -1   6  159.88    8.10
  -5   1  -6  855.91   24.00
  -5   1  -6  853.41   20.80
  -5   1  -6  846.72   23.40
  -5   1  -6  861.61   23.00
   5  -1   6  811.02   22.70
  -6   1  -6   97.69    8.80
  -6   1  -6   92.69    8.10
  -6   1  -6   82.89    5.70
   6  -1   6   88.39    7.50
  -7   1  -6  117.79    7.10
  -7   1  -6  102.89    8.50
   7  -1   6  106.29    8.30
  -8   1  -6   45.50    6.80
  -8   1  -6   48.20    5.40
   8  -1   6   51.79    6.70
  -8   0   6   18.60    5.00
  -8   0   6   24.80    5.10
   7   0  -6   12.70    2.50
   7   0  -6    9.50    5.30
  -7   0   6   11.30    4.20
  -7   0   6   12.50    4.00
   6   0  -6  253.17    8.40
   6   0  -6  236.78   11.80
  -6   0   6  265.17    9.70
  -6   0   6  254.97   10.90
  -6   0   6  264.17    8.20
  -6   0   6  266.17   10.70
   5   0  -6  126.29    5.70
   5   0  -6  128.99    8.70
  -5   0   6  138.79    5.20
  -5   0   6  134.59    7.50
  -5   0   6  133.79    6.40
   4   0  -6  123.79    8.10
   4   0  -6  117.39    5.30
  -4   0   6  125.09    5.50
  -4   0   6  115.29    4.30
  -4   0   6  121.89    6.80
  -4   0   6  120.59    5.80
   3   0  -6  231.98    7.40
   3   0  -6  222.08    9.60
  -3   0   6  229.98    7.10
  -3   0   6  223.68    7.60
  -3   0   6  228.78    5.70
  -3   0   6  215.48    8.20
   2   0  -6  148.99    5.80
   2   0  -6  163.38    7.50
  -2   0   6  156.38    6.20
  -2   0   6  154.28    5.10
  -2   0   6  151.08    6.00
   1   0  -6   40.70    3.50
  -1   0   6   40.20    2.40
   0   0  -6   50.99    4.60
   0   0  -6   55.29    4.10
   0   0   6   52.79    4.20
  -1   0  -6  125.69    6.70
  -1   0  -6  172.28    6.90
   1   0   6  147.09    6.60
  -2   0  -6   -2.20    2.60
  -2   0  -6    2.00    3.60
   2   0   6   -2.20    2.50
  -3   0  -6   82.59    7.00
  -3   0  -6   89.59    7.10
  -3   0  -6   73.39    6.60
   3   0   6   78.29    6.40
  -4   0  -6   55.99    6.00
  -4   0  -6   39.90    6.20
  -4   0  -6   53.49    4.40
  -4   0  -6   46.70    6.50
   4   0   6   51.19    5.80
  -5   0  -6  969.00   26.50
  -5   0  -6  954.40   26.20
  -5   0  -6  987.30   23.50
  -5   0  -6  971.20   26.10
   5   0   6  944.61   25.80
  -6   0  -6   -2.60    2.60
  -6   0  -6   -6.40    4.20
   6   0   6   -3.00    3.60
  -7   0  -6   22.10    4.10
  -7   0  -6   25.20    5.70
   7   0   6   23.70    5.30
  -8   0  -6   80.69    6.90
  -8   0  -6   53.99    7.70
   8   0   6   77.59    8.20
  -9   1   6  259.37   12.10
  -9   1   6  237.28   12.90
  -8   1   6    9.70    4.00
  -8   1   6   -2.10    3.50
   7  -1  -6  301.67   13.20
  -7   1   6  295.67   11.90
  -7   1   6  316.87   11.50
  -7   1   6  311.27   12.10
  -7   1   6  333.07   13.00
   6  -1  -6   54.59    3.50
   6  -1  -6   54.09    6.20
  -6   1   6   55.59    3.90
  -6   1   6   49.00    5.20
  -6   1   6   57.79    5.00
  -6   1   6   54.49    5.60
   5  -1  -6   97.29    7.50
   5  -1  -6  100.59    4.50
  -5   1   6   98.69    4.40
  -5   1   6   98.99    5.50
  -5   1   6   98.69    6.50
   4  -1  -6  353.46    9.70
   4  -1  -6  345.67   12.70
  -4   1   6  357.06   11.90
  -4   1   6  348.67   10.40
  -4   1   6  345.97   11.30
  -4   1   6  358.26    8.90
   3  -1  -6    0.40    3.30
   3  -1  -6    1.20    1.80
  -3   1   6   -0.80    2.40
  -3   1   6    3.00    2.00
  -3   1   6    0.30    1.00
  -3   1   6    1.10    1.70
   2  -1  -6  414.56   11.10
   2  -1  -6  420.96   13.10
  -2   1   6  416.76   10.70
  -2   1   6  404.76   11.30
  -2   1   6  411.36   11.60
   1  -1  -6  997.30   24.50
   1  -1  -6  959.70   22.70
  -1   1   6  960.20   21.50
  -1   1   6  944.21   22.60
   0  -1  -6  181.08    7.20
   0  -1  -6  172.88    7.90
   0   1   6  178.48    7.00
  -1  -1  -6  268.97    9.40
  -1  -1  -6  261.87    9.80
   1   1   6  267.47    9.20
  -2  -1  -6  353.36   11.80
  -2  -1  -6  360.86   12.10
   2   1   6  350.86   11.70
  -3  -1  -6  345.97   12.80
  -3  -1  -6  370.56   12.90
  -3  -1  -6  360.16   13.80
   3   1   6  345.97   12.50
  -4  -1  -6  560.44   15.30
  -4  -1  -6  561.44   18.40
  -4  -1  -6  557.34   17.40
  -4  -1  -6  547.65   17.60
   4   1   6  565.84   17.50
  -5  -1  -6    6.40    4.40
  -5  -1  -6    2.90    5.00
  -5  -1  -6    4.70    5.00
  -5  -1  -6   12.30    3.40
   5   1   6    3.70    4.00
  -6  -1  -6  127.39    9.90
  -6  -1  -6  117.49    7.20
   6   1   6  106.29    8.50
  -7  -1  -6    2.00    5.20
  -7  -1  -6   -2.60    3.00
   7   1   6    3.50    4.20
  -8  -1  -6    6.60    3.80
  -8  -1  -6    4.10    5.80
   8   1   6    5.40    4.80
  -9   2   6  200.28   10.70
  -9   2   6  226.78   12.20
  -8   2   6  218.78   11.10
  -8   2   6  213.38   10.10
  -8   2   6  240.68   10.50
   7  -2  -6   17.00    4.80
  -7   2   6   17.10    4.00
  -7   2   6   18.00    3.60
  -7   2   6   27.80    4.70
  -7   2   6   26.40    3.20
   6  -2  -6   -2.70    1.30
   6  -2  -6    2.40    3.50
  -6   2   6    0.40    2.90
  -6   2   6    1.30    1.80
  -6   2   6    1.00    2.40
  -6   2   6   -2.60    2.50
   5  -2  -6    1.30    3.60
   5  -2  -6    1.10    1.70
  -5   2   6   -0.80    2.90
  -5   2   6    0.20    1.70
  -5   2   6    1.30    2.30
   4  -2  -6   40.00    5.40
   4  -2  -6   35.20    3.40
  -4   2   6   40.60    3.80
  -4   2   6   37.90    4.20
  -4   2   6   35.50    2.50
   3  -2  -6   40.70    5.10
   3  -2  -6   41.80    3.70
  -3   2   6   43.50    3.60
  -3   2   6   40.30    3.70
  -3   2   6   41.20    4.30
   2  -2  -6    6.70    3.80
   2  -2  -6    8.30    2.40
  -2   2   6    5.30    1.80
  -2   2   6    8.20    2.40
   0  -2  -6  958.30   23.50
   0   2   6  946.11   23.30
   0   2   6  968.40   20.90
  -1  -2  -6  140.39    7.60
  -1  -2  -6  105.49    6.50
   1   2   6  109.79    6.40
  -2  -2  -6 1035.30   27.50
  -2  -2  -6 1068.49   27.10
  -2  -2  -6 1095.29   26.30
   2   2   6 1083.69   27.10
  -3  -2  -6    8.30    4.60
  -3  -2  -6    0.40    4.30
  -3  -2  -6    7.60    5.10
   3   2   6   -0.90    3.70
  -4  -2  -6  173.38    9.70
  -4  -2  -6  186.38   10.40
  -4  -2  -6  170.08   11.20
   4   2   6  190.08   10.00
  -5  -2  -6  123.59   10.40
  -5  -2  -6  135.79    9.70
  -5  -2  -6  142.49    7.50
   5   2   6  124.39    8.90
  -6  -2  -6    1.70    6.70
  -6  -2  -6   -0.30    3.30
  -6  -2  -6   -0.10    4.70
   6   2   6    0.10    4.10
  -7  -2  -6    9.00    5.90
  -7  -2  -6    5.20    3.70
   7   2   6   17.00    5.40
  -9   3   6   23.00    4.80
  -9   3   6   31.90    5.20
  -9   3   6   10.20    4.90
  -8   3   6   64.39    6.60
  -8   3   6   73.49    6.30
  -8   3   6   83.19    6.50
   7  -3  -6  129.69    8.50
  -7   3   6  136.69    6.20
  -7   3   6  125.09    7.30
  -7   3   6  135.49    8.20
  -7   3   6  139.49    7.50
   6  -3  -6   61.39    6.40
  -6   3   6   66.19    5.30
  -6   3   6   63.89    4.20
  -6   3   6   56.19    5.10
  -6   3   6   60.29    5.60
   5  -3  -6   71.29    3.90
   5  -3  -6   67.29    6.70
  -5   3   6   75.29    4.20
  -5   3   6   69.99    5.10
  -5   3   6   73.09    5.40
   4  -3  -6  673.93   16.20
   4  -3  -6  678.03   19.60
  -4   3   6  666.73   15.70
  -4   3   6  646.64   17.40
  -4   3   6  683.53   17.40
   3  -3  -6 1010.50   23.20
   3  -3  -6  957.10   25.90
  -3   3   6 1021.10   23.90
  -3   3   6  985.80   23.40
  -3   3   6  993.90   23.00
   2  -3  -6   83.69    5.50
  -2   3   6   80.39    4.40
  -2   3   6   76.39    5.10
  -2   3   6  102.09    4.90
   1  -3  -6  180.08    7.90
  -1   3   6  188.68    7.70
  -1   3   6  196.88    6.50
  -1   3   6  187.68    6.90
   0  -3  -6  217.08    8.80
   0   3   6  208.08    8.60
   0   3   6  213.38    6.80
  -1  -3  -6  667.53   18.10
  -1  -3  -6  700.43   19.60
   1   3   6  698.53   19.30
  -2  -3  -6  103.19    7.40
  -2  -3  -6  109.29    8.40
  -2  -3  -6  108.29    9.00
   2   3   6   88.29    6.90
  -3  -3  -6   -3.10    4.20
  -3  -3  -6    2.60    5.70
  -3  -3  -6    4.90    4.50
   3   3   6   -4.10    3.50
  -4  -3  -6  101.99    8.20
  -4  -3  -6  107.39    9.30
  -4  -3  -6  100.89    9.10
   4   3   6  105.49    8.60
  -5  -3  -6  132.59   10.70
  -5  -3  -6  139.49   10.90
  -5  -3  -6  116.39    7.70
   5   3   6  115.69    9.00
  -6  -3  -6    1.00    8.30
  -6  -3  -6    7.50    5.80
  -6  -3  -6    8.50    3.80
   6   3   6   10.50    4.90
  -7  -3  -6    2.60    3.80
  -7  -3  -6    8.30    6.40
   7   3   6    7.80    4.90
  -9   4   6    9.60    3.80
  -9   4   6   -0.10    3.70
  -8   4   6   37.60    5.30
  -8   4   6   34.90    4.70
  -8   4   6   34.40    5.40
   7  -4  -6   49.60    5.90
  -7   4   6   53.89    5.20
  -7   4   6   45.40    4.10
  -7   4   6   38.60    4.70
  -7   4   6   46.70    5.40
  -7   4   6   49.50    5.50
   6  -4  -6   -1.10    3.30
  -6   4   6    3.30    2.00
  -6   4   6    3.00    2.60
  -6   4   6    3.90    2.80
  -6   4   6    0.20    2.70
   5  -4  -6    6.90    4.00
   5  -4  -6    3.10    2.00
  -5   4   6    2.20    2.90
  -5   4   6    3.20    2.00
  -5   4   6   -0.10    2.30
   4  -4  -6  125.39    8.70
   4  -4  -6  125.19    5.70
  -4   4   6  126.09    6.20
  -4   4   6  121.69    6.60
   3  -4  -6  687.13   17.40
  -3   4   6  688.03   17.90
  -3   4   6  688.53   17.00
  -3   4   6  666.63   17.50
   2  -4  -6   85.99    6.30
  -2   4   6   95.39    5.30
  -2   4   6   90.59    5.70
   1  -4  -6  100.79    7.00
  -1   4   6  129.69    6.70
   0  -4  -6   17.10    4.50
   0  -4  -6   18.60    4.00
   0   4   6   23.50    3.30
   0   4   6   23.60    4.40
  -1  -4  -6  308.47   13.50
  -1  -4  -6  302.97   10.30
  -1  -4  -6  305.37   12.40
   1   4   6  292.67   11.60
  -2  -4  -6   14.80    5.40
  -2  -4  -6   15.00    5.80
  -2  -4  -6   15.40    4.40
   2   4   6   13.90    4.50
  -3  -4  -6    5.80    5.30
  -3  -4  -6   -7.00    4.50
  -3  -4  -6    1.00    3.90
   3   4   6   -4.50    3.90
  -4  -4  -6   -9.00    5.50
  -4  -4  -6   -5.40    4.80
   4   4   6   -1.20    4.10
  -5  -4  -6  109.59   10.10
  -5  -4  -6   86.79    8.90
  -5  -4  -6  116.89    7.90
   5   4   6  104.89    9.10
  -6  -4  -6  216.98   10.40
  -6  -4  -6  203.38   13.50
   6   4   6  216.98   12.80
  -9   5   6   -2.50    3.70
  -9   5   6    4.40    3.40
  -9   5   6   -0.40    3.40
  -8   5   6   39.80    5.20
  -8   5   6   36.30    5.20
  -8   5   6   37.40    4.20
  -8   5   6   32.90    5.10
   7  -5  -6  113.19    7.80
  -7   5   6  105.99    7.00
  -7   5   6  112.89    7.20
  -7   5   6  114.99    7.50
  -7   5   6  115.49    6.10
  -7   5   6  115.69    6.80
   6  -5  -6  683.63   20.30
  -6   5   6  657.03   17.20
  -6   5   6  668.73   19.00
  -6   5   6  689.33   19.10
  -6   5   6  672.43   18.70
   5  -5  -6    0.00    4.00
   5  -5  -6    6.80    2.20
  -5   5   6    5.40    2.50
  -5   5   6    5.10    3.10
   4  -5  -6    8.20    2.90
   4  -5  -6    9.80    5.10
  -4   5   6   11.30    3.10
  -4   5   6    5.20    3.00
   3  -5  -6   70.09    5.80
  -3   5   6   63.39    5.50
  -3   5   6   63.99    4.90
   2  -5  -6  432.46   13.70
  -2   5   6  441.66   13.10
  -2   5   6  454.25   13.20
  -2   5   6  423.76   12.70
   1  -5  -6   41.00    5.40
  -1   5   6   47.80    4.90
   0  -5  -6   -5.20    5.40
   0  -5  -6    0.50    4.40
   0  -5  -6    1.40    3.30
   0   5   6    1.00    2.40
   0   5   6   -1.90    3.30
  -1  -5  -6  692.03   21.80
  -1  -5  -6  699.13   21.20
   1   5   6  713.53   20.80
  -2  -5  -6  259.67   13.30
  -2  -5  -6  248.28   12.40
   2   5   6  229.58   11.40
  -3  -5  -6  111.29   10.20
  -3  -5  -6  110.19   10.00
   3   5   6  110.59    9.00
  -4  -5  -6    2.60    5.50
  -4  -5  -6    2.40    5.30
   4   5   6    0.80    4.50
  -5  -5  -6   -1.70    6.00
  -5  -5  -6   -9.20    5.20
  -5  -5  -6   -1.00    3.90
   5   5   6    6.00    4.80
  -6  -5  -6  119.99   11.60
  -6  -5  -6  127.89    9.00
   6   5   6  132.19   11.50
  -9   6   6   54.19    6.30
  -9   6   6   49.99    6.60
  -9   6   6   37.00    5.90
  -8   6   6   24.00    3.80
  -8   6   6   23.20    4.60
  -8   6   6   20.80    4.50
  -8   6   6   29.30    5.00
   7  -6  -6    9.40    5.20
  -7   6   6   11.50    3.00
  -7   6   6    8.90    3.40
  -7   6   6    8.00    3.30
  -7   6   6    5.00    3.40
   6  -6  -6  479.85   17.00
  -6   6   6  505.75   15.60
  -6   6   6  499.55   15.80
  -6   6   6  490.15   16.70
  -6   6   6  499.95   14.90
   5  -6  -6   -0.50    4.20
   5  -6  -6    1.80    2.20
  -5   6   6    0.30    2.50
  -5   6   6    4.50    3.00
  -5   6   6    3.30    2.90
   4  -6  -6  167.48    7.30
  -4   6   6  167.58    8.40
  -4   6   6  170.38    7.80
   3  -6  -6   37.80    4.90
  -3   6   6   43.40    4.70
  -3   6   6   48.50    5.50
   2  -6  -6  130.59    8.40
  -2   6   6  144.09    7.50
  -2   6   6  139.39    7.00
  -2   6   6  140.69    7.50
  -1   6   6  119.29    6.70
   0  -6  -6  231.98   12.30
   0  -6  -6  232.48   11.50
   0   6   6  233.18    9.70
   0   6   6  258.87   10.90
  -1  -6  -6   83.29    8.70
  -1  -6  -6  104.89    9.00
   1   6   6  101.39    8.00
  -2  -6  -6  200.88   12.70
  -2  -6  -6  168.88   11.20
   2   6   6  168.48   10.30
  -3  -6  -6  206.48   12.70
  -3  -6  -6  216.38   13.50
   3   6   6  224.28   12.10
  -4  -6  -6    3.00    5.80
  -4  -6  -6    1.30    6.30
   4   6   6    3.90    4.70
  -5  -6  -6    4.90    6.80
  -5  -6  -6    2.90    4.40
  -5  -6  -6    5.60    6.50
   5   6   6    0.30    4.40
  -8   7   6    3.70    3.60
  -8   7   6    2.80    2.90
  -8   7   6    5.60    3.60
  -7   7   6   32.20    5.10
  -7   7   6   28.10    4.60
   6  -7  -6   87.99    8.60
  -6   7   6   89.39    7.40
  -6   7   6   87.39    6.80
  -6   7   6   87.19    6.60
   5  -7  -6   54.29    4.50
  -5   7   6   45.20    5.10
  -5   7   6   53.39    5.40
  -5   7   6   61.29    6.70
   4  -7  -6    0.70    2.90
  -4   7   6    3.70    2.50
  -4   7   6    1.70    2.90
   3  -7  -6  213.38    9.50
  -3   7   6  230.08    9.90
  -3   7   6  196.68    8.90
   2  -7  -6  157.18    9.20
  -2   7   6  162.98    7.80
  -2   7   6  158.08    8.30
   1  -7  -6  514.45   17.60
   1  -7  -6  514.45   16.90
  -1   7   6  494.75   15.80
  -1   7   6  500.65   16.10
   0  -7  -6   82.79    8.60
   0  -7  -6   92.89    8.70
   0   7   6   94.89    7.00
   0   7   6   95.99    7.70
  -1  -7  -6   11.90    5.80
  -1  -7  -6    1.40    6.40
   1   7   6    9.70    4.70
  -2  -7  -6    6.90    5.70
  -2  -7  -6    6.30    5.90
   2   7   6    4.70    4.40
  -3  -7  -6   29.20    7.70
  -3  -7  -6   33.90    7.50
   3   7   6   37.50    6.70
  -4  -7  -6   50.09    8.90
  -4  -7  -6   46.10    8.80
   4   7   6   38.30    7.10
  -8   8   6   -5.00    3.10
  -8   8   6   -3.10    3.20
  -7   8   6  270.87   11.60
  -7   8   6  248.48   11.40
  -7   8   6  252.47   12.60
   6  -8  -6    6.10    4.70
  -6   8   6   -0.50    2.90
  -6   8   6   -0.60    3.20
  -6   8   6    3.60    3.40
   5  -8  -6  159.48    7.50
  -5   8   6  157.58    8.40
  -5   8   6  155.38    9.40
   4  -8  -6   74.29    6.30
  -4   8   6   77.99    7.10
  -4   8   6   73.89    6.60
   3  -8  -6   94.99    7.60
   3  -8  -6  105.99    8.80
  -3   8   6  106.19    7.00
  -3   8   6  107.79    7.60
   2  -8  -6  341.07   13.50
   2  -8  -6  357.16   14.80
  -2   8   6  340.37   12.40
  -2   8   6  362.26   13.40
   1  -8  -6    6.00    4.70
   1  -8  -6   -2.10    5.60
  -1   8   6    2.20    3.10
   0  -8  -6  121.79   10.90
   0  -8  -6  132.09   10.10
   0   8   6  128.49    8.60
   0   8   6  127.99    9.00
  -1  -8  -6   56.99    8.60
  -1  -8  -6   69.79    8.70
   1   8   6   69.29    7.90
   1   8   6   65.09    7.50
  -2  -8  -6   55.59    9.10
  -2  -8  -6   57.69    8.70
   2   8   6   56.39    7.50
  -3  -8  -6  108.69   11.30
  -3  -8  -6   94.09   10.80
   3   8   6  101.69   10.10
  -7   9   6   44.70    7.00
  -7   9   6   50.39    6.20
  -7   9   6   43.20    5.90
  -6   9   6  100.29    7.50
  -6   9   6   99.19    8.60
  -6   9   6   97.89    7.70
  -5   9   6   10.30    3.80
  -5   9   6    0.40    3.70
   4  -9  -6   96.39    7.20
  -4   9   6  103.59    8.30
  -4   9   6   96.79    7.20
   3  -9  -6  160.18    9.70
  -3   9   6  178.18    9.10
  -3   9   6  187.78   10.10
   2  -9  -6   67.59    7.60
   2  -9  -6   75.69    8.40
  -2   9   6   70.69    6.60
  -2   9   6   77.59    7.30
   1  -9  -6    3.90    5.90
   1  -9  -6    6.50    5.10
  -1   9   6    3.90    3.40
  -1   9   6    5.00    3.70
   0  -9  -6    4.30    5.40
   0  -9  -6    6.50    6.60
   0   9   6    4.70    3.80
   0   9   6   -0.70    3.90
  -1  -9  -6   33.80    8.00
  -1  -9  -6   32.30    7.20
   1   9   6   22.40    5.30
   1   9   6   21.50    5.30
  -2  -9  -6  129.59   12.10
  -2  -9  -6  111.69   11.10
   2   9   6  120.79   10.20
  -7  10   6   41.00    6.90
  -7  10   6   25.00    5.20
  -7  10   6   37.30    6.00
  -6  10   6  139.89    9.30
  -6  10   6  137.19    9.90
  -5  10   6  110.29    8.20
  -5  10   6  110.29    9.00
   4 -10  -6    9.40    4.30
  -4  10   6   18.40    5.20
  -4  10   6   20.50    4.60
   3 -10  -6    0.00    4.10
  -3  10   6    1.50    3.20
  -3  10   6    2.10    3.90
   2 -10  -6   76.49    8.20
  -2  10   6   66.19    6.90
  -2  10   6   65.39    7.90
   1 -10  -6  273.07   13.70
  -1  10   6  234.28   11.60
  -1  10   6  241.38   12.40
   0 -10  -6   81.29    9.50
   0 -10  -6   77.49    9.70
   0  10   6   71.39    8.40
  -1 -10  -6   59.79    9.50
  -5  11   6   92.39    9.30
  -5  11   6   85.99    8.50
   4 -11  -6   20.80    5.20
  -4  11   6   19.30    4.90
  -4  11   6   24.90    6.00
   3 -11  -6   22.10    5.90
  -3  11   6   27.10    5.40
  -3  11   6   37.10    6.80
   2 -11  -6    9.90    5.70
  -2  11   6   11.70    4.90
  -2  11   6    6.80    3.80
  -3  12  -7   12.00    5.20
   3 -12   7   -1.60    4.40
  -4  12  -7   13.40    5.70
  -4  12  -7   13.40    6.00
   4 -12   7   22.90    5.60
   0  11  -7  199.88   13.40
   0  11  -7  212.08   12.10
   0 -11   7  202.58   12.50
  -1  11  -7   48.30    7.00
  -1  11  -7   35.10    7.40
   1 -11   7   35.00    6.80
  -2  11  -7  116.39   10.10
  -2  11  -7  104.79    8.80
   2 -11   7  116.29    9.50
  -3  11  -7   27.00    5.90
   3 -11   7   36.00    6.20
  -4  11  -7    2.80    4.50
   4 -11   7    3.80    4.10
  -5  11  -7   57.49    8.00
   5 -11   7   53.59    6.70
  -6  11  -7   36.90    6.50
   6 -11   7   37.60    5.70
   2  10  -7  251.47   13.80
  -2 -10   7  263.57   14.10
  -2 -10   7  259.77   12.10
   1  10  -7   30.20    6.10
  -1 -10   7   33.80    6.60
   0  10  -7   68.59    7.80
   0 -10   7   66.89    7.90
  -1  10  -7   -3.20    3.10
  -1  10  -7    2.20    4.50
   1 -10   7    0.50    4.10
  -2  10  -7    0.20    4.10
  -2  10  -7    5.90    3.50
   2 -10   7   -1.00    3.90
   3 -10   7   19.60    4.80
  -4  10  -7   44.30    6.60
   4 -10   7   48.40    6.20
  -5  10  -7   13.00    5.30
  -5  10  -7   20.20    5.50
   5 -10   7   20.40    4.70
  -6  10  -7  155.88   10.10
  -6  10  -7  169.78   10.90
   6 -10   7  142.69    8.60
  -7  10  -7   38.40    7.10
  -7  10  -7   33.40    6.20
  -7  10  -7   22.90    5.00
   7 -10   7   28.00    5.00
   3   9  -7  213.68   12.60
  -3  -9   7  246.58   13.40
  -3  -9   7  231.28   11.70
   2   9  -7   17.00    5.00
  -2  -9   7   22.70    4.90
  -2  -9   7   24.70    6.00
   1   9  -7   17.80    4.90
  -1  -9   7    8.60    3.80
  -1  -9   7   12.70    5.10
   0   9  -7  108.39    8.30
   0  -9   7   95.59    8.50
  -1   9  -7    7.00    4.60
  -1   9  -7    8.30    3.90
   1  -9   7    7.30    4.40
  -2   9  -7   29.30    4.90
  -2   9  -7   33.50    5.70
  -2   9  -7   19.00    5.10
   2  -9   7   25.80    5.20
  -3   9  -7    8.30    4.90
  -3   9  -7    3.90    3.70
  -3   9  -7    6.20    3.30
   3  -9   7    7.70    4.00
  -4   9  -7   81.89    7.90
  -4   9  -7   77.29    7.50
   4  -9   7   87.49    7.40
  -5   9  -7  696.93   21.80
  -5   9  -7  717.93   21.90
   5  -9   7  715.03   20.60
  -6   9  -7   -0.50    3.30
  -6   9  -7   -1.50    4.80
  -6   9  -7   -0.20    3.60
   6  -9   7    1.40    3.20
  -7   9  -7    4.50    3.70
  -7   9  -7    1.50    3.80
  -7   9  -7    5.30    5.20
   7  -9   7    2.00    3.30
  -8   9  -7   74.59    8.50
  -8   9  -7   54.69    6.40
   8  -9   7   67.49    6.50
   4   8  -7    4.80    4.60
  -4  -8   7    2.60    4.60
   3   8  -7   -0.30    3.90
  -3  -8   7   10.50    5.10
  -3  -8   7    3.50    3.90
   2   8  -7    8.20    4.00
  -2  -8   7   11.00    4.00
  -2  -8   7   19.20    5.30
   1   8  -7   50.69    6.50
  -1  -8   7   48.20    6.60
  -1  -8   7   38.30    5.00
   0   8  -7   60.19    6.80
   0  -8   7   58.99    5.30
   0  -8   7   67.69    7.10
  -1   8  -7   34.50    5.10
  -1   8  -7   40.60    6.10
   1  -8   7   37.50    5.40
   1  -8   7   49.60    4.60
  -2   8  -7  484.05   16.30
  -2   8  -7  509.05   16.90
  -2   8  -7  495.85   15.90
   2  -8   7  471.75   16.00
  -3   8  -7  104.89    7.00
  -3   8  -7  105.39    9.10
  -3   8  -7  104.19    7.60
   3  -8   7  103.49    7.40
  -4   8  -7   10.80    4.10
  -4   8  -7    7.40    4.60
  -4   8  -7   14.20    5.80
   4  -8   7   13.60    3.90
  -5   8  -7    1.40    3.00
  -5   8  -7   -4.60    4.10
  -5   8  -7    2.30    3.40
   5  -8   7    2.40    3.20
  -6   8  -7   46.50    7.00
  -6   8  -7   57.09    6.60
  -6   8  -7   47.60    5.10
   6  -8   7   46.80    5.50
  -7   8  -7   23.50    4.50
  -7   8  -7   23.20    5.10
  -7   8  -7   24.30    6.30
   7  -8   7   18.30    4.20
  -8   8  -7   61.59    6.30
   8  -8   7   73.59    6.70
   5   7  -7   14.40    5.10
  -5  -7   7   13.30    5.40
  -5  -7   7   14.10    4.50
   4   7  -7   68.49    7.80
  -4  -7   7   75.49    7.70
  -4  -7   7   75.39    9.20
  -4  -7   7   70.19    6.60
   3   7  -7  408.16   15.90
  -3  -7   7  439.16   16.00
  -3  -7   7  421.66   14.00
  -3  -7   7  420.96   15.00
   2   7  -7  201.98   14.10
   2   7  -7  186.38   10.20
  -2  -7   7  195.78   10.60
  -2  -7   7  211.88    9.60
   1   7  -7    6.20    6.40
   1   7  -7    2.60    3.50
  -1  -7   7    6.20    3.20
  -1  -7   7    8.00    4.30
   0   7  -7    0.80    5.50
   0   7  -7    4.10    3.30
   0  -7   7    3.40    2.80
   0  -7   7    2.90    3.70
  -1   7  -7   64.19    6.10
  -1   7  -7   69.89    8.00
  -1   7  -7   78.09    7.00
   1  -7   7   71.29    5.10
   1  -7   7   72.99    6.80
  -2   7  -7 1171.28   31.10
  -2   7  -7 1201.68   29.50
  -2   7  -7 1190.68   30.40
  -2   7  -7 1155.08   29.40
   2  -7   7 1138.99   29.40
  -3   7  -7  362.16   12.60
  -3   7  -7  360.76   12.90
  -3   7  -7  380.26   14.50
  -3   7  -7  361.06   14.10
   3  -7   7  360.76   12.80
  -4   7  -7  244.28   11.80
  -4   7  -7  234.48    8.60
  -4   7  -7  230.68    9.40
  -4   7  -7  221.18    9.90
   4  -7   7  225.98    9.70
  -5   7  -7   88.19    8.40
  -5   7  -7   85.19    6.70
  -5   7  -7   74.39    5.70
   5  -7   7   76.49    6.20
  -6   7  -7   72.59    6.30
  -6   7  -7   69.19    5.50
  -6   7  -7   88.49    8.70
   6  -7   7   73.89    6.20
  -7   7  -7   13.20    5.80
  -7   7  -7    9.10    3.40
   7  -7   7    7.70    3.40
  -8   7  -7   -4.10    3.30
   8  -7   7    1.50    3.20
   5   6  -7   19.90    5.20
  -5  -6   7   26.30    5.20
  -5  -6   7   28.20    5.40
   4   6  -7   67.49    7.30
   4   6  -7   53.29    9.20
  -4  -6   7   72.79    7.20
  -4  -6   7   76.39    7.50
  -4  -6   7   79.99    6.80
   3   6  -7   20.10    4.60
   3   6  -7    9.30    6.20
  -3  -6   7   15.50    4.60
  -3  -6   7   20.00    4.60
  -3  -6   7   20.90    3.90
   2   6  -7  272.37   11.60
   2   6  -7  266.07   14.10
  -2  -6   7  293.47   11.00
  -2  -6   7  302.07   11.70
   1   6  -7  275.77   13.90
   1   6  -7  234.98   10.40
  -1  -6   7  262.07   11.30
  -1  -6   7  278.17    9.90
   0   6  -7  190.78    9.00
   0   6  -7  169.58   11.20
   0  -6   7  192.88    9.50
   0  -6   7  189.58    7.80
  -1   6  -7   46.00    6.70
  -1   6  -7   69.89    6.10
  -1   6  -7   56.09    5.50
   1  -6   7   57.99    4.70
   1  -6   7   52.19    5.60
  -2   6  -7  103.09    6.60
  -2   6  -7   97.29    8.00
  -2   6  -7  100.49    8.10
  -2   6  -7   93.69    6.50
   2  -6   7   92.49    7.00
  -3   6  -7    2.40    4.60
  -3   6  -7    3.30    4.00
  -3   6  -7    8.70    2.70
  -3   6  -7    6.30    3.20
  -3   6  -7    5.90    2.90
   3  -6   7    6.20    3.60
  -4   6  -7   61.99    7.40
  -4   6  -7   60.59    5.60
  -4   6  -7   69.59    5.10
  -4   6  -7   60.49    5.40
   4  -6   7   63.49    6.00
  -5   6  -7   21.90    3.40
  -5   6  -7   24.80    5.90
  -5   6  -7   27.00    4.40
   5  -6   7   26.30    4.40
  -6   6  -7   49.10    7.40
  -6   6  -7   59.59    5.70
  -6   6  -7   51.09    4.80
   6  -6   7   55.79    5.70
  -7   6  -7  297.37   11.30
  -7   6  -7  321.07   14.30
   7  -6   7  301.57   11.60
  -8   6  -7    4.00    3.50
   8  -6   7    8.10    3.80
   6   5  -7   12.30    4.60
  -6  -5   7   16.40    5.40
  -6  -5   7   16.80    5.00
   5   5  -7  418.46   15.60
   5   5  -7  433.86   19.70
  -5  -5   7  433.36   15.40
  -5  -5   7  425.46   15.80
   4   5  -7   59.49    6.40
   4   5  -7   52.99    8.20
  -4  -5   7   57.99    6.20
  -4  -5   7   76.09    7.10
  -4  -5   7   53.59    5.50
   3   5  -7   42.90    7.10
   3   5  -7   40.90    5.20
  -3  -5   7   52.49    5.90
  -3  -5   7   49.70    5.70
   2   5  -7    1.40    4.80
   2   5  -7    4.10    3.20
   1   5  -7  238.68   12.40
   1   5  -7  232.08    9.80
  -1  -5   7  231.18    9.00
  -1  -5   7  231.68   10.20
   0   5  -7 1310.87   31.50
   0   5  -7 1282.27   33.30
   0  -5   7 1289.17   31.60
   0  -5   7 1312.67   30.00
  -1   5  -7  246.98    9.70
  -1   5  -7  251.07    9.20
  -1   5  -7  251.67   11.10
   1  -5   7  243.68    8.50
   1  -5   7  240.38   10.00
  -2   5  -7   51.29    6.00
  -2   5  -7   58.99    5.30
  -2   5  -7   47.10    5.60
   2  -5   7   62.99    5.80
  -3   5  -7  646.84   15.80
  -3   5  -7  645.54   17.60
  -3   5  -7  648.24   17.90
  -3   5  -7  621.54   16.80
  -3   5  -7  669.03   20.00
   3  -5   7  607.04   17.80
  -4   5  -7  152.68    9.50
  -4   5  -7  152.98    7.20
  -4   5  -7  161.58    7.90
  -4   5  -7  157.38    6.70
  -4   5  -7  155.78    7.90
   4  -5   7  159.28    8.10
  -5   5  -7   85.49    4.30
  -5   5  -7   86.59    8.10
  -5   5  -7   95.89    5.90
  -5   5  -7   90.79    5.70
  -5   5  -7   87.09    6.50
   5  -5   7   92.49    6.70
  -6   5  -7   37.00    3.40
  -6   5  -7   42.00    4.60
  -6   5  -7   42.70    7.10
   6  -5   7   44.60    5.10
  -7   5  -7   71.69    8.50
  -7   5  -7   62.29    4.70
  -7   5  -7   62.89    5.60
   7  -5   7   67.59    6.30
  -8   5  -7  271.27   11.20
  -8   5  -7  258.77    9.80
   8  -5   7  270.87   11.40
   7   4  -7   14.90    4.40
  -7  -4   7    5.40    4.60
  -7  -4   7   10.10    5.20
   6   4  -7  125.09   12.30
   6   4  -7  132.49    8.30
  -6  -4   7  137.89    9.50
  -6  -4   7  131.59    9.00
   5   4  -7  326.97   12.60
   5   4  -7  319.47   16.40
  -5  -4   7  311.77   12.60
  -5  -4   7  326.97   12.70
   4   4  -7   30.20    4.70
   4   4  -7   35.60    7.00
  -4  -4   7   38.70    5.30
  -4  -4   7   36.00    5.20
   3   4  -7    6.40    5.00
   3   4  -7    2.10    3.00
  -3  -4   7    2.00    3.50
  -3  -4   7    6.30    3.20
   2   4  -7   29.30    6.30
   2   4  -7   25.50    4.00
  -2  -4   7   30.00    4.50
  -2  -4   7   25.90    3.90
   1   4  -7   82.69    5.90
  -1  -4   7   95.49    6.70
  -1  -4   7   90.79    6.00
   0   4  -7    2.40    2.50
   0   4  -7    6.00    4.40
   0  -4   7    5.30    2.90
   0  -4   7    5.50    3.00
  -1   4  -7  505.05   14.50
  -1   4  -7  490.45   13.20
  -1   4  -7  505.45   15.50
   1  -4   7  478.55   14.70
  -2   4  -7  453.55   11.70
  -2   4  -7  476.45   14.50
  -2   4  -7  484.85   14.10
  -2   4  -7  500.15   12.70
  -2   4  -7  499.25   16.20
   2  -4   7  453.05   14.30
  -3   4  -7  327.57   11.00
  -3   4  -7  321.97   10.70
  -3   4  -7  317.17   12.80
  -3   4  -7  318.27    9.20
  -3   4  -7  323.67    8.00
  -3   4  -7  314.67    9.70
   3  -4   7  332.77   11.40
  -4   4  -7  255.87    8.60
  -4   4  -7  259.37    8.80
  -4   4  -7  268.27    9.10
  -4   4  -7  258.17    9.90
  -4   4  -7  258.87    7.40
  -4   4  -7  248.58   12.10
   4  -4   7  255.57   10.00
  -5   4  -7   23.80    2.80
  -5   4  -7   27.20    5.90
  -5   4  -7   25.40    4.70
  -5   4  -7   19.30    3.20
  -5   4  -7   12.00    3.80
   5  -4   7   25.00    4.30
  -6   4  -7   23.10    6.20
  -6   4  -7   17.50    3.50
  -6   4  -7   23.40    4.70
  -6   4  -7   21.20    3.00
   6  -4   7   27.40    4.60
  -7   4  -7   45.70    7.60
  -7   4  -7   39.90    4.70
  -7   4  -7   40.90    4.10
   7  -4   7   37.70    5.40
  -8   4  -7   -0.70    2.50
  -8   4  -7    1.00    3.40
   8  -4   7    0.50    3.60
   7   3  -7   57.99    9.50
   7   3  -7   64.99    6.40
  -7  -3   7   68.89    7.30
  -7  -3   7   59.99    7.20
   6   3  -7  182.88    9.00
   6   3  -7  177.38   12.90
  -6  -3   7  198.58   10.30
  -6  -3   7  187.18   10.30
   5   3  -7   61.49    5.80
   5   3  -7   55.99    8.30
  -5  -3   7   63.99    6.60
  -5  -3   7   65.39    6.20
   4   3  -7   79.19    8.40
   4   3  -7   91.09    6.30
  -4  -3   7   79.49    6.20
  -4  -3   7   83.09    6.70
   3   3  -7   48.60    4.80
   3   3  -7   44.60    6.80
  -3  -3   7   35.70    4.50
  -3  -3   7   54.39    5.60
   2   3  -7  206.98   10.30
   2   3  -7  221.38    8.80
  -2  -3   7  212.28    8.90
  -2  -3   7  208.68    8.70
   1   3  -7   82.39    5.60
   1   3  -7   75.89    7.50
  -1  -3   7   94.79    5.90
  -1  -3   7  108.99    6.50
   0   3  -7  688.63   19.10
   0   3  -7  655.83   17.50
   0  -3   7  652.93   17.00
   0  -3   7  656.13   17.90
  -2   3  -7  388.46   10.20
  -2   3  -7  406.36   12.50
  -2   3  -7  410.76   12.50
  -2   3  -7  402.86   10.10
  -2   3  -7  405.46   14.40
  -2   3  -7  406.96    9.40
   2  -3   7  416.56   12.90
  -3   3  -7  123.69    5.00
  -3   3  -7  108.19    9.20
  -3   3  -7  121.79    4.50
  -3   3  -7  124.09    6.80
  -3   3  -7  138.99    6.60
  -3   3  -7  127.99    5.30
   3  -3   7  113.99    6.90
  -4   3  -7  117.09    6.00
  -4   3  -7  127.29    6.00
  -4   3  -7  120.39    7.30
  -4   3  -7  125.09    9.50
  -4   3  -7  128.09    5.10
  -4   3  -7  136.59    8.30
   4  -3   7  122.79    7.20
  -5   3  -7   42.60    5.70
  -5   3  -7   50.09    6.90
  -5   3  -7   34.80    3.40
  -5   3  -7   37.40    5.00
  -5   3  -7   32.70    3.70
   5  -3   7   40.80    5.10
  -6   3  -7   78.39    5.00
  -6   3  -7   80.49    6.10
  -6   3  -7   80.29    7.10
  -6   3  -7   90.99    8.70
   6  -3   7   84.19    7.10
  -7   3  -7    9.70    5.70
  -7   3  -7    2.90    3.00
  -7   3  -7   -0.30    4.10
  -7   3  -7   -0.70    2.50
   7  -3   7    2.70    3.70
  -8   3  -7   57.99    5.40
  -8   3  -7   46.70    5.50
   8  -3   7   60.39    7.10
   7   2  -7  122.29   11.30
   7   2  -7  113.39    7.10
  -7  -2   7  105.89    8.30
  -7  -2   7  113.59    8.90
   6   2  -7  230.38    9.50
   6   2  -7  242.68   13.60
  -6  -2   7  241.78   11.20
  -6  -2   7  261.37   11.40
   5   2  -7   36.40    6.80
   5   2  -7   29.70    4.00
  -5  -2   7   32.20    4.90
   4   2  -7  132.09    9.70
   4   2  -7  121.19    6.40
  -4  -2   7  123.39    7.40
  -4  -2   7  119.59    7.10
   3   2  -7    9.70    2.80
   3   2  -7   10.10    4.50
  -3  -2   7   11.60    3.80
  -3  -2   7    8.50    2.00
  -3  -2   7   10.20    3.30
   2   2  -7  465.15   15.90
   2   2  -7  472.15   13.70
  -2  -2   7  497.15   14.10
  -2  -2   7  491.85   14.00
  -2  -2   7  462.65   11.40
   1   2  -7 1767.42   42.10
   1   2  -7 1801.22   40.50
  -1  -2   7 1816.02   40.80
  -1  -2   7 1856.91   40.50
  -1  -2   7 1848.02   37.70
   0   2  -7   -2.30    2.10
   0   2  -7    3.90    3.40
   0  -2   7   -0.20    2.60
   0  -2   7    0.20    0.80
  -1   2  -7  547.45   12.00
  -1   2  -7  544.85   15.50
  -1   2  -7  529.95   14.70
   1  -2   7  521.55   15.00
  -2   2  -7  317.57   12.40
  -2   2  -7  300.57   10.40
  -2   2  -7  306.97    8.20
  -2   2  -7  310.87   10.50
   2  -2   7  293.87   10.50
  -3   2  -7    1.20    3.20
  -3   2  -7   -0.50    2.70
  -3   2  -7   -1.70    4.60
  -3   2  -7    2.70    1.90
   3  -2   7   -1.10    3.00
  -4   2  -7   70.79    6.70
  -4   2  -7   66.89    7.40
  -4   2  -7   68.19    4.40
  -4   2  -7   68.69    6.20
  -4   2  -7   67.19    5.00
   4  -2   7   67.79    6.10
  -5   2  -7   -2.30    5.00
  -5   2  -7    3.30    2.30
  -5   2  -7   -1.40    3.50
  -5   2  -7    1.60    4.50
   5  -2   7    4.40    3.50
  -6   2  -7   -7.60    4.10
  -6   2  -7    0.70    2.50
  -6   2  -7    3.50    4.70
   6  -2   7   -0.90    3.30
  -7   2  -7  514.85   17.50
  -7   2  -7  524.05   15.20
  -7   2  -7  512.15   19.10
   7  -2   7  522.75   17.50
  -8   2  -7   78.29    7.90
  -8   2  -7   69.19    6.20
   8  -2   7   84.69    8.10
  -8  -1   7  185.28   10.90
  -8  -1   7  176.28   11.00
   7   1  -7   11.80    6.10
   7   1  -7   18.10    3.30
  -7  -1   7   15.60    4.50
  -7  -1   7   20.50    4.80
   6   1  -7   -0.20    2.20
   6   1  -7    0.40    4.70
  -6  -1   7   -1.80    3.30
  -6  -1   7    1.40    3.10
   5   1  -7  527.45   14.70
   5   1  -7  523.95   18.10
  -5  -1   7  536.75   14.60
  -5  -1   7  512.55   16.20
   4   1  -7  101.99    5.80
   4   1  -7  101.49    8.70
  -4  -1   7  103.99    5.30
  -4  -1   7  105.79    6.60
   3   1  -7   58.99    4.70
   3   1  -7   64.99    6.50
  -3  -1   7   58.69    5.30
  -3  -1   7   64.29    5.30
  -3  -1   7   67.09    3.80
   2   1  -7   25.30    3.30
   2   1  -7   20.80    4.80
  -2  -1   7   19.60    3.30
  -2  -1   7   22.10    3.50
  -2  -1   7   19.90    2.20
   1   1  -7  143.29    6.10
   1   1  -7   93.89    6.70
  -1  -1   7  112.79    4.00
  -1  -1   7  157.98    6.70
   0   1  -7  747.53   19.50
   0   1  -7  719.63   18.30
   0  -1   7  730.63   16.00
   0  -1   7  704.13   18.60
  -1   1  -7  137.69    7.10
  -1   1  -7  128.39    6.50
   1  -1   7  123.99    6.60
  -2   1  -7    9.80    4.80
  -2   1  -7    5.60    3.30
  -2   1  -7    8.00    3.30
   2  -1   7    9.10    3.50
  -3   1  -7  161.48    8.50
  -3   1  -7  149.29    7.50
  -3   1  -7  163.68   10.00
  -3   1  -7  173.18    6.40
   3  -1   7  160.88    8.10
  -4   1  -7   39.80    5.20
  -4   1  -7   36.00    5.70
  -4   1  -7   34.60    3.50
  -4   1  -7   44.20    4.60
  -4   1  -7   39.80    6.40
   4  -1   7   40.70    5.20
  -5   1  -7    1.50    3.70
  -5   1  -7   -2.10    2.30
  -5   1  -7   -4.10    5.00
  -5   1  -7   -2.60    4.60
   5  -1   7   -1.00    3.50
  -6   1  -7  163.78    7.50
  -6   1  -7  145.59   10.10
  -6   1  -7  157.58   10.10
   6  -1   7  157.48    9.50
  -7   1  -7   18.20    5.50
  -7   1  -7   18.40    3.80
   7  -1   7   16.40    4.80
  -8   1  -7  192.28   11.80
  -8   1  -7  194.18    9.50
   8  -1   7  196.48   11.30
  -8   0   7  169.68   10.10
  -8   0   7  153.48   10.10
   7   0  -7    2.10    2.10
   7   0  -7   -0.30    4.80
  -7   0   7   -0.50    3.10
  -7   0   7   -5.00    3.10
   6   0  -7    7.40    2.30
   6   0  -7    1.10    4.40
  -6   0   7   10.60    3.50
  -6   0   7    4.50    2.80
  -6   0   7   10.00    3.60
   5   0  -7  445.16   12.30
   5   0  -7  421.06   15.60
  -5   0   7  437.06   14.20
  -5   0   7  453.05   12.90
   4   0  -7  918.11   25.10
   4   0  -7  901.61   21.80
  -4   0   7  904.71   23.30
  -4   0   7  920.31   21.80
   3   0  -7  125.69    5.80
   3   0  -7  122.69    7.80
  -3   0   7  128.39    6.10
  -3   0   7  114.19    6.20
  -3   0   7  131.59    5.20
   2   0  -7    9.20    4.10
   2   0  -7   15.70    2.90
  -2   0   7   12.70    2.10
  -2   0   7   14.00    3.00
   1   0  -7   15.30    3.90
   1   0  -7   23.20    3.20
  -1   0   7   22.80    3.40
  -1   0   7   35.50    2.50
   0   0  -7  824.22   20.80
   0   0  -7  833.82   21.90
   0   0   7  839.62   18.80
   0   0   7  835.72   21.00
  -1   0  -7    4.90    3.00
  -1   0  -7    1.70    3.10
   1   0   7    0.80    2.50
  -2   0  -7    2.00    4.40
  -2   0  -7    1.00    3.50
  -2   0  -7   -0.40    3.40
   2   0   7   -2.70    3.10
  -3   0  -7    1.70    3.90
  -3   0  -7   -4.40    3.20
  -3   0  -7    1.20    4.70
  -3   0  -7   -0.60    4.30
   3   0   7    3.60    3.60
  -4   0  -7  282.67   12.50
  -4   0  -7  269.37    9.20
  -4   0  -7  266.57   12.40
  -4   0  -7  259.67   11.50
   4   0   7  250.27   11.10
  -5   0  -7 1289.57   33.30
  -5   0  -7 1261.37   32.90
  -5   0  -7 1271.07   32.70
  -5   0  -7 1247.58   29.70
   5   0   7 1271.97   32.60
  -6   0  -7  119.19    9.70
  -6   0  -7  120.89    7.10
  -6   0  -7  116.19    9.80
   6   0   7  116.89    8.70
  -7   0  -7    2.40    4.90
  -7   0  -7   10.60    3.60
   7   0   7    6.50    4.30
  -8   0  -7   54.79    7.90
  -8   0  -7   69.19    6.80
   8   0   7   71.29    8.20
  -8   1   7  299.77   12.80
  -8   1   7  306.47   13.60
   7  -1  -7   57.79    7.30
  -7   1   7   70.99    6.00
  -7   1   7   82.89    6.90
  -7   1   7   65.09    6.40
   6  -1  -7   45.80    3.60
   6  -1  -7   43.90    6.20
  -6   1   7   54.29    4.80
  -6   1   7   53.19    5.60
   5  -1  -7   43.70    5.80
   5  -1  -7   39.50    3.60
  -5   1   7   36.90    4.60
  -5   1   7   53.29    4.40
   4  -1  -7   72.09    4.60
   4  -1  -7   74.09    6.90
  -4   1   7   68.39    4.10
  -4   1   7   73.19    4.70
  -4   1   7   73.29    5.80
   3  -1  -7  127.29    8.50
   3  -1  -7  134.09    5.90
  -3   1   7  135.89    6.20
  -3   1   7  137.59    7.00
  -3   1   7  134.49    5.60
   2  -1  -7   34.60    5.30
   2  -1  -7   32.90    3.60
  -2   1   7   33.60    3.70
  -2   1   7   36.10    3.10
   1  -1  -7  223.18    8.20
   1  -1  -7  213.18    9.70
  -1   1   7  225.28    8.20
  -1   1   7  218.58    6.70
   0  -1  -7  827.72   21.20
   0  -1  -7  852.41   22.80
   0   1   7  841.02   21.20
  -1  -1  -7  258.97    9.90
  -1  -1  -7  279.07   10.90
   1   1   7  255.37    9.60
  -2  -1  -7  187.08    9.70
  -2  -1  -7  158.88    8.80
   2   1   7  166.98    8.70
  -3  -1  -7   37.10    6.80
  -3  -1  -7   49.50    6.30
  -3  -1  -7   33.70    5.10
   3   1   7   45.70    5.40
  -4  -1  -7   70.39    8.20
  -4  -1  -7   73.99    7.50
  -4  -1  -7   70.39    7.20
   4   1   7   69.89    7.00
  -5  -1  -7  160.18    7.80
  -5  -1  -7  177.68   10.60
  -5  -1  -7  164.78   11.30
  -5  -1  -7  159.18   10.50
   5   1   7  175.08   10.10
  -6  -1  -7    9.50    3.70
  -6  -1  -7    9.20    6.00
   6   1   7    0.50    4.00
  -7  -1  -7   45.30    7.20
  -7  -1  -7   54.09    5.80
   7   1   7   57.89    7.60
  -8   2   7   55.69    6.80
  -8   2   7   32.90    5.10
  -8   2   7   46.10    5.80
   7  -2  -7  543.65   18.30
  -7   2   7  545.35   16.90
  -7   2   7  540.15   16.40
  -7   2   7  523.15   17.50
   6  -2  -7   78.19    7.50
   6  -2  -7   73.99    4.10
  -6   2   7   77.89    6.30
  -6   2   7   77.29    5.60
   5  -2  -7    6.50    2.20
   5  -2  -7    5.80    4.20
  -5   2   7    9.60    3.30
  -5   2   7    6.60    2.60
   4  -2  -7  120.49    5.50
   4  -2  -7  113.99    7.90
  -4   2   7  119.79    5.80
  -4   2   7  117.49    4.40
  -4   2   7  122.69    6.90
   3  -2  -7  111.09    5.70
   3  -2  -7  108.29    8.30
  -3   2   7  109.59    5.60
  -3   2   7  115.89    5.40
   2  -2  -7  217.88   10.60
   2  -2  -7  217.68    8.20
  -2   2   7  211.38    7.20
  -2   2   7  213.58    7.90
   1  -2  -7  280.47   10.00
   1  -2  -7  273.97   11.70
  -1   2   7  258.97    9.40
  -1   2   7  273.97    8.30
  -1   2   7  268.27    7.20
   0  -2  -7   60.19    5.60
   0   2   7   52.89    2.70
   0   2   7   61.19    5.60
  -1  -2  -7  366.86   13.10
  -1  -2  -7  368.76   12.70
   1   2   7  375.46    9.40
   1   2   7  377.36   12.80
  -2  -2  -7  390.46   15.30
  -2  -2  -7  396.06   13.90
  -2  -2  -7  407.76   14.30
   2   2   7  408.06   14.00
  -3  -2  -7  100.39    8.30
  -3  -2  -7  109.89    8.80
  -3  -2  -7  105.29    9.10
   3   2   7  108.99    8.20
  -4  -2  -7   12.40    5.00
  -4  -2  -7    5.70    4.70
  -4  -2  -7   -2.20    5.50
   4   2   7    8.60    4.20
  -5  -2  -7  471.25   17.40
  -5  -2  -7  481.65   16.70
  -5  -2  -7  423.06   17.10
  -5  -2  -7  454.15   14.50
   5   2   7  433.86   16.50
  -6  -2  -7   -8.60    7.60
  -6  -2  -7    0.20    3.20
  -6  -2  -7   -4.80    5.30
   6   2   7    1.40    4.30
  -7  -2  -7   39.90    5.70
  -7  -2  -7   45.60    8.20
   7   2   7   50.79    7.50
  -9   3   7   25.80    5.60
  -9   3   7   26.20    5.10
  -9   3   7   29.30    5.50
  -8   3   7   31.70    5.00
  -8   3   7   37.10    5.40
  -8   3   7   32.20    5.20
   7  -3  -7   37.70    5.90
  -7   3   7   34.40    4.90
  -7   3   7   49.30    5.30
  -7   3   7   37.70    4.80
   6  -3  -7    1.20    3.90
  -6   3   7    5.00    2.80
  -6   3   7   -0.50    3.00
   5  -3  -7   20.10    2.90
   5  -3  -7   24.00    5.10
  -5   3   7   21.50    2.50
  -5   3   7   17.70    3.80
  -5   3   7   17.40    3.20
   4  -3  -7  313.97    9.80
   4  -3  -7  328.47   13.20
  -4   3   7  330.67   10.50
   3  -3  -7    9.10    3.10
   3  -3  -7    8.30    4.90
  -3   3   7   12.20    2.70
  -3   3   7    8.90    2.80
   2  -3  -7  931.21   26.00
   2  -3  -7  946.21   23.20
  -2   3   7  926.51   22.40
  -2   3   7  937.91   22.90
  -2   3   7  935.91   21.80
  -1   3   7   44.10    4.80
  -1   3   7   47.10    3.50
   0  -3  -7  140.89    8.10
   0   3   7  125.99    5.10
   0   3   7  128.29    7.40
  -1  -3  -7   49.70    6.20
  -1  -3  -7   56.09    6.00
   1   3   7   57.89    4.00
   1   3   7   59.39    5.90
  -2  -3  -7  280.67   11.40
  -2  -3  -7  262.97   13.20
  -2  -3  -7  267.37   12.20
   2   3   7  273.37   11.70
  -3  -3  -7    0.60    5.00
  -3  -3  -7    1.50    4.70
  -3  -3  -7   -0.50    4.40
   3   3   7   -2.50    3.80
  -4  -3  -7  364.26   16.10
  -4  -3  -7  366.86   15.30
  -4  -3  -7  349.37   14.00
   4   3   7  373.16   14.80
  -5  -3  -7  116.99   10.40
  -5  -3  -7  124.39   11.20
  -5  -3  -7  117.69    7.90
   5   3   7  127.59    9.70
  -6  -3  -7   98.69   10.00
  -6  -3  -7  104.19    7.90
   6   3   7  111.59   10.10
  -9   4   7   12.40    4.80
  -9   4   7   11.90    4.20
  -8   4   7  156.28    8.60
  -8   4   7  144.79    8.60
  -8   4   7  169.28    9.60
   7  -4  -7  132.19    9.30
  -7   4   7  116.69    7.40
  -7   4   7  124.09    8.10
  -7   4   7  140.39    7.70
   6  -4  -7   85.49    7.60
  -6   4   7   83.19    6.10
  -6   4   7   86.39    6.00
   5  -4  -7  197.98   10.50
   5  -4  -7  207.08    7.00
  -5   4   7  183.58    8.20
   4  -4  -7  313.37   13.30
   4  -4  -7  347.37   10.50
  -4   4   7  351.36   11.10
   3  -4  -7  406.36   12.40
   3  -4  -7  411.46   15.70
  -3   4   7  397.06   12.10
  -3   4   7  409.36   12.20
   2  -4  -7  629.34   17.30
  -2   4   7  619.24   16.20
  -2   4   7  602.94   16.70
  -2   4   7  633.14   16.40
   1  -4  -7   24.50    4.70
  -1   4   7   35.00    4.70
  -1   4   7   36.70    3.70
  -1   4   7   34.80    3.70
   0  -4  -7  210.48   10.10
   0  -4  -7  191.18    9.30
   0   4   7  197.68    7.20
   0   4   7  195.28    9.20
  -1  -4  -7   21.80    4.80
  -1  -4  -7   15.10    5.00
  -1  -4  -7   12.30    5.60
   1   4   7   15.10    4.10
  -2  -4  -7  693.63   21.80
  -2  -4  -7  657.43   20.80
  -2  -4  -7  635.14   18.40
   2   4   7  695.83   20.60
  -3  -4  -7   62.89    6.30
  -3  -4  -7   53.79    7.70
  -3  -4  -7   57.39    7.60
   3   4   7   66.89    7.30
  -4  -4  -7   65.69    7.80
   4   4   7   43.70    6.60
  -5  -4  -7  178.48   12.50
  -5  -4  -7  180.68   12.10
  -5  -4  -7  165.88    9.30
   5   4   7  186.58   11.60
  -6  -4  -7   35.50    7.70
  -6  -4  -7   47.30    6.30
   6   4   7   51.49    7.90
  -8   5   7  117.19    7.90
  -8   5   7  131.59    8.60
   7  -5  -7   60.69    7.00
  -7   5   7   70.39    6.10
  -7   5   7   67.49    6.50
  -7   5   7   70.39    6.40
   6  -5  -7  144.99    9.50
  -6   5   7  150.88    7.90
   5  -5  -7  259.97   12.50
   5  -5  -7  268.17    8.50
  -5   5   7  261.27   10.00
   4  -5  -7    2.40    2.90
   4  -5  -7   -2.10    4.10
  -4   5   7    2.20    2.60
  -4   5   7    5.70    2.60
   3  -5  -7    2.80    3.40
  -3   5   7    4.10    2.80
  -3   5   7    3.40    2.60
   2  -5  -7  134.49    7.90
  -2   5   7  118.99    6.90
  -2   5   7  126.39    6.50
  -2   5   7  151.08    6.80
   1  -5  -7   63.59    6.50
  -1   5   7   72.99    5.20
  -1   5   7   72.19    6.20
   0  -5  -7   -6.40    4.00
   0   5   7    2.90    2.60
   0   5   7    1.40    3.60
  -1  -5  -7  634.04   20.90
  -1  -5  -7  697.43   21.20
   1   5   7  641.94   18.00
   1   5   7  688.83   20.40
  -2  -5  -7   86.69    9.40
  -2  -5  -7   77.09    8.60
   2   5   7   79.39    8.00
  -3  -5  -7   91.59    9.40
  -3  -5  -7  102.69   10.30
   3   5   7   96.19    8.80
  -4  -5  -7    2.10    6.00
  -4  -5  -7   -7.90    5.30
   4   5   7    7.90    4.90
  -5  -5  -7   43.10    8.50
  -5  -5  -7   45.00    6.10
  -5  -5  -7   50.79    8.60
   5   5   7   42.60    7.80
  -8   6   7   59.99    6.30
  -8   6   7   57.09    6.50
   7  -6  -7  241.98   12.00
  -7   6   7  267.37   10.90
  -7   6   7  261.57   11.10
   6  -6  -7  311.47   13.70
  -6   6   7  297.97   11.60
   5  -6  -7   31.70    3.70
   5  -6  -7   30.90    6.30
  -5   6   7   41.40    4.90
  -5   6   7   33.20    4.80
   4  -6  -7   44.00    4.70
  -4   6   7   42.50    4.70
  -4   6   7   48.50    5.50
   3  -6  -7  519.65   15.40
  -3   6   7  490.85   15.20
  -3   6   7  490.85   15.00
  -2   6   7  138.29    7.20
   1  -6  -7  241.78   11.60
  -1   6   7  286.37   11.40
  -1   6   7  314.67   10.50
   0  -6  -7  424.86   16.00
   0  -6  -7  433.36   16.70
   0   6   7  452.45   15.30
   0   6   7  405.56   13.40
  -1  -6  -7  195.18   11.30
  -1  -6  -7  187.88   12.50
   1   6   7  187.58   10.30
   1   6   7  169.68    8.60
  -2  -6  -7  261.97   14.70
  -2  -6  -7  250.17   12.90
   2   6   7  246.08   12.10
  -3  -6  -7   29.60    7.30
  -3  -6  -7   18.50    7.60
   3   6   7   35.60    6.90
  -4  -6  -7   33.30    7.70
  -4  -6  -7   36.40    7.90
   4   6   7   33.10    6.90
  -8   7   7   -0.20    3.40
   7  -7  -7    0.30    4.20
  -7   7   7   -4.40    2.70
   6  -7  -7    5.40    4.60
  -6   7   7    9.00    3.80
  -6   7   7    6.50    3.20
   5  -7  -7    9.60    5.50
   5  -7  -7   11.90    3.30
  -5   7   7   15.50    4.10
  -5   7   7   12.50    3.60
   4  -7  -7    6.50    3.50
  -4   7   7    6.90    3.50
  -4   7   7    8.50    3.10
   3  -7  -7   73.39    6.90
  -3   7   7   69.59    6.30
  -3   7   7   72.49    6.10
   2  -7  -7  344.17   13.30
  -2   7   7  337.47   12.10
  -2   7   7  354.86   12.60
   1  -7  -7   89.09    8.30
   1  -7  -7   89.49    8.80
  -1   7   7   92.19    6.40
  -1   7   7   95.69    7.40
   0  -7  -7   29.00    7.10
   0  -7  -7   21.20    6.00
   0   7   7   23.10    4.30
   0   7   7   24.00    5.30
  -1  -7  -7   36.30    8.00
  -1  -7  -7   56.99    7.70
   1   7   7   37.70    5.90
  -2  -7  -7   23.00    6.90
  -2  -7  -7   18.90    7.40
   2   7   7   26.70    6.20
  -3  -7  -7   30.50    7.80
  -3  -7  -7   10.70    7.40
   3   7   7   25.30    6.50
  -4  -7  -7    5.50    7.40
  -4  -7  -7    1.90    6.50
   4   7   7   18.20    5.70
  -7   8   7   40.10    6.40
  -7   8   7   42.50    5.80
   6  -8  -7  305.07   15.10
  -6   8   7  305.27   13.30
  -6   8   7  307.37   12.50
  -5   8   7   73.99    7.20
  -5   8   7   74.89    7.00
   4  -8  -7    6.00    3.60
  -4   8   7    8.90    3.70
  -4   8   7    5.50    3.20
   3  -8  -7   11.70    4.50
  -3   8   7    8.00    3.80
  -3   8   7   12.50    3.80
   2  -8  -7  393.56   15.20
   2  -8  -7  395.86   16.30
  -2   8   7  393.86   13.70
  -2   8   7  398.06   14.30
   1  -8  -7  317.47   14.70
   1  -8  -7  305.17   13.60
  -1   8   7  275.77   11.60
  -1   8   7  272.07   11.50
   0  -8  -7    4.40    6.40
   0  -8  -7    1.30    5.30
   0   8   7    3.90    4.00
  -1  -8  -7   -7.50    5.10
  -1  -8  -7    8.20    7.40
   1   8   7   -3.00    3.90
  -2  -8  -7   23.40    7.50
  -2  -8  -7   21.30    8.10
   2   8   7   25.80    6.40
  -3  -8  -7  113.69   11.70
  -7   9   7   88.89    8.40
  -7   9   7   95.39    8.30
   6  -9  -7   -0.90    5.50
  -6   9   7    1.40    3.60
  -6   9   7   -2.70    3.10
  -5   9   7  194.28   10.10
  -5   9   7  214.28   11.20
   4  -9  -7    6.20    4.00
  -4   9   7    5.10    3.80
  -4   9   7    3.10    3.20
   3  -9  -7    8.30    4.60
  -3   9   7    7.10    3.70
  -3   9   7   12.20    4.40
   2  -9  -7  191.68   11.00
   2  -9  -7  186.98   12.70
  -2   9   7  194.88   10.20
  -2   9   7  160.98    9.10
   1  -9  -7   -7.10    6.10
   1  -9  -7    1.30    5.10
  -1   9   7    3.50    3.60
   0  -9  -7   -7.00    6.40
   0  -9  -7    1.60    5.50
  -1  -9  -7   23.80    7.50
  -1  -9  -7   18.40    8.20
   1   9   7   24.00    6.10
  -6  10   7   32.30    5.60
  -6  10   7   35.50    6.50
  -5  10   7    5.50    4.40
  -5  10   7    2.20    3.70
   4 -10  -7  181.98   10.20
  -4  10   7  187.58   11.00
  -4  10   7  172.48    9.90
   3 -10  -7    7.50    4.90
  -3  10   7    3.50    3.50
  -3  10   7    4.90    4.10
   2 -10  -7   50.49    7.80
  -2  10   7   56.59    6.70
   1 -10  -7   13.40    6.40
  -1  10   7   -2.20    3.50
   0 -10  -7  235.28   14.60
   0 -10  -7  239.08   15.10
  -1  11  -8  305.27   15.30
  -1  11  -8  315.77   14.40
   1 -11   8  301.37   14.90
  -2  11  -8   21.90    5.10
  -2  11  -8   35.30    6.60
   2 -11   8   19.10    5.70
  -3  11  -8  141.99   10.50
   3 -11   8  157.28   10.40
  -4  11  -8   42.80    7.00
   4 -11   8   51.49    7.10
  -5  11  -8   11.00    5.00
   5 -11   8   11.80    4.70
  -1 -10   8   40.00    7.00
   0  10  -8   54.39    7.40
   0  10  -8   42.80    7.80
   0 -10   8   53.89    7.90
  -1  10  -8   51.09    6.80
  -1  10  -8   43.10    7.20
   1 -10   8   35.70    6.50
  -2  10  -8    5.10    4.30
  -2  10  -8    4.50    3.50
   2 -10   8    0.30    4.00
  -3  10  -8   98.29    8.50
   3 -10   8   78.09    7.90
  -4  10  -8    5.40    4.30
  -4  10  -8    8.40    5.30
   4 -10   8    3.60    3.80
  -5  10  -8  218.08   11.60
  -5  10  -8  221.88   12.60
   5 -10   8  219.48   10.70
  -6  10  -8  205.28   16.80
  -6  10  -8  215.68   13.00
   6 -10   8  201.98   10.50
  -3  -9   8    3.90    4.70
   2   9  -8  231.68   12.90
  -2  -9   8  232.28   13.00
  -2  -9   8  254.07   11.70
   1   9  -8   26.10    5.60
  -1  -9   8   31.10    5.00
  -1  -9   8   31.80    6.40
   0   9  -8   85.99    8.30
   0  -9   8   92.09    8.90
  -1   9  -8   35.80    5.80
  -1   9  -8   39.70    6.40
   1  -9   8   26.90    5.70
  -2   9  -8  211.58   10.50
  -2   9  -8  203.58   10.80
  -2   9  -8  217.28   11.90
   2  -9   8  200.38   10.80
  -3   9  -8   14.30    5.40
   3  -9   8   25.10    5.40
  -4   9  -8   12.60    4.60
  -4   9  -8    6.70    5.40
   4  -9   8   12.80    4.20
  -5   9  -8   16.00    5.70
  -5   9  -8   25.80    5.20
   5  -9   8   22.60    4.80
  -6   9  -8  102.79    9.80
  -6   9  -8   85.29    6.80
   6  -9   8   82.99    7.40
  -7   9  -8   46.10    7.90
  -7   9  -8   30.40    5.00
   7  -9   8   45.80    6.00
   4   8  -8   22.00    5.90
  -4  -8   8   27.10    5.90
   3   8  -8   25.70    5.60
  -3  -8   8   32.50    6.40
  -3  -8   8   23.70    5.20
   2   8  -8   35.00    6.00
  -2  -8   8   37.70    5.40
  -2  -8   8   33.20    6.10
   1   8  -8   31.50    7.90
   1   8  -8   46.00    6.30
  -1  -8   8   58.19    7.30
  -1  -8   8   49.90    5.50
   0   8  -8  314.17   16.60
   0   8  -8  329.87   13.40
   0  -8   8  310.37   11.20
   0  -8   8  343.17   14.00
  -1   8  -8    5.90    5.90
  -1   8  -8    5.80    4.00
  -1   8  -8    7.00    3.80
   1  -8   8   10.90    4.40
   1  -8   8    7.50    4.80
  -2   8  -8  126.29    8.00
  -2   8  -8  102.59   10.00
  -2   8  -8   87.99    8.50
  -2   8  -8  125.59    8.20
   2  -8   8  107.79    8.00
  -3   8  -8  397.86   16.20
  -3   8  -8  409.46   14.20
  -3   8  -8  400.06   14.40
   3  -8   8  398.56   14.50
  -4   8  -8  113.89    9.70
  -4   8  -8  144.79   14.00
  -4   8  -8  118.69    8.10
   4  -8   8  118.69    7.80
  -5   8  -8   48.10    6.00
  -5   8  -8   49.10    7.30
  -5   8  -8   46.30    4.90
   5  -8   8   46.10    5.80
  -6   8  -8   89.39    6.50
  -6   8  -8   75.19    8.70
   6  -8   8   85.39    7.00
  -7   8  -8   21.50    6.80
  -7   8  -8   13.50    4.20
   7  -8   8   15.70    4.20
  -8   8  -8   -2.70    3.70
  -8   8  -8    2.70    6.00
   4   7  -8   14.90    5.10
  -4  -7   8   13.40    4.30
  -4  -7   8   13.50    4.90
   3   7  -8  131.39   12.90
   3   7  -8  141.49    9.50
  -3  -7   8  136.79    7.70
  -3  -7   8  130.79    8.70
  -3  -7   8  137.49    9.60
   2   7  -8   26.80    5.30
   2   7  -8   23.00    7.10
  -2  -7   8   38.00    5.20
  -2  -7   8   33.80    5.80
   1   7  -8   19.10    4.60
   1   7  -8   26.00    7.80
  -1  -7   8   19.70    4.80
  -1  -7   8   22.50    4.20
   0   7  -8   52.39    5.90
   0   7  -8   56.79    7.70
   0  -7   8   51.19    6.00
   0  -7   8   63.69    5.40
  -1   7  -8   84.59    8.60
  -1   7  -8   80.19    6.90
  -1   7  -8   81.89    6.30
   1  -7   8   92.29    6.00
   1  -7   8   74.19    7.00
  -2   7  -8   75.99    6.40
  -2   7  -8   72.19    6.30
  -2   7  -8   70.59    7.90
  -2   7  -8   60.49    7.20
   2  -7   8   69.19    6.80
  -3   7  -8  152.88    8.10
  -3   7  -8  142.59    9.70
  -3   7  -8  156.08    8.30
  -3   7  -8  138.99   10.40
   3  -7   8  147.99    8.50
  -4   7  -8   39.70    5.00
  -4   7  -8   38.40    4.80
  -4   7  -8   33.40    3.90
  -4   7  -8   40.10    7.00
   4  -7   8   33.40    5.10
  -5   7  -8  127.49    7.60
  -5   7  -8  124.09    6.70
  -5   7  -8  113.29   10.00
   5  -7   8  122.89    7.80
  -6   7  -8   -1.00    5.20
  -6   7  -8    3.80    3.20
   6  -7   8   -0.40    3.20
  -7   7  -8   21.80    4.40
  -7   7  -8   31.70    7.20
   7  -7   8   25.50    4.70
  -8   7  -8   55.19    9.00
  -8   7  -8   45.60    5.70
   8  -7   8   46.90    5.90
   5   6  -8   21.10    8.80
   5   6  -8   21.20    5.30
  -5  -6   8   21.70    4.80
  -5  -6   8   21.00    5.70
   4   6  -8   -2.50    6.60
   4   6  -8    6.00    3.90
  -4  -6   8    6.70    3.40
  -4  -6   8    8.50    4.30
   3   6  -8  644.84   24.20
   3   6  -8  659.33   20.50
  -3  -6   8  651.53   20.50
  -3  -6   8  639.34   19.60
   2   6  -8  230.58   14.00
   2   6  -8  237.88   11.00
  -2  -6   8  260.57   10.60
  -2  -6   8  259.17   11.60
   1   6  -8  107.79    7.30
   1   6  -8   88.29    9.20
  -1  -6   8  114.89    7.60
  -1  -6   8  101.19    6.90
   0   6  -8   27.10    6.50
   0   6  -8   24.50    4.10
   0  -6   8   25.30    4.70
   0  -6   8   28.40    4.20
  -1   6  -8   54.49    5.50
  -1   6  -8   50.39    5.50
  -1   6  -8   41.00    6.50
   1  -6   8   46.60    5.70
   1  -6   8   44.40    4.50
  -2   6  -8   54.39    5.30
  -2   6  -8   50.19    6.80
  -2   6  -8   50.49    5.50
  -2   6  -8   52.19    6.50
   2  -6   8   64.39    6.30
  -3   6  -8  151.68    7.90
  -3   6  -8  157.48    7.50
  -3   6  -8  147.89    6.40
  -3   6  -8  131.39   10.40
  -3   6  -8  144.89    8.90
   3  -6   8  156.08    8.30
  -4   6  -8    0.20    2.50
  -4   6  -8    3.60    3.10
  -4   6  -8    6.00    2.60
  -4   6  -8    3.90    5.10
   4  -6   8   -4.80    2.80
  -5   6  -8  165.88   10.50
  -5   6  -8  177.38    7.50
  -5   6  -8  128.39   10.60
   5  -6   8  168.38    8.60
  -6   6  -8  145.29    7.50
  -6   6  -8  142.39   11.10
   6  -6   8  145.79    8.40
  -7   6  -8   65.29    5.90
  -7   6  -8   64.79    8.90
   7  -6   8   65.69    6.60
  -8   6  -8  227.38   10.60
  -8   6  -8  240.88   13.70
   8  -6   8  220.78   10.80
   6   5  -8  255.17   12.40
   6   5  -8  237.08   17.20
  -6  -5   8  285.67   13.00
  -6  -5   8  238.88   12.80
   5   5  -8    8.50    4.00
   5   5  -8    1.90    6.80
  -5  -5   8   10.50    3.80
  -5  -5   8    2.80    3.80
   4   5  -8   20.50    4.50
   4   5  -8    9.40    6.90
  -4  -5   8   21.20    4.90
   3   5  -8   39.60    5.50
   3   5  -8   41.60    7.90
  -3  -5   8   40.20    5.50
   2   5  -8   67.09    6.10
   2   5  -8   63.39    8.40
  -2  -5   8   70.19    6.20
  -2  -5   8   61.59    6.40
   1   5  -8  143.39   10.00
   1   5  -8  144.99    8.00
  -1  -5   8  142.59    8.00
  -1  -5   8  150.58    7.60
   0   5  -8   -1.00    4.70
   0   5  -8    2.50    3.00
   0  -5   8   -0.50    3.50
   0  -5   8   -3.10    2.90
  -1   5  -8  408.66   12.40
  -1   5  -8  433.96   13.80
  -1   5  -8  411.26   15.00
   1  -5   8  413.66   14.10
  -2   5  -8 1176.68   31.10
  -2   5  -8 1134.49   27.40
  -2   5  -8 1198.58   30.00
  -2   5  -8 1180.48   29.10
   2  -5   8 1198.18   29.50
  -3   5  -8  193.18    7.00
  -3   5  -8  195.08   11.60
  -3   5  -8  186.18    7.60
  -3   5  -8  196.58    8.90
  -3   5  -8  198.98    9.40
   3  -5   8  191.28    9.20
  -4   5  -8   33.80    6.70
  -4   5  -8   33.70    3.60
  -4   5  -8   32.10    3.90
  -4   5  -8   32.80    4.50
   4  -5   8   29.90    4.50
  -5   5  -8    0.00    2.50
  -5   5  -8    1.00    4.60
  -5   5  -8   -2.50    2.90
   5  -5   8   -2.00    3.00
  -6   5  -8   43.30    4.70
  -6   5  -8   33.00    6.70
   6  -5   8   49.00    5.70
  -7   5  -8  224.88   13.30
  -7   5  -8  226.18   10.00
   7  -5   8  249.68   11.00
  -8   5  -8   39.60    5.20
  -8   5  -8   58.69    9.00
   8  -5   8   58.69    6.60
   6   4  -8  127.39   13.00
   6   4  -8  136.89    8.80
  -6  -4   8  146.39    9.60
  -6  -4   8  148.69   10.00
   5   4  -8  759.42   26.20
   5   4  -8  748.23   22.10
  -5  -4   8  797.62   22.50
  -5  -4   8  726.73   22.30
   4   4  -8    5.80    6.00
   4   4  -8   13.70    3.80
  -4  -4   8    9.10    4.00
   3   4  -8    1.10    2.80
   3   4  -8   -1.00    5.00
  -3  -4   8    1.70    3.50
  -3  -4   8    0.90    3.20
   2   4  -8   36.00    4.70
   2   4  -8   30.40    6.50
  -2  -4   8   49.10    5.50
  -2  -4   8   37.70    4.90
   1   4  -8  100.19    8.40
   1   4  -8  122.29    7.10
  -1  -4   8  141.89    7.50
  -1  -4   8  141.79    7.20
   0   4  -8  130.69    7.20
   0   4  -8  114.49    8.70
   0  -4   8  127.19    6.70
   0  -4   8  119.69    7.70
  -1   4  -8   15.00    3.40
  -1   4  -8    9.60    4.30
   1  -4   8    8.90    3.40
  -2   4  -8  242.68    9.60
  -2   4  -8  232.78    7.10
  -2   4  -8  229.28    7.70
  -2   4  -8  219.58   11.90
  -2   4  -8  238.38   10.20
   2  -4   8  243.98   10.00
  -3   4  -8  912.21   23.40
  -3   4  -8  912.81   23.10
  -3   4  -8  885.21   25.60
  -3   4  -8  855.31   21.00
  -3   4  -8  889.21   20.70
   3  -4   8  902.11   23.70
  -4   4  -8   19.50    5.40
  -4   4  -8   28.10    4.60
  -4   4  -8   20.20    3.10
   4  -4   8   29.00    4.80
  -5   4  -8   17.50    2.60
  -5   4  -8   17.80    4.80
  -5   4  -8   16.10    4.30
  -5   4  -8   26.70    5.70
  -5   4  -8   17.00    3.20
   5  -4   8   17.40    4.20
  -6   4  -8    4.60    5.60
  -6   4  -8   12.80    3.40
  -6   4  -8    6.30    2.40
  -6   4  -8    8.50    5.00
   6  -4   8   13.70    4.10
  -7   4  -8   18.90    4.10
  -7   4  -8   17.00    6.40
  -7   4  -8   20.30    3.30
   7  -4   8   17.80    4.60
  -8   4  -8   68.59    5.60
  -8   4  -8   57.59    6.00
   8  -4   8   65.89    7.20
   7   3  -8    0.00    7.10
   7   3  -8    1.80    3.30
  -7  -3   8    6.00    4.30
  -7  -3   8    3.20    4.30
   6   3  -8   25.00    4.40
   6   3  -8   18.30    7.10
  -6  -3   8   21.60    4.80
  -6  -3   8   27.20    5.20
   5   3  -8    4.90    3.10
   5   3  -8    2.10    6.10
  -5  -3   8    8.80    4.10
   4   3  -8    4.40    4.80
   4   3  -8    2.80    2.90
  -4  -3   8    3.50    3.50
   3   3  -8   13.60    5.00
   3   3  -8   13.70    3.50
  -3  -3   8   18.20    3.80
  -3  -3   8   16.60    3.90
   2   3  -8   37.70    6.30
   1   3  -8  184.18    8.10
   1   3  -8  177.88   10.00
  -1  -3   8  171.38    8.00
  -1  -3   8  177.58    8.60
   0   3  -8 2296.47   51.99
   0   3  -8 2273.17   50.39
   0  -3   8 2219.28   50.59
  -1   3  -8   15.10    4.10
  -1   3  -8   14.20    3.30
   1  -3   8   10.40    3.70
  -2   3  -8   69.29    3.20
  -2   3  -8   62.99    4.30
  -2   3  -8   72.99    3.80
  -2   3  -8   87.09    8.00
  -2   3  -8   74.19    6.00
  -2   3  -8   80.79    6.30
   2  -3   8   69.59    6.30
  -3   3  -8    1.00    4.60
  -3   3  -8    1.90    3.20
  -3   3  -8   -1.10    3.10
  -3   3  -8    0.90    1.70
  -3   3  -8   -0.60    2.10
   3  -3   8   -3.60    3.10
  -4   3  -8  113.49    7.50
  -4   3  -8  128.79    5.20
  -4   3  -8  107.89    9.60
  -4   3  -8  118.29    6.50
  -4   3  -8  128.29    6.00
   4  -3   8  111.79    7.30
  -5   3  -8   -0.30    4.50
  -5   3  -8    3.30    2.20
  -5   3  -8    1.20    4.30
  -5   3  -8   -0.70    2.40
  -5   3  -8   -3.70    3.30
   5  -3   8    0.90    3.30
  -6   3  -8  164.08    7.80
  -6   3  -8  154.68    6.80
  -6   3  -8  149.69   11.40
  -6   3  -8  149.09    9.40
   6  -3   8  151.68    8.90
  -7   3  -8  116.49   10.70
  -7   3  -8  103.19    7.00
  -7   3  -8  102.89    8.80
  -7   3  -8  110.69    6.30
   7  -3   8  105.19    8.20
  -8   3  -8  135.79    8.90
  -8   3  -8  137.09    7.60
   8  -3   8  149.39   10.00
   7   2  -8   15.60    7.10
   7   2  -8   21.00    4.00
  -7  -2   8   18.50    5.10
  -7  -2   8   11.90    5.00
   6   2  -8   50.59    8.10
   6   2  -8   55.99    5.30
  -6  -2   8   58.09    6.40
  -6  -2   8   66.59    7.00
   5   2  -8  155.18    7.70
   5   2  -8  185.78   11.50
  -5  -2   8  157.38    8.60
   4   2  -8   20.20    5.90
   4   2  -8   22.60    3.80
  -4  -2   8   21.80    4.40
   3   2  -8   74.69    5.50
   3   2  -8   59.59    7.10
  -3  -2   8   63.19    5.90
  -3  -2   8   56.29    3.70
  -3  -2   8   60.19    5.80
   2   2  -8   14.80    3.20
   2   2  -8   12.80    5.00
  -2  -2   8   14.80    2.00
   1   2  -8  112.59    6.30
   1   2  -8  110.89    8.20
  -1  -2   8  112.09    6.40
  -1  -2   8  109.59    6.60
  -1  -2   8  104.59    3.60
   0   2  -8 2615.94   56.59
   0   2  -8 2611.34   57.89
   0   2  -8 2510.55   53.09
   0  -2   8 2554.74   52.89
   0  -2   8 2616.84   56.89
  -2   2  -8   22.00    4.20
  -2   2  -8   21.70    2.40
  -2   2  -8   23.60    4.20
  -2   2  -8   26.40    5.90
   2  -2   8   22.50    4.10
  -3   2  -8  173.08    6.00
  -3   2  -8  165.78    8.70
  -3   2  -8  163.08   10.70
  -3   2  -8  164.08    6.40
  -3   2  -8  165.08    8.00
   3  -2   8  176.08    8.60
  -4   2  -8  216.88   10.20
  -4   2  -8  218.48    8.70
  -4   2  -8  223.58   11.00
  -4   2  -8  240.18   12.10
  -4   2  -8  215.38    7.50
   4  -2   8  219.48    9.90
  -5   2  -8    1.90    2.40
  -5   2  -8    1.40    3.80
  -5   2  -8    7.20    4.80
  -5   2  -8    4.50    4.90
   5  -2   8    7.30    3.90
  -6   2  -8   14.80    6.20
  -6   2  -8   10.10    5.30
  -6   2  -8    8.90    2.90
   6  -2   8    8.90    4.30
  -7   2  -8   -2.70    4.60
  -7   2  -8   -5.00    5.50
  -7   2  -8    0.40    2.90
   7  -2   8    2.60    3.90
  -8   2  -8  156.68    8.40
  -8   2  -8  145.99   10.50
   8  -2   8  175.48   10.90
   7   1  -8    2.60    2.50
   7   1  -8   -4.80    5.20
  -7  -1   8    0.30    3.90
  -7  -1   8    2.20    3.40
   6   1  -8  398.66   16.50
   6   1  -8  378.76   12.30
  -6  -1   8  393.66   14.50
  -6  -1   8  384.36   14.40
   5   1  -8    1.50    2.30
   5   1  -8    2.00    4.50
  -5  -1   8    0.40    2.10
  -5  -1   8    3.40    3.70
   4   1  -8   64.39    7.30
   4   1  -8   76.39    5.20
  -4  -1   8   69.89    4.50
  -4  -1   8   79.09    6.70
   3   1  -8  211.68   10.70
   3   1  -8  226.28    8.50
  -3  -1   8  210.28    9.00
  -3  -1   8  215.78    8.60
  -3  -1   8  217.68    7.10
   2   1  -8  137.39    6.60
   2   1  -8  121.39    8.20
  -2  -1   8  125.19    6.70
  -2  -1   8  129.39    4.80
  -2  -1   8  125.19    7.20
   1   1  -8  294.17   10.20
   1   1  -8  311.77   12.40
  -1  -1   8  292.07    7.80
  -1  -1   8  289.17   10.30
   0   1  -8   15.10    3.50
   0   1  -8   17.50    4.30
   0  -1   8   14.20    3.80
   0  -1   8   17.50    1.90
  -1   1  -8   82.89    3.40
   1  -1   8  102.99    6.70
  -2   1  -8  134.89    7.90
  -2   1  -8  125.99    9.50
  -2   1  -8  128.39    7.60
   2  -1   8  143.49    7.80
  -3   1  -8   29.70    5.00
  -3   1  -8   32.80    4.70
  -3   1  -8   37.30    6.70
   3  -1   8   31.80    4.70
  -4   1  -8   22.60    5.90
  -4   1  -8   25.90    3.30
  -4   1  -8   24.40    5.00
  -4   1  -8   19.60    5.40
  -4   1  -8   30.40    4.30
   4  -1   8   19.80    4.50
  -5   1  -8  127.59   10.20
  -5   1  -8  118.79    9.60
  -5   1  -8  127.19    6.40
  -5   1  -8  121.19    8.70
   5  -1   8  121.79    8.30
  -6   1  -8  282.97   10.40
  -6   1  -8  308.17   14.50
  -6   1  -8  324.87   14.50
   6  -1   8  297.17   13.00
  -7   1  -8   92.39    6.70
  -7   1  -8  101.79    9.60
   7  -1   8  106.29    9.20
  -8   1  -8   -4.40    5.10
  -8   1  -8   -1.60    3.30
  -8   0   8   32.50    6.10
  -8   0   8   21.20    5.40
   7   0  -8   95.99    9.90
   7   0  -8   91.39    6.10
  -7   0   8   95.89    7.80
  -7   0   8   86.99    7.60
   6   0  -8   23.00    5.80
   6   0  -8   20.00    3.20
  -6   0   8   14.30    3.30
  -6   0   8   19.40    4.70
   5   0  -8  299.97    9.90
   5   0  -8  301.67   13.60
  -5   0   8  308.47   10.20
  -5   0   8  307.47   11.70
   4   0  -8   20.40    3.30
   4   0  -8   16.00    5.20
  -4   0   8   22.00    3.00
  -4   0   8   22.50    4.20
   3   0  -8  954.60   22.90
   3   0  -8  934.11   25.90
  -3   0   8  940.01   21.90
  -3   0   8  951.10   23.20
  -3   0   8  911.21   23.80
   2   0  -8   60.99    6.70
   2   0  -8   54.49    4.80
  -2   0   8   57.09    3.60
  -2   0   8   53.69    5.10
  -2   0   8   64.79    5.30
   1   0  -8  843.92   23.60
   1   0  -8  908.41   22.00
  -1   0   8  870.41   19.80
  -1   0   8  858.21   22.00
   0   0  -8  154.48    7.60
   0   0  -8  154.98    9.00
   0   0   8  153.98    5.40
   0   0   8  158.58    7.70
  -1   0  -8  260.17   10.90
  -1   0  -8  228.18    9.70
   1   0   8  208.88    9.10
  -2   0  -8   48.60    5.70
  -2   0  -8   48.90    5.80
  -2   0  -8   49.00    6.50
   2   0   8   55.39    5.70
  -3   0  -8  182.28    9.20
  -3   0  -8  184.78   10.90
  -3   0  -8  187.88    9.90
   3   0   8  151.28    8.90
  -4   0  -8   27.50    6.40
  -4   0  -8   10.40    5.60
  -4   0  -8   12.70    3.20
  -4   0  -8   16.30    4.10
  -4   0  -8   14.90    4.90
   4   0   8   16.60    4.60
  -5   0  -8  160.08   10.90
  -5   0  -8  143.29   10.80
  -5   0  -8  144.09    9.80
  -5   0  -8  149.09    7.30
   5   0   8  145.89    9.20
  -6   0  -8  366.56   16.10
  -6   0  -8  385.36   12.80
  -6   0  -8  407.86   16.50
   6   0   8  370.06   15.20
  -7   0  -8    9.40    5.80
  -7   0  -8   11.60    3.80
   7   0   8   16.40    5.50
  -8   1   8  386.16   15.10
  -8   1   8  393.96   16.00
  -8   1   8  386.96   14.10
   7  -1  -8   91.69    9.40
  -7   1   8  100.39    7.80
  -7   1   8   93.19    6.70
  -7   1   8  100.29    8.00
   6  -1  -8   31.70    3.40
   6  -1  -8   24.90    5.60
  -6   1   8   29.40    4.10
  -6   1   8   36.50    5.20
   5  -1  -8   12.10    2.60
   5  -1  -8    9.70    4.40
  -5   1   8   13.00    2.90
  -5   1   8   10.90    3.80
   4  -1  -8  137.99    9.70
   4  -1  -8  135.39    6.30
  -4   1   8  141.99    6.30
  -4   1   8  137.19    7.20
   3  -1  -8  350.86   10.90
   3  -1  -8  355.96   14.10
  -3   1   8  351.96   10.40
  -3   1   8  359.26   11.30
  -3   1   8  368.96   12.20
   2  -1  -8   -1.40    2.60
   2  -1  -8    0.80    3.90
  -2   1   8    0.50    2.70
  -2   1   8    1.50    1.80
   1  -1  -8  426.06   15.40
   1  -1  -8  433.26   13.30
  -1   1   8  432.16   13.20
  -1   1   8  433.46   11.40
   0  -1  -8  874.51   24.20
   0  -1  -8  865.21   22.70
   0   1   8  889.01   22.60
  -1  -1  -8   77.49    7.80
  -1  -1  -8   70.69    6.30
  -1  -1  -8   85.79    7.40
   1   1   8   78.69    6.10
  -2  -1  -8   -3.80    3.90
  -2  -1  -8   10.10    5.20
   2   1   8   -0.10    3.80
  -3  -1  -8   14.40    5.50
  -3  -1  -8    7.30    4.20
  -3  -1  -8    8.90    5.80
   3   1   8    6.50    4.00
  -4  -1  -8  247.88   12.30
  -4  -1  -8  263.57   12.30
  -4  -1  -8  246.58   13.20
   4   1   8  275.67   12.00
  -5  -1  -8   97.09    8.90
  -5  -1  -8   91.19    6.60
  -5  -1  -8   89.19    8.70
  -5  -1  -8   85.89    9.00
   5   1   8   88.49    8.30
  -6  -1  -8   61.19    7.90
  -6  -1  -8   53.29    5.60
  -6  -1  -8   43.20    7.90
   6   1   8   51.79    7.00
  -7  -1  -8   25.20    7.40
  -7  -1  -8   19.00    4.60
   7   1   8   18.20    5.90
  -8   2   8  152.58    8.80
  -8   2   8  157.38    9.50
  -8   2   8  147.39    9.90
   7  -2  -8   66.19    7.70
  -7   2   8   65.19    6.10
  -7   2   8   68.49    6.40
  -7   2   8   76.79    7.10
   6  -2  -8   89.49    8.40
   6  -2  -8  110.19    5.20
  -6   2   8  106.59    7.20
  -6   2   8  100.69    6.20
   5  -2  -8   -1.10    4.20
   5  -2  -8   -0.10    2.10
  -5   2   8   -2.40    2.90
  -5   2   8   -1.80    2.00
   4  -2  -8  299.87    9.70
   4  -2  -8  301.27   13.10
  -4   2   8  300.77   11.00
  -4   2   8  285.67    9.80
   3  -2  -8  159.68   10.20
   3  -2  -8  154.28    7.20
  -3   2   8  152.98    6.50
   2  -2  -8   46.30    4.80
   2  -2  -8   44.90    6.20
  -2   2   8   51.29    4.80
  -2   2   8   46.20    3.70
   1  -2  -8   53.69    7.20
   1  -2  -8   52.69    5.50
  -1   2   8   48.10    3.80
  -1   2   8   50.89    5.20
   0  -2  -8  438.86   16.20
   0  -2  -8  439.16   14.30
   0   2   8  436.96   14.00
  -1  -2  -8  185.38    9.70
  -1  -2  -8  175.88   10.40
   1   2   8  197.78    9.50
  -2  -2  -8    8.80    5.00
  -2  -2  -8   12.60    5.10
   2   2   8   13.90    4.60
  -3  -2  -8  234.58   11.30
  -3  -2  -8  262.57   12.20
  -3  -2  -8  237.18   12.30
   3   2   8  253.17   11.50
  -4  -2  -8   18.10    6.10
  -4  -2  -8    2.50    4.70
  -4  -2  -8    8.70    5.40
   4   2   8   13.30    4.70
  -5  -2  -8  324.17   12.10
  -5  -2  -8  339.07   15.00
  -5  -2  -8  293.87   15.50
  -5  -2  -8  328.37   14.60
   5   2   8  306.97   13.90
  -6  -2  -8  109.49    7.70
  -6  -2  -8  104.29   10.40
   6   2   8  112.29    9.60
  -8   3   8   44.10    5.60
  -8   3   8   50.59    6.20
  -8   3   8   47.90    6.50
   7  -3  -8    8.30    4.60
  -7   3   8    9.80    3.80
  -7   3   8    7.90    3.70
  -7   3   8   11.60    3.60
   6  -3  -8   13.60    5.00
  -6   3   8   26.20    4.20
  -6   3   8   29.60    4.70
   5  -3  -8  129.99    6.10
   5  -3  -8  114.39    8.90
  -5   3   8  121.99    7.40
  -5   3   8  131.19    6.90
   4  -3  -8  328.27   14.10
   4  -3  -8  344.17   10.80
  -4   3   8  329.17   10.90
   3  -3  -8  739.63   19.00
   3  -3  -8  685.53   21.90
  -3   3   8  726.83   18.50
   2  -3  -8  223.08   12.20
   2  -3  -8  234.88    9.40
  -2   3   8  211.98    8.10
  -2   3   8  236.38    9.20
   1  -3  -8  100.29    7.10
  -1   3   8   87.49    6.50
  -1   3   8   98.49    5.20
   0  -3  -8  153.88    8.70
   0   3   8  145.09    8.20
  -1  -3  -8   20.50    5.30
  -1  -3  -8   14.10    4.50
   1   3   8   17.80    4.40
  -2  -3  -8   86.29    7.30
  -2  -3  -8   95.09    8.60
  -2  -3  -8   87.19    9.00
   2   3   8   92.69    7.80
  -3  -3  -8    7.60    5.50
  -3  -3  -8   13.30    6.00
  -3  -3  -8   10.70    5.10
   3   3   8   15.20    4.90
  -4  -3  -8    6.10    5.20
  -4  -3  -8   -5.50    6.20
  -4  -3  -8   -3.30    4.90
   4   3   8    4.40    4.40
  -5  -3  -8  898.41   28.60
  -5  -3  -8  938.71   28.40
  -5  -3  -8  879.71   24.40
   5   3   8  929.51   27.80
  -6  -3  -8   27.80    5.20
  -6  -3  -8   40.50    7.80
   6   3   8   44.10    7.40
  -8   4   8   27.40    5.00
  -8   4   8   21.20    4.80
  -8   4   8   21.60    4.50
   7  -4  -8  190.88   11.10
  -7   4   8  215.38   10.00
  -7   4   8  224.68   10.40
  -7   4   8  200.68    9.40
   6  -4  -8    3.70    4.40
  -6   4   8    5.60    3.00
  -6   4   8   -0.70    3.30
   5  -4  -8  108.69    5.80
   5  -4  -8  101.39    9.10
  -5   4   8  108.99    6.40
   4  -4  -8    1.30    2.80
   4  -4  -8    2.80    4.70
  -4   4   8   -1.70    2.10
   3  -4  -8  201.98   12.00
   3  -4  -8  206.48    8.90
  -3   4   8  213.98    8.00
  -3   4   8  209.78    8.20
   2  -4  -8  359.36   12.80
  -2   4   8  352.96   12.10
  -2   4   8  361.16   11.20
  -2   4   8  369.66   10.70
   1  -4  -8  128.29    8.60
  -1   4   8  116.19    6.30
  -1   4   8  120.59    7.70
   0  -4  -8    5.80    4.50
   0  -4  -8    9.30    4.80
   0   4   8    2.70    3.50
  -1  -4  -8    4.80    6.00
  -1  -4  -8   -0.70    4.60
  -1  -4  -8    6.50    4.50
   1   4   8    4.00    4.00
  -2  -4  -8  310.87   15.10
  -2  -4  -8  310.67   12.50
  -2  -4  -8  310.77   14.00
   2   4   8  332.87   13.50
  -3  -4  -8   31.60    5.80
  -3  -4  -8   29.60    7.00
  -3  -4  -8   20.60    6.80
   3   4   8   30.80    6.40
  -4  -4  -8   10.60    7.00
  -4  -4  -8   17.60    6.50
   4   4   8   16.80    5.60
  -5  -4  -8   34.50    8.00
  -5  -4  -8   22.40    4.90
  -5  -4  -8   25.60    7.30
   5   4   8   38.40    7.00
  -8   5   8   54.09    6.40
  -8   5   8   60.19    6.70
   7  -5  -8  251.77   12.90
  -7   5   8  243.38   10.80
  -7   5   8  242.68   10.70
   6  -5  -8  113.39    9.90
  -6   5   8  113.79    7.30
   5  -5  -8  173.48   11.20
   5  -5  -8  188.38    7.60
  -5   5   8  192.08    8.60
   4  -5  -8   12.80    3.70
   4  -5  -8    6.80    5.60
  -4   5   8   13.90    3.30
  -4   5   8   11.80    3.20
   3  -5  -8   19.50    4.40
  -3   5   8   21.00    3.50
  -3   5   8   17.50    3.30
   2  -5  -8   52.09    6.10
  -2   5   8   62.69    5.30
  -2   5   8   51.29    6.50
   1  -5  -8   -1.70    4.10
  -1   5   8   -2.60    3.10
  -1   5   8    3.40    2.60
   0  -5  -8   24.80    5.60
   0   5   8   20.40    4.70
  -1  -5  -8   58.99    8.40
  -1  -5  -8   52.69    7.20
   1   5   8   49.00    6.30
  -2  -5  -8  563.04   20.90
  -2  -5  -8  558.04   20.00
   2   5   8  574.94   19.40
  -3  -5  -8  392.96   17.20
  -3  -5  -8  394.36   18.00
   3   5   8  399.16   16.40
  -4  -5  -8   15.30    7.10
  -4  -5  -8   11.60    6.80
   4   5   8   13.30    5.50
  -5  -5  -8  112.89   11.30
  -5  -5  -8  114.49    8.80
  -5  -5  -8   97.29   10.70
   5   5   8  129.59   10.70
  -8   6   8    1.50    3.50
  -8   6   8    7.80    3.90
   7  -6  -8  121.29   10.30
  -7   6   8  138.49    8.40
  -7   6   8  147.59    8.40
   6  -6  -8   -8.30    4.20
  -6   6   8    4.90    3.20
   5  -6  -8  133.89    6.80
   5  -6  -8  130.19   10.60
  -5   6   8  130.89    7.80
  -5   6   8  128.49    7.50
   4  -6  -8  161.78   11.90
   4  -6  -8  170.68    8.30
  -4   6   8  166.98    8.10
  -4   6   8  162.98    8.20
   3  -6  -8  351.56   12.70
  -3   6   8  338.27   11.80
  -3   6   8  341.87   12.00
   2  -6  -8  460.55   15.90
  -2   6   8  460.35   14.20
   1  -6  -8   12.70    5.10
  -1   6   8   16.90    4.30
  -1   6   8   20.40    4.00
   0  -6  -8   25.90    7.30
   0  -6  -8   35.30    6.50
   0   6   8   38.40    5.70
  -1  -6  -8   71.49    8.00
  -1  -6  -8   78.49    9.30
   1   6   8   63.79    7.10
  -2  -6  -8    3.60    5.70
  -2  -6  -8   -4.60    6.70
   2   6   8    5.60    4.50
  -3  -6  -8  219.38   13.80
  -3  -6  -8  220.48   15.00
   3   6   8  215.98   12.50
  -4  -6  -8   19.40    7.60
  -4  -6  -8   31.70    8.10
   4   6   8   34.00    7.10
   7  -7  -8   29.50    6.50
  -7   7   8   29.10    5.10
   6  -7  -8    1.50    4.90
  -6   7   8    3.10    3.30
  -6   7   8    2.90    3.20
   5  -7  -8  171.28   10.80
   5  -7  -8  159.88   12.20
  -5   7   8  169.18    9.10
  -5   7   8  155.18    8.50
   4  -7  -8   29.60    4.70
  -4   7   8   20.50    4.10
  -4   7   8   26.20    4.50
   3  -7  -8  351.26   13.40
  -3   7   8  334.97   12.40
   2  -7  -8   22.60    5.50
   1  -7  -8  260.07   13.90
   1  -7  -8  245.38   12.50
  -1   7   8  263.47   10.90
   0  -7  -8  203.08   13.50
   0  -7  -8  207.68   12.60
   0   7   8  210.18   11.10
  -1  -7  -8   23.30    7.90
  -1  -7  -8   19.60    6.70
   1   7   8   22.70    5.70
  -2  -7  -8   75.89    9.40
  -2  -7  -8   66.49    9.90
   2   7   8   66.49    8.20
  -3  -7  -8   39.90    8.50
  -3  -7  -8   29.00    8.80
   3   7   8   45.10    7.70
   7  -8  -8   12.40    6.00
  -7   8   8   20.20    4.90
   6  -8  -8  505.25   20.40
  -6   8   8  532.95   18.30
  -6   8   8  525.55   17.60
  -5   8   8   47.80    6.20
  -5   8   8   33.60    5.00
   4  -8  -8  226.78   10.50
  -4   8   8  218.48   10.30
   3  -8  -8    7.90    4.60
  -3   8   8    6.60    3.20
   2  -8  -8   48.70    7.10
   2  -8  -8   62.99    8.50
  -2   8   8   61.49    6.10
   1  -8  -8   69.09    8.70
   1  -8  -8   61.89    7.90
  -1   8   8   50.19    6.10
   0  -8  -8   -1.60    6.80
   0  -8  -8    3.70    5.60
  -1  -8  -8   10.60    6.90
  -1  -8  -8   15.80    8.10
   1   8   8   23.80    5.70
  -2  -8  -8  236.38   16.20
  -2  -8  -8  257.37   15.50
   2   8   8  246.38   13.90
   6  -9  -8  159.58   12.90
  -6   9   8  160.18   11.20
  -6   9   8  161.68    9.90
  -5   9   8   91.49    7.70
   4  -9  -8   77.79    7.30
  -4   9   8   64.49    6.90
   3  -9  -8    5.80    4.90
  -3   9   8    5.90    3.80
   2  -9  -8    1.50    4.90
   2  -9  -8    2.80    6.80
  -2   9   8    6.90    3.60
   1  -9  -8   14.50    7.50
   1  -9  -8   20.50    6.70
  -1   9   8   24.80    5.30
   0  -9  -8   43.70    8.20
   0  -9  -8   32.40    8.50
   4 -10  -8   -0.10    4.40
  -4  10   8   -4.60    3.60
   3 -10  -8   -2.20    5.00
  -3  10   8   -0.60    3.80
   2 -10  -8  169.88   12.10
  -2  10   8  144.59    9.70
  -2  11  -9   18.30    5.70
  -2  11  -9   10.40    4.60
   2 -11   9   14.30    5.60
   3 -11   9   15.30    5.50
   4 -11   9  101.29    9.00
   0  10  -9   -3.80    4.70
   0  10  -9    4.20    4.30
   0 -10   9    0.60    4.50
  -1  10  -9    1.90    4.50
  -1  10  -9    6.10    4.00
   1 -10   9    5.80    4.60
  -2  10  -9    4.10    4.20
  -2  10  -9   14.70    4.90
   2 -10   9    8.20    4.80
  -3  10  -9    3.10    5.30
   3 -10   9   -4.70    3.90
  -4  10  -9  165.48   11.70
   4 -10   9  150.48    9.90
  -5  10  -9   32.40    7.40
   5 -10   9   24.20    5.40
  -6  10  -9   36.70    7.90
   2   9  -9  136.49   10.60
  -2  -9   9  136.79   11.10
  -2  -9   9  149.99    9.60
   1   9  -9   34.90    6.20
  -1  -9   9   44.50    5.70
  -1  -9   9   34.30    6.70
   0   9  -9   21.60    5.10
   0   9  -9   16.20    5.50
   0  -9   9   24.70    5.80
  -1   9  -9  406.26   16.00
  -1   9  -9  411.66   15.80
   1  -9   9  421.66   16.20
  -3   9  -9   -0.80    5.20
  -3   9  -9   -2.50    3.20
   3  -9   9    1.10    3.80
  -4   9  -9   -4.00    5.10
   4  -9   9    2.80    3.70
  -5   9  -9  160.58   11.80
   5  -9   9  172.48   10.00
  -6   9  -9  167.28    9.00
  -6   9  -9  179.38   13.30
   6  -9   9  167.28    9.60
   3   8  -9  105.89    9.40
  -3  -8   9   91.89    8.30
  -3  -8   9  101.39    9.80
   2   8  -9   20.80    8.90
   2   8  -9   20.00    5.10
  -2  -8   9   26.00    5.10
  -2  -8   9   33.20    6.70
   1   8  -9   24.70    7.90
  -1  -8   9   63.69    7.30
   0   8  -9   80.89    9.90
   0   8  -9   88.59    8.20
   0  -8   9   92.69    8.30
   0  -8   9   93.49    6.80
  -1   8  -9  323.07   16.00
  -1   8  -9  319.07   13.10
  -1   8  -9  319.07   13.30
   1  -8   9  341.27   13.80
  -2   8  -9  424.26   16.90
  -2   8  -9  373.46   16.60
  -2   8  -9  431.36   15.20
  -2   8  -9  408.56   17.20
   2  -8   9  427.96   15.70
  -3   8  -9  152.18   11.90
  -3   8  -9  138.59   10.80
  -3   8  -9  144.19    8.60
   3  -8   9  136.39    8.90
  -4   8  -9   27.50    6.80
   4  -8   9   27.20    5.20
  -5   8  -9   17.90    3.90
  -5   8  -9    5.70    5.70
   5  -8   9   18.40    4.60
  -6   8  -9    5.00    3.70
  -6   8  -9   21.20    7.10
   6  -8   9    9.10    4.20
  -7   8  -9   -0.80    6.30
  -7   8  -9    4.70    3.90
   7  -8   9    8.70    4.20
   4   7  -9    7.10    8.10
   4   7  -9    6.90    5.00
  -4  -7   9   14.20    4.90
  -4  -7   9   12.20    4.10
   3   7  -9   22.50    5.20
   3   7  -9   27.30    8.50
  -3  -7   9   18.70    4.80
  -3  -7   9   25.10    5.80
   2   7  -9  522.75   18.10
   2   7  -9  515.95   22.00
  -2  -7   9  505.35   16.50
  -2  -7   9  511.85   18.20
   1   7  -9  328.37   17.00
   1   7  -9  323.27   13.60
  -1  -7   9  339.67   13.90
  -1  -7   9  350.26   12.50
   0   7  -9   -2.00    5.10
   0   7  -9   -0.30    3.40
   0  -7   9   -0.60    3.90
   0  -7   9    1.40    3.00
  -1   7  -9  198.98    9.90
  -1   7  -9  195.68    9.30
  -1   7  -9  184.78   11.90
   1  -7   9  164.18    8.10
   1  -7   9  168.18    9.80
  -2   7  -9    2.10    3.30
  -2   7  -9   -3.10    4.60
  -2   7  -9   -6.30    4.90
   2  -7   9    3.00    3.80
  -3   7  -9  171.28    9.10
  -3   7  -9  179.28   12.00
  -3   7  -9  183.28   11.00
   3  -7   9  179.58    9.60
  -4   7  -9   42.30    7.80
  -4   7  -9   48.70    5.80
  -4   7  -9   45.60    4.40
   4  -7   9   44.80    6.00
  -5   7  -9   23.10    6.70
  -5   7  -9   24.10    3.80
   5  -7   9   22.60    4.80
  -6   7  -9  234.98    9.80
  -6   7  -9  240.78   14.00
   6  -7   9  245.68   11.20
  -7   7  -9  116.99   11.10
  -7   7  -9   88.99    7.00
   7  -7   9  106.99    8.00
   5   6  -9   41.30    9.90
   5   6  -9   45.30    6.70
  -5  -6   9   43.10    6.10
  -5  -6   9   40.40    6.60
   4   6  -9   71.49   10.90
   4   6  -9   75.49    7.70
  -4  -6   9   79.19    6.90
  -4  -6   9   69.09    7.60
   3   6  -9  101.79   11.20
   3   6  -9   89.19    7.60
  -3  -6   9  106.59    8.00
  -3  -6   9  107.39    8.50
   2   6  -9   68.09    9.50
   2   6  -9   82.69    7.30
  -2  -6   9   98.29    7.20
  -2  -6   9  119.99    8.60
   1   6  -9  618.04   21.80
   1   6  -9  563.14   18.30
  -1  -6   9  600.24   17.40
  -1  -6   9  614.54   19.10
   0   6  -9   28.70    6.60
   0   6  -9   26.40    4.70
   0  -6   9   27.90    4.40
   0  -6   9   17.30    4.60
  -1   6  -9   57.89    6.20
  -1   6  -9   54.89    7.90
  -1   6  -9   48.20    7.00
   1  -6   9   65.89    6.90
  -2   6  -9   13.60    3.70
  -2   6  -9    9.10    4.90
  -2   6  -9   10.20    5.50
   2  -6   9    4.20    3.70
  -3   6  -9  139.69    9.20
  -3   6  -9  133.39   10.90
  -3   6  -9  144.59    8.10
   3  -6   9  125.29    8.30
  -4   6  -9   65.29    8.50
  -4   6  -9   56.49    4.50
  -4   6  -9   61.39    6.20
   4  -6   9   54.79    6.10
  -5   6  -9   93.59    9.50
  -5   6  -9   73.99    5.50
   5  -6   9   96.39    7.30
  -6   6  -9    0.50    2.80
  -6   6  -9   10.10    6.40
   6  -6   9    0.80    3.20
  -7   6  -9  154.68   12.70
  -7   6  -9  144.19    8.20
   7  -6   9  149.59    9.30
   5   5  -9  240.28   16.40
   5   5  -9  250.17   11.90
  -5  -5   9  256.47   12.40
  -5  -5   9  251.27   11.80
   4   5  -9   55.69    6.40
   4   5  -9   68.39   10.10
  -4  -5   9   58.29    6.40
   3   5  -9   73.89    9.60
   3   5  -9   64.99    6.70
  -3  -5   9   72.59    6.80
  -3  -5   9   72.49    7.40
   2   5  -9   62.09    6.20
   2   5  -9   49.80    7.90
  -2  -5   9   74.69    7.40
  -2  -5   9   59.69    6.00
   1   5  -9    2.00    3.10
   1   5  -9    5.20    4.90
  -1  -5   9    7.30    3.30
  -1  -5   9    4.40    3.90
   0   5  -9   30.30    4.70
   0   5  -9   22.10    5.90
   0  -5   9   32.10    4.90
   0  -5   9   30.60    4.50
  -1   5  -9   19.20    4.10
  -1   5  -9   15.80    5.10
   1  -5   9   22.70    4.70
  -2   5  -9    6.30    4.20
   2  -5   9    9.60    3.90
  -3   5  -9  211.18    9.60
  -3   5  -9  207.58    9.80
  -3   5  -9  204.98    7.30
  -3   5  -9  219.48   11.80
   3  -5   9  195.98    9.70
  -4   5  -9  494.85   15.70
  -4   5  -9  457.45   13.10
  -4   5  -9  469.55   17.70
   4  -5   9  474.15   15.80
  -5   5  -9   57.79    8.10
  -5   5  -9   59.99    7.20
  -5   5  -9   63.39    4.90
   5  -5   9   69.09    6.70
  -6   5  -9  152.08    7.60
  -6   5  -9  153.38   12.10
   6  -5   9  140.99    8.80
  -7   5  -9    7.20    6.60
  -7   5  -9    9.70    3.90
   7  -5   9   15.20    4.60
  -8   5  -9   63.79    6.40
  -8   5  -9   84.49    9.90
   8  -5   9   86.19    8.10
   6   4  -9  185.08   15.10
   6   4  -9  192.58   10.50
  -6  -4   9  233.98   11.70
  -6  -4   9  223.28   11.90
   5   4  -9   -1.60    2.90
   5   4  -9    4.10    5.70
  -5  -4   9    2.70    3.30
  -5  -4   9   -2.70    4.00
   4   4  -9  169.88    8.90
   4   4  -9  164.78   12.70
  -4  -4   9  153.78    9.20
   3   4  -9   85.09    6.60
   3   4  -9   60.09    8.00
  -3  -4   9   86.19    7.20
  -3  -4   9   77.69    6.90
   2   4  -9  122.49    7.60
   2   4  -9  125.79    9.50
  -2  -4   9  142.89    8.40
  -2  -4   9  144.29    7.80
   1   4  -9   -0.60    2.70
   1   4  -9   -7.10    4.50
  -1  -4   9    7.00    3.50
  -1  -4   9    4.30    3.70
   0   4  -9    0.80    3.00
   0   4  -9   -0.30    4.30
   0  -4   9    0.10    3.20
   0  -4   9    4.00    3.40
  -1   4  -9   97.59    8.20
  -1   4  -9   89.69    6.30
   1  -4   9   87.99    6.70
  -2   4  -9  528.35   18.90
  -2   4  -9  565.74   17.40
  -2   4  -9  562.94   17.00
   2  -4   9  552.34   17.20
  -3   4  -9   43.50    6.80
  -3   4  -9   52.09    5.70
  -3   4  -9   53.79    4.20
  -3   4  -9   59.89    6.10
   3  -4   9   65.89    6.40
  -4   4  -9  271.17   11.40
  -4   4  -9  282.17    9.20
  -4   4  -9  271.67   13.90
   4  -4   9  278.67   11.50
  -5   4  -9   27.70    6.80
  -5   4  -9   41.30    5.80
  -5   4  -9   41.60    6.10
  -5   4  -9   30.10    3.80
   5  -4   9   40.30    5.60
  -6   4  -9    8.30    6.40
  -6   4  -9   12.80    3.50
   6  -4   9   14.50    4.50
  -7   4  -9   -1.30    3.30
  -7   4  -9    5.30    6.50
   7  -4   9    0.90    3.80
  -8   4  -9   92.69    7.50
  -8   4  -9   95.89   11.00
   6   3  -9    9.30    3.60
   6   3  -9   -3.00    6.00
  -6  -3   9    7.50    4.50
  -6  -3   9   13.40    4.40
   5   3  -9  144.59    8.20
   5   3  -9  133.59   12.00
  -5  -3   9  130.39    8.90
   4   3  -9    2.40    3.00
   4   3  -9    5.40    5.50
  -4  -3   9    2.20    3.70
   3   3  -9   15.00    3.70
   3   3  -9    8.80    5.30
  -3  -3   9   10.00    3.80
  -3  -3   9    7.40    3.90
   2   3  -9  408.36   16.00
   2   3  -9  395.16   13.30
  -2  -3   9  418.96   13.90
  -2  -3   9  402.96   13.30
   1   3  -9   93.79    6.50
   1   3  -9  101.19    9.00
  -1  -3   9  112.49    7.10
  -1  -3   9   99.39    7.10
   0   3  -9  139.29    7.70
   0   3  -9  146.49    9.40
   0  -3   9  157.38    8.40
  -1   3  -9  544.65   17.30
  -1   3  -9  546.05   16.40
   1  -3   9  532.75   16.60
  -2   3  -9    9.80    5.40
  -2   3  -9    5.60    3.50
  -2   3  -9    4.60    4.00
   2  -3   9    5.70    3.80
  -3   3  -9  148.49    8.20
  -3   3  -9  149.88    8.50
  -3   3  -9  149.39    6.00
  -3   3  -9  145.09   10.90
   3  -3   9  152.98    8.60
  -4   3  -9   55.59    4.40
  -4   3  -9   75.19    7.00
  -4   3  -9   66.19    6.00
  -4   3  -9   64.29    7.90
   4  -3   9   68.79    6.80
  -5   3  -9   44.80    4.40
  -5   3  -9   36.60    7.10
  -5   3  -9   41.70    6.20
  -5   3  -9   36.40    3.60
  -5   3  -9   46.90    6.80
   5  -3   9   42.20    5.90
  -6   3  -9   12.10    3.50
  -6   3  -9   19.60    5.80
  -6   3  -9   17.70    6.40
  -6   3  -9   12.50    3.10
   6  -3   9   11.60    4.50
  -7   3  -9  191.08    9.40
  -7   3  -9  215.18   13.70
  -7   3  -9  207.98    8.80
   7  -3   9  226.68   11.20
   7   2  -9   -0.30    2.90
   7   2  -9   -1.30    6.30
  -7  -2   9   -0.40    4.20
  -7  -2   9   -3.50    3.20
   6   2  -9   59.09    5.70
   6   2  -9   32.70    7.50
  -6  -2   9   53.49    6.10
  -6  -2   9   65.29    7.30
   5   2  -9  484.75   18.90
   5   2  -9  466.45   14.90
  -5  -2   9  473.85   16.30
   4   2  -9   11.80    5.70
   4   2  -9   10.50    3.20
  -4  -2   9   10.90    4.20
   3   2  -9    0.40    2.50
   3   2  -9   -4.40    3.90
  -3  -2   9   -0.20    3.20
  -3  -2   9   -1.50    2.70
   2   2  -9    5.10    4.40
   1   2  -9  418.86   13.40
   1   2  -9  435.76   15.80
  -1  -2   9  436.76   14.00
   0   2  -9 1055.39   26.60
   0   2  -9 1045.50   28.00
   0  -2   9 1090.19   27.10
  -1   2  -9  320.27   12.50
  -1   2  -9  311.47   11.30
   1  -2   9  307.87   11.40
  -2   2  -9   12.40    5.80
  -2   2  -9    5.10    2.00
  -2   2  -9   10.80    4.20
  -2   2  -9    5.50    3.50
   2  -2   9    3.00    3.30
  -3   2  -9  382.26   10.60
  -3   2  -9  378.26   12.90
  -3   2  -9  363.36   14.90
  -3   2  -9  375.36   10.40
  -3   2  -9  383.76   13.70
   3  -2   9  384.26   13.60
  -4   2  -9   18.70    3.10
  -4   2  -9   24.90    5.10
  -4   2  -9   24.50    3.10
  -4   2  -9   22.80    5.80
  -4   2  -9   17.70    5.40
   4  -2   9   19.50    4.50
  -5   2  -9    4.30    4.50
  -5   2  -9    5.10    5.10
  -5   2  -9    5.20    2.60
  -5   2  -9    6.00    5.90
   5  -2   9   13.20    4.30
  -6   2  -9   -5.70    4.70
  -6   2  -9   -4.70    2.30
  -6   2  -9   -0.40    5.60
   6  -2   9   -3.30    3.50
  -7   2  -9  195.68   13.50
  -7   2  -9  191.28   11.80
  -7   2  -9  181.78    8.60
   7  -2   9  198.88   11.10
   7   1  -9   47.60    4.90
   7   1  -9   36.40    8.00
  -7  -1   9   47.00    6.60
  -7  -1   9   31.10    5.60
   6   1  -9    2.50    2.50
   6   1  -9   -3.60    4.90
  -6  -1   9   -1.10    3.30
   5   1  -9  380.06   12.40
   5   1  -9  378.86   15.90
  -5  -1   9  391.26   14.10
  -5  -1   9  385.96   12.70
   4   1  -9  341.77   15.00
   4   1  -9  332.37   11.30
  -4  -1   9  330.67   12.00
  -4  -1   9  338.67   10.20
   3   1  -9   46.30    4.80
   3   1  -9   43.70    6.50
  -3  -1   9   46.10    5.40
  -3  -1   9   42.20    3.50
  -3  -1   9   42.30    4.90
   2   1  -9  405.66   13.00
   2   1  -9  423.66   15.70
  -2  -1   9  425.46   10.80
  -2  -1   9  431.36   13.50
  -2  -1   9  397.76   13.30
   0   1  -9   -3.30    3.60
   0   1  -9    0.20    2.70
   0  -1   9   -1.20    3.20
   0  -1   9    1.90    1.40
  -1   1  -9   30.00    4.60
  -1   1  -9   36.90    5.70
   1  -1   9   22.60    4.20
  -2   1  -9   10.90    4.20
  -2   1  -9    8.20    5.60
  -2   1  -9   15.70    4.50
   2  -1   9   14.00    4.30
  -3   1  -9   68.09    6.80
  -3   1  -9   82.09    8.40
  -3   1  -9   84.39    7.60
   3  -1   9   84.49    7.10
  -4   1  -9  613.14   20.00
  -4   1  -9  594.64   17.60
  -4   1  -9  604.64   19.90
  -4   1  -9  617.94   16.00
  -4   1  -9  598.34   19.20
   4  -1   9  607.34   18.90
  -5   1  -9   12.20    6.00
  -5   1  -9   10.20    6.10
  -5   1  -9   17.10    5.50
  -5   1  -9   12.40    3.10
   5  -1   9   12.70    4.60
  -6   1  -9   22.10    6.50
  -6   1  -9   35.40    7.30
  -6   1  -9   21.00    3.90
   6  -1   9   27.00    5.60
  -7   1  -9    3.20    5.80
  -7   1  -9    3.60    3.30
  -7   1  -9   -0.60    6.30
   7  -1   9    7.10    5.10
   7   0  -9   73.79    8.90
  -7   0   9   83.59    7.80
  -7   0   9   87.79    7.90
   6   0  -9   26.70    6.80
   6   0  -9   26.20    3.70
  -6   0   9   24.40    5.00
  -6   0   9   24.00    3.90
   5   0  -9    1.80    4.80
   5   0  -9    1.20    2.40
  -5   0   9    1.80    2.30
  -5   0   9    2.60    3.40
   4   0  -9   59.89    5.00
   4   0  -9   55.99    7.30
  -4   0   9   61.09    4.30
  -4   0   9   67.39    6.30
   3   0  -9  307.07   10.60
   3   0  -9  306.97   13.60
  -3   0   9  297.57   11.40
  -3   0   9  306.97   12.20
  -3   0   9  309.17    9.30
   2   0  -9    3.70    3.10
   2   0  -9    2.30    4.80
  -2   0   9    8.40    2.10
  -2   0   9    2.90    3.10
   1   0  -9    0.70    4.60
   1   0  -9    3.90    3.20
  -1   0   9    3.10    3.20
  -1   0   9    0.10    1.60
   0   0  -9 1671.73   40.70
   0   0  -9 1685.53   39.10
   0   0   9 1684.33   39.10
   0   0   9 1645.14   36.00
  -1   0  -9  208.68   10.70
  -1   0  -9  203.78    9.70
   1   0   9  205.98    9.60
  -2   0  -9   26.60    5.10
  -2   0  -9   23.30    6.20
  -2   0  -9   15.60    5.00
   2   0   9   17.00    4.20
  -3   0  -9   28.20    5.40
  -3   0  -9   36.60    7.00
  -3   0  -9   35.20    5.40
   3   0   9   34.60    5.40
  -4   0  -9   66.79    6.90
  -4   0  -9   52.29    7.00
  -4   0  -9   78.49    7.70
  -4   0  -9   58.99    8.10
  -4   0  -9   70.89    5.40
   4   0   9   63.89    7.10
  -5   0  -9  257.77   10.10
  -5   0  -9  257.97   13.90
  -5   0  -9  264.27   13.70
  -5   0  -9  270.67   12.90
   5   0   9  290.67   12.80
  -6   0  -9    2.30    5.90
  -6   0  -9  -10.10    5.50
  -6   0  -9    1.10    3.20
   6   0   9    1.30    4.40
  -7   0  -9   -2.40    5.60
  -7   0  -9    2.70    3.60
   7   0   9    9.10    5.20
   8  -1  -9   43.00   10.40
  -8   1   9   43.70    6.50
  -8   1   9   50.69    6.70
   7  -1  -9  166.78   11.80
  -7   1   9  173.48    8.70
  -7   1   9  177.58    9.80
  -7   1   9  190.38   10.30
   6  -1  -9   10.20    5.30
   6  -1  -9   10.10    2.70
  -6   1   9   10.70    3.30
  -6   1   9    7.60    3.90
  -5   1   9   32.20    4.90
   4  -1  -9   39.40    6.20
   4  -1  -9   42.10    4.30
  -4   1   9   39.80    4.00
  -4   1   9   41.20    5.40
   3  -1  -9    9.20    3.10
   3  -1  -9   12.50    5.20
  -3   1   9   12.50    2.50
   2  -1  -9    3.80    3.30
   2  -1  -9   10.00    4.70
  -2   1   9    6.70    2.20
  -2   1   9    8.40    3.30
   1  -1  -9  205.68    9.30
   1  -1  -9  190.88   10.60
  -1   1   9  205.98    7.00
  -1   1   9  200.88    9.00
   0  -1  -9  403.56   13.70
   0  -1  -9  391.46   15.40
   0   1   9  403.26   11.10
   0   1   9  375.66   13.20
  -1  -1  -9  481.35   17.00
  -1  -1  -9  484.85   15.90
  -1  -1  -9  481.75   16.70
   1   1   9  475.15   15.50
  -2  -1  -9  133.99    9.10
  -2  -1  -9  166.18   10.60
  -2  -1  -9  116.49    9.10
   2   1   9  135.39    8.60
  -3  -1  -9   -0.90    4.40
  -3  -1  -9    6.40    4.50
  -3  -1  -9    8.30    5.40
  -3  -1  -9    9.50    6.00
   3   1   9    6.20    4.10
  -4  -1  -9   34.70    5.90
  -4  -1  -9   32.40    6.70
  -4  -1  -9   33.30    6.90
   4   1   9   40.40    5.90
  -5  -1  -9   14.70    6.30
  -5  -1  -9   18.40    5.80
  -5  -1  -9   15.40    4.00
  -5  -1  -9   19.10    6.90
   5   1   9    9.10    4.60
  -6  -1  -9   -3.10    5.90
  -6  -1  -9    1.20    3.40
  -6  -1  -9    1.00    6.10
   6   1   9    2.20    4.50
  -8   2   9  106.09    8.80
  -8   2   9   90.59    7.50
  -8   2   9  115.59    8.70
   7  -2  -9   48.90    7.60
  -7   2   9   57.79    6.40
  -7   2   9   52.99    5.60
  -7   2   9   59.39    6.40
   6  -2  -9   -1.10    4.20
   6  -2  -9    0.10    2.30
  -6   2   9    1.90    3.60
  -6   2   9   -0.50    2.50
   5  -2  -9  210.58    8.20
   5  -2  -9  223.18   12.30
  -5   2   9  205.58    8.60
  -5   2   9  221.28   10.00
   4  -2  -9   32.00    4.00
   4  -2  -9   28.70    5.70
  -4   2   9   35.90    4.00
   3  -2  -9 1030.70   29.10
   3  -2  -9 1035.10   25.80
  -3   2   9 1075.59   25.10
   2  -2  -9  247.68   12.80
   2  -2  -9  255.27   10.40
  -2   2   9  256.07   10.00
  -2   2   9  268.17    8.70
   1  -2  -9  110.69    7.60
   1  -2  -9  111.59   10.10
  -1   2   9  129.29    7.60
  -1   2   9  132.29    5.80
   0  -2  -9  156.18   10.90
   0  -2  -9  147.09    8.30
   0   2   9  148.49    8.40
  -1  -2  -9   28.70    5.90
  -1  -2  -9   34.80    6.30
  -1  -2  -9   29.30    5.10
   1   2   9   36.80    5.40
  -2  -2  -9   92.69    8.10
  -2  -2  -9   88.29    8.40
   2   2   9  112.39    8.20
  -3  -2  -9    0.30    5.90
  -3  -2  -9    9.60    5.50
  -3  -2  -9    0.90    4.50
   3   2   9    1.30    3.70
  -4  -2  -9    4.80    5.60
  -4  -2  -9    4.10    5.10
  -4  -2  -9   14.80    6.80
   4   2   9    5.90    4.60
  -5  -2  -9   22.20    6.40
  -5  -2  -9    9.40    6.20
  -5  -2  -9   13.60    5.90
  -5  -2  -9   20.00    4.60
   5   2   9   20.70    5.50
  -6  -2  -9  283.67   16.20
  -6  -2  -9  298.07   12.50
   6   2   9  301.57   15.00
  -8   3   9   43.10    6.30
  -8   3   9   34.20    5.70
  -8   3   9   34.30    5.30
   7  -3  -9   82.19    8.80
  -7   3   9   93.29    7.50
  -7   3   9   93.09    6.80
   6  -3  -9    4.10    4.90
  -6   3   9    0.00    3.40
  -6   3   9   -3.50    2.40
   5  -3  -9    4.20    5.00
   5  -3  -9   -1.10    2.60
  -5   3   9    3.70    2.50
   4  -3  -9  430.86   17.20
   4  -3  -9  430.06   13.20
  -4   3   9  445.16   13.30
   3  -3  -9    3.60    5.30
   3  -3  -9   -0.20    3.00
  -3   3   9    4.50    2.30
   2  -3  -9  346.17   15.60
   2  -3  -9  348.97   12.50
  -2   3   9  361.66   11.10
  -2   3   9  375.16   12.50
   1  -3  -9   53.29    7.60
   1  -3  -9   51.19    5.80
  -1   3   9   18.80    3.00
  -1   3   9   26.10    4.50
   0  -3  -9    2.50    4.10
   0   3   9    3.10    3.50
  -1  -3  -9  122.09    9.60
  -1  -3  -9  110.29    8.80
   1   3   9  111.39    8.20
  -2  -3  -9    3.30    5.00
  -2  -3  -9   -0.70    4.80
  -2  -3  -9    2.50    5.20
   2   3   9    9.30    4.60
  -3  -3  -9    8.10    5.90
  -3  -3  -9   17.50    5.60
  -3  -3  -9    4.60    5.30
   3   3   9    5.30    4.50
  -4  -3  -9  156.38   10.80
  -4  -3  -9  143.79   10.20
  -4  -3  -9  142.19   12.60
   4   3   9  145.09    9.80
  -5  -3  -9   43.00    7.00
  -5  -3  -9   17.90    4.80
  -5  -3  -9   28.40    7.60
  -5  -3  -9   34.90    8.40
   5   3   9   33.80    6.60
  -8   4   9  313.07   13.60
  -8   4   9  292.87   13.00
  -8   4   9  274.77   12.10
   7  -4  -9  170.88   11.30
  -7   4   9  178.68    9.90
  -7   4   9  166.28    8.90
   6  -4  -9  178.68   11.70
  -6   4   9  166.88    8.40
   5  -4  -9  359.96   15.90
   5  -4  -9  356.26   11.40
  -5   4   9  356.56   12.30
   4  -4  -9   62.59    8.10
   4  -4  -9   66.49    5.70
  -4   4   9   57.59    5.00
   3  -4  -9  254.67   13.90
   3  -4  -9  270.07   10.50
  -3   4   9  245.58    9.30
   2  -4  -9    8.50    4.00
   2  -4  -9    8.60    5.30
  -2   4   9   10.70    2.70
   1  -4  -9   27.30    5.20
  -1   4   9   27.40    4.60
  -1   4   9   33.60    3.80
   0  -4  -9  316.47   13.10
   0  -4  -9  290.17   12.30
   0   4   9  308.87   12.40
  -1  -4  -9  154.48   10.10
  -1  -4  -9  141.59    9.60
   1   4   9  143.99    9.20
  -2  -4  -9    9.40    4.90
  -2  -4  -9    9.20    5.40
  -2  -4  -9   -2.90    5.40
   2   4   9    6.70    4.40
  -3  -4  -9  120.89   10.70
  -3  -4  -9  100.39   10.20
   3   4   9  119.39    9.40
  -4  -4  -9  171.78   12.80
   4   4   9  164.68   11.30
  -5  -4  -9   37.50    8.30
  -5  -4  -9   44.50    6.20
  -5  -4  -9   38.30    9.40
   5   4   9   35.50    6.90
   7  -5  -9   98.29   10.30
  -7   5   9  102.69    7.60
   6  -5  -9   10.30    5.70
  -6   5   9   21.30    4.10
   5  -5  -9   -4.10    3.00
   5  -5  -9  -11.50    4.40
  -5   5   9   -0.40    2.60
   4  -5  -9    9.70    6.10
   4  -5  -9    9.80    3.90
  -4   5   9    6.80    2.90
   3  -5  -9   91.79    7.30
   3  -5  -9  106.59   10.90
  -3   5   9   93.59    6.30
   2  -5  -9    2.10    4.20
  -2   5   9   -0.20    2.40
   1  -5  -9   55.59    6.70
  -1   5   9   69.29    6.80
  -1   5   9   62.29    5.40
   0  -5  -9   -6.40    4.30
   0   5   9   -0.90    3.60
  -1  -5  -9  138.39   12.00
  -1  -5  -9  140.09   10.40
   1   5   9  135.29    9.20
  -2  -5  -9  346.17   17.00
  -2  -5  -9  347.37   16.00
   2   5   9  384.46   15.40
  -3  -5  -9   41.70    8.80
  -3  -5  -9   28.20    7.30
   3   5   9   46.30    7.20
  -4  -5  -9  129.99   12.40
  -4  -5  -9  111.39   11.50
   4   5   9  160.28   11.40
   7  -6  -9   93.59    9.50
  -7   6   9   78.89    7.10
   6  -6  -9  147.99   11.90
  -6   6   9  163.58    8.70
   5  -6  -9    3.20    5.50
   5  -6  -9   11.60    3.60
  -5   6   9   10.50    3.40
   4  -6  -9    2.00    5.10
   4  -6  -9    3.70    3.70
  -4   6   9    2.20    2.80
   3  -6  -9  207.88   10.30
  -3   6   9  200.58    9.10
   2  -6  -9  620.34   19.50
  -2   6   9  597.44   17.70
   1  -6  -9   16.30    5.40
  -1   6   9   22.90    4.10
   0  -6  -9   -2.70    6.30
   0  -6  -9   -5.00    4.80
   0   6   9    2.60    3.80
  -1  -6  -9  134.59   10.70
  -1  -6  -9  100.49   10.60
   1   6   9  131.09    9.60
  -2  -6  -9   77.59   10.50
  -2  -6  -9   82.19    9.60
   2   6   9   75.99    8.60
  -3  -6  -9   31.50    9.30
  -3  -6  -9   45.10    8.60
   3   6   9   44.70    7.50
   7  -7  -9  125.89   11.30
  -7   7   9  126.19    8.70
   6  -7  -9   23.60    6.90
  -6   7   9   15.80    4.20
   5  -7  -9   53.59    8.50
  -5   7   9   56.19    6.10
   4  -7  -9   -0.70    3.90
   4  -7  -9   -0.10    5.90
  -4   7   9    2.40    2.90
   3  -7  -9    6.20    4.60
  -3   7   9    9.30    3.40
   2  -7  -9  192.38   11.40
  -2   7   9  206.08    9.50
   1  -7  -9   68.79    8.10
   1  -7  -9   86.69    9.60
  -1   7   9   76.09    6.60
   0  -7  -9   19.70    7.40
   0  -7  -9   30.80    6.90
  -1  -7  -9   56.79    9.30
  -1  -7  -9   38.70    7.90
   1   7   9   60.69    7.80
  -2  -7  -9   61.99   10.30
  -2  -7  -9   64.79    9.50
   2   7   9   73.39    8.80
   6  -8  -9    3.20    6.20
  -6   8   9    1.70    3.40
   5  -8  -9  464.45   21.00
  -5   8   9  497.85   16.70
   4  -8  -9   16.40    4.90
  -4   8   9   15.70    4.10
   3  -8  -9   11.80    5.10
  -3   8   9   15.30    4.10
   2  -8  -9   -1.00    5.00
   2  -8  -9    7.40    6.90
  -2   8   9    6.00    3.40
   1  -8  -9   90.79    9.40
   1  -8  -9  113.39   11.10
  -1   8   9   85.09    7.50
   0  -8  -9   11.00    6.40
   0  -8  -9   13.50    8.10
  -1  -8  -9   39.00    8.20
  -1  -8  -9   27.50    9.20
   1   8   9   43.10    7.40
   5  -9  -9   27.70    8.50
  -5   9   9   39.90    6.00
   4  -9  -9   23.80    5.60
  -4   9   9   19.90    5.00
   3  -9  -9  133.79   10.40
  -3   9   9  136.29    9.10
   2  -9  -9   17.40    7.90
   2  -9  -9    3.10    5.60
  -2   9   9   12.10    4.30
   1  -9  -9   51.49    9.40
   1  -9  -9   50.89    8.40
  -1   9   9   45.40    6.40
  -1  10 -10  163.18   10.90
   1 -10  10  162.58   11.40
  -2  10 -10   81.79    9.90
  -2  10 -10  105.79    8.90
   2 -10  10  106.69   10.00
  -3  10 -10   27.40    7.30
   3 -10  10   25.00    6.00
  -4  10 -10  158.28   13.30
   4 -10  10  147.79   10.20
   1   9 -10   29.80    6.30
  -1  -9  10   58.89    7.90
   0   9 -10  132.19    9.80
   0  -9  10  141.69   10.40
  -1   9 -10   15.90    5.10
  -1   9 -10    4.10    7.00
   1  -9  10   -0.50    4.20
  -2   9 -10  185.88   10.50
  -2   9 -10  180.28   13.10
   2  -9  10  193.28   11.40
  -3   9 -10  148.79    9.40
  -3   9 -10  136.79   11.80
   3  -9  10  133.69    9.70
  -4   9 -10   -0.80    6.20
   4  -9  10    6.40    4.50
  -5   9 -10   36.10    8.30
   5  -9  10   27.50    5.70
  -6   9 -10   -1.80    6.90
   2   8 -10   16.80    5.40
   2   8 -10   14.70    8.90
  -2  -8  10   30.60    5.70
  -2  -8  10   29.30    6.40
   1   8 -10   76.79    8.20
   1   8 -10   71.49   10.60
  -1  -8  10   81.29    7.10
  -1  -8  10   79.79    8.30
   0   8 -10  194.28   10.90
   0   8 -10  183.88   14.00
   0  -8  10  172.28    8.90
   0  -8  10  181.58   10.90
  -1   8 -10  275.07   12.50
  -1   8 -10  289.47   16.20
   1  -8  10  283.47   13.30
  -3   8 -10   98.99   10.20
  -3   8 -10   99.39    7.90
  -3   8 -10   91.59    9.50
   3  -8  10  104.69    8.40
  -4   8 -10    5.70    6.20
   4  -8  10    8.20    4.20
  -5   8 -10   -1.80    6.10
   5  -8  10    2.30    4.10
  -6   8 -10   48.50    9.20
   6  -8  10   34.70    6.00
   3   7 -10  245.68   17.40
   3   7 -10  234.58   12.50
  -3  -7  10  242.78   12.90
  -3  -7  10  250.77   12.10
   2   7 -10  189.48   14.80
   2   7 -10  172.48   10.40
  -2  -7  10  192.48   10.10
  -2  -7  10  211.98   11.40
   1   7 -10  167.28   13.40
   1   7 -10  159.28    9.80
  -1  -7  10  184.98   10.60
  -1  -7  10  178.78    9.10
   0   7 -10   42.60    7.90
   0   7 -10   43.30    6.30
   0  -7  10   33.70    5.10
   0  -7  10   38.00    6.40
  -1   7 -10    3.80    5.90
  -1   7 -10    7.40    3.90
   1  -7  10    8.60    4.30
  -2   7 -10   59.79    8.30
  -2   7 -10   56.39    6.50
  -2   7 -10   54.19    7.80
   2  -7  10   57.59    6.90
  -3   7 -10   25.90    5.10
  -3   7 -10   23.40    6.10
  -3   7 -10   30.50    7.20
   3  -7  10   23.00    5.20
  -4   7 -10    2.30    3.70
  -4   7 -10    8.70    6.00
   4  -7  10    6.30    4.20
  -5   7 -10   37.80    8.10
   5  -7  10   43.60    6.10
  -6   7 -10  136.79   12.10
   6  -7  10  113.19    8.70
  -7   7 -10   55.49    9.60
  -7   7 -10   55.59    5.90
   7  -7  10   49.80    6.60
   4   6 -10   11.90    4.60
   4   6 -10    5.50    7.90
  -4  -6  10   13.30    5.10
   3   6 -10   50.89    6.60
   3   6 -10   36.60    9.10
  -3  -6  10   45.80    6.00
  -3  -6  10   55.29    7.10
   2   6 -10  579.34   19.10
   2   6 -10  558.34   22.40
  -2  -6  10  608.04   19.40
  -2  -6  10  582.04   18.10
   1   6 -10   52.59    6.50
   1   6 -10   63.59    9.10
  -1  -6  10   68.79    7.40
  -1  -6  10   58.29    6.10
   0   6 -10  283.07   12.10
   0   6 -10  283.47   14.60
   0  -6  10  282.07   11.10
   0  -6  10  276.17   12.10
  -1   6 -10  331.67   13.10
  -1   6 -10  321.77   14.80
   1  -6  10  351.36   13.70
  -2   6 -10  175.48   10.80
  -2   6 -10  189.88    9.60
  -2   6 -10  168.98   12.30
   2  -6  10  167.98    9.70
  -3   6 -10   30.70    6.00
  -3   6 -10   35.70    5.20
  -3   6 -10   30.20    7.30
   3  -6  10   33.50    5.50
  -4   6 -10   17.00    4.50
  -4   6 -10   16.50    7.00
   4  -6  10   12.60    4.20
  -5   6 -10   13.90    6.70
   5  -6  10   23.50    5.10
  -6   6 -10  325.87   11.90
  -6   6 -10  341.37   17.00
   6  -6  10  341.37   13.80
  -7   6 -10   50.89    5.60
  -7   6 -10   50.99    9.30
   7  -6  10   62.79    7.30
   5   5 -10  340.47   14.40
   5   5 -10  321.97   19.00
  -5  -5  10  327.57   14.50
  -5  -5  10  354.66   14.30
   4   5 -10   -1.30    3.40
   4   5 -10    4.50    6.50
  -4  -5  10   -4.30    3.90
   3   5 -10    7.60    3.80
   3   5 -10   -1.30    5.70
  -3  -5  10    9.60    4.40
  -3  -5  10    6.70    4.40
   2   5 -10   93.69    7.50
   2   5 -10   99.79    9.90
  -2  -5  10   95.69    6.90
  -2  -5  10  111.49    8.30
   1   5 -10   29.80    6.80
  -1  -5  10   66.89    7.00
  -1  -5  10   54.39    5.80
   0   5 -10   31.30    4.90
   0   5 -10   33.30    6.60
   0  -5  10   30.40    5.20
  -1   5 -10  205.28    9.90
  -2   5 -10   96.99    8.70
  -2   5 -10  113.39    7.80
  -2   5 -10   89.79    8.70
   2  -5  10  105.29    8.00
  -3   5 -10  244.88   11.30
  -3   5 -10  239.28   13.70
  -3   5 -10  245.38   11.00
   3  -5  10  233.88   11.10
  -4   5 -10   58.99    8.70
  -4   5 -10   52.19    6.10
   4  -5  10   62.89    6.80
  -5   5 -10   51.29    8.60
   5  -5  10   46.60    6.00
  -6   5 -10   26.60    4.30
  -6   5 -10   33.80    7.30
   6  -5  10   34.70    5.80
  -7   5 -10   27.40    4.80
  -7   5 -10   22.40    8.20
   7  -5  10   28.00    5.50
   5   4 -10  243.58   11.70
   5   4 -10  259.77   16.30
  -5  -4  10  256.47   12.50
   4   4 -10  126.19   12.20
   4   4 -10  124.89    8.50
  -4  -4  10  136.59    9.00
   3   4 -10   83.39    6.90
   3   4 -10   77.69    8.80
  -3  -4  10   81.79    6.70
  -3  -4  10   94.29    8.10
   2   4 -10   58.09    7.90
   2   4 -10   66.09    6.30
  -2  -4  10   81.69    7.30
  -2  -4  10   73.09    6.70
   1   4 -10 1255.97   34.20
   1   4 -10 1248.08   31.70
  -1  -4  10 1258.77   32.20
  -1  -4  10 1275.67   31.20
   0   4 -10   31.40    4.60
   0   4 -10   31.60    5.70
   0  -4  10   36.90    5.40
  -1   4 -10   25.50    5.10
  -1   4 -10   22.60    4.30
  -2   4 -10    6.50    5.70
  -2   4 -10   -0.90    4.00
  -2   4 -10    7.20    3.70
   2  -4  10    7.00    3.80
  -3   4 -10  157.48    9.10
  -3   4 -10  153.08   11.80
  -3   4 -10  158.68    9.00
   3  -4  10  152.98    9.00
  -4   4 -10  569.64   17.90
  -4   4 -10  517.35   19.50
   4  -4  10  518.35   17.40
  -5   4 -10   63.59    7.10
  -5   4 -10   62.49    5.00
  -5   4 -10   65.39    7.40
  -5   4 -10   73.59    9.40
   5  -4  10   60.09    6.80
  -6   4 -10   -2.30    3.00
  -6   4 -10   -6.70    5.90
   6  -4  10    5.50    4.00
  -7   4 -10   57.29    9.30
  -7   4 -10   46.90    5.50
   7  -4  10   49.99    7.00
   6   3 -10   36.30    8.70
   6   3 -10   45.30    5.70
  -6  -3  10   30.20    5.90
  -6  -3  10   43.10    6.30
   5   3 -10   45.50    5.50
   5   3 -10   48.80    8.80
  -5  -3  10   38.90    6.40
   4   3 -10   23.20    6.50
   4   3 -10   24.90    4.50
  -4  -3  10   25.00    4.70
   3   3 -10   63.79    8.40
   3   3 -10   60.49    5.90
  -3  -3  10   71.49    7.80
  -3  -3  10   69.19    6.70
   2   3 -10   55.19    7.50
   2   3 -10   68.29    6.00
  -2  -3  10   79.29    6.60
  -2  -3  10   63.59    6.20
   1   3 -10  223.38   11.60
   1   3 -10  208.48    9.50
  -1  -3  10  231.68    9.90
  -1  -3  10  225.18   10.10
   0   3 -10   10.70    4.90
   0   3 -10   13.50    3.80
   0  -3  10    9.70    4.10
  -1   3 -10  242.28   10.50
  -1   3 -10  229.28   11.20
   1  -3  10  230.18   10.30
  -2   3 -10   25.00    4.70
  -2   3 -10   14.40    4.60
  -2   3 -10   15.40    5.90
   2  -3  10   18.70    4.50
  -3   3 -10   36.00    6.90
  -3   3 -10   47.60    5.60
  -3   3 -10   34.00    5.10
   3  -3  10   37.20    5.40
  -4   3 -10   19.10    5.00
  -4   3 -10   11.60    6.40
   4  -3  10   16.30    4.50
  -5   3 -10    0.50    2.80
  -5   3 -10    6.50    6.30
  -5   3 -10    4.50    4.50
  -5   3 -10    7.30    5.50
   5  -3  10    6.90    4.10
  -6   3 -10   84.49    6.50
  -6   3 -10   98.09    9.30
  -6   3 -10  100.59   10.50
   6  -3  10   85.09    8.00
  -7   3 -10   -0.80    6.00
  -7   3 -10    1.40    3.50
   7  -3  10    5.90    4.60
   6   2 -10   55.29    9.00
   6   2 -10   61.09    5.90
  -6  -2  10   53.89    7.00
   5   2 -10   -2.60    2.60
   5   2 -10    0.40    5.40
  -5  -2  10   -3.50    3.70
   4   2 -10  326.37   12.10
   4   2 -10  340.77   15.90
  -4  -2  10  332.57   12.90
   3   2 -10  209.38    9.30
   3   2 -10  196.28   12.30
  -3  -2  10  213.68   10.10
   2   2 -10  108.19    8.90
   2   2 -10  125.89    7.20
  -2  -2  10  119.69    7.70
  -2  -2  10  116.19    7.80
   1   2 -10   17.10    5.20
  -1  -2  10   23.60    4.40
   0   2 -10  165.08    8.70
   0   2 -10  191.58   10.60
   0  -2  10  185.78    9.30
  -1   2 -10  310.77   13.20
  -1   2 -10  325.37   12.40
   1  -2  10  351.46   12.80
  -2   2 -10    4.50    3.50
  -2   2 -10    5.00    4.10
  -2   2 -10   15.00    5.80
   2  -2  10   10.70    4.00
  -3   2 -10   54.39    7.80
  -3   2 -10   57.49    6.50
  -3   2 -10   53.79    6.00
   3  -2  10   60.09    6.70
  -4   2 -10  446.16   17.70
  -4   2 -10  435.26   12.20
  -4   2 -10  431.06   15.90
  -4   2 -10  435.86   13.50
   4  -2  10  427.76   15.50
  -5   2 -10  110.39    6.00
  -5   2 -10  116.69   10.00
  -5   2 -10  125.89   10.90
  -5   2 -10  117.99    9.30
  -5   2 -10  106.39    6.50
   5  -2  10  117.59    8.50
  -6   2 -10   91.49    9.40
  -6   2 -10   75.89    5.60
  -6   2 -10   65.59    5.80
  -6   2 -10   73.29    9.40
   6  -2  10   88.49    8.50
  -7   2 -10   25.80    7.10
  -7   2 -10   23.30    4.20
  -7   2 -10   28.30    4.80
  -7   2 -10   24.80    7.40
   7  -2  10   27.90    6.00
   7   1 -10   22.30    4.10
   7   1 -10   13.50    7.20
  -7  -1  10   17.70    5.60
  -7  -1  10   26.00    5.50
   6   1 -10  134.89   11.70
   6   1 -10  134.69    7.50
  -6  -1  10  123.49    9.10
   5   1 -10  379.06   12.80
   5   1 -10  387.26   17.20
  -5  -1  10  369.66   14.10
   4   1 -10   59.29    5.60
   4   1 -10   47.40    7.00
  -4  -1  10   68.79    6.50
   3   1 -10   45.60    7.00
   3   1 -10   40.00    4.80
  -3  -1  10   37.80    5.20
   2   1 -10  206.78   11.70
   2   1 -10  205.18    9.10
  -2  -1  10  227.08    9.80
   1   1 -10   77.99    6.30
   1   1 -10   69.49    7.70
  -1  -1  10   80.99    6.60
   0   1 -10   48.60    6.50
   0   1 -10   65.19    6.30
   0  -1  10   59.19    6.30
  -1   1 -10   36.60    5.80
  -1   1 -10   39.30    5.00
   1  -1  10   37.50    5.10
  -2   1 -10   24.80    6.40
  -2   1 -10   30.20    5.20
  -2   1 -10   22.80    5.20
   2  -1  10   32.30    5.10
  -3   1 -10  437.86   15.70
  -3   1 -10  450.65   17.20
  -3   1 -10  395.16   14.80
   3  -1  10  433.76   15.40
  -4   1 -10   -0.40    5.00
  -4   1 -10    1.40    5.50
  -4   1 -10    3.60    4.50
  -4   1 -10    3.10    2.70
   4  -1  10   -1.20    3.90
  -5   1 -10  243.48   13.50
  -5   1 -10  252.67   13.10
  -5   1 -10  238.88    9.30
  -5   1 -10  232.08   13.60
   5  -1  10  241.58   12.00
  -6   1 -10   64.49    5.70
  -6   1 -10   59.89    8.60
  -6   1 -10   62.89    9.10
   6  -1  10   70.49    8.10
  -7   1 -10   -4.20    6.10
  -7   1 -10    8.40    7.20
  -7   1 -10   -2.00    3.40
   7   0 -10   15.50    6.90
  -7   0  10   22.50    5.50
  -7   0  10   28.30    5.30
   6   0 -10   47.70    8.10
   6   0 -10   50.59    5.00
  -6   0  10   39.10    5.80
   5   0 -10   83.29    5.90
   5   0 -10   69.29    8.70
  -5   0  10   83.79    6.80
   4   0 -10  198.78   12.00
   4   0 -10  186.98    8.50
  -4   0  10  179.38    9.20
   3   0 -10   46.30    6.70
   3   0 -10   56.39    5.30
  -3   0  10   53.49    5.60
  -3   0  10   50.49    5.90
   2   0 -10  144.19    7.60
   2   0 -10  142.89   10.50
  -2   0  10  137.29    6.50
  -2   0  10  140.19    7.80
   1   0 -10  120.19    9.90
   1   0 -10  116.29    7.50
  -1   0  10  114.59    5.00
  -1   0  10  119.79    7.50
   0   0 -10  505.95   16.10
   0   0 -10  544.45   18.40
   0   0  10  513.05   16.30
   0   0  10  510.15   13.10
  -1   0 -10  223.78   11.40
  -1   0 -10  220.68   10.20
  -1   0 -10  214.88   12.00
   1   0  10  224.58   10.20
  -2   0 -10  190.58   11.70
  -2   0 -10  167.88    9.90
  -2   0 -10  172.08   10.10
   2   0  10  163.18    9.40
  -3   0 -10   31.60    6.90
  -3   0 -10   26.40    5.90
  -3   0 -10   28.90    5.70
   3   0  10   38.70    6.00
  -4   0 -10  171.48   11.90
  -4   0 -10  170.58   12.00
  -4   0 -10  171.58    7.80
  -4   0 -10  166.08   10.90
   4   0  10  171.38   10.40
  -5   0 -10    6.20    3.20
  -5   0 -10    2.00    5.80
  -5   0 -10    4.40    6.40
  -5   0 -10   -4.50    4.70
   5   0  10    3.80    4.50
  -6   0 -10   35.10    4.90
  -6   0 -10   32.30    8.30
  -6   0 -10   34.10    7.60
   6   0  10   32.00    6.60
   7  -1 -10  106.39   10.70
  -7   1  10   82.39    7.40
  -7   1  10   87.79    6.80
   6  -1 -10   61.79    5.10
   6  -1 -10   79.79    9.10
  -6   1  10   67.29    7.00
  -6   1  10   64.79    5.50
   5  -1 -10  164.98   11.60
   5  -1 -10  176.28    8.00
  -5   1  10  181.88    7.80
  -5   1  10  171.18    9.50
   4  -1 -10  310.37   11.00
   4  -1 -10  305.67   14.20
  -4   1  10  303.47   10.10
  -4   1  10  291.67   11.70
   3  -1 -10   13.60    5.70
   3  -1 -10   13.40    3.60
  -3   1  10   20.60    3.00
   2  -1 -10  111.89   10.00
   2  -1 -10  100.59    6.80
  -2   1  10   86.09    6.80
  -2   1  10   89.39    4.90
   1  -1 -10   95.99    9.40
   1  -1 -10   89.69    7.00
  -1   1  10   85.29    6.80
  -1   1  10   87.89    4.70
   0  -1 -10  858.81   23.70
   0  -1 -10  850.31   25.50
   0   1  10  845.62   20.50
   0   1  10  875.71   23.50
  -1  -1 -10  212.38   10.70
  -1  -1 -10  214.88   12.00
  -1  -1 -10  203.38   11.70
   1   1  10  224.98   10.40
  -2  -1 -10   86.19    8.00
  -2  -1 -10   80.19    8.30
  -2  -1 -10  105.59    9.60
   2   1  10   95.89    7.50
  -3  -1 -10   -1.20    4.30
  -3  -1 -10    8.90    5.70
  -3  -1 -10   -3.00    4.40
  -3  -1 -10   -5.70    5.70
   3   1  10    1.10    3.60
  -4  -1 -10   30.90    6.90
  -4  -1 -10   39.70    8.10
  -4  -1 -10   34.90    6.90
  -4  -1 -10   37.30    7.00
   4   1  10   38.50    6.50
  -5  -1 -10   28.70    7.10
  -5  -1 -10   31.60    8.00
  -5  -1 -10   20.10    4.30
  -5  -1 -10   23.70    6.60
   5   1  10   30.70    6.10
  -6  -1 -10   11.90    7.00
  -6  -1 -10    4.90    6.90
  -6  -1 -10   -2.90    3.40
   6   1  10   -2.40    4.50
   7  -2 -10   72.29    9.10
  -7   2  10   72.29    6.80
  -7   2  10   82.09    7.80
   6  -2 -10   -1.40    3.00
   6  -2 -10   -2.10    4.50
  -6   2  10    3.50    4.00
  -6   2  10   -2.40    2.30
   5  -2 -10    5.80    5.40
   5  -2 -10   10.20    3.20
  -5   2  10   13.50    4.60
  -5   2  10    6.40    2.80
   4  -2 -10   54.69    7.80
   4  -2 -10   61.59    5.60
  -4   2  10   73.69    5.20
   3  -2 -10  529.05   19.80
   3  -2 -10  533.15   16.10
  -3   2  10  540.95   14.90
   2  -2 -10    0.50    4.70
   2  -2 -10    2.90    3.50
  -2   2  10    9.40    2.40
  -2   2  10   -1.30    3.30
   1  -2 -10  112.99    7.80
   1  -2 -10  104.09    9.40
  -1   2  10  113.09    5.50
  -1   2  10  116.89    7.60
   0  -2 -10    6.70    5.30
   0  -2 -10   -1.20    3.80
   0   2  10    7.40    3.80
   0   2  10    0.30    2.10
  -1  -2 -10  135.29    9.30
  -1  -2 -10  143.89   10.80
  -1  -2 -10  129.29   10.10
   1   2  10  143.69    9.00
  -2  -2 -10    3.00    4.30
  -2  -2 -10    5.30    5.10
  -2  -2 -10    4.30    5.50
   2   2  10    3.50    3.70
  -3  -2 -10   65.19    8.10
  -3  -2 -10   64.69    7.80
  -3  -2 -10   79.39    9.60
   3   2  10   80.19    7.90
  -4  -2 -10  206.18   12.80
  -4  -2 -10  225.38   13.10
  -4  -2 -10  199.98   13.90
   4   2  10  236.78   12.30
  -5  -2 -10  157.18   11.60
  -5  -2 -10  154.38   12.20
  -5  -2 -10  154.38   13.10
  -5  -2 -10  150.28    9.10
   5   2  10  162.88   11.20
   7  -3 -10  180.38   12.40
  -7   3  10  165.18    9.00
  -7   3  10  151.68    9.80
   6  -3 -10   79.39    9.00
  -6   3  10   77.39    6.30
   5  -3 -10   -0.60    2.90
   5  -3 -10    1.80    5.00
  -5   3  10    2.70    2.70
   4  -3 -10   97.69    9.50
   4  -3 -10   83.19    6.40
  -4   3  10   92.09    5.90
   3  -3 -10  598.14   21.10
   3  -3 -10  606.44   17.80
  -3   3  10  602.54   16.60
   2  -3 -10  145.19    8.40
   2  -3 -10  127.89   10.40
  -2   3  10  156.08    6.90
   1  -3 -10   22.10    6.60
   1  -3 -10   23.80    5.00
  -1   3  10   27.50    4.80
  -1   3  10   29.40    3.60
   0  -3 -10  124.99   11.10
   0  -3 -10  117.69    8.90
   0  -3 -10  116.29    9.90
   0   3  10  132.49    8.50
  -1  -3 -10  195.48   11.20
  -1  -3 -10  195.18   11.70
   1   3  10  208.38   10.70
  -2  -3 -10    3.80    5.50
  -2  -3 -10    4.50    6.40
  -2  -3 -10    2.00    5.10
   2   3  10    0.60    4.20
  -3  -3 -10    1.80    5.60
  -3  -3 -10    0.50    6.00
  -3  -3 -10    6.90    5.60
   3   3  10    1.60    4.30
  -4  -3 -10    6.30    5.90
  -4  -3 -10    5.10    6.60
  -4  -3 -10    5.30    5.90
   4   3  10    9.90    5.10
  -5  -3 -10  108.29    8.40
  -5  -3 -10  103.89   10.90
  -5  -3 -10   81.69   10.70
   5   3  10  119.39   10.40
   7  -4 -10   92.99    9.80
  -7   4  10   79.79    6.80
   6  -4 -10   81.19    9.10
  -6   4  10   89.89    6.80
   5  -4 -10    1.20    3.20
   5  -4 -10   -3.30    5.20
  -5   4  10    2.90    2.70
   4  -4 -10    4.80    5.90
   4  -4 -10    0.50    3.50
  -4   4  10    2.70    2.60
   3  -4 -10    5.90    3.90
   3  -4 -10   10.00    5.60
  -3   4  10    3.50    2.50
   2  -4 -10   68.29    9.40
   2  -4 -10   81.69    7.70
  -2   4  10   71.99    5.60
   1  -4 -10   17.00    4.90
   1  -4 -10   16.50    6.20
  -1   4  10   19.10    4.50
  -1   4  10   30.00    3.80
   0  -4 -10   82.69    8.20
   0  -4 -10   89.89    8.20
   0   4  10   90.89    7.70
  -1  -4 -10   64.79    7.50
  -1  -4 -10   71.89    8.10
   1   4  10   84.49    7.80
  -2  -4 -10  462.25   19.20
  -2  -4 -10  424.66   17.80
   2   4  10  459.95   17.30
  -3  -4 -10   60.99    8.40
  -3  -4 -10   65.59    9.90
   3   4  10   64.69    7.60
  -4  -4 -10   21.20    8.60
  -4  -4 -10   14.30    7.40
   4   4  10   22.40    6.40
   7  -5 -10    9.70    6.30
  -7   5  10   20.70    4.50
   6  -5 -10  221.08   13.80
  -6   5  10  217.68   10.10
   5  -5 -10   45.50    7.90
   5  -5 -10   59.99    5.70
  -5   5  10   57.79    5.70
   4  -5 -10  188.58    9.50
   4  -5 -10  181.18   13.40
  -4   5  10  188.68    8.70
   3  -5 -10  109.59    8.30
   3  -5 -10  131.19   12.30
  -3   5  10  117.99    7.00
   2  -5 -10  195.08   10.80
   2  -5 -10  195.08   13.90
  -2   5  10  185.38    8.50
   1  -5 -10   42.40    6.60
  -1   5  10   39.10    4.60
   0  -5 -10   26.20    6.20
   0   5  10   25.00    5.20
  -1  -5 -10   75.79    8.40
  -1  -5 -10   66.69    9.20
   1   5  10   76.39    7.90
  -2  -5 -10   70.19    8.90
  -2  -5 -10   68.49    9.40
   2   5  10   77.49    8.50
  -3  -5 -10  104.69   11.80
  -3  -5 -10   77.89   10.20
   3   5  10   88.99    9.70
   6  -6 -10   85.29   10.30
  -6   6  10   80.59    6.90
   5  -6 -10   -0.30    5.80
   5  -6 -10   -2.00    4.30
  -5   6  10    0.50    2.90
   4  -6 -10   45.20    8.80
   4  -6 -10   62.29    6.50
  -4   6  10   59.89    6.00
   3  -6 -10  241.58   11.50
   3  -6 -10  235.28   15.40
  -3   6  10  245.58   10.40
   2  -6 -10   -0.50    4.70
   1  -6 -10  173.58   11.30
  -1   6  10  166.68    8.50
   0  -6 -10   35.00    7.30
   0  -6 -10   40.40    7.80
   0   6  10   39.50    7.60
  -1  -6 -10   51.89    9.70
  -1  -6 -10   56.99    8.40
   1   6  10   56.49    7.40
  -2  -6 -10    4.60    8.00
  -2  -6 -10   -0.50    6.20
   2   6  10   -1.70    4.70
   6  -7 -10    1.90    6.30
  -6   7  10    2.80    3.30
   5  -7 -10  130.99   13.00
  -5   7  10  133.89    8.40
   4  -7 -10   72.59    7.20
   4  -7 -10   50.39    9.30
  -4   7  10   75.69    6.60
   3  -7 -10  108.99    9.00
  -3   7  10  118.09    7.90
   2  -7 -10   96.79    9.10
  -2   7  10  104.49    7.50
   1  -7 -10    9.70    5.60
   1  -7 -10   14.20    7.50
  -1   7  10    6.10    3.50
   0  -7 -10   11.60    6.40
   0  -7 -10   17.00    8.30
  -1  -7 -10   35.10    8.20
  -1  -7 -10   30.20    9.00
   1   7  10   37.00    6.80
   5  -8 -10   45.60    9.30
  -5   8  10   69.89    7.40
   4  -8 -10    0.50    7.20
   4  -8 -10    8.20    4.90
  -4   8  10   11.60    3.80
   3  -8 -10   17.30    5.90
  -3   8  10   13.50    4.10
   2  -8 -10   -1.90    6.70
   2  -8 -10    0.10    5.60
  -2   8  10    2.20    3.50
   1  -8 -10   69.19   10.10
   1  -8 -10   52.09    8.50
  -1   8  10   55.19    6.40
   0  -8 -10    3.10    6.50
   0  -8 -10    0.80    8.20
   0   8  10    6.10    4.00
   0   9 -11   21.60    9.20
   0   9 -11    6.90    4.60
   0  -9  11   13.20    5.70
  -1   9 -11  487.55   22.40
  -1   9 -11  461.95   19.70
  -1   9 -11  484.75   18.40
   1  -9  11  498.45   19.10
  -2   9 -11   37.60    6.30
  -2   9 -11   40.20    8.50
  -2   9 -11   21.60    7.80
   2  -9  11   46.40    7.30
  -3   9 -11   13.80    7.40
  -3   9 -11   28.70    5.70
   3  -9  11   27.50    6.20
  -4   9 -11   -6.80    6.90
   4  -9  11    2.00    4.40
   1   8 -11   71.99    8.00
   1   8 -11   74.59   11.00
  -1  -8  11  114.69    8.30
  -1  -8  11  124.19   10.20
   0   8 -11   15.80    5.10
   0   8 -11   11.60    8.10
   0  -8  11    8.40    4.30
   0  -8  11    5.70    5.20
  -1   8 -11   63.19    9.60
  -1   8 -11   51.69    6.30
  -2   8 -11  105.09   10.80
  -2   8 -11   98.19    8.30
  -2   8 -11  113.79   11.10
   2  -8  11  101.39    9.00
  -3   8 -11  144.69   12.80
  -3   8 -11  125.29    9.00
   3  -8  11  144.19   10.00
  -4   8 -11   63.39    9.90
   4  -8  11   70.39    8.00
  -5   8 -11   14.40    8.00
   5  -8  11   17.90    5.30
   3   7 -11   -7.40    8.00
   3   7 -11    0.00    4.30
  -3  -7  11   -3.50    3.90
   2   7 -11  143.59   14.00
   2   7 -11  128.09    9.70
  -2  -7  11  133.59   10.20
  -2  -7  11  142.29    9.20
   1   7 -11  540.15   18.90
   1   7 -11  515.95   22.20
  -1  -7  11  542.15   19.30
  -1  -7  11  537.25   17.40
   0   7 -11    2.00    6.30
   0   7 -11    1.80    3.40
   0  -7  11    1.90    3.70
   0  -7  11    0.10    4.10
  -1   7 -11   85.19    9.50
  -1   7 -11   73.79    7.40
   1  -7  11   67.69    7.50
  -2   7 -11  139.89    9.10
  -2   7 -11  123.69   11.40
  -2   7 -11  130.19   11.20
   2  -7  11  138.69    9.60
  -3   7 -11    6.90    6.40
  -3   7 -11    0.80    3.60
   3  -7  11   16.60    4.90
  -4   7 -11    5.00    4.20
  -4   7 -11   -9.40    6.00
   4  -7  11    0.60    3.80
  -5   7 -11  134.39   12.10
   5  -7  11  166.28   10.50
  -6   7 -11  115.89   12.30
   6  -7  11   98.99    8.50
   3   6 -11   53.99   10.10
   3   6 -11   71.39    7.70
  -3  -6  11   62.29    6.90
   2   6 -11   35.90    8.50
   2   6 -11   16.70    4.70
  -2  -6  11   23.40    4.70
  -2  -6  11   31.60    6.20
   1   6 -11  163.28   12.20
   1   6 -11  166.58    9.90
  -1  -6  11  156.88    9.10
  -1  -6  11  164.78   10.40
   0   6 -11   16.70    4.70
   0   6 -11    8.90    6.70
   0  -6  11   13.40    4.90
  -1   6 -11   65.49    8.20
  -1   6 -11   67.09    6.90
   1  -6  11   53.39    6.70
  -2   6 -11   28.60    6.40
  -3   6 -11  203.88   11.50
  -3   6 -11  224.58   14.50
  -3   6 -11  239.38   11.40
   3  -6  11  225.48   11.60
  -4   6 -11  107.69   10.70
  -4   6 -11  122.59    8.80
   4  -6  11  113.49    8.70
  -5   6 -11   35.30    8.40
   5  -6  11   42.30    6.40
  -6   6 -11   49.80    9.50
   6  -6  11   37.90    6.20
   4   5 -11  231.88   16.40
   4   5 -11  240.88   12.20
  -4  -5  11  242.88   12.20
   3   5 -11    0.80    6.70
   3   5 -11   -0.60    3.60
  -3  -5  11    0.90    4.10
   2   5 -11   -4.50    5.70
   2   5 -11   -1.40    3.40
  -2  -5  11    7.70    4.20
  -2  -5  11    3.20    3.40
   1   5 -11  132.49   11.50
   1   5 -11  128.59    8.60
  -1  -5  11  142.29    8.80
  -1  -5  11  150.18    9.40
   0   5 -11   40.60    5.30
   0   5 -11   52.29    7.80
   0  -5  11   49.30    6.50
  -1   5 -11  163.88    9.30
  -1   5 -11  148.29   10.80
   1  -5  11  169.78    9.50
  -2   5 -11  204.08   10.30
  -2   5 -11  171.18   12.70
  -2   5 -11  176.28   11.10
   2  -5  11  180.58   10.30
  -3   5 -11   18.30    4.90
  -3   5 -11   16.10    7.10
  -3   5 -11   14.80    5.20
   3  -5  11   13.40    4.70
  -4   5 -11  209.08   11.10
  -4   5 -11  205.58   14.10
   4  -5  11  189.98   10.80
  -5   5 -11   27.90    7.90
   5  -5  11   37.20    6.10
  -6   5 -11    8.70    7.20
   6  -5  11   11.90    4.80
   5   4 -11  158.88   14.60
   5   4 -11  146.49    9.60
  -5  -4  11  151.18   10.40
   4   4 -11   47.50    9.10
   4   4 -11   53.89    6.30
  -4  -4  11   50.89    6.30
   3   4 -11    7.50    3.70
   3   4 -11    4.60    5.50
  -3  -4  11    3.50    3.50
   2   4 -11  687.63   23.90
   2   4 -11  665.33   20.40
  -2  -4  11  681.63   20.90
  -2  -4  11  689.23   20.20
   1   4 -11   33.40    6.90
   1   4 -11   25.30    4.50
  -1  -4  11   44.00    5.70
   0   4 -11  135.79   10.70
   0   4 -11  133.69    8.30
   0  -4  11  122.09    8.70
  -2   4 -11   96.69    7.80
  -2   4 -11   89.89    8.30
  -2   4 -11   87.99    9.20
   2  -4  11   89.49    7.30
  -3   4 -11  115.09    8.80
  -3   4 -11  116.39    8.90
  -3   4 -11  113.39   10.80
   3  -4  11  103.99    8.40
  -4   4 -11    8.60    7.00
  -4   4 -11   19.70    5.40
   4  -4  11   25.30    5.50
  -5   4 -11   87.69    8.70
  -5   4 -11   84.09    8.60
  -5   4 -11   60.99    9.10
   5  -4  11   88.09    8.50
  -6   4 -11  226.58   15.20
   6  -4  11  208.18   11.40
   5   3 -11   72.39    6.90
   5   3 -11   77.29   10.80
  -5  -3  11   62.19    7.20
   4   3 -11   43.40    5.60
   4   3 -11   24.80    6.70
  -4  -3  11   39.20    5.90
   3   3 -11   14.70    4.00
   3   3 -11   13.00    5.80
  -3  -3  11   13.20    4.60
   2   3 -11  230.38   12.80
   2   3 -11  200.58    9.90
  -2  -3  11  226.48   10.60
  -2  -3  11  227.68   10.60
   1   3 -11  780.92   22.20
   1   3 -11  790.92   25.10
  -1  -3  11  775.52   22.60
   0   3 -11   50.89    6.10
   0   3 -11   50.79    7.10
   0  -3  11   59.59    6.90
  -1   3 -11   -1.60    3.20
  -1   3 -11    3.30    4.60
   1  -3  11    3.30    3.70
  -2   3 -11   -1.10    3.70
  -2   3 -11    5.70    6.10
  -2   3 -11   -2.20    4.00
   2  -3  11   -1.70    3.60
  -3   3 -11    1.10    3.70
  -3   3 -11   -0.20    3.90
  -3   3 -11    7.40    5.80
   3  -3  11    0.90    3.60
  -4   3 -11   31.80    5.80
  -4   3 -11   30.60    7.70
   4  -3  11   26.20    5.20
  -5   3 -11   -0.70    5.50
  -5   3 -11   -9.80    4.00
  -5   3 -11    0.80    5.80
   5  -3  11   -0.80    3.80
  -6   3 -11   18.30    8.00
  -6   3 -11   13.90    6.80
   6  -3  11   18.10    5.70
   6   2 -11   -2.20    3.00
   6   2 -11   -9.00    6.00
  -6  -2  11    4.40    4.50
   5   2 -11  403.16   14.10
   5   2 -11  392.86   18.80
  -5  -2  11  410.16   15.50
   4   2 -11  467.95   15.30
   4   2 -11  456.05   19.40
  -4  -2  11  461.55   16.30
   3   2 -11   61.19    8.00
   3   2 -11   61.29    6.00
  -3  -2  11   77.09    7.30
   2   2 -11   21.40    4.40
   2   2 -11   13.20    5.30
  -2  -2  11   23.90    4.70
   1   2 -11    9.20    4.80
   1   2 -11    7.30    3.80
  -1  -2  11    3.30    3.90
   0   2 -11  104.59    9.30
   0   2 -11   88.09    6.80
   0  -2  11   93.09    7.60
   1  -2  11   33.90    5.20
  -2   2 -11  100.29    8.50
  -2   2 -11  116.49    8.60
  -2   2 -11  118.39   10.40
   2  -2  11  115.79    8.30
  -3   2 -11  116.29   10.70
  -3   2 -11  145.49    9.30
  -3   2 -11  141.99    9.60
   3  -2  11  152.38    9.30
  -4   2 -11  696.23   22.30
  -4   2 -11  699.23   24.00
   4  -2  11  699.73   21.90
  -5   2 -11    9.10    6.70
  -5   2 -11    2.80    5.10
  -5   2 -11   13.90    6.40
   5  -2  11   10.10    4.80
  -6   2 -11    3.30    6.10
  -6   2 -11   -8.40    6.60
   6  -2  11   -1.70    4.30
   6   1 -11   -0.20    6.60
   6   1 -11    0.00    3.20
  -6  -1  11    0.60    3.70
   5   1 -11   78.09    6.70
   5   1 -11   75.19    9.70
  -5  -1  11   81.89    7.50
   4   1 -11  614.44   22.20
   4   1 -11  567.44   17.50
  -4  -1  11  565.54   18.30
   3   1 -11   16.20    4.00
   3   1 -11   12.80    5.90
  -3  -1  11   18.60    4.50
   2   1 -11   45.50    5.60
   2   1 -11   34.60    6.80
  -2  -1  11   36.40    5.40
   1   1 -11  344.17   15.50
   1   1 -11  352.96   13.20
  -1  -1  11  361.86   13.30
   0   1 -11   12.40    5.20
   0   1 -11    4.40    4.00
   0  -1  11   13.70    4.30
  -1   1 -11   37.70    5.40
  -1   1 -11   40.00    6.30
   1  -1  11   42.40    5.80
  -2   1 -11    5.20    6.10
  -2   1 -11   -0.70    4.10
  -2   1 -11    4.20    4.30
   2  -1  11   -4.10    3.40
  -3   1 -11   -1.10    4.20
  -3   1 -11   -3.70    5.90
  -3   1 -11    2.40    4.30
   3  -1  11   -0.80    3.40
  -4   1 -11  395.96   16.10
  -4   1 -11  375.76   17.20
  -4   1 -11  383.46   12.10
  -4   1 -11  421.76   17.40
   4  -1  11  403.26   15.60
  -5   1 -11   23.00    7.30
  -5   1 -11   19.10    7.40
  -5   1 -11   14.90    6.10
  -5   1 -11   15.80    3.60
   5  -1  11   29.70    6.30
  -6   1 -11    4.20    7.10
  -6   1 -11   -6.10    6.70
  -6   1 -11    0.90    3.20
   6  -1  11    3.50    4.80
   6   0 -11   38.80    8.00
   6   0 -11   36.00    4.90
  -6   0  11   36.70    6.40
   5   0 -11    2.00    3.00
   5   0 -11   -0.50    5.50
  -5   0  11    0.40    3.50
   4   0 -11    9.60    5.30
   4   0 -11   13.20    3.90
  -4   0  11   10.90    4.60
   3   0 -11    2.90    3.40
   3   0 -11   -2.40    5.10
   2   0 -11   74.59    8.70
   2   0 -11   76.89    6.70
  -2   0  11   89.19    7.10
   1   0 -11   11.20    5.50
   1   0 -11   20.60    4.50
  -1   0  11   14.80    4.10
   0   0 -11    1.20    5.10
   0   0 -11   -1.00    3.60
   0   0  11    3.30    3.60
  -1   0 -11  949.80   27.90
  -1   0 -11  971.60   28.00
  -1   0 -11  939.01   26.60
   1   0  11 1011.90   26.80
  -2   0 -11  167.38   10.30
  -2   0 -11  165.88   12.00
  -2   0 -11  137.79    9.90
   2   0  11  164.88    9.70
  -3   0 -11    1.20    4.60
  -3   0 -11   -3.60    4.60
  -3   0 -11   -2.70    6.00
   3   0  11   -3.50    3.90
  -4   0 -11    1.10    6.30
  -4   0 -11    6.40    3.20
  -4   0 -11    5.90    5.70
  -4   0 -11    4.70    5.30
   4   0  11   12.20    5.00
  -5   0 -11   61.59    8.20
  -5   0 -11   72.49    9.90
  -5   0 -11   63.69    5.80
  -5   0 -11   57.39    8.70
   5   0  11   69.09    8.10
  -6   0 -11    2.00    3.60
  -6   0 -11    4.40    7.10
  -6   0 -11    8.10    7.20
   6  -1 -11    7.10    3.30
   6  -1 -11   10.80    6.40
  -6   1  11    2.90    4.50
   5  -1 -11  218.48   13.40
   5  -1 -11  211.88    9.40
  -5   1  11  188.98   10.60
   4  -1 -11  148.99    8.10
   4  -1 -11  144.39   11.70
   3  -1 -11   93.19    6.90
   3  -1 -11   91.49    9.50
   2  -1 -11    8.90    4.00
   2  -1 -11    8.80    5.80
   1  -1 -11  226.58   10.70
  -1   1  11  202.98    9.90
   0  -1 -11    9.80    4.40
   0  -1 -11    6.30    5.60
   0   1  11    5.00    3.80
   0   1  11    6.00    2.10
  -1  -1 -11  367.36   16.10
  -1  -1 -11  367.66   15.80
  -1  -1 -11  369.76   14.70
   1   1  11  399.56   14.60
  -2  -1 -11  201.58   11.00
  -2  -1 -11  184.38   11.90
  -2  -1 -11  210.58   13.00
   2   1  11  200.48   10.90
  -3  -1 -11  193.98   11.90
  -3  -1 -11  172.18   11.50
  -3  -1 -11  170.98   13.00
  -3  -1 -11  163.18   12.20
   3   1  11  194.98   11.00
  -4  -1 -11   56.29    7.80
  -4  -1 -11   39.20    7.60
  -4  -1 -11   43.90    8.60
   4   1  11   50.29    7.10
  -5  -1 -11  139.29    8.60
  -5  -1 -11  136.59   12.70
  -5  -1 -11  133.79   11.80
  -5  -1 -11  139.79   12.10
   5   1  11  148.19   10.70
   6  -2 -11    6.00    5.80
  -6   2  11    3.90    4.60
  -6   2  11    2.50    2.90
   5  -2 -11  312.37   11.30
   5  -2 -11  319.37   15.90
  -5   2  11  300.77   11.00
   4  -2 -11  217.08   13.70
   4  -2 -11  220.28    9.70
  -4   2  11  216.38    8.70
   3  -2 -11   52.99    6.00
   3  -2 -11   56.99    8.50
  -3   2  11   51.89    4.80
   2  -2 -11   41.20    7.90
   2  -2 -11   53.39    6.20
  -2   2  11   55.79    4.60
   1  -2 -11  248.68   14.20
   1  -2 -11  258.97   11.60
  -1   2  11  256.77    9.00
  -1   2  11  267.37   11.30
   0  -2 -11   -0.60    4.20
   0  -2 -11    0.30    5.60
   0   2  11   -1.70    1.90
   0   2  11    0.20    3.70
  -1  -2 -11   97.09    9.20
  -1  -2 -11  125.29    9.50
  -1  -2 -11  109.79   11.00
   1   2  11  124.69    8.90
  -2  -2 -11   37.10    7.10
  -2  -2 -11   35.60    6.80
  -2  -2 -11   35.20    7.30
   2   2  11   42.40    6.60
  -3  -2 -11   14.90    7.30
  -3  -2 -11    6.70    6.30
  -3  -2 -11    7.40    5.50
  -3  -2 -11   -0.40    5.20
   3   2  11    7.10    4.40
  -4  -2 -11   96.89   11.30
  -4  -2 -11   65.99    8.90
  -4  -2 -11   89.29    9.60
   4   2  11   76.99    8.50
  -5  -2 -11   -2.80    5.90
  -5  -2 -11    1.00    6.50
  -5  -2 -11    5.00    4.30
  -5  -2 -11    7.90    8.00
   5   2  11    5.40    5.30
   6  -3 -11  228.58   14.10
  -6   3  11  205.18    9.60
   5  -3 -11    6.90    3.60
   5  -3 -11    3.60    5.60
  -5   3  11    6.30    3.00
   4  -3 -11   78.39    7.10
   4  -3 -11   91.39   10.10
  -4   3  11   82.79    5.90
   3  -3 -11   84.39    7.40
   3  -3 -11   99.49   10.40
  -3   3  11   79.39    5.70
   2  -3 -11   36.20    7.70
   2  -3 -11   31.60    5.60
  -2   3  11   54.39    4.80
   1  -3 -11  146.09    9.90
   1  -3 -11  174.98   13.00
  -1   3  11  155.78    7.10
  -1   3  11  171.88    9.50
   0  -3 -11  424.26   16.00
   0  -3 -11  407.16   18.40
   0  -3 -11  413.96   16.70
   0   3  11  384.76   12.80
   0   3  11  449.86   15.70
  -1  -3 -11   71.49    8.10
  -1  -3 -11   75.09    9.50
  -1  -3 -11   73.89    8.40
   1   3  11   79.59    7.90
  -2  -3 -11  145.89   11.60
  -2  -3 -11  140.79   11.00
  -2  -3 -11  147.29   11.80
  -2  -3 -11  150.68   12.10
   2   3  11  168.48   10.60
  -3  -3 -11   47.50    7.80
  -3  -3 -11   35.00    7.30
  -3  -3 -11   30.10    7.90
   3   3  11   40.30    6.80
  -4  -3 -11   84.49   11.20
  -4  -3 -11   89.99   10.40
   4   3  11   88.39    9.60
   6  -4 -11    7.40    6.30
  -6   4  11    8.90    3.30
   5  -4 -11   44.60    8.50
   5  -4 -11   35.20    5.10
  -5   4  11   28.70    4.50
   4  -4 -11    2.30    6.00
   4  -4 -11   -0.80    3.60
  -4   4  11   -3.30    2.40
   3  -4 -11   -5.20    3.90
   3  -4 -11    2.40    5.60
  -3   4  11    3.20    2.50
  -2   4  11   62.39    5.40
   1  -4 -11   14.70    6.80
   1  -4 -11   20.20    5.40
  -1   4  11   20.40    3.50
   0  -4 -11   45.70    8.70
   0  -4 -11   46.70    7.10
   0  -4 -11   44.30    7.20
   0   4  11   57.09    7.00
   0   4  11   45.20    5.10
  -1  -4 -11  442.56   17.80
   1   4  11  455.85   17.00
  -2  -4 -11   20.30    7.90
  -2  -4 -11    7.40    6.00
   2   4  11    7.40    4.70
  -3  -4 -11   28.60    7.30
  -3  -4 -11   23.50    8.90
   3   4  11   22.60    6.00
   6  -5 -11   31.90    7.80
  -6   5  11   24.60    4.80
   5  -5 -11    5.10    6.20
   5  -5 -11    5.80    4.00
  -5   5  11    8.80    3.40
   4  -5 -11    5.70    6.70
   4  -5 -11    3.70    4.20
  -4   5  11    0.10    2.70
   3  -5 -11  190.58   13.70
   3  -5 -11  229.98   11.30
  -3   5  11  228.68    9.60
   2  -5 -11  177.38   14.20
   2  -5 -11  170.08   10.40
  -2   5  11  178.18    8.50
   1  -5 -11   49.40    6.80
   1  -5 -11   54.19    9.30
  -1   5  11   68.19    5.80
   0  -5 -11   -4.30    5.10
   0   5  11    0.00    3.00
   0   5  11    8.20    5.50
  -1  -5 -11   89.89    9.50
  -1  -5 -11   76.39   10.20
   1   5  11   95.59    8.90
  -2  -5 -11  236.38   14.40
  -2  -5 -11  205.78   15.70
   2   5  11  262.87   13.50
   5  -6 -11    0.40    6.30
  -5   6  11    7.00    3.70
   4  -6 -11    2.80    6.10
   4  -6 -11    1.90    4.30
  -4   6  11   -1.80    2.60
   3  -6 -11   64.49    7.50
   3  -6 -11   67.69    9.80
  -3   6  11   74.89    6.70
   2  -6 -11  349.07   19.00
   2  -6 -11  335.17   14.60
  -2   6  11  324.97   12.50
   1  -6 -11  110.79   10.00
  -1   6  11   99.79    7.00
   0  -6 -11   40.10    7.70
   0  -6 -11   45.50    9.50
   0   6  11   37.90    5.60
  -1  -6 -11   28.90    7.90
  -1  -6 -11   39.70    9.60
   1   6  11   39.00    6.90
   5  -7 -11   51.49    9.60
   4  -7 -11    1.00    4.70
   4  -7 -11    3.10    7.40
  -4   7  11    0.30    3.20
   3  -7 -11   27.50    8.90
   3  -7 -11   34.40    6.90
  -3   7  11   27.90    4.90
   2  -7 -11    5.40    5.60
   1  -7 -11  131.59   12.30
   1  -7 -11  103.19   10.30
  -1   7  11   94.69    7.80
   0  -7 -11    6.30    8.40
   0  -7 -11    5.80    6.50
   0   7  11    4.00    3.70
   0   8 -12   28.90    6.00
   0   8 -12   12.70    8.00
   0  -8  12   31.20    6.70
  -1   8 -12  148.09   13.70
  -1   8 -12  144.39   10.20
   1  -8  12  164.48   11.30
  -2   8 -12   33.90    8.80
  -2   8 -12   51.09    9.10
  -2   8 -12   41.40    6.60
   2  -8  12   43.20    7.00
  -3   8 -12    4.50    7.90
  -3   8 -12    1.20    4.20
   3  -8  12    3.30    4.70
  -4   8 -12   36.80    9.50
   4  -8  12   32.00    6.50
   2   7 -12  114.19   13.50
   2   7 -12  107.29    9.60
  -2  -7  12  124.29    9.30
   1   7 -12   21.00    8.50
   1   7 -12   11.30    4.60
  -1  -7  12   42.10    7.30
  -1  -7  12   31.70    5.90
   0   7 -12   60.79    7.20
   0   7 -12   71.79   10.40
   0  -7  12   67.59    8.20
  -1   7 -12  134.59    9.60
  -1   7 -12  126.79   11.90
   1  -7  12  138.19   10.20
  -2   7 -12    1.00    5.80
  -2   7 -12   -0.30    3.70
  -2   7 -12    9.00    7.30
   2  -7  12   -0.50    4.20
  -3   7 -12    4.60    4.40
  -3   7 -12   13.40    8.10
   3  -7  12    8.40    5.00
  -4   7 -12   13.30    7.80
  -4   7 -12   -3.10    4.40
   4  -7  12   -2.80    4.10
  -5   7 -12    6.10    8.00
   5  -7  12    9.60    5.10
   3   6 -12    2.40    4.30
   3   6 -12   -0.50    7.80
  -3  -6  12   -0.40    4.10
   2   6 -12    9.60    4.50
   2   6 -12   10.60    7.90
  -2  -6  12   15.40    5.30
  -2  -6  12   13.20    5.00
   1   6 -12  201.68   13.80
   1   6 -12  218.98   11.50
  -1  -6  12  214.38   11.90
  -1  -6  12  211.58   10.90
   0   6 -12   26.10    5.40
   0   6 -12   13.60    6.90
   0  -6  12   18.80    5.60
  -1   6 -12   29.30    5.40
  -1   6 -12   35.00    7.50
   1  -6  12   29.40    5.90
  -2   6 -12   78.79    7.80
  -2   6 -12   83.39   10.20
  -2   6 -12   68.09    8.70
   2  -6  12   77.09    8.30
  -3   6 -12  331.27   17.00
  -3   6 -12  353.26   14.70
   3  -6  12  354.26   15.00
  -4   6 -12   -6.20    7.20
  -4   6 -12   -3.00    4.30
   4  -6  12   -3.00    4.20
  -5   6 -12   -2.90    7.70
   5  -6  12   -0.50    4.30
   3   5 -12   50.59    6.70
   3   5 -12   56.49    9.70
  -3  -5  12   61.19    7.10
   2   5 -12  100.49    8.20
   2   5 -12   86.29   10.60
  -2  -5  12   92.39    8.50
  -2  -5  12  101.49    8.60
   1   5 -12  191.08   13.50
   1   5 -12  200.68   10.60
  -1  -5  12  210.38   11.20
   0   5 -12    5.60    4.00
   0   5 -12    6.90    6.00
   0  -5  12   11.10    4.50
  -1   5 -12   48.10    6.00
  -1   5 -12   58.49    7.80
   1  -5  12   43.40    6.30
  -2   5 -12   12.40    4.60
  -2   5 -12    2.40    5.00
  -2   5 -12   -4.00    5.50
   2  -5  12    7.00    4.60
  -3   5 -12  491.85   21.20
  -3   5 -12  528.85   18.30
   3  -5  12  513.15   18.30
  -4   5 -12   42.30    6.50
  -4   5 -12   42.30    9.40
   4  -5  12   30.90    5.70
  -5   5 -12  121.39   12.70
   5  -5  12  106.99    9.10
   4   4 -12   38.10    5.90
   4   4 -12   49.30    9.50
  -4  -4  12   43.60    6.80
   3   4 -12    1.50    6.10
   3   4 -12    1.80    3.70
  -3  -4  12   10.70    4.80
   2   4 -12    7.90    3.90
   2   4 -12    1.00    6.10
  -2  -4  12   10.20    4.20
  -2  -4  12    3.50    4.20
   1   4 -12  397.06   15.00
   1   4 -12  397.06   17.30
  -1  -4  12  430.66   15.80
   0   4 -12  275.07   14.60
   0   4 -12  270.67   12.30
   0  -4  12  275.57   12.70
  -1   4 -12   70.19    7.10
  -1   4 -12   64.59    7.90
   1  -4  12   72.39    7.60
  -2   4 -12   12.00    7.10
  -2   4 -12   27.00    5.40
  -2   4 -12   28.10    6.10
   2  -4  12   20.20    5.20
  -3   4 -12    9.80    7.50
  -3   4 -12   10.70    4.50
  -3   4 -12   11.20    6.10
   3  -4  12   18.70    5.00
  -4   4 -12   62.19    7.60
  -4   4 -12   62.79    9.70
   4  -4  12   63.99    7.60
  -5   4 -12   15.00    6.20
  -5   4 -12   19.40    8.10
  -5   4 -12   17.80    8.10
   5  -4  12   23.70    5.60
  -6   4 -12    4.90    7.60
   5   3 -12   -3.00    6.70
   4   3 -12  186.28   13.40
   4   3 -12  169.28    9.60
  -4  -3  12  177.08   10.20
   3   3 -12   55.09    6.20
   3   3 -12   49.99    8.70
  -3  -3  12   56.09    7.10
   2   3 -12  142.09   11.90
   2   3 -12  125.19    8.60
  -2  -3  12  126.49    8.80
   1   3 -12   11.00    4.20
   1   3 -12    7.80    6.10
  -1  -3  12   15.40    4.90
   0   3 -12  284.97   12.50
   0   3 -12  293.77   14.70
   0  -3  12  304.47   13.10
  -1   3 -12   84.69    7.70
  -1   3 -12   91.59    9.30
   1  -3  12   90.49    8.10
  -2   3 -12   85.69    8.50
  -2   3 -12   91.69   10.50
  -2   3 -12   91.49    8.40
   2  -3  12  100.89    8.50
  -3   3 -12   26.30    8.50
  -3   3 -12   39.30    6.20
  -3   3 -12   39.70    6.00
   3  -3  12   38.00    6.00
  -4   3 -12  133.99   10.30
  -4   3 -12  134.59   12.40
   4  -3  12  129.29    9.50
  -5   3 -12   60.49    8.50
  -5   3 -12   66.29   10.00
  -5   3 -12   63.49    8.20
   5  -3  12   58.59    7.60
   5   2 -12  153.98    9.10
   5   2 -12  156.58   14.00
  -5  -2  12  165.68   10.70
   4   2 -12  257.97   11.40
   4   2 -12  243.68   14.60
  -4  -2  12  227.18   11.80
   3   2 -12  155.98   11.90
   3   2 -12  163.28    9.40
  -3  -2  12  152.38    9.80
   2   2 -12    0.00    5.60
   2   2 -12    5.30    3.80
  -2  -2  12    7.80    6.90
   1   2 -12   66.69    8.30
   1   2 -12   82.29    7.20
  -1  -2  12   90.59    7.70
   0   2 -12   42.00    5.70
   0   2 -12   40.60    7.50
   0  -2  12   35.40    5.70
  -1   2 -12   30.50    6.00
  -1   2 -12   23.90    5.10
   1  -2  12   20.00    4.70
  -2   2 -12   40.40    7.90
  -2   2 -12   54.39    7.00
  -2   2 -12   59.99    7.40
   2  -2  12   61.49    7.20
  -3   2 -12  121.99    9.40
  -3   2 -12  111.69    9.60
  -3   2 -12  113.59   11.40
   3  -2  12  133.09    9.20
  -4   2 -12   68.29    8.30
  -4   2 -12   51.79    9.10
   4  -2  12   57.19    7.50
  -5   2 -12  185.38   14.10
  -5   2 -12  150.48   12.70
  -5   2 -12  161.28   11.80
   5  -2  12  170.98   11.20
   5   1 -12  164.98    9.20
   5   1 -12  163.98   13.70
  -5  -1  12  154.48    9.90
   4   1 -12   69.59    9.10
   4   1 -12   78.99    7.10
  -4  -1  12   77.69    8.00
   3   1 -12  134.49   12.00
   3   1 -12  131.09    8.50
   2   1 -12   40.70    5.60
   2   1 -12   39.10    7.50
   1   1 -12  258.37   14.00
   1   1 -12  247.68   11.50
  -1  -1  12  262.87   11.80
   0   1 -12   25.30    5.40
   0   1 -12   21.70    6.30
   0  -1  12   22.10    5.00
  -1   1 -12   38.30    8.00
  -1   1 -12   45.10    6.90
  -1   1 -12   36.30    5.80
   1  -1  12   38.00    5.80
  -2   1 -12   22.70    7.20
  -2   1 -12   19.30    5.80
  -2   1 -12   27.00    5.90
   2  -1  12   17.40    5.10
  -3   1 -12  174.18   11.30
  -3   1 -12  172.38   10.80
  -3   1 -12  166.08   13.00
   3  -1  12  165.08   10.40
  -4   1 -12   97.79   10.70
  -4   1 -12  108.89   10.10
  -4   1 -12  102.09   11.10
   4  -1  12  107.19    9.30
  -5   1 -12   43.10    9.20
  -5   1 -12   51.79    8.50
  -5   1 -12   39.80    8.60
   5  -1  12   42.10    7.40
   5   0 -12   44.80    8.80
   5   0 -12   24.50    4.60
  -5   0  12   33.50    6.40
   4   0 -12   -7.80    5.30
   4   0 -12   -1.00    3.30
   3   0 -12   53.19    8.40
   3   0 -12   44.50    5.70
   2   0 -12    0.10    3.60
   2   0 -12   -3.50    5.70
   1   0 -12  250.27   13.50
   1   0 -12  255.07   11.80
  -1   0  12  274.27   11.80
   0   0 -12  280.87   12.40
   0   0 -12  260.87   14.10
   0   0  12  263.67   12.00
  -1   0 -12   58.99    8.60
  -1   0 -12   71.39    8.60
  -1   0 -12   84.49    8.10
   1   0  12   87.19    8.10
  -2   0 -12  151.28   12.50
  -2   0 -12  147.19   10.90
  -2   0 -12  149.39    9.90
   2   0  12  170.58   10.10
  -3   0 -12    4.70    6.50
  -3   0 -12    7.50    5.20
  -3   0 -12    8.10    5.80
   3   0  12   12.00    5.20
  -4   0 -12   -1.90    5.60
  -4   0 -12    3.60    4.80
  -4   0 -12    6.30    7.30
  -4   0 -12   -0.80    6.90
   4   0  12   11.60    5.20
  -5   0 -12   12.30    4.20
  -5   0 -12    8.60    6.40
  -5   0 -12    4.90    7.30
  -5   0 -12   10.70    7.60
   5   0  12   14.50    5.90
   6  -1 -12    1.30    6.70
   6  -1 -12    0.70    3.40
  -6   1  12    3.80    4.90
   5  -1 -12   17.60    7.20
   5  -1 -12   16.60    4.10
   4  -1 -12  669.43   20.20
   4  -1 -12  735.43   25.40
   3  -1 -12    5.70    3.70
   3  -1 -12    0.30    6.20
   2  -1 -12    2.20    3.80
   2  -1 -12    7.00    5.80
   1  -1 -12   19.10    5.10
   1  -1 -12   12.00    6.20
  -1   1  12   21.30    4.80
   0  -1 -12  110.59   10.50
   0  -1 -12  104.89    8.90
   0   1  12  123.29    8.80
  -1  -1 -12  281.37   13.40
  -1  -1 -12  291.77   14.80
  -1  -1 -12  271.97   14.70
   1   1  12  286.57   12.90
  -2  -1 -12    9.90    5.70
  -2  -1 -12   -3.80    6.60
  -2  -1 -12   11.60    5.60
   2   1  12    1.30    4.30
  -3  -1 -12   -0.10    5.50
  -3  -1 -12   10.40    5.80
  -3  -1 -12   10.00    7.00
  -3  -1 -12    6.40    7.00
   3   1  12   10.30    5.10
  -4  -1 -12  181.38   13.40
  -4  -1 -12  179.08   14.50
  -4  -1 -12  176.78   12.80
   4   1  12  186.28   11.90
   6  -2 -12   -3.40    5.90
   5  -2 -12    4.60    3.60
   5  -2 -12   16.70    7.00
   4  -2 -12  183.18   13.70
   4  -2 -12  170.58    9.40
   3  -2 -12  286.17   16.00
   3  -2 -12  301.27   12.50
   2  -2 -12   55.99    6.60
   2  -2 -12   44.50    7.80
   1  -2 -12   78.49    9.60
   1  -2 -12   95.99    8.70
   0  -2 -12   91.39   10.00
   0  -2 -12   94.39    8.80
   0  -2 -12   96.89    9.80
   0   2  12   98.59    8.40
  -1  -2 -12   43.70    7.90
  -1  -2 -12   46.60    7.40
  -1  -2 -12   47.20    8.20
   1   2  12   50.39    7.00
  -2  -2 -12    9.40    6.70
  -2  -2 -12   -3.80    5.50
  -2  -2 -12    3.00    5.50
   2   2  12    7.40    4.70
  -3  -2 -12   30.90    7.50
  -3  -2 -12   29.40    7.90
  -3  -2 -12   33.30    8.50
  -3  -2 -12   34.90    7.50
   3   2  12   42.50    7.20
  -4  -2 -12   34.50    9.40
  -4  -2 -12   22.50    7.90
  -4  -2 -12   29.10    7.60
   4   2  12   41.30    7.40
   6  -3 -12  145.19   13.10
   5  -3 -12   15.40    7.10
   5  -3 -12    5.00    4.00
   4  -3 -12   24.50    7.50
   4  -3 -12   25.60    5.10
  -4   3  12   29.40    4.40
   3  -3 -12   31.80    8.00
   3  -3 -12   18.70    5.00
  -3   3  12   28.00    4.00
   2  -3 -12   40.50    8.40
   2  -3 -12   34.90    6.10
  -2   3  12   35.90    4.30
   1  -3 -12   24.50    5.80
   1  -3 -12   20.20    7.40
  -1   3  12   19.80    3.50
   0  -3 -12  120.69    9.80
   0  -3 -12  148.09   12.90
   0  -3 -12  114.59   10.20
   0   3  12  108.29    6.50
   0   3  12  132.99    9.20
  -1  -3 -12  423.26   17.60
  -1  -3 -12  449.95   17.90
  -1  -3 -12  454.05   20.00
   1   3  12  478.05   17.50
  -2  -3 -12  209.98   14.70
  -2  -3 -12  213.68   13.20
  -2  -3 -12  207.28   13.20
  -2  -3 -12  190.58   14.60
   2   3  12  205.78   12.20
  -3  -3 -12    6.30    6.50
  -3  -3 -12   15.50    7.20
  -3  -3 -12   21.50    8.90
   3   3  12   20.80    6.00
   5  -4 -12   17.80    7.20
   5  -4 -12   16.60    4.70
  -5   4  12   31.20    4.70
   4  -4 -12   21.50    5.20
   4  -4 -12   20.70    7.50
  -4   4  12   25.70    4.50
   3  -4 -12    2.70    4.40
   3  -4 -12    1.90    6.50
  -3   4  12   13.20    3.40
   2  -4 -12   -4.10    6.20
   2  -4 -12   -1.20    4.60
  -2   4  12    5.10    2.70
   1  -4 -12   62.49    9.60
   1  -4 -12   74.99    8.10
  -1   4  12   85.89    6.00
   0  -4 -12  130.49   10.60
   0  -4 -12  128.49   13.20
   0   4  12  110.59    7.00
  -1  -4 -12   57.89    9.30
  -1  -4 -12   73.19    8.80
   1   4  12   69.59    7.90
  -2  -4 -12  311.97   17.80
  -2  -4 -12  331.57   18.40
  -2  -4 -12  307.37   16.50
   2   4  12  337.47   15.60
   5  -5 -12    0.30    6.50
   5  -5 -12   -1.80    6.30
  -5   5  12    0.10    3.00
   4  -5 -12   92.89    8.80
   4  -5 -12   93.99   11.40
  -4   5  12   93.99    6.90
   3  -5 -12   70.59    7.90
   3  -5 -12   77.79   11.30
  -3   5  12   75.09    6.50
   2  -5 -12   12.00    5.70
   2  -5 -12   23.00    7.70
  -2   5  12   21.60    3.90
   1  -5 -12  494.25   22.70
   1  -5 -12  495.45   18.70
  -1   5  12  484.65   15.70
   0  -5 -12   -0.80    5.50
   0  -5 -12   -1.10    7.00
   0   5  12    5.10    3.40
  -1  -5 -12   18.70    8.60
  -1  -5 -12    8.60    6.40
   1   5  12    7.40    5.00
   4  -6 -12   15.50    5.40
   4  -6 -12   19.00    8.30
  -4   6  12   19.00    4.30
   3  -6 -12  105.29   12.00
   3  -6 -12  119.89   10.00
  -3   6  12  115.69    7.70
   2  -6 -12  207.48   12.70
   2  -6 -12  217.48   16.90
  -2   6  12  211.98   10.20
   1  -6 -12   63.09   11.00
   1  -6 -12   56.59    8.50
  -1   6  12   42.10    5.40
   0  -6 -12    8.80    6.50
   0  -6 -12   15.80    8.50
   0   6  12    7.90    3.90
   0   7 -13   28.80    8.80
   0   7 -13   32.80    6.20
   0  -7  13   40.40    7.00
  -1   7 -13    6.70    7.60
  -1   7 -13    9.00    4.90
   1  -7  13   17.80    5.90
  -2   7 -13  103.49    9.40
  -2   7 -13   86.89   11.50
  -2   7 -13  104.99   11.20
   2  -7  13   96.89    9.70
  -3   7 -13   62.19   11.20
  -3   7 -13   61.29    7.80
   3  -7  13   60.09    8.20
   1   6 -13   -3.10    3.80
   1   6 -13   -6.10    6.60
  -1  -6  13    7.70    5.10
   0   6 -13    7.20    4.50
   0   6 -13   -0.50    6.80
   0  -6  13    4.50    5.20
  -1   6 -13  181.38   13.70
  -1   6 -13  175.58   11.20
   1  -6  13  174.78   11.60
  -2   6 -13   67.29    8.00
  -2   6 -13   46.40    9.80
  -2   6 -13   52.49    8.60
   2  -6  13   65.29    8.20
  -3   6 -13   34.50    9.60
  -3   6 -13   43.50    6.60
   3  -6  13   42.70    7.10
  -4   6 -13  147.49   14.40
  -4   6 -13  155.88   11.20
   4  -6  13  148.69   11.00
   2   5 -13   20.50    8.40
   2   5 -13   29.40    5.90
   1   5 -13   19.80    5.20
   1   5 -13   44.50    8.70
  -1  -5  13   44.80    6.90
   0   5 -13   90.69   10.30
   0   5 -13   83.29    8.30
   0  -5  13   93.69    9.30
  -1   5 -13   57.19    7.00
  -1   5 -13   68.39    8.80
  -2   5 -13   64.69    8.60
  -2   5 -13   78.69    8.50
  -2   5 -13   63.19   10.00
   2  -5  13   85.39    9.00
  -3   5 -13   95.79   12.10
  -3   5 -13   67.49    7.90
   3  -5  13   64.19    7.90
  -4   5 -13   65.99    8.40
  -4   5 -13   74.29   10.90
   4  -5  13   62.69    8.20
   3   4 -13    8.60    4.40
   3   4 -13   14.00    7.60
  -3  -4  13    9.50    5.30
   2   4 -13   98.59    8.80
   2   4 -13   94.59   11.20
   1   4 -13  429.16   16.20
   1   4 -13  375.76   17.80
  -1  -4  13  435.26   16.60
   0   4 -13    1.40    4.20
   0   4 -13   -3.50    5.60
   0  -4  13   -4.60    4.00
  -1   4 -13   50.49    8.10
  -1   4 -13   40.20    6.40
   1  -4  13   43.80    6.80
  -2   4 -13   32.80    7.00
  -2   4 -13   34.60    8.10
  -2   4 -13   30.00    5.90
   2  -4  13   39.80    6.60
  -3   4 -13    6.10    5.00
  -3   4 -13   13.30    8.10
   3  -4  13    8.40    4.90
  -4   4 -13    2.90    5.30
  -4   4 -13   20.60    8.90
   4  -4  13    2.60    4.70
   4   3 -13   32.00    9.10
   4   3 -13   30.40    5.90
  -4  -3  13   22.30    6.00
   3   3 -13   33.70    6.00
   3   3 -13   32.70    8.60
   2   3 -13    5.60    5.90
   2   3 -13   15.00    4.60
   1   3 -13  120.69   12.10
   1   3 -13  122.59    8.90
  -1  -3  13  113.89    9.10
   0   3 -13   61.09    8.70
   0   3 -13   49.00    6.80
   0  -3  13   52.99    7.10
  -1   3 -13   24.50    6.30
  -1   3 -13   26.50    5.90
   1  -3  13   21.10    5.60
  -2   3 -13   18.50    5.40
  -2   3 -13   10.60    5.70
  -2   3 -13   -0.10    7.10
   2  -3  13   11.50    4.80
  -3   3 -13  447.86   17.60
  -3   3 -13  424.86   19.50
   3  -3  13  451.65   17.40
  -4   3 -13   14.00    6.20
  -4   3 -13    7.70    8.30
   4  -3  13   28.80    6.30
   4   2 -13  335.77   13.60
   4   2 -13  341.67   18.50
  -4  -2  13  325.27   14.30
   3   2 -13   35.10    5.80
   3   2 -13   34.50    8.60
   2   2 -13    7.70    4.30
   2   2 -13    0.10    6.10
   1   2 -13   25.60    5.50
   1   2 -13   28.10    7.30
  -1  -2  13   14.40    4.70
   0   2 -13   -0.10    5.70
   0   2 -13    1.80    4.30
   0  -2  13   -0.30    3.90
  -1   2 -13    3.80    6.90
  -1   2 -13   -0.10    5.40
  -1   2 -13    5.40    4.60
   1  -2  13    5.00    4.20
  -2   2 -13   79.19    8.50
  -2   2 -13   60.99    9.60
  -2   2 -13   62.59    8.10
   2  -2  13   68.09    8.00
  -3   2 -13   94.19   10.70
  -3   2 -13   94.79    9.30
   3  -2  13   99.69    9.10
  -4   2 -13  270.17   17.20
  -4   2 -13  283.37   14.70
   4  -2  13  279.97   13.90
   4   1 -13   85.49    7.80
   4   1 -13   73.19   10.50
   3   1 -13   34.60    5.70
   3   1 -13   33.70    7.80
   2   1 -13   94.49    8.10
   2   1 -13   95.89   10.50
   1   1 -13    0.70    5.70
   1   1 -13    2.40    4.20
  -1  -1  13    7.30    4.20
   0   1 -13  650.63   21.10
   0   1 -13  639.74   23.10
   0  -1  13  645.64   20.90
  -1   1 -13  288.77   13.50
  -1   1 -13  263.27   15.70
  -1   1 -13  281.17   14.70
   1  -1  13  285.87   13.10
  -2   1 -13   -0.90    4.50
  -2   1 -13    5.10    5.10
  -2   1 -13    1.60    7.00
   2  -1  13    1.60    4.30
  -3   1 -13   18.70    7.90
  -3   1 -13   18.70    6.20
  -3   1 -13   19.10    6.80
   3  -1  13   36.20    6.40
  -4   1 -13   12.50    7.50
  -4   1 -13   28.30    7.40
  -4   1 -13   10.00    7.90
   4  -1  13   21.10    6.20
   5   0 -13   10.30    7.80
   4   0 -13  157.28    9.50
   4   0 -13  146.79   13.60
   3   0 -13   10.10    4.60
   3   0 -13   20.10    7.80
   2   0 -13   -1.10    5.40
   2   0 -13    0.80    4.10
   1   0 -13   90.69   10.30
   1   0 -13  102.39    8.60
   0   0 -13    1.40    4.80
   0   0 -13   12.90    6.10
   0   0  13    0.90    4.20
  -1   0 -13  326.37   14.80
  -1   0 -13  321.27   15.90
  -1   0 -13  315.97   16.50
   1   0  13  348.67   14.70
  -2   0 -13   19.40    6.10
  -2   0 -13   19.20    6.30
  -2   0 -13   20.80    8.30
   2   0  13   25.40    5.90
  -3   0 -13   17.00    6.80
  -3   0 -13   14.90    6.30
  -3   0 -13   17.30    8.10
   3   0  13   18.10    6.00
  -4   0 -13   19.60    7.20
  -4   0 -13   16.70    8.30
  -4   0 -13   32.10    9.10
   4   0  13   29.00    6.90
   5  -1 -13  246.58   11.30
   5  -1 -13  260.67   16.60
   4  -1 -13   75.09    7.40
   4  -1 -13   69.59   10.20
   3  -1 -13  154.28    9.60
   3  -1 -13  157.48   13.90
   2  -1 -13  153.38   13.10
   2  -1 -13  172.18   10.40
   1  -1 -13   54.69    8.30
   1  -1 -13   48.70    6.60
   0  -1 -13   98.39    9.00
   0  -1 -13   93.69   10.50
   0   1  13   96.59    9.00
  -1  -1 -13    5.50    5.10
  -1  -1 -13    8.50    5.90
  -1  -1 -13    8.50    6.90
   1   1  13   11.90    4.90
  -2  -1 -13   24.70    7.00
  -2  -1 -13   23.20    8.00
  -2  -1 -13   25.60    7.00
   2   1  13   26.70    6.10
  -3  -1 -13   41.50    9.40
  -3  -1 -13   41.20    7.80
  -3  -1 -13   42.40    9.20
  -3  -1 -13   49.10    8.20
   3   1  13   48.80    7.20
   5  -2 -13   21.60    8.20
   4  -2 -13  150.18   14.30
   4  -2 -13  130.49    9.20
   3  -2 -13   -1.90    6.00
   3  -2 -13    2.50    4.30
   2  -2 -13   67.49    9.80
   2  -2 -13   62.79    7.30
   1  -2 -13   15.90    5.60
   1  -2 -13   10.10    7.10
   0  -2 -13    2.10    7.00
   0  -2 -13   -5.20    4.50
   0  -2 -13    4.00    5.70
   0   2  13   -1.40    4.30
  -1  -2 -13    5.30    6.60
  -1  -2 -13    0.40    7.00
  -1  -2 -13  -10.20    4.80
   1   2  13    0.00    4.60
  -2  -2 -13   17.30    7.00
  -2  -2 -13   13.10    6.90
  -2  -2 -13   18.00    7.90
   2   2  13   11.50    5.40
  -3  -2 -13   21.70    7.40
  -3  -2 -13   11.30    7.10
  -3  -2 -13   17.90    8.90
  -3  -2 -13    0.30    7.50
   4  -3 -13    2.60    7.00
   4  -3 -13    1.90    4.40
   3  -3 -13  126.99   12.50
   3  -3 -13  117.39    9.40
   2  -3 -13    4.30    5.00
   2  -3 -13    4.50    7.20
   1  -3 -13    3.80    5.10
   1  -3 -13    2.60    6.50
   0  -3 -13  106.49   10.10
   0  -3 -13  105.49   11.90
   0  -3 -13  103.99   10.60
  -1  -3 -13  357.96   16.60
  -1  -3 -13  383.86   19.30
  -1  -3 -13  341.17   16.90
   1   3  13  378.96   16.10
  -2  -3 -13    6.10    7.00
  -2  -3 -13   16.90    6.70
  -2  -3 -13    9.30    8.40
   2   3  13    4.50    5.10
   4  -4 -13   89.79    8.30
   4  -4 -13   76.09   11.40
   3  -4 -13   52.79    7.30
   3  -4 -13   60.09   10.20
   2  -4 -13   -0.10    7.10
   2  -4 -13    1.30    5.00
  -2   4  13    2.70    3.40
   1  -4 -13   60.79    7.90
   1  -4 -13   44.80    9.40
  -1   4  13   57.29    5.60
   0  -4 -13   51.19   10.10
   0  -4 -13   35.80    7.80
   0   4  13   43.90    5.20
  -1  -4 -13  188.18   15.60
  -1  -4 -13  173.68   13.50
   1   4  13  151.88    8.90
   1   4  13  189.88   11.90
   3  -5 -13   70.69   10.60
   2  -5 -13  233.08   16.60
   2  -5 -13  237.38   13.50
  -2   5  13  232.68   10.40
   1  -5 -13  178.28   12.30
   1  -5 -13  176.88   14.90
  -1   5  13  163.48    8.90
   0   5 -14  254.77   16.90
   0   5 -14  256.97   13.40
   0  -5  14  273.67   14.20
  -1   5 -14   26.20    9.40
  -1   5 -14   19.90    7.90
  -1   5 -14   27.30    6.40
   1  -5  14   33.20    7.10
  -2   5 -14   19.80    7.10
  -2   5 -14   25.20    6.20
  -2   5 -14   25.50    9.60
   2  -5  14   26.90    6.50
  -3   5 -14   65.09   11.40
   1   4 -14   17.20    5.50
   1   4 -14   13.80    7.70
  -1  -4  14   15.20    5.70
   0   4 -14  380.46   18.80
   0   4 -14  347.37   15.80
   0  -4  14  390.46   16.30
  -1   4 -14   27.50    7.50
  -1   4 -14   15.50    5.60
  -1   4 -14   31.30    9.50
   1  -4  14   34.60    6.70
  -2   4 -14   10.40    8.60
  -2   4 -14   -2.70    5.70
  -2   4 -14    6.80    5.50
   2  -4  14    0.60    4.60
  -3   4 -14   45.30    7.80
  -3   4 -14   58.99   11.40
   3  -4  14   55.69    8.20
   2   3 -14   85.29   11.00
   2   3 -14  103.99    9.40
   1   3 -14   79.69   10.80
   1   3 -14   78.09    8.40
  -1  -3  14   79.59    9.20
   0   3 -14   20.80    7.60
   0   3 -14   15.90    5.70
   0  -3  14   16.70    5.50
  -1   3 -14   41.00    9.40
  -1   3 -14   44.20    7.00
  -1   3 -14   37.80    8.10
   1  -3  14   41.90    6.90
  -2   3 -14   38.50    7.40
  -2   3 -14   41.10    7.90
  -2   3 -14   54.79   10.20
   2  -3  14   51.19    7.60
  -3   3 -14   20.80    6.50
  -3   3 -14   18.90    9.60
   3  -3  14   16.40    5.90
   3   2 -14   26.50    8.80
   3   2 -14   34.90    6.30
   2   2 -14    8.20    4.90
   2   2 -14    4.00    7.30
   1   2 -14  147.19   10.40
   1   2 -14  156.28   13.60
   0   2 -14    0.00    6.00
   0   2 -14    5.20    5.00
   0  -2  14    8.90    5.00
  -1   2 -14   30.10    6.50
  -1   2 -14   23.70    7.30
  -1   2 -14   26.90    8.70
   1  -2  14   29.80    6.10
  -2   2 -14   21.90    7.00
  -2   2 -14   20.90    6.40
  -2   2 -14   12.70    8.80
   2  -2  14   32.50    6.50
  -3   2 -14  129.29   13.50
  -3   2 -14  118.69   11.20
   3  -2  14  111.09   10.20
   3   1 -14    2.20    4.50
   3   1 -14    7.00    7.40
   2   1 -14    4.30    6.20
   2   1 -14    5.30    4.50
   1   1 -14  186.78   14.40
   1   1 -14  197.38   12.00
   0   1 -14  178.88   13.80
   0   1 -14  209.28   12.10
   0  -1  14  217.48   12.10
  -1   1 -14   34.00    7.90
  -1   1 -14   30.10    6.70
  -1   1 -14   31.30    8.70
   1  -1  14   49.00    7.20
  -2   1 -14  122.79   11.00
  -2   1 -14  104.79   12.00
  -2   1 -14  111.19   11.20
   2  -1  14  126.49   10.40
  -3   1 -14   13.50    6.80
  -3   1 -14   15.90    9.00
   3   0 -14   20.90    5.50
   3   0 -14   25.60    8.00
   2   0 -14   -1.40    4.60
   2   0 -14    3.80    6.30
   1   0 -14   14.20    5.60
   1   0 -14    6.10    6.30
   0   0 -14  279.17   16.20
   0   0 -14  303.87   14.50
   0   0  14  305.77   14.20
  -1   0 -14   39.00    9.50
  -1   0 -14   56.29    8.40
  -1   0 -14   53.29    7.90
   1   0  14   45.90    7.20
  -2   0 -14   26.00    7.20
  -2   0 -14   26.00    7.20
  -2   0 -14   27.40    9.00
   2   0  14   23.00    6.30
   3  -1 -14  341.77   19.20
   3  -1 -14  299.27   14.00
   2  -1 -14    1.10    7.00
   2  -1 -14    2.70    4.80
   1  -1 -14   47.80    9.00
   1  -1 -14   41.80    7.00
   0  -1 -14    9.70    7.50
   0  -1 -14   -4.30    6.40
   0  -1 -14    1.00    5.10
   0   1  14   -0.30    7.50
  -1  -1 -14   63.79    9.60
  -1  -1 -14   64.79    8.80
  -1  -1 -14   53.39    9.80
   1   1  14   71.79    8.30
  -2  -1 -14    6.20    7.70
  -2  -1 -14   -4.60    5.70
  -2  -1 -14    0.90    5.70
   3  -2 -14  105.79    9.40
   3  -2 -14  115.09   12.70
   2  -2 -14  100.69    9.40
   2  -2 -14  117.29   12.60
   1  -2 -14   90.19   11.50
   1  -2 -14   82.99    8.90
   0  -2 -14  114.19   10.70
   0  -2 -14  110.49   12.20
   0  -2 -14  105.59   11.40
  -1  -2 -14  191.58   14.90
  -1  -2 -14  187.08   14.90
  -1  -2 -14  212.98   13.50
   1   2  14  222.58   12.80
   2  -3 -14    6.60    8.00
   2  -3 -14   -4.50    5.00
   1  -3 -14   15.50    6.30
   1  -3 -14   17.60    8.00
   0  -3 -14   37.70    9.10
   0   0   0    0.00    0.00

_computing_structure_solution     'SHELXT 2014/5 (Sheldrick, 2014)'
;
_shelx_hkl_checksum              34318
loop_
_space_group_symop_operation_xyz
'x, y, z'
'-x, -y, -z'
loop_
_atom_site_label
_atom_site_type_symbol
_atom_site_fract_x
_atom_site_fract_y
_atom_site_fract_z
_atom_site_U_iso_or_equiv
_atom_site_adp_type
_atom_site_occupancy
_atom_site_site_symmetry_order
_atom_site_calc_flag
_atom_site_refinement_flags_posn
_atom_site_refinement_flags_adp
P1 P 0.93411(9) 0.22221(7) 0.32554(6) 0.01334(15) Uani 1 1 d . .
Si1 Si 0.69784(9) 0.30113(8) 0.33073(6) 0.01443(16) Uani 1 1 d . .
Si2 Si 0.17526(9) 0.00882(8) 0.75555(6) 0.01409(16) Uani 1 1 d . .
C1 C 1.0749(3) 0.3328(3) 0.2170(2) 0.0163(5) Uani 1 1 d . .
C2 C 1.0385(4) 0.3067(3) 0.0955(3) 0.0270(6) Uani 1 1 d . .
H2 H 0.9352 0.2261 0.0633 0.032 Uiso 1 1 calc R U
C3 C 1.1526(5) 0.3979(4) 0.0209(3) 0.0339(7) Uani 1 1 d . .
H3 H 1.1263 0.3794 -0.0618 0.041 Uiso 1 1 calc R U
C4 C 1.3029(4) 0.5144(3) 0.0661(3) 0.0297(7) Uani 1 1 d . .
H4 H 1.3808 0.5757 0.0147 0.036 Uiso 1 1 calc R U
C5 C 1.3407(4) 0.5424(3) 0.1864(3) 0.0282(7) Uani 1 1 d . .
H5 H 1.4441 0.6234 0.2179 0.034 Uiso 1 1 calc R U
C6 C 1.2273(4) 0.4519(3) 0.2614(3) 0.0214(6) Uani 1 1 d . .
H6 H 1.2541 0.4716 0.3440 0.026 Uiso 1 1 calc R U
C7 C 0.5443(4) 0.2434(3) 0.1938(2) 0.0219(6) Uani 1 1 d . .
H7A H 0.4648 0.3001 0.1938 0.033 Uiso 1 1 calc R U
H7B H 0.4680 0.1413 0.1912 0.033 Uiso 1 1 calc R U
H7C H 0.6196 0.2587 0.1246 0.033 Uiso 1 1 calc R U
C8 C 0.8019(4) 0.5015(3) 0.3535(3) 0.0236(6) Uani 1 1 d . .
H8A H 0.7039 0.5410 0.3610 0.035 Uiso 1 1 calc R U
H8B H 0.8748 0.5367 0.2860 0.035 Uiso 1 1 calc R U
H8C H 0.8818 0.5320 0.4255 0.035 Uiso 1 1 calc R U
C9 C 0.5584(3) 0.2273(3) 0.4587(2) 0.0139(5) Uani 1 1 d . .
C10 C 0.3720(4) 0.2085(3) 0.4572(2) 0.0168(5) Uani 1 1 d . .
H10 H 0.3202 0.2380 0.3937 0.020 Uiso 1 1 calc R U
C11 C 0.2605(3) 0.1475(3) 0.5464(2) 0.0159(5) Uani 1 1 d . .
H11 H 0.1342 0.1364 0.5429 0.019 Uiso 1 1 calc R U
C12 C 0.3309(3) 0.1022(3) 0.6415(2) 0.0144(5) Uani 1 1 d . .
C13 C 0.5189(3) 0.1238(3) 0.6443(2) 0.0159(5) Uani 1 1 d . .
H13 H 0.5711 0.0957 0.7084 0.019 Uiso 1 1 calc R U
C14 C 0.6305(3) 0.1856(3) 0.5553(2) 0.0158(5) Uani 1 1 d . .
H14 H 0.7577 0.1997 0.5600 0.019 Uiso 1 1 calc R U
C15 C -0.0297(4) 0.0630(3) 0.7666(3) 0.0220(6) Uani 1 1 d . .
H15A H 0.0106 0.1666 0.7908 0.033 Uiso 1 1 calc R U
H15B H -0.1109 0.0108 0.8250 0.033 Uiso 1 1 calc R U
H15C H -0.0966 0.0402 0.6897 0.033 Uiso 1 1 calc R U
C16 C 0.3039(4) 0.0595(3) 0.9025(2) 0.0231(6) Uani 1 1 d . .
H16A H 0.4075 0.0259 0.9000 0.035 Uiso 1 1 calc R U
H16B H 0.2210 0.0149 0.9632 0.035 Uiso 1 1 calc R U
H16C H 0.3504 0.1643 0.9212 0.035 Uiso 1 1 calc R U
loop_
_atom_site_aniso_label
_atom_site_aniso_U_11
_atom_site_aniso_U_22
_atom_site_aniso_U_33
_atom_site_aniso_U_23
_atom_site_aniso_U_13
_atom_site_aniso_U_12
P1 0.0144(3) 0.0127(3) 0.0118(3) 0.0021(2) 0.0021(2) 0.0032(2)
Si1 0.0163(3) 0.0148(3) 0.0125(3) 0.0039(3) 0.0028(2) 0.0054(3)
Si2 0.0161(3) 0.0135(3) 0.0114(3) 0.0018(2) 0.0026(2) 0.0038(3)
C1 0.0177(12) 0.0143(12) 0.0181(12) 0.0042(10) 0.0057(9) 0.0065(10)
C2 0.0329(16) 0.0212(14) 0.0198(14) 0.0041(11) 0.0049(12) 0.0006(12)
C3 0.0482(19) 0.0264(16) 0.0206(15) 0.0065(12) 0.0117(13) 0.0044(14)
C4 0.0368(16) 0.0168(13) 0.0358(17) 0.0097(12) 0.0203(13) 0.0078(12)
C5 0.0267(15) 0.0148(13) 0.0391(18) 0.0051(12) 0.0117(13) 0.0021(11)
C6 0.0237(13) 0.0156(13) 0.0229(14) 0.0024(10) 0.0052(11) 0.0044(10)
C7 0.0236(13) 0.0280(15) 0.0165(13) 0.0062(11) 0.0010(10) 0.0112(11)
C8 0.0290(15) 0.0160(13) 0.0262(15) 0.0050(11) 0.0081(11) 0.0080(11)
C9 0.0177(12) 0.0101(11) 0.0126(11) 0.0006(9) 0.0029(9) 0.0038(9)
C10 0.0191(12) 0.0169(12) 0.0154(12) 0.0043(10) 0.0008(9) 0.0072(10)
C11 0.0141(11) 0.0154(12) 0.0179(12) 0.0021(10) 0.0021(9) 0.0050(9)
C12 0.0168(11) 0.0118(11) 0.0128(11) 0.0003(9) 0.0024(9) 0.0033(9)
C13 0.0184(12) 0.0161(12) 0.0128(11) 0.0033(9) -0.0001(9) 0.0056(10)
C14 0.0151(11) 0.0180(12) 0.0139(12) 0.0024(10) 0.0014(9) 0.0056(10)
C15 0.0210(13) 0.0210(14) 0.0251(14) 0.0025(11) 0.0067(11) 0.0089(11)
C16 0.0276(14) 0.0229(14) 0.0146(13) 0.0014(11) 0.0004(10) 0.0043(11)
loop_
_atom_type_symbol
_atom_type_description
_atom_type_scat_dispersion_real
_atom_type_scat_dispersion_imag
_atom_type_scat_source
C C 0.0033 0.0016 'International Tables Vol C Tables 4.2.6.8 and 6.1.1.4'
H H 0.0000 0.0000 'International Tables Vol C Tables 4.2.6.8 and 6.1.1.4'
Si Si 0.0817 0.0704 'International Tables Vol C Tables 4.2.6.8 and 6.1.1.4'
P P 0.1023 0.0942 'International Tables Vol C Tables 4.2.6.8 and 6.1.1.4'
loop_
_geom_angle_atom_site_label_1
_geom_angle_atom_site_label_2
_geom_angle_atom_site_label_3
_geom_angle
_geom_angle_site_symmetry_3
C1 P1 Si1 99.92(8) .
C1 P1 Si2 108.16(9) 2_656
Si1 P1 Si2 107.66(4) 2_656
C8 Si1 C7 109.32(13) .
C8 Si1 C9 111.36(12) .
C7 Si1 C9 108.82(12) .
C8 Si1 P1 106.40(10) .
C7 Si1 P1 114.10(9) .
C9 Si1 P1 106.85(8) .
C15 Si2 C12 110.90(12) .
C15 Si2 C16 108.31(13) .
C12 Si2 C16 109.20(12) .
C15 Si2 P1 105.33(10) 2_656
C12 Si2 P1 102.63(8) 2_656
C16 Si2 P1 120.25(10) 2_656
C6 C1 C2 118.3(2) .
C6 C1 P1 116.8(2) .
C2 C1 P1 124.9(2) .
C1 C2 C3 120.4(3) .
C1 C2 H2 119.8 .
C3 C2 H2 119.8 .
C4 C3 C2 120.5(3) .
C4 C3 H3 119.8 .
C2 C3 H3 119.8 .
C3 C4 C5 119.9(3) .
C3 C4 H4 120.0 .
C5 C4 H4 120.0 .
C4 C5 C6 119.9(3) .
C4 C5 H5 120.0 .
C6 C5 H5 120.0 .
C5 C6 C1 120.9(3) .
C5 C6 H6 119.5 .
C1 C6 H6 119.5 .
Si1 C7 H7A 109.5 .
Si1 C7 H7B 109.5 .
H7A C7 H7B 109.5 .
Si1 C7 H7C 109.5 .
H7A C7 H7C 109.5 .
H7B C7 H7C 109.5 .
Si1 C8 H8A 109.5 .
Si1 C8 H8B 109.5 .
H8A C8 H8B 109.5 .
Si1 C8 H8C 109.5 .
H8A C8 H8C 109.5 .
H8B C8 H8C 109.5 .
C10 C9 C14 117.5(2) .
C10 C9 Si1 119.09(19) .
C14 C9 Si1 123.35(19) .
C11 C10 C9 121.4(2) .
C11 C10 H10 119.3 .
C9 C10 H10 119.3 .
C10 C11 C12 121.2(2) .
C10 C11 H11 119.4 .
C12 C11 H11 119.4 .
C11 C12 C13 117.3(2) .
C11 C12 Si2 120.60(19) .
C13 C12 Si2 122.01(19) .
C14 C13 C12 121.4(2) .
C14 C13 H13 119.3 .
C12 C13 H13 119.3 .
C13 C14 C9 121.0(2) .
C13 C14 H14 119.5 .
C9 C14 H14 119.5 .
Si2 C15 H15A 109.5 .
Si2 C15 H15B 109.5 .
H15A C15 H15B 109.5 .
Si2 C15 H15C 109.5 .
H15A C15 H15C 109.5 .
H15B C15 H15C 109.5 .
Si2 C16 H16A 109.5 .
Si2 C16 H16B 109.5 .
H16A C16 H16B 109.5 .
Si2 C16 H16C 109.5 .
H16A C16 H16C 109.5 .
H16B C16 H16C 109.5 .
loop_
_geom_bond_atom_site_label_1
_geom_bond_atom_site_label_2
_geom_bond_distance
_geom_bond_site_symmetry_2
P1 C1 1.844(3) .
P1 Si1 2.2498(9) .
P1 Si2 2.2544(9) 2_656
Si1 C8 1.866(3) .
Si1 C7 1.870(3) .
Si1 C9 1.880(3) .
Si2 C15 1.865(3) .
Si2 C12 1.872(3) .
Si2 C16 1.874(3) .
Si2 P1 2.2544(9) 2_656
C1 C6 1.393(4) .
C1 C2 1.393(4) .
C2 C3 1.394(4) .
C2 H2 0.9500 .
C3 C4 1.373(5) .
C3 H3 0.9500 .
C4 C5 1.381(5) .
C4 H4 0.9500 .
C5 C6 1.391(4) .
C5 H5 0.9500 .
C6 H6 0.9500 .
C7 H7A 0.9800 .
C7 H7B 0.9800 .
C7 H7C 0.9800 .
C8 H8A 0.9800 .
C8 H8B 0.9800 .
C8 H8C 0.9800 .
C9 C10 1.395(3) .
C9 C14 1.401(3) .
C10 C11 1.388(3) .
C10 H10 0.9500 .
C11 C12 1.399(4) .
C11 H11 0.9500 .
C12 C13 1.401(3) .
C13 C14 1.389(3) .
C13 H13 0.9500 .
C14 H14 0.9500 .
C15 H15A 0.9800 .
C15 H15B 0.9800 .
C15 H15C 0.9800 .
C16 H16A 0.9800 .
C16 H16B 0.9800 .
C16 H16C 0.9800 .
