#------------------------------------------------------------------------------
#$Date: 2019-11-25 20:08:08 +0200 (Mon, 25 Nov 2019) $
#$Revision: 241700 $
#$URL: file:///home/coder/svn-repositories/cod/cif/4/13/15/4131509.cif $
#------------------------------------------------------------------------------
#
# This file is available in the Crystallography Open Database (COD),
# http://www.crystallography.net/
#
# All data on this site have been placed in the public domain by the
# contributors.
#
data_4131509
loop_
_publ_author_name
'Zhang, Wan-Ying'
'Tang, Yuan-Yuan'
'Li, Peng-Fei'
'Shi, Ping-Ping'
'Liao, Wei-Qiang'
'Fu, Da-Wei'
'Ye, Heng-Yun'
'Zhang, Yi'
'Xiong, Ren-Gen'
_publ_section_title
;
 Precise Molecular Design of High-T<sub>c</sub> 3D Organic-Inorganic
 Perovskite Ferroelectric: [MeHdabco]RbI<sub>3</sub> (MeHdabco =
 N-Methyl-1,4-diazoniabicyclo[2.2.2]octane).
;
_journal_issue                   31
_journal_name_full               'Journal of the American Chemical Society'
_journal_page_first              10897
_journal_page_last               10902
_journal_paper_doi               10.1021/jacs.7b06013
_journal_volume                  139
_journal_year                    2017
_chemical_formula_sum            'C7 H16 I3 N2 Rb'
_chemical_formula_weight         594.39
_space_group_crystal_system      cubic
_space_group_IT_number           207
_space_group_name_Hall           'P 4 2 3'
_space_group_name_H-M_alt        'P 4 3 2'
_audit_creation_method           SHELXL-2014/7
_cell_angle_alpha                90
_cell_angle_beta                 90
_cell_angle_gamma                90
_cell_formula_units_Z            1
_cell_length_a                   7.3827(9)
_cell_length_b                   7.3827(9)
_cell_length_c                   7.3827(9)
_cell_measurement_reflns_used    5
_cell_measurement_temperature    293(2)
_cell_measurement_theta_max      27.8187
_cell_measurement_theta_min      3.9034
_cell_volume                     402.39(8)
_computing_structure_refinement  'SHELXL-2014/7 (Sheldrick, 2014)'
_diffrn_ambient_temperature      293(2)
_diffrn_measured_fraction_theta_full 1.000
_diffrn_measured_fraction_theta_max 1.000
_diffrn_measurement_device_type  'Rigaku saturn 724'
_diffrn_radiation_type           MoK\a
_diffrn_radiation_wavelength     0.71073
_diffrn_reflns_av_R_equivalents  0.0699
_diffrn_reflns_av_unetI/netI     0.0423
_diffrn_reflns_Laue_measured_fraction_full 1.000
_diffrn_reflns_Laue_measured_fraction_max 1.000
_diffrn_reflns_limit_h_max       5
_diffrn_reflns_limit_h_min       -9
_diffrn_reflns_limit_k_max       8
_diffrn_reflns_limit_k_min       -5
_diffrn_reflns_limit_l_max       9
_diffrn_reflns_limit_l_min       -8
_diffrn_reflns_number            1422
_diffrn_reflns_point_group_measured_fraction_full 1.000
_diffrn_reflns_point_group_measured_fraction_max 1.000
_diffrn_reflns_theta_full        25.242
_diffrn_reflns_theta_max         27.334
_diffrn_reflns_theta_min         2.759
_exptl_absorpt_coefficient_mu    8.802
_exptl_absorpt_correction_T_max  1.0000
_exptl_absorpt_correction_T_min  0.4113
_exptl_absorpt_correction_type   multi-scan
_exptl_crystal_colour            COLORLESS
_exptl_crystal_density_diffrn    2.453
_exptl_crystal_description       BLOCK
_exptl_crystal_F_000             268
_exptl_crystal_size_max          0.22
_exptl_crystal_size_mid          0.17
_exptl_crystal_size_min          0.15
_refine_diff_density_max         0.926
_refine_diff_density_min         -0.679
_refine_diff_density_rms         0.178
_refine_ls_abs_structure_details
;
 Classical Flack method preferred over Parsons because s.u. lower.
;
_refine_ls_abs_structure_Flack   10(10)
_refine_ls_extinction_method     none
_refine_ls_goodness_of_fit_ref   1.246
_refine_ls_hydrogen_treatment    undef
_refine_ls_matrix_type           full
_refine_ls_number_parameters     9
_refine_ls_number_reflns         169
_refine_ls_number_restraints     6
_refine_ls_restrained_S_all      1.223
_refine_ls_R_factor_all          0.1362
_refine_ls_R_factor_gt           0.1057
_refine_ls_shift/su_max          0.002
_refine_ls_shift/su_mean         0.000
_refine_ls_structure_factor_coef Fsqd
_refine_ls_weighting_details
'w=1/[\s^2^(Fo^2^)+(0.1257P)^2^+1.4719P] where P=(Fo^2^+2Fc^2^)/3'
_refine_ls_weighting_scheme      calc
_refine_ls_wR_factor_gt          0.2868
_refine_ls_wR_factor_ref         0.3184
_reflns_Friedel_coverage         0.320
_reflns_Friedel_fraction_full    1.000
_reflns_Friedel_fraction_max     1.000
_reflns_number_gt                122
_reflns_number_total             169
_reflns_threshold_expression     'I > 2\s(I)'
_cod_data_source_file            ja7b06013_si_003.cif
_cod_data_source_block           shelxl
_cod_depositor_comments
;
The following automatic conversions were performed:

data item '_exptl_absorpt_correction_type' value 'Multi-scan' was
changed to 'multi-scan' in accordance with the
/home/saulius/struct/COD-crude-data/automatic-downloads/DataCite-retrospective/ACS/depositions/lib/dictionaries/cif_core.dic
dictionary named 'cif_core.dic' version 2.4.2 last updated on
2011-04-26.

Automatic conversion script
Id: cif_fix_values 6909 2019-04-08 15:41:33Z antanas 
;
_cod_original_cell_volume        402.39(15)
_cod_database_code               4131509
_shelx_shelxl_version_number     2014/7
_shelx_space_group_comment
;
The symmetry employed for this shelxl refinement is uniquely defined
by the following loop, which should always be used as a source of
symmetry information in preference to the above space-group names.
They are only intended as comments.
;
_shelx_res_file
;

    shelxl.res created by SHELXL-2014/7


TITL shelxl in P432
CELL 0.71073   7.3827   7.3827   7.3827  90.000  90.000  90.000
ZERR    1.00   0.0009   0.0009   0.0009   0.000   0.000   0.000
LATT -1
SYMM -X, -Y, Z
SYMM -X, Y, -Z
SYMM X, -Y, -Z
SYMM Z, X, Y
SYMM Z, -X, -Y
SYMM -Z, -X, Y
SYMM -Z, X, -Y
SYMM Y, Z, X
SYMM -Y, Z, -X
SYMM Y, -Z, -X
SYMM -Y, -Z, X
SYMM Y, X, -Z
SYMM -Y, -X, -Z
SYMM Y, -X, Z
SYMM -Y, X, Z
SYMM X, Z, -Y
SYMM -X, Z, Y
SYMM -X, -Z, -Y
SYMM X, -Z, Y
SYMM Z, Y, -X
SYMM Z, -Y, X
SYMM -Z, Y, X
SYMM -Z, -Y, -X
SFAC C H N RB I
UNIT 7 16 2 1 3

L.S. 24
BOND
ACTA
FMAP 2
PLAN 20

ISOR 0.001 C1

WGHT    0.125700    1.471900
FVAR       7.42506
RB2   4    0.000000    0.000000    0.000000    10.04167    0.09870    0.09870 =
         0.09870    0.00000    0.00000    0.00000
I1    5    0.000000   -0.500000    0.000000    10.12500    0.20650    0.08704 =
         0.20650    0.00000    0.00000    0.00000
C1    1    0.374239   -0.625761   -0.500000    10.39000    0.32296    0.32296 =
         0.32297    0.00000    0.00000   -0.00002
HKLF 4

REM  shelxl in P432
REM R1 =  0.1057 for     122 Fo > 4sig(Fo)  and  0.1362 for all     169 data
REM      9 parameters refined using      6 restraints

END

WGHT      0.1239      1.5148

REM Highest difference peak  0.926,  deepest hole -0.679,  1-sigma level  0.178
Q1    1   0.0000 -0.5000 -0.5000  10.12500  0.05    0.82
Q2    1   0.2430 -0.5000 -0.5000  10.25000  0.05    0.57
Q3    1   0.3119 -0.6881 -0.3119  10.33333  0.05    0.37
Q4    1   0.0000 -0.6589  0.3411  10.50000  0.05    0.36
Q5    1   0.3172 -0.6215  0.0040  11.00000  0.05    0.35
Q6    1   0.2157 -0.7843 -0.5000  10.50000  0.05    0.23
Q7    1   0.2853 -0.5961  0.0000  11.00000  0.05    0.21
Q8    1   0.0000 -0.5000 -0.2419  10.50000  0.05    0.21
Q9    1   0.0000  0.1761  0.1761  10.50000  0.05    0.21
Q10   1   0.0000  0.0000  0.2285  10.25000  0.05    0.20
Q11   1   0.2766 -0.5000  0.0910  11.00000  0.05    0.20
Q12   1   0.3292 -0.7082 -0.5000  11.00000  0.05    0.17
Q13   1   0.1888 -0.6532 -0.1803  11.00000  0.05    0.16
Q14   1   0.1759 -0.6823  0.0000  11.00000  0.05    0.15
Q15   1   0.1574 -0.7486 -0.2769  11.00000  0.05    0.15
Q16   1   0.1574 -0.7486 -0.7231  11.00000  0.05    0.15
;
_shelx_res_checksum              70095
_shelx_hkl_file
;
   0   0   172397.46 1482.44   1-0.85654 0.85654 0.51381-0.51381 0.04813 0.04813
  -1   0   072471.24 1460.10   1-0.04813-0.04813 0.15915-0.15915 0.98607-0.98607
   1   0   073884.63 1503.47   1 0.04813 0.04813 0.10310-0.10310 0.99350-0.99350
   0  -1   073782.28 1461.57   1 0.29468-0.29468-0.04813-0.04813 0.95438-0.95438
   0   1  -1 4337.76  540.81   1-0.76057 0.76057 0.50469-0.40842 0.40842-0.50469
   0  -1   1 3483.98  423.16   1-0.67176 0.67176 0.47344-0.56972 0.56972-0.47344
  -1   0  -1 4099.14  358.75   1-0.66945 0.57318 0.47253-0.47253 0.57318-0.66945
   1   0   1 3788.56  306.93   1-0.58589 0.68216 0.43747-0.43747 0.68216-0.58589
  -1  -1   0 4201.20  245.50   1-0.48928 0.39301 0.39301-0.48928 0.77855-0.77855
   1   1   0 4456.37  378.37   1-0.08249 0.17876 0.17876-0.08249 0.98042-0.98042
  -1   1   0 3066.59  626.12   1 0.02213-0.11840 0.11840-0.02213 0.99271-0.99271
   1  -1   0 4494.81  588.23   1 0.14271-0.04644 0.04644-0.14271 0.98867-0.98867
  -1   0   1 3277.27  240.78   1 0.62962-0.72589-0.27683 0.27683 0.72589-0.62962
   1   0  -1 4246.22  271.56   1 0.71138-0.61511-0.33994 0.33994 0.61511-0.71138
   0   1   1 4161.53  276.55   1 0.77641-0.77641-0.39489 0.49116 0.49116-0.39489
   0  -1  -1 3931.08  254.00   1 0.82627-0.82627-0.44350 0.34723 0.34723-0.44350
   1   1   1639038.730514.51   1-0.76333 0.85960 0.50550-0.40923 0.40223-0.30596
   1  -1   1505703.524162.07   1-0.37861 0.47488 0.33843-0.43470 0.86145-0.76518
   1  -1  -1505911.924165.57   1 0.61701-0.52074-0.26748 0.17121 0.74009-0.83636
   0   0   2999998.847837.37   1-0.85071 0.85071 0.51673-0.51673 0.09627 0.09627
   0   1  -2200412.3 4078.86   1-0.84385 0.84385 0.51830-0.42203 0.13881-0.33135
   0  -1   2207755.0 4264.97   1-0.77504 0.77504 0.50880-0.60507 0.37474-0.18219
  -2   0  -1180122.4 3657.69   1-0.50337 0.31082 0.39970-0.39970 0.76606-0.86233
   2   0   1216565.1 4369.17   1-0.32597 0.51851 0.31137-0.31137 0.89262-0.79635
  -1   2   0191190.1 3881.92   1 0.01015-0.10642 0.12541 0.06712 0.99205-0.99205
   1  -2   0188214.0 3852.46   1 0.22823-0.13196-0.00622-0.18632 0.97358-0.97358
  -2   0   1184946.6 3822.64   1 0.34684-0.53938-0.08168 0.08168 0.93436-0.83808
   2   0  -1196125.5 3942.27   1 0.53125-0.33870-0.20584 0.20584 0.82182-0.91809
   0   1   2196869.1 4020.15   1 0.82745-0.82745-0.44479 0.54106 0.34273-0.15019
   0  -1  -2207435.6 4199.74   1 0.86071-0.86071-0.49318 0.39691 0.12625-0.31879
  -1   0  -2202292.5 4178.23   1-0.80805 0.71178 0.51629-0.51629 0.28368-0.47623
   1   0   2224364.3 4588.46   1-0.72411 0.82038 0.49289-0.49289 0.48239-0.28985
   0   2  -1195038.6 3885.55   1-0.60920 0.60920 0.44763-0.25509 0.65459-0.75086
   0  -2   1199453.6 3965.04   1-0.34424 0.34424 0.32083-0.51338 0.88235-0.78608
  -2   1   0188910.8 3893.39   1-0.04240-0.15013 0.15586-0.05959 0.98686-0.98686
   0   2   1209276.6 4183.52   1 0.60303-0.60303-0.25721 0.44975 0.75510-0.65883
  -1   0   2194072.2 3965.23   1 0.77009-0.86637-0.38926 0.38926 0.50538-0.31284
   1   0  -2196066.0 3951.27   1 0.83792-0.74165-0.45684 0.45684 0.29862-0.49116
   1   2   1  953.57  229.77   1-0.84956 0.94583 0.51710-0.32455 0.10417-0.00790
   1   1   2  616.60  173.23   1-0.80619 0.90246 0.51596-0.41969 0.28952-0.09697
  -1   1  -2  948.32  358.87   1-0.73127 0.63500 0.49534-0.39907 0.46890-0.66144
  -1  -2   1  694.14  224.06   1-0.67619 0.57992 0.47518-0.66772 0.56298-0.46671
   2   1   1 1174.92  297.64   1-0.44831 0.64085 0.37320-0.27693 0.81223-0.71596
  -1   2  -1 1387.02  374.79   1-0.41399 0.31772 0.35624-0.16370 0.83767-0.93394
  -2   1  -1 1587.78  533.23   1-0.39589 0.20335 0.34716-0.25089 0.85014-0.94641
  -2   1   1  918.54  418.73   1 0.30407-0.49662-0.05413 0.15040 0.95110-0.85483
  -2  -1   1  680.68  211.50   1 0.36555-0.55809-0.09387-0.00239 0.92604-0.82977
  -1   2   1  959.62  318.77   1 0.39549-0.49177-0.11355 0.30609 0.91141-0.81514
   1  -2  -1  878.09  197.62   1 0.58179-0.48552-0.24178 0.04924 0.77656-0.87283
   2   1  -1  476.32  128.47   1 0.64291-0.45036-0.28678 0.38305 0.71022-0.80649
  -1   1   2 1148.32  494.43   1 0.68867-0.78494-0.32190 0.41818 0.64969-0.45715
   1   2   1 1284.94  387.23   1 0.82580-0.72953-0.44299 0.63553 0.34899-0.25271
  -1  -2   1  842.90  250.04   1 0.85683-0.95310-0.48409 0.29155 0.17745-0.08117
   0   2  -2528579.225305.96   1-0.79546 0.79546 0.51382-0.32127 0.32127-0.51382
  -2   0  -2604124.528954.63   1-0.70646 0.51392 0.48661-0.48661 0.51392-0.70646
   0  -2   2434719.620806.27   1-0.61784 0.61784 0.45132-0.64387 0.64387-0.45132
  -2   2   0472650.322639.52   1-0.03876-0.15377 0.15377 0.03876 0.98734-0.98734
  -2   0   2512784.524545.74   1 0.58292-0.77546-0.24259 0.24259 0.77546-0.58292
   0   2   2538729.025766.68   1 0.74371-0.74371-0.36652 0.55906 0.55906-0.36652
  -2  -2  -1145211.3 3008.30   1-0.83252 0.63997 0.51891-0.71145 0.19400-0.29027
  -1  -2   2147313.7 3074.05   1-0.79089 0.69462 0.51279-0.70533 0.33395-0.14141
  -1   2  -2152209.8 3319.69   1-0.66208 0.56581 0.46961-0.27706 0.58404-0.77658
  -2   1  -2146210.8 3328.01   1-0.62467 0.43213 0.45422-0.35795 0.63518-0.82772
   2   2   1151318.0 3040.47   1-0.56426 0.75680 0.42783-0.23528 0.70608-0.60981
  -2   2  -1166418.2 3611.71   1-0.34020 0.14765 0.31875-0.12620 0.88468-0.98095
  -2   2   1156258.4 3436.66   1 0.24861-0.44115-0.01898 0.21152 0.96841-0.87214
  -2  -2   1143254.7 2904.62   1 0.32063-0.51317-0.06475-0.12778 0.94498-0.84871
  -2   1   2150151.3 3261.51   1 0.51780-0.71034-0.19644 0.29271 0.83263-0.64009
  -1   2   2154388.7 3311.64   1 0.59408-0.69035-0.25068 0.44322 0.76434-0.57179
  -2  -1   2146356.9 3133.21   1 0.63967-0.83222-0.28434 0.18807 0.71411-0.52157
   2   2  -1141623.9 2826.20   1 0.83032-0.63778-0.44799 0.64053 0.33144-0.42771
   1   2   2145108.5 3043.95   1 0.84543-0.74916-0.46637 0.65891 0.26026-0.06772
  -1  -2   2144447.7 3017.30   1 0.85856-0.95484-0.48767 0.29513 0.15822 0.03432
  -2  -2  -2307091.7 6201.48   1-0.85604 0.66350 0.51417-0.70671 0.05305-0.24560
  -2   2   2300473.2 6168.67   1 0.44633-0.63887-0.14748 0.34002 0.88262-0.69008
  -2  -2   2310014.714870.90   1 0.68511-0.87766-0.31912 0.12658 0.65480-0.46226
   0   3   064583.65 1409.57   1-0.02252 0.02252 0.14440 0.14440 0.98926-0.98926
   0  -3   069073.33 1470.54   1 0.44177-0.44177-0.14440-0.14440 0.88542-0.88542
   0   0   363844.76 1612.54   1 0.85960-0.85960-0.49012 0.49012 0.14440 0.14440
  -3   0  -1 9296.42 1568.69   1-0.43466 0.14585 0.36649-0.36649 0.82264-0.91891
  -1   3   0 9050.55 1278.65   1-0.03189-0.06437 0.14982 0.13899 0.98819-0.98819
  -1  -3   0 9472.49  322.64   1 0.81575-0.91202-0.43237 0.14355 0.38419-0.38419
   0   1   3 9185.80  761.11   1 0.83505-0.83505-0.45342 0.54969 0.31159-0.02277
   0   2  -345157.57 1389.10   1-0.84419 0.84419 0.51825-0.32571 0.13691-0.42573
  -3   0  -245426.16 1789.29   1-0.62863 0.33981 0.45589-0.45589 0.63006-0.82260
  -2   3   044121.67 1332.84   1-0.06212-0.13041 0.16716 0.12164 0.98396-0.98396
   0   2   346828.30 1430.55   1 0.78293-0.78293-0.40079 0.59333 0.47578-0.18697
  -1   0  -3 8418.70  701.70   1-0.84678 0.75051 0.51779-0.51779 0.12180-0.41062
   0   3  -1 9107.63  907.90   1-0.52403 0.52403 0.40940-0.12058 0.74684-0.84311
  -3  -1   010255.82 1285.61   1-0.25105-0.03775 0.27181-0.36808 0.92902-0.92902
  -3   1   0 8261.74 1407.32   1-0.09794-0.19086 0.18751-0.09124 0.97736-0.97736
   0  -3   1 7261.97  854.70   1-0.06271 0.06271 0.16750-0.45632 0.98387-0.88760
   3   1   011167.44 1136.45   1 0.14554 0.14326 0.04471 0.05155 0.98834-0.98834
   0   3   1 9521.70  508.70   1 0.43060-0.43060-0.13691 0.42572 0.89209-0.79582
   0  -3  -1 9393.65  463.01   1 0.73000-0.73000-0.35510 0.06628 0.58395-0.68022
  -1   0   3 8883.84  679.23   1 0.80144-0.89771-0.41814 0.41814 0.42760-0.13878
  -1   1  -3101171.6 2433.74   1-0.81321 0.71693 0.51713-0.42086 0.26694-0.55576
  -3  -1  -196521.96 2095.35   1-0.55612 0.26730 0.42415-0.52042 0.71471-0.81099
  -1   3  -1101456.9 2252.04   1-0.37767 0.28140 0.33795-0.04914 0.86205-0.95832
  -3   1  -1109299.2 2578.65   1-0.35844 0.06962 0.32814-0.23187 0.87397-0.97025
  -1  -3   196160.77 1935.23   1-0.07926-0.01700 0.17693-0.46574 0.98102-0.88475
  -3   1   1111522.6 2785.49   1 0.16342-0.45224 0.03380 0.06246 0.98597-0.88970
  -1   3   193670.66 2069.92   1 0.29031-0.38658-0.04534 0.33416 0.95585-0.85958
   1   3   197501.26 2003.17   1 0.62775-0.53147-0.27543 0.56425 0.72805-0.63178
  -1   1   391891.91 2217.60   1 0.74866-0.84493-0.37070 0.46697 0.54962-0.26080
  -1   2  -3 1923.55  665.16   1-0.77566 0.67938 0.50896-0.31642 0.37323-0.66204
  -3  -1  -2  913.16  328.66   1-0.71765 0.42884 0.49063-0.58690 0.49421-0.68675
   2   3   1  759.56  319.79   1-0.65977 0.85232 0.46868-0.17987 0.58738-0.49111
  -3   1  -2  963.96  550.09   1-0.55807 0.26925 0.42503-0.32876 0.71267-0.90521
  -2   3  -1 1017.56  479.19   1-0.32121 0.12866 0.30889-0.02008 0.89521-0.99148
  -2   3   1 1416.90  495.60   1 0.18508-0.37762 0.02052 0.26829 0.98250-0.88623
  -3   1   2 1279.50  542.73   1 0.36285-0.65166-0.09210 0.18838 0.92728-0.73473
  -3  -1   2 1231.82  459.66   1 0.41777-0.70658-0.12833 0.03206 0.89944-0.70689
  -1   2   3 2093.06  681.85   1 0.68028-0.77655-0.31535 0.50790 0.66163-0.37281
   2   3   1  601.79  336.19   1 0.82535-0.63281-0.44249 0.73131 0.35068-0.25441
   1   2   3 1845.42  636.86   1 0.84646-0.75019-0.46777 0.66031 0.25432 0.03448
  -1  -2   3 1320.44  585.02   1 0.85567-0.95194-0.48193 0.28939 0.18856 0.10024
  -2   0  -350304.48 2079.62   1-0.79534 0.60279 0.51379-0.51379 0.32163-0.61045
   0   3  -245818.24 1787.35   1-0.74687 0.74687 0.50047-0.21166 0.43783-0.63037
  -3  -2   045452.67 1169.43   1-0.46176 0.17294 0.37976-0.57230 0.80159-0.80159
  -3   2   047528.68 1563.49   1-0.08751-0.20130 0.18161 0.01093 0.97946-0.97946
   3   2   048338.99 1117.83   1 0.20177 0.08703 0.01021 0.18232 0.97937-0.97937
   0   3   246495.06 1227.69   1 0.62864-0.62864-0.27610 0.56491 0.72703-0.53449
  -2   0   344428.85 1353.57   1 0.68005-0.87259-0.31517 0.31517 0.66195-0.37314
  -2  -1  -3 1109.05  462.07   1-0.83941 0.64687 0.51876-0.61503 0.16205-0.45087
  -2   1  -3  562.71  326.63   1-0.74607 0.55353 0.50022-0.40394 0.43948-0.72830
  -3  -2  -1 1460.03  411.36   1-0.71678 0.42796 0.49032-0.68286 0.49579-0.59206
  -1   3  -2 2060.51  553.72   1-0.61571 0.51944 0.45042-0.16160 0.64654-0.83908
  -1  -3   2  308.14  213.39   1-0.57184 0.47556 0.43123-0.72004 0.69787-0.50533
  -3   2  -1 1166.97  511.96   1-0.31852 0.02970 0.30749-0.11495 0.89665-0.99292
   3   2   1 1038.66  282.94   1-0.27025 0.55907 0.28206-0.08952 0.92054-0.82427
  -3  -2   1  845.52  345.73   1 0.03087-0.31968 0.11328-0.30582 0.99308-0.89681
  -3   2   1 2162.08  911.35   1 0.13797-0.42679 0.04931 0.14322 0.98920-0.89293
  -1   3   2 2611.75  705.43   1 0.49255-0.58882-0.17896 0.46778 0.85167-0.65913
  -2   1   3 1437.98  594.39   1 0.62439-0.81693-0.27294 0.36921 0.73187-0.44305
   3   2  -1  792.70  188.62   1 0.65354-0.36473-0.29482 0.48736 0.69710-0.79337
  -2  -1   3 1669.25  638.51   1 0.72577-0.91831-0.35163 0.25535 0.59127-0.30245
   1   3   2 2026.90  591.04   1 0.75977-0.66350-0.38023 0.66904 0.52741-0.33487
  -3  -2  -232489.02 1731.43   1-0.80740 0.51858 0.51618-0.70872 0.28576-0.47830
  -2  -3   232756.74 1230.88   1-0.76223 0.56969 0.50518-0.79400 0.40469-0.21215
  -2   2  -335464.18 2355.43   1-0.70314 0.51060 0.48539-0.29285 0.51959-0.80840
  -2   3  -232051.45 2219.28   1-0.53074 0.33820 0.41251-0.12370 0.74036-0.93290
  -3   2  -231970.10 3281.06   1-0.51046 0.22164 0.40304-0.21050 0.75959-0.95213
  -3   2   232087.03 1997.56   1 0.31672-0.60553-0.06223 0.25478 0.94647-0.75393
  -2   3   229422.22 2333.74   1 0.36985-0.56240-0.09668 0.38550 0.92404-0.73150
  -3  -2   234621.70 1893.82   1 0.41198-0.70079-0.12447-0.06806 0.90264-0.71010
  -2   2   333305.25 1293.85   1 0.56007-0.75261-0.22621 0.41875 0.79696-0.50814
  -2  -3   234063.09  960.98   1 0.71458-0.90713-0.34252 0.05371 0.60994-0.41740
  -2  -2   332482.38 1136.02   1 0.76052-0.95306-0.38088 0.18833 0.52586-0.23704
   2   3   233007.76 1020.23   1 0.84497-0.65243-0.46576 0.75457 0.26282-0.07028
   0   3  -3 1344.07  514.66   1-0.82372 0.82372 0.51841-0.22960 0.22960-0.51841
  -3  -3   0  726.62  207.11   1-0.80446 0.51564 0.51564-0.80446 0.29485-0.29485
  -3   0  -3 2038.76  534.25   1-0.74021 0.45139 0.49832-0.49832 0.45139-0.74021
  -3   3   0 1271.92  599.59   1-0.10009-0.18872 0.18872 0.10009 0.97691-0.97691
   3   3   0 1147.55  130.87   1 0.41590-0.12708-0.12708 0.41590 0.90048-0.90048
  -3   0   3 1705.44  567.02   1 0.53221-0.82103-0.20652 0.20652 0.82103-0.53221
   0   3   3 2047.23  627.15   1 0.70565-0.70565-0.33535 0.62416 0.62416-0.33535
  -3  -1  -328023.89 1393.82   1-0.79598 0.50716 0.51393-0.61020 0.31981-0.60862
  -1   3  -326848.41 1389.64   1-0.74438 0.64811 0.49967-0.21086 0.44294-0.73176
  -3   1  -330255.03 1851.96   1-0.68854 0.39972 0.47993-0.38366 0.54366-0.83247
  -3   3  -127892.49 2513.59   1-0.30540 0.01658 0.30063-0.01181 0.90352-0.99979
  -3  -3   127747.00  670.24   1-0.30185 0.01303 0.29877-0.58758 0.90532-0.80905
   3   3   129975.17  842.83   1-0.29221 0.58103 0.29369-0.00488 0.91013-0.81386
  -3   3   135711.16 3206.48   1 0.09886-0.38767 0.07291 0.21590 0.99242-0.89615
  -3   1   329907.61 1298.36   1 0.48978-0.77860-0.17706 0.27333 0.85367-0.56485
  -3  -1   328653.06 1140.32   1 0.56451-0.85332-0.22938 0.13310 0.79291-0.50409
  -1   3   325980.99 1003.16   1 0.59924-0.69551-0.25444 0.54325 0.75905-0.47023
   1   3   329861.47 1153.01   1 0.79296-0.69669-0.41007 0.69888 0.45061-0.16179
  -1  -3   326399.36  968.91   1 0.86195-0.95822-0.49819 0.20937 0.09398 0.19482
  -3  -2  -3  816.33  470.43   1-0.84286 0.55404 0.51844-0.71098 0.14423-0.43305
  -2   3  -3 1328.44  766.28   1-0.67231 0.47977 0.47366-0.18485 0.56888-0.85769
  -3   2  -3 1046.79  715.04   1-0.64791 0.35909 0.46388-0.27134 0.60417-0.89298
  -3   3  -2  866.20  618.87   1-0.48428 0.19547 0.39062-0.10180 0.78286-0.97541
  -3   3   2  672.91  455.03   1 0.26239-0.55120-0.02765 0.31647 0.96456-0.77202
  -3  -3   2  782.86  339.41   1 0.35427-0.64309-0.08651-0.20229 0.93112-0.73858
  -3   2   3 1292.35  697.38   1 0.43903-0.72785-0.14257 0.33511 0.88708-0.59826
  -2   3   3 1567.15  898.99   1 0.48838-0.68092-0.17609 0.46491 0.85467-0.56586
  -3  -2   3 1312.73  791.73   1 0.58377-0.87259-0.24321 0.05067 0.77462-0.48581
  -2  -3   3 1073.93  599.37   1 0.78368-0.97622-0.40147 0.11266 0.47397-0.18515
   2   3   3 1306.15  621.67   1 0.84613-0.65359-0.46732 0.75614 0.25622 0.03258
  -3   3  -3 7553.31 2207.87   1-0.62078 0.33197 0.45258-0.16376 0.64014-0.92896
  -3   3   3 6874.22 1581.17   1 0.38122-0.67004-0.10414 0.39296 0.91859-0.62978
  -3  -3   3 6140.43  696.22   1 0.58444-0.87326-0.24370-0.04511 0.77397-0.48515
   3   3   3 5964.68  644.32   1 0.86227-0.57345-0.50126 0.79008 0.07221 0.21660
   0   4   0210433.4 4449.72   1-0.10686 0.10686 0.19254 0.19254 0.97545-0.97545
   0  -4   0241291.5 4896.80   1 0.51219-0.51219-0.19254-0.19254 0.83700-0.83700
   0   0   4228237.0 5141.30   1 0.85523-0.85523-0.48115 0.48115 0.19254 0.19254
  -1   4   071770.50 1920.03   1-0.08884-0.00742 0.18236 0.20272 0.97920-0.97920
   0   1   470354.21 2088.85   1 0.83368-0.83368-0.45182 0.54809 0.31753 0.06755
   0  -1   468019.76 2048.29   1 0.86221-0.86221-0.50026 0.40399 0.07951 0.30557
  -4   0  -2134700.0 3266.96   1-0.58325 0.19817 0.43631-0.43631 0.68515-0.87770
  -2   4   0129118.8 3025.41   1-0.10188-0.09065 0.18973 0.19534 0.97653-0.97653
  -4   0   2113134.3 2830.17   1 0.24412-0.62921-0.01616 0.01616 0.96960-0.77706
   0   2   4125500.4 3130.40   1 0.79454-0.79454-0.41155 0.60409 0.44645-0.06137
   0   3  -417107.40 1009.59   1-0.85208 0.85208 0.51623-0.22741 0.08632-0.47141
  -4   0  -318690.90 2268.52   1-0.69756 0.31247 0.48333-0.48333 0.52895-0.81776
  -3   4   016324.12 2065.30   1-0.12833-0.16047 0.20459 0.18049 0.97039-0.97039
  -4   0   317199.36 2318.22   1 0.38624-0.77132-0.10744 0.10744 0.91611-0.62730
   0   3   418777.11 1204.45   1 0.73697-0.73697-0.36088 0.64970 0.57151-0.18642
  -4   1   066590.50 2086.83   1-0.15036-0.23472 0.21686-0.12059 0.96455-0.96455
   0   4   170204.03 1761.54   1 0.27499-0.27499-0.03561 0.42070 0.96078-0.86451
  -1   1  -4 8031.47  881.20   1-0.84634 0.75007 0.51788-0.42161 0.12444-0.50953
  -4  -1  -1 7078.54 1302.28   1-0.50759 0.12250 0.40169-0.49796 0.76222-0.85849
  -1   4  -1 7679.03 1380.90   1-0.37740 0.28113 0.33781 0.04726 0.86223-0.95850
  -4   1  -110315.23 2066.61   1-0.35423-0.03084 0.32598-0.22971 0.87649-0.97276
  -4  -1   1 6757.64 1364.11   1-0.00193-0.38315 0.13246-0.22873 0.99118-0.89491
  -4   1   1 7556.91 1893.37   1 0.05634-0.44143 0.09825-0.00198 0.99356-0.89729
  -1   4   1 8274.16 1403.79   1 0.18867-0.28494 0.01831 0.36677 0.98186-0.88559
  -1  -4   1 5559.60  543.38   1 0.30647-0.40274-0.05566-0.32941 0.95024-0.85397
   1   4   1 7971.03  790.49   1 0.38911-0.29284-0.10933 0.49442 0.91467-0.81840
  -1   1   4 7037.65  810.64   1 0.76970-0.86597-0.38891 0.48518 0.50626-0.12117
  -1  -4  -1 7879.77  508.05   1 0.85451-0.95079-0.47991 0.09482 0.19869-0.29496
   1   1   4 9194.90  879.64   1 0.86079-0.76452-0.49342 0.58969 0.12476 0.26031
  -1   2  -442440.58 2156.95   1-0.82782 0.73155 0.51872-0.32618 0.21360-0.59869
   2   4   144658.55 1105.55   1-0.72203 0.91458 0.49217-0.10708 0.48623-0.38996
  -4  -1  -248465.73 2126.45   1-0.66211 0.27703 0.46962-0.56589 0.58399-0.77653
  -4   1  -244750.21 4435.07   1-0.52387 0.13879 0.40932-0.31305 0.74699-0.93953
  -2   4  -143703.94 1954.75   1-0.32727 0.13473 0.31205 0.07303 0.89191-0.98818
  -2   4   154255.65 3473.23   1 0.11574-0.30828 0.06276 0.32232 0.99129-0.89502
  -4  -1   244822.92 2036.60   1 0.23589-0.62098-0.01101-0.08526 0.97171-0.77917
  -4   1   243738.40 2710.67   1 0.23159-0.61668-0.00832 0.10459 0.97277-0.78023
  -1   2   447979.55 1753.68   1 0.71778-0.81405-0.34511 0.53765 0.60471-0.21962
   1   2   444873.35 1669.43   1 0.84299-0.74672-0.46317 0.65571 0.27354 0.11153
  -1  -2   447329.90 1669.89   1 0.85056-0.94683-0.47361 0.28107 0.22854 0.15654
  -1   3  -4 2266.10  834.89   1-0.81010 0.71383 0.51664-0.22782 0.27712-0.66221
  -4  -1  -3 2143.73  869.65   1-0.75465 0.36957 0.50290-0.59917 0.42139-0.71021
  -4   1  -3 1767.51  657.36   1-0.64890 0.26381 0.46428-0.36801 0.60279-0.89160
  -3   4  -1 2274.68  679.36   1-0.31187 0.02305 0.30402 0.08106 0.90017-0.99644
   3   4   1 2027.82  395.10   1-0.26000 0.54882 0.27660 0.10848 0.92514-0.82886
  -3   4   1 2398.91  793.46   1 0.05000-0.33882 0.10200 0.28308 0.99352-0.89725
  -4   1   3 1144.24  646.76   1 0.36065-0.74574-0.09067 0.18694 0.92827-0.63946
  -4  -1   3 2220.03  979.18   1 0.39841-0.78350-0.11548 0.01920 0.90990-0.62109
  -1   3   4 1419.39  554.59   1 0.65341-0.74968-0.29471 0.58353 0.69727-0.31218
   3   4   1 1467.37  185.41   1 0.77265-0.48383-0.39153 0.77662 0.49970-0.40343
   1   3   4 1919.37  468.13   1 0.80189-0.70561-0.41857 0.70738 0.42634-0.04125
  -1  -3   4 2953.22  790.51   1 0.85823-0.95450-0.48694 0.19812 0.16223 0.22285
  -2   0  -4129807.0 3581.31   1-0.83621 0.64367 0.51890-0.51890 0.17742-0.56251
   0   4  -2134318.6 3071.36   1-0.71538 0.71538 0.48982-0.10474 0.49829-0.69083
  -4  -2   0147108.2 3203.50   1-0.42039 0.03530 0.35942-0.55197 0.83311-0.83311
  -4   2   0129321.2 3241.00   1-0.13618-0.24889 0.20898-0.01643 0.96839-0.96839
   0   4   2141760.8 3120.55   1 0.49843-0.49843-0.18301 0.56810 0.84738-0.65484
  -2   0   4133583.1 3360.47   1 0.72016-0.91270-0.34705 0.34705 0.60076-0.21567
  -2  -1  -448131.62 1809.89   1-0.85664 0.66410 0.51374-0.61001 0.04717-0.43225
   1   4  -249812.51 1413.24   1-0.84959 0.94586 0.51709-0.13200 0.10396-0.29650
  -2   1  -446698.43 2790.93   1-0.80894 0.61640 0.51645-0.42017 0.28087-0.66595
  -4  -2  -147603.08 2246.23   1-0.63714 0.25205 0.45944-0.65199 0.61883-0.71510
  -1   4  -246915.54 2008.72   1-0.59366 0.49739 0.44088-0.05580 0.67318-0.86572
  -4   2  -151578.39 3598.69   1-0.32182-0.06326 0.30921-0.11667 0.89488-0.99115
  -4  -2   150325.67 2464.51   1-0.10423-0.28084 0.19106-0.38360 0.97602-0.87975
  -4   2   144474.56 6009.92   1 0.04742-0.43251 0.10352 0.08901 0.99349-0.89722
  -1   4   246470.01 2127.09   1 0.38739-0.48367-0.10820 0.49329 0.91553-0.72299
   1   4   251183.65 1455.04   1 0.62095-0.52468-0.27039 0.65547 0.73573-0.54319
  -2   1   449398.60 1995.24   1 0.67544-0.86798-0.31160 0.40787 0.66833-0.28325
  -2  -1   444054.91 1670.72   1 0.75541-0.94795-0.37647 0.28020 0.53630-0.15121
  -2   2  -475211.53 4223.27   1-0.78196 0.58942 0.51061-0.31807 0.35747-0.74256
  -4  -2  -282481.53 2403.64   1-0.75273 0.36764 0.50231-0.69485 0.42552-0.61806
  -2   4  -276120.60 2137.69   1-0.51766 0.32512 0.40642-0.02133 0.75288-0.94543
  -4   2  -277764.46 2338.41   1-0.48467 0.09958 0.39080-0.19826 0.78253-0.97507
  -4   2   284056.10 2720.25   1 0.20475-0.58984 0.00837 0.18417 0.97877-0.78623
  -2   4   274736.99 2143.21   1 0.28924-0.48178-0.04466 0.42975 0.95621-0.76366
  -2   2   476859.96 2266.58   1 0.62158-0.81412-0.27085 0.46340 0.73503-0.34994
  -2  -4   280514.54 1768.16   1 0.71732-0.90987-0.34474-0.04034 0.60546-0.41292
   2   4   277843.28 1824.84   1 0.74060-0.54806-0.36391 0.74900 0.56485-0.37231
  -2  -2   484030.96 2327.31   1 0.78125-0.97380-0.39926 0.20672 0.47981-0.09472
   2   2   479156.81 2262.33   1 0.86159-0.66905-0.49636 0.68890 0.10619 0.27888
  -4  -2  -311696.01 1685.31   1-0.81161 0.42652 0.51688-0.70943 0.27224-0.56105
  -2   3  -412127.57 3205.30   1-0.76010 0.56755 0.50455-0.21573 0.40947-0.79456
  -4   2  -311603.21 2672.06   1-0.61243 0.22734 0.44902-0.25647 0.65061-0.93943
  -3   4  -2 6015.71 1159.17   1-0.47617 0.18735 0.38672-0.00164 0.78974-0.98229
  -3  -4   2 8958.22  798.39   1 0.09979-0.38860 0.07235-0.45744 0.99237-0.79983
  -3   4   211772.19 2496.40   1 0.20149-0.49031 0.01039 0.37469 0.97943-0.78689
  -4   2   3 9553.41 1812.75   1 0.32481-0.70990-0.06744 0.25998 0.94336-0.65455
  -4  -2   310853.34 1694.65   1 0.39156-0.77665-0.11095-0.08158 0.91343-0.62461
  -2   3   411665.53 1078.24   1 0.55918-0.75172-0.22558 0.51439 0.79776-0.41267
  -2  -3   412130.49  974.35   1 0.79811-0.99066-0.41495 0.12613 0.43683-0.05174
   3   4   2 9388.95  543.55   1 0.82665-0.53783-0.44391 0.82899 0.34581-0.15327
   2   3   410744.69  852.87   1 0.84276-0.65022-0.46287 0.75168 0.27475 0.11033
   0   4  -315947.41 2463.23   1-0.80699 0.80699 0.51611-0.13102 0.28701-0.57583
  -3   0  -419517.45 2121.05   1-0.80244 0.51362 0.51526-0.51526 0.30098-0.68606
  -4  -3   016956.39  793.98   1-0.64913 0.26405 0.46438-0.75319 0.60246-0.60246
  -4   3   015785.64 2793.00   1-0.14177-0.24330 0.21209 0.07671 0.96690-0.96690
   4   3   016895.51  623.75   1 0.37675 0.00832-0.10121 0.39002 0.92076-0.92076
  -3   0   418397.44 1201.72   1 0.60413-0.89295-0.25801 0.25801 0.75395-0.36886
   0   4   318984.59  968.95   1 0.60845-0.60845-0.26118 0.64626 0.74937-0.46056
  -3  -1  -4 3428.21 1008.09   1-0.83488 0.54606 0.51892-0.61519 0.18354-0.56863
  -4  -3  -1 2018.55  662.43   1-0.78420 0.39911 0.51118-0.79999 0.35173-0.44800
  -3   1  -4 2382.27 1072.22   1-0.76853 0.47971 0.50700-0.41073 0.39026-0.77535
  -1   4  -3 2538.77  674.67   1-0.72449 0.62822 0.49302-0.10794 0.48169-0.77050
  -4   3  -1 1776.19  766.10   1-0.31058-0.07450 0.30334-0.01453 0.90084-0.99711
  -4  -3   1 1128.18  518.93   1-0.32024-0.06484 0.30839-0.59720 0.89573-0.79945
  -4   3   1 2688.43  794.52   1 0.02351-0.40860 0.11760 0.17121 0.99278-0.89651
  -1   4   3 1782.04  460.41   1 0.50843-0.60470-0.18993 0.57501 0.83989-0.55108
  -3   1   4 2041.79  945.83   1 0.56413-0.85294-0.22910 0.32538 0.79326-0.40817
  -3  -1   4 1631.28  643.10   1 0.63542-0.92423-0.28115 0.18488 0.71915-0.33407
   1   4   3 2075.20  497.56   1 0.70349-0.60722-0.33363 0.71871 0.62751-0.33870
  -3  -2  -413937.22 1177.71   1-0.85754 0.56873 0.51302-0.70556 0.03766-0.42275
  -4  -3  -211365.56 2037.44   1-0.83335 0.44826 0.51892-0.80773 0.19036-0.38290
  -3   2  -411984.65 1999.42   1-0.73885 0.45004 0.49787-0.30533 0.45409-0.83918
  -2   4  -3 9871.72 1990.35   1-0.65519 0.46265 0.46684-0.08175 0.59394-0.88276
  -4   3  -2 9730.63 2181.98   1-0.46357 0.07848 0.38063-0.09182 0.80013-0.99267
  -4  -3   212454.88 1270.67   1 0.08786-0.47295 0.07949-0.36831 0.99295-0.80041
  -4   3   211904.84 2206.46   1 0.16729-0.55238 0.03144 0.25737 0.98540-0.79286
  -2   4   3 9916.56 2053.91   1 0.41041-0.60295-0.12343 0.50852 0.90350-0.61469
  -3   2   411438.26 1041.56   1 0.51625-0.80506-0.19536 0.38790 0.83385-0.44876
  -3  -2   4 8166.35  800.99   1 0.65682-0.94564-0.29731 0.10477 0.69294-0.30786
   2   4   311074.17  848.43   1 0.78227-0.58972-0.40019 0.78527 0.47738-0.18856
  -2  -4   310188.43  615.35   1 0.79463-0.98717-0.41164 0.02655 0.44621-0.15739
  -4  -3  -3  839.37  524.88   1-0.85334 0.46826 0.51568-0.80450 0.07656-0.36538
  -3   3  -4 1932.05  652.57   1-0.71664 0.42782 0.49027-0.20146 0.49603-0.88112
  -3   4  -3  790.94  461.89   1-0.60708 0.31827 0.44672-0.06163 0.65717-0.94599
  -4   3  -3  972.84  578.08   1-0.58898 0.20389 0.43883-0.15002 0.67861-0.96742
  -4   3   3  950.97  538.87   1 0.28067-0.66576-0.03922 0.32803 0.95900-0.67018
  -3   4   3 1211.67  485.02   1 0.31727-0.60608-0.06259 0.44767 0.94626-0.65745
  -3   3   4  557.08  737.01   1 0.46119-0.75001-0.15753 0.44635 0.87320-0.48811
  -3  -4   3 1497.17  508.34   1 0.55263-0.84145-0.22092-0.16415 0.80360-0.51479
  -3  -3   4  767.61  661.66   1 0.66642-0.95524-0.30465 0.01583 0.68048-0.29539
   3   4   3 1197.27  536.01   1 0.83435-0.54553-0.45260 0.83768 0.31465-0.02584
   3   3   4  543.00  322.11   1 0.86034-0.57152-0.49207 0.78088 0.13295 0.25213
   0   4  -430852.52 1410.52   1-0.84487 0.84487 0.51815-0.13306 0.13306-0.51815
  -4   0  -434208.52 3547.95   1-0.77056 0.38548 0.50757-0.50757 0.38548-0.77056
  -4   4   023598.10 4378.94   1-0.16185-0.22323 0.22323 0.16185 0.96123-0.96123
  -4   0   433037.47 1811.70   1 0.47732-0.86241-0.16852 0.16852 0.86241-0.47732
   0   4   430880.16 1290.59   1 0.66197-0.66197-0.30124 0.68632 0.68632-0.30123
  -4  -1  -412073.51 2309.92   1-0.80850 0.42341 0.51637-0.61264 0.28228-0.66737
  -1   4  -411019.75 2367.98   1-0.79719 0.70092 0.51419-0.12910 0.31636-0.70145
  -4   1  -412005.60 2531.01   1-0.73489 0.34980 0.49656-0.40029 0.46191-0.84699
  -4   4  -110303.97 1932.71   1-0.31566-0.06942 0.30600 0.07908 0.89817-0.99444
  -4   4   110968.15 2218.26   1-0.01150-0.37358 0.13802 0.24706 0.99036-0.89408
  -4   1   412452.70 1261.31   1 0.44762-0.83270-0.14835 0.24462 0.88183-0.49674
  -4  -1   410093.81 1052.83   1 0.49689-0.88197-0.18195 0.08568 0.84852-0.46343
  -1   4   411952.82 1135.73   1 0.57777-0.67404-0.23888 0.62397 0.78045-0.39536
   1   4   412756.67  934.24   1 0.73603-0.63976-0.36010 0.74518 0.57321-0.18812
  -1  -4   413419.34  959.65   1 0.86112-0.95739-0.49453 0.10945 0.11786 0.26722
  -4  -2  -419721.68 1632.55   1-0.84189 0.45680 0.51855-0.71109 0.14939-0.53448
  -2   4  -419745.97 3879.35   1-0.74588 0.55334 0.50015-0.11507 0.43987-0.82496
  -4   2  -418286.84 3345.41   1-0.70555 0.32047 0.48628-0.29374 0.51547-0.90056
  -4   4  -215644.70 2728.36   1-0.45778 0.07270 0.37782 0.00725 0.80478-0.99732
  -4   4   221977.23 3975.07   1 0.12148-0.50657 0.05929 0.32578 0.99082-0.79827
  -4   2   418104.64 2181.72   1 0.40942-0.79451-0.12278 0.31532 0.90404-0.51895
  -2   4   419461.79 1517.84   1 0.48899-0.68153-0.17651 0.56160 0.85423-0.46915
  -4  -2   420874.27 1607.33   1 0.50361-0.88869-0.18659-0.00594 0.84353-0.45845
   2   4   417641.13 1295.70   1 0.79420-0.60165-0.41123 0.79632 0.44735-0.06227
  -2  -4   420233.78 1353.03   1 0.80633-0.99888-0.42291 0.03782 0.41347-0.02839
   4   4   219592.78 1252.02   1 0.86048-0.47539-0.49248 0.87757 0.13045 0.06209
  -3   4  -4 3461.47  959.53   1-0.70322 0.41440 0.48542-0.10034 0.51945-0.90454
  -4   3  -4 2913.64  982.28   1-0.68456 0.29947 0.47841-0.18960 0.54998-0.93507
  -4   4  -3 2507.62 1424.87   1-0.57787 0.19278 0.43392-0.04883 0.69120-0.98002
  -4   4   3 3044.64  907.38   1 0.22953-0.61461-0.00703 0.39212 0.97327-0.68446
  -4   3   4 2375.95 1332.74   1 0.36385-0.74894-0.09276 0.38158 0.92682-0.54173
  -3   4   4 2294.57  715.95   1 0.39956-0.68837-0.11624 0.50132 0.90930-0.52421
  -4  -3   4 1992.36  595.80   1 0.49251-0.87760-0.17894-0.10987 0.85170-0.46662
  -3  -4   4 2039.71  524.33   1 0.66017-0.94898-0.29986-0.08522 0.68865-0.30357
   3   4   4 1819.94  588.77   1 0.83316-0.54434-0.45122 0.83631 0.31974 0.06534
   4   4   3 2774.29  607.09   1 0.85819-0.47310-0.48685 0.87193 0.16273 0.12607
  -4   4  -4 3290.78 1223.05   1-0.67250 0.28741 0.47373-0.08865 0.56860-0.95369
  -4   4   4 3324.66 1024.25   1 0.31170-0.69678-0.05901 0.44410 0.94834-0.56325
   4   4   4 3877.47  727.33   1 0.85403-0.46895-0.47909 0.86418 0.20269 0.18239
  -5   0   0  820.32  482.96   1-0.24067-0.24067 0.26624-0.26624 0.93337-0.93337
   0   5   0  743.86  338.23   1-0.19356 0.19355 0.24067 0.24067 0.95110-0.95110
   0   0   5 1885.74  830.22   1 0.84871-0.84871-0.47091 0.47091 0.24067 0.24067
  -5   0  -1  979.81  627.53   1-0.41736-0.06399 0.35792-0.35792 0.83528-0.93155
  -1   5   0 1170.85  414.22   1-0.15482 0.05854 0.21934 0.26201 0.96328-0.96328
  -5   0   1 1313.53  593.28   1-0.05323-0.42812 0.16208-0.16208 0.98533-0.88906
  -1  -5   0 1050.27  333.61   1 0.79137-0.88764-0.40858-0.07277 0.45474-0.45474
   0   1   5 1709.67  875.72   1 0.82830-0.82830-0.44573 0.54200 0.33945 0.14190
   0  -1   5 1900.74  772.24   1 0.85901-0.85901-0.48868 0.39241 0.15256 0.32878
  -5   0  -2  923.14  426.45   1-0.56241 0.08105 0.42699-0.42699 0.70806-0.90061
  -2   5   0 1215.16  636.52   1-0.15263-0.03990 0.21813 0.26322 0.96390-0.96390
  -5   0   2 2251.98  790.99   1 0.11728-0.59863 0.06183-0.06183 0.99117-0.79862
   0   2   5 1259.31  644.67   1 0.79541-0.79541-0.41237 0.60492 0.44413 0.03721
   0  -2   5 1281.46  559.83   1 0.86222-0.86222-0.50032 0.30778 0.07905 0.40230
  -5   0  -3  -51.54  497.84   1-0.67039 0.18903 0.47290-0.47290 0.57177-0.86059
  -3   5   0  449.74  351.68   1-0.16790-0.12090 0.22658 0.25477 0.95941-0.95941
  -5   0   3  569.45  460.65   1 0.25300-0.73436-0.02174 0.02174 0.96721-0.67840
   0   3   5 1159.40  833.14   1 0.74860-0.74860-0.37066 0.65947 0.54972-0.06836
  -5   0  -4 1356.91  680.31   1-0.74616 0.26480 0.50024-0.50024 0.43931-0.82439
  -4   5   0  863.90  363.75   1-0.19295-0.19213 0.24034 0.24100 0.95131-0.95131
  -5   0   4  498.06  395.15   1 0.35125-0.83260-0.08455 0.08455 0.93245-0.54736
   0   4   5 1076.01  734.52   1 0.68744-0.68744-0.32094 0.70603 0.65147-0.17011
   0   5  -1 1117.51  385.48   1-0.50920 0.50920 0.40245 0.07890 0.76074-0.85701
  -5  -1   0 1316.63  424.53   1-0.31102-0.17033 0.30357-0.39984 0.90061-0.90061
  -5   1   0 1442.91  593.58   1-0.20132-0.28003 0.24492-0.14864 0.94841-0.94841
   0   5   1 2019.50  629.43   1 0.13295-0.13295 0.05235 0.42899 0.98973-0.89346
  -1   0   5 1371.89  657.14   1 0.80693-0.90321-0.42350 0.42350 0.41169 0.06966
   1   0   5 1230.57  559.37   1 0.86223-0.76596-0.50049 0.50049 0.07785 0.40349
  -5  -1  -110650.19 1444.52   1-0.49388 0.01252 0.39520-0.49147 0.77453-0.87080
  -1   5  -1 5626.73 1243.32   1-0.40020 0.30393 0.34933 0.13202 0.84722-0.94350
  -5   1  -111333.80 1923.64   1-0.36714-0.11421 0.33259-0.23632 0.86866-0.96493
  -5  -1   110314.69 2152.29   1-0.10270-0.37865 0.19019-0.28646 0.97635-0.88008
  -5   1   110791.38 2006.97   1-0.03229-0.44906 0.15004-0.05377 0.98815-0.89187
  -1   5   111224.35 2099.70   1 0.08859-0.18486 0.07906 0.40229 0.99292-0.89665
   1   5   112266.84 1310.98   1 0.17191-0.07564 0.02861 0.45274 0.98469-0.88842
  -1  -5   1 9505.19  477.74   1 0.51933-0.61561-0.19751-0.28384 0.83142-0.73515
  -1   1   512584.96 1257.10   1 0.77527-0.87155-0.39387 0.49014 0.49376-0.01240
  -1  -1   510965.50 1073.57   1 0.82907-0.92534-0.44659 0.35032 0.33643 0.14492
  -1  -5  -1 9675.00  515.44   1 0.85135-0.94762-0.47481-0.00654 0.22304-0.31931
   1   1   510878.97 1121.80   1 0.85603-0.75975-0.48259 0.57886 0.18524 0.29611
  -1   2  -5 1431.17  978.96   1-0.85184 0.75557 0.51632-0.32378 0.08808-0.56944
   2   5   1  188.73  164.95   1-0.74783 0.94037 0.50077-0.01942 0.43584-0.33957
  -5  -1  -2  282.75  360.29   1-0.63098 0.14962 0.45688-0.55315 0.62698-0.81953
  -5   1  -2  467.89  406.57   1-0.51154 0.03018 0.40355-0.30728 0.75859-0.95113
  -2   5  -1  360.69  307.83   1-0.35078 0.15824 0.32420 0.15714 0.87854-0.97481
  -2   5   1  681.30  449.48   1 0.04179-0.23433 0.10685 0.37450 0.99339-0.89712
  -5  -1   2  685.23  668.07   1 0.09298-0.57434 0.07643-0.17270 0.99272-0.80018
  -5   1   2  436.49  700.23   1 0.11965-0.60101 0.06040 0.03586 0.99097-0.79843
   2   5   1  480.01  234.08   1 0.19394-0.00140 0.01505 0.46630 0.98089-0.88462
  -1   2   5 -227.92  373.57   1 0.73309-0.82936-0.35765 0.55020 0.57849-0.09713
   1   2   5  883.65  750.09   1 0.83683-0.74055-0.45552 0.64807 0.30366 0.17769
  -1  -2   5  461.61  536.51   1 0.84327-0.93955-0.46353 0.27099 0.27205 0.20930
  -1   3  -5 1407.05  601.84   1-0.84314 0.74686 0.51840-0.22959 0.14272-0.62407
  -5  -1  -3 1860.57  666.60   1-0.72453 0.24317 0.49304-0.58931 0.48162-0.77043
  -5   1  -3 1375.71  740.03   1-0.62604 0.14468 0.45480-0.35853 0.63342-0.92223
  -3   5  -1  949.08  446.70   1-0.33289 0.04408 0.31497 0.16638 0.88880-0.98507
  -3   5   1 1206.60  671.67   1-0.00630-0.28251 0.13500 0.34635 0.99082-0.89455
  -5   1   3 1771.86  826.94   1 0.24214-0.72349-0.01492 0.11119 0.97012-0.68131
  -1   3   5 1368.28  583.57   1 0.67999-0.77627-0.31513 0.60395 0.66203-0.18067
   1   3   5 1445.85  624.03   1 0.80146-0.70518-0.41815 0.70697 0.42755 0.05380
  -1  -3   5 2947.96  875.34   1 0.85146-0.94773-0.47498 0.18616 0.22225 0.25910
  -1   4  -5  227.81  365.59   1-0.83609 0.73982 0.51890-0.13381 0.17800-0.65936
  -5  -1  -4  219.76  358.84   1-0.78544 0.30408 0.51148-0.60776 0.34850-0.73359
  -5   1  -4  822.18  640.45   1-0.71121 0.22985 0.48833-0.39206 0.50567-0.89076
  -4   5  -1  -14.71  398.65   1-0.33346-0.05162 0.31526 0.16609 0.88848-0.98475
  -4   5   1  176.73  221.03   1-0.05517-0.32991 0.16319 0.31816 0.98505-0.88877
  -5   1   4   98.24  535.73   1 0.33314-0.81450-0.07281 0.16908 0.94006-0.55497
  -5  -1   4   44.73  422.39   1 0.35720-0.83856-0.08842-0.00784 0.92982-0.54474
  -1   4   5  -66.02  395.61   1 0.61615-0.71242-0.26684 0.65193 0.74104-0.25968
   1   4   5  398.08  602.32   1 0.74801-0.65174-0.37016 0.75524 0.55086-0.06950
  -1  -4   5  213.19  485.21   1 0.85550-0.95177-0.48162 0.09654 0.19013 0.29122
  -2   0  -5 1601.33  665.39   1-0.85498 0.66244 0.51483-0.51483 0.06280-0.54416
   0   5  -2 1358.86  433.05   1-0.70469 0.70469 0.48596-0.00460 0.51695-0.70949
  -5  -2   0 1411.76  903.93   1-0.42359-0.05776 0.36101-0.55356 0.83080-0.83080
  -5   2   0 1361.08  556.27   1-0.18482-0.29652 0.23589-0.04335 0.95403-0.95403
   0   5   2 1527.73  467.90   1 0.36239-0.36239-0.09180 0.57316 0.92749-0.73494
  -2   0   5 1365.09  637.78   1 0.73586-0.92840-0.35995 0.35995 0.57353-0.09217
   1   5  -2  340.89  274.33   1-0.84099 0.93727 0.51863-0.03728 0.15406-0.34660
  -2   1  -5 1341.01  804.82   1-0.84149 0.64894 0.51859-0.42232 0.15150-0.63285
  -5  -2  -1   66.60  261.89   1-0.59945 0.11809 0.44341-0.63595 0.66636-0.76263
  -1   5  -2  550.79  401.39   1-0.59227 0.49600 0.44028 0.04107 0.67480-0.86734
  -5   2  -1  211.79  551.28   1-0.33872-0.14263 0.31798-0.12544 0.88552-0.98179
  -5  -2   1  329.34  336.01   1-0.19539-0.28596 0.24168-0.43422 0.95048-0.85420
  -5   2   1  602.01  397.66   1-0.03135-0.44999 0.14950 0.04303 0.98826-0.89199
  -1  -5   2  393.33  345.26   1 0.05867-0.15494 0.09687-0.57823 0.99356-0.80102
  -1   5   2  296.14  241.39   1 0.28007-0.37635-0.03884 0.52020 0.95919-0.76664
   1   5   2  359.17  434.08   1 0.45462-0.35835-0.15308 0.63444 0.87743-0.68488
  -2   1   5  273.17  444.33   1 0.69898-0.89153-0.33004 0.42631 0.63441-0.15306
  -2  -1   5 1013.66  587.30   1 0.76440-0.95694-0.38425 0.28798 0.51772-0.03636
  -2   2  -5 2324.43  825.76   1-0.82616 0.63361 0.51861-0.32607 0.22021-0.70157
  -5  -2  -2 1232.54  538.82   1-0.71382 0.23247 0.48927-0.68181 0.50105-0.69360
  -2   5  -2 1417.25  551.86   1-0.52196 0.32942 0.40843 0.07292 0.74881-0.94136
  -5   2  -2 1374.27  619.61   1-0.47795-0.00339 0.38758-0.19504 0.78824-0.98078
  -5   2   2 1355.81  520.38   1 0.10643-0.58779 0.06836 0.12417 0.99196-0.79942
  -2   5   2 1797.44  573.89   1 0.20501-0.39755 0.00821 0.47314 0.97872-0.78618
   2   5   2 1384.04  311.58   1 0.55844-0.36589-0.22505 0.70641 0.79843-0.60588
  -2   2   5  425.67  439.57   1 0.65357-0.84612-0.29484 0.48738 0.69706-0.21570
  -2  -2   5 1812.29  721.54   1 0.78505-0.97760-0.40273 0.21019 0.47062 0.01073
   2   2   5 1246.68  796.33   1 0.85764-0.66509-0.48570 0.67825 0.16892 0.31243
  -2   3  -5  506.10  513.32   1-0.81248 0.61993 0.51702-0.22820 0.26937-0.75073
  -5  -2  -3   81.33  231.64   1-0.78303 0.30167 0.51088-0.70343 0.35474-0.64356
  -5   2  -3  154.28  331.89   1-0.59351 0.11215 0.44082-0.24828 0.67335-0.96217
  -3   5  -2  140.40  264.85   1-0.48272 0.19391 0.38987 0.09148 0.78420-0.97674
  -3   5   2 1551.12  922.97   1 0.13507-0.42389 0.05107 0.43028 0.98951-0.79697
  -5  -2   3  515.56  601.31   1 0.21989-0.70125-0.00102-0.19151 0.97552-0.68670
  -5   2   3  384.60  488.09   1 0.21929-0.70065-0.00065 0.19319 0.97565-0.68684
  -2   3   5  306.37  600.38   1 0.59970-0.79224-0.25477 0.54359 0.75858-0.27722
   3   5   2  634.62  313.41   1 0.66866-0.37984-0.30637 0.78773 0.67751-0.48496
  -2  -3   5  570.66  598.80   1 0.79840-0.99094-0.41521 0.12640 0.43606 0.04529
   2   3   5  828.44  861.61   1 0.83667-0.64413-0.45534 0.74415 0.30436 0.17699
  -5  -2  -4  866.47  369.54   1-0.82386 0.34250 0.51842-0.71097 0.22908-0.61417
  -2   4  -5 1443.48  916.92   1-0.80272 0.61018 0.51531-0.13023 0.30012-0.78148
  -5   2  -4 1167.53  894.12   1-0.68343 0.20207 0.47798-0.28544 0.55176-0.93684
  -4   5  -2  823.62  442.26   1-0.46467 0.07959 0.38117 0.10018 0.79923-0.99178
  -4   5   2  637.45  454.77   1 0.06879-0.45388 0.09086 0.39049 0.99348-0.80094
  -5   2   4  728.66  655.65   1 0.30533-0.78668-0.05493 0.24747 0.95066-0.56557
  -5  -2   4  801.96  655.46   1 0.34693-0.82829-0.08174-0.11079 0.93432-0.54923
  -2   4   5  761.14  479.17   1 0.53762-0.73016-0.21032 0.59540 0.81653-0.33517
   2   4   5  785.07  481.44   1 0.79514-0.60259-0.41212 0.79720 0.44486 0.03649
  -2  -4   5 1145.87  563.10   1 0.80478-0.99733-0.42139 0.03630 0.41802 0.06333
  -3   0  -5  278.67  487.41   1-0.83679 0.54797 0.51888-0.51888 0.17475-0.65610
   0   5  -3  225.81  291.50   1-0.79871 0.79871 0.51451-0.03315 0.31197-0.60079
  -5  -3   0  319.51  221.63   1-0.59121 0.10985 0.43981-0.72863 0.67603-0.67603
  -5   3   0  532.50  390.26   1-0.18554-0.29580 0.23629 0.05252 0.95380-0.95380
   0   5   3  417.66  573.26   1 0.49674-0.49674-0.18185 0.66321 0.84862-0.55981
  -3   0   5  282.59  476.85   1 0.64133-0.93015-0.28559 0.28559 0.71212-0.23076
  -3  -1  -5 2314.61  766.24   1-0.85387 0.56505 0.51543-0.61170 0.07228-0.55364
  -3   1  -5 1067.17  714.24   1-0.81632 0.52751 0.51757-0.42130 0.25636-0.73772
  -5  -3  -1 1514.54  975.24   1-0.72844 0.24708 0.49438-0.78319 0.47429-0.57056
  -1   5  -3 2143.64  882.09   1-0.71723 0.62096 0.49048-0.00912 0.49496-0.78378
  -5  -3   1  671.41  573.10   1-0.35948-0.12187 0.32867-0.61749 0.87335-0.77707
  -5   3  -1 1219.16  611.32   1-0.32785-0.15350 0.31235-0.02354 0.89159-0.98786
  -5   3   1 1923.49  954.98   1-0.04517-0.43618 0.15746 0.13135 0.98649-0.89021
  -1   5   3 1681.25  565.40   1 0.41010-0.50637-0.12323 0.60459 0.90367-0.61485
   1   5   3 1690.08  501.06   1 0.58500-0.48873-0.24410 0.72546 0.77342-0.48460
  -3   1   5 1190.22  666.44   1 0.60575-0.89457-0.25920 0.35547 0.75224-0.27088
  -3  -1   5 2196.88  829.66   1 0.66902-0.95783-0.30664 0.21037 0.67703-0.19567
  -5  -3  -2  307.95  240.57   1-0.79901 0.31765 0.51457-0.80338 0.31110-0.50364
  -3   2  -5  807.96  703.82   1-0.79668 0.50787 0.51408-0.32154 0.31781-0.79917
  -2   5  -3  448.06  449.90   1-0.65112 0.45858 0.46519 0.01616 0.59968-0.88850
  -5   3  -2  434.27  491.99   1-0.45981-0.02154 0.37881-0.08999 0.80316-0.99570
  -5  -3   2  754.42  507.92   1-0.07980-0.40155 0.17723-0.46605 0.98092-0.78838
  -5   3   2   41.08  641.78   1 0.08144-0.56280 0.08333 0.20547 0.99318-0.80064
  -2   5   3  455.67  380.23   1 0.32701-0.51956-0.06886 0.55022 0.94250-0.65369
  -3   2   5  201.38  478.35   1 0.56263-0.85145-0.22804 0.42058 0.79463-0.31327
   2   5   3  351.06  493.45   1 0.67017-0.47762-0.30753 0.78889 0.67549-0.38667
  -3  -2   5 1170.00  905.82   1 0.68833-0.97715-0.32164 0.12910 0.65017-0.16881
  -2  -5   3  155.64  186.68   1 0.79042-0.98296-0.40769-0.07366 0.45717-0.16836
  -5  -3  -3  892.52  517.15   1-0.83503 0.35367 0.51892-0.80773 0.18285-0.47167
  -3   3  -5 1015.88  695.18   1-0.78072 0.49190 0.51030-0.22148 0.36064-0.84200
  -3   5  -3 1120.48  588.99   1-0.60555 0.31673 0.44605 0.03529 0.65904-0.94785
  -5   3  -3  -19.81  478.38   1-0.57293 0.09158 0.43172-0.14290 0.69667-0.98548
  -5  -3   3  436.23  768.06   1 0.15492-0.63628 0.03900-0.32782 0.98715-0.69834
  -5   3   3  779.62  507.19   1 0.18695-0.66831 0.01936 0.26944 0.98217-0.69336
  -3   5   3  294.96  507.56   1 0.24784-0.53665-0.01849 0.49985 0.96862-0.67980
  -3   3   5  302.91  482.71   1 0.51230-0.80112-0.19262 0.48143 0.83692-0.35556
  -3  -3   5  251.82  443.31   1 0.69842-0.98724-0.32960 0.04078 0.63526-0.15390
   3   5   3  342.32  314.08   1 0.74456-0.45574-0.36724 0.84860 0.55745-0.26863
   3   3   5  385.27  501.67   1 0.85555-0.56673-0.48172 0.77053 0.18966 0.29168
  -5  -3  -4  217.36  361.85   1-0.85317 0.37181 0.51576-0.80458 0.07794-0.46303
  -3   4  -5  234.39  700.36   1-0.77007 0.48126 0.50743-0.12235 0.38663-0.86799
  -5   3  -4 1046.18  663.51   1-0.66405 0.18269 0.47039-0.18158 0.58116-0.96625
  -4   5  -3  321.46  513.31   1-0.57780 0.19271 0.43389 0.04746 0.69129-0.98010
  -4   5   3  604.23  513.86   1 0.17227-0.55736 0.02839 0.45296 0.98463-0.69582
  -5   3   4  432.57  471.35   1 0.26939-0.75075-0.03207 0.32089 0.96249-0.57740
  -5  -3   4  603.16  373.51   1 0.31282-0.79418-0.05973-0.22907 0.94792-0.56284
  -3   4   5   70.80  394.68   1 0.45509-0.74390-0.15339 0.53848 0.87713-0.39577
  -3  -4   5  215.56  376.59   1 0.69743-0.98624-0.32881-0.05627 0.63676-0.15540
   3   4   5  168.01  568.81   1 0.82794-0.53912-0.44533 0.83042 0.34085 0.14049
   0   5  -4 1088.13  544.38   1-0.84083 0.84083 0.51865-0.03729 0.15492-0.54001
  -4   0  -5 2375.81  840.05   1-0.81586 0.43077 0.51751-0.51751 0.25797-0.73933
  -5   4   0 1356.68  733.15   1-0.19955-0.28180 0.24395 0.14113 0.94903-0.94903
  -4   0   5  739.98  513.63   1 0.53255-0.91763-0.20675 0.20675 0.82075-0.33939
   0   5   4 1210.58  418.52   1 0.57152-0.57152-0.23439 0.71575 0.78639-0.40130
  -4  -1  -5  571.69  771.04   1-0.83917 0.45409 0.51877-0.61504 0.16324-0.64460
  -1   5  -4   -8.66  467.25   1-0.79110 0.69483 0.51283-0.03148 0.33339-0.71848
  -4   1  -5  243.86  214.49   1-0.79174 0.40665 0.51298-0.41671 0.33164-0.81300
  -5   4  -1  453.63  469.84   1-0.33108-0.15027 0.31402 0.07105 0.88981-0.98608
  -5   4   1  289.31  636.77   1-0.07033-0.41102 0.17185 0.21323 0.98260-0.88633
  -1   5   4  182.74  365.18   1 0.49223-0.58850-0.17874 0.66010 0.85191-0.46682
  -4   1   5  222.66  558.16   1 0.50301-0.88809-0.18617 0.28245 0.84398-0.36262
  -4  -1   5 -263.08  419.00   1 0.55350-0.93859-0.22154 0.12527 0.80283-0.32147
   1   5   4  399.81  612.95   1 0.64660-0.55033-0.28956 0.77092 0.70573-0.32064
  -1  -5   4  249.40  465.36   1 0.86182-0.95809-0.49743 0.01607 0.09908 0.28600
  -4  -2  -5 1296.42  662.42   1-0.85669 0.47160 0.51370-0.70625 0.04665-0.52800
  -4   2  -5 1931.77  884.25   1-0.77032 0.38524 0.50750-0.31496 0.38604-0.86740
  -2   5  -4  901.48  610.10   1-0.74018 0.54763 0.49831-0.01695 0.45145-0.83654
  -5   4  -2  906.84  485.91   1-0.45490-0.02644 0.37642 0.00866 0.80706-0.99961
  -5   4   2 1027.09  503.16   1 0.04713-0.52849 0.10370 0.28138 0.99349-0.80094
  -2   5   4  756.59  474.33   1 0.41173-0.60427-0.12431 0.60567 0.90278-0.51769
  -4   2   5  571.02  884.64   1 0.46583-0.85091-0.16068 0.35322 0.87016-0.38880
  -4  -2   5  700.15  740.63   1 0.56439-0.94948-0.22929 0.03675 0.79302-0.31166
   2   5   4  472.07  393.81   1 0.71343-0.52089-0.34160 0.82296 0.61181-0.22672
  -2  -5   4 1009.20  404.17   1 0.80517-0.99771-0.42176-0.05958 0.41690-0.03181
  -4   3  -5  498.04  416.82   1-0.75379 0.36870 0.50264-0.21382 0.42325-0.90461
  -3   5  -4  563.18  366.41   1-0.69871 0.40989 0.48376-0.00240 0.52704-0.91212
  -5   4  -3  278.46  311.69   1-0.56350 0.08214 0.42749-0.04240 0.70690-0.99571
  -5   4   3  441.78  711.84   1 0.14674-0.62810 0.04398 0.34110 0.98819-0.69938
  -3   5   4  313.81  253.31   1 0.33186-0.62067-0.07198 0.55334 0.94057-0.55549
  -4   3   5  226.77  322.03   1 0.42166-0.80675-0.13093 0.41974 0.89724-0.41589
  -4  -3   5   46.69  290.91   1 0.56262-0.94771-0.22803-0.06078 0.79463-0.31328
   3   5   4  -48.70  217.38   1 0.76800-0.47919-0.38742 0.86878 0.50997-0.12488
   4   3   5  574.37  637.43   1 0.86202-0.47694-0.49864 0.78745 0.09092 0.39043
  -4   4  -5 1593.47  874.84   1-0.74324 0.35815 0.49930-0.11422 0.44529-0.92664
  -4   5  -4  342.00  522.29   1-0.66911 0.28402 0.47240 0.00895 0.57368-0.95877
  -5   4  -4 1302.88  601.47   1-0.65325 0.17189 0.46605-0.08097 0.59669-0.98178
  -5   4   4  686.33  530.01   1 0.22640-0.70776-0.00508 0.39016 0.97402-0.58893
  -4   5   4  867.59  357.01   1 0.25353-0.63862-0.02207 0.50343 0.96707-0.58198
  -4   4   5  738.04  487.03   1 0.37100-0.75609-0.09743 0.48252 0.92350-0.44214
   4   5   4  371.66  389.67   1 0.80796-0.42287-0.42452 0.90588 0.40862-0.02353
   4   4   5  823.98  711.93   1 0.84782-0.46273-0.46965 0.85473 0.24621 0.23514
   5   4   4  954.59  638.40   1 0.86162-0.38026-0.49648 0.88157 0.10539 0.27969
  -5   0  -5  124.19  387.05   1-0.79733 0.31597 0.51422-0.51422 0.31597-0.79733
  -5   5   0  124.34  497.85   1-0.22407-0.25728 0.25728 0.22407 0.93999-0.93999
  -5   0   5  -42.49  237.02   1 0.41797-0.89933-0.12846 0.12846 0.89933-0.41797
   0   5   5  164.11  362.84   1 0.61223-0.61223-0.26395 0.74531 0.74531-0.26395
  -1   5  -5  113.07  328.28   1-0.83242 0.73615 0.51890-0.03754 0.19440-0.67576
  -5  -1  -5  291.46  330.75   1-0.82384 0.34248 0.51842-0.61469 0.22917-0.71052
  -5   1  -5  267.32  437.02   1-0.77184 0.29048 0.50792-0.41165 0.38244-0.86380
  -5   5  -1  419.92  439.99   1-0.34569-0.13565 0.32159 0.15976 0.88151-0.97778
  -5   5   1  325.28  384.22   1-0.10455-0.37680 0.19124 0.29011 0.97595-0.87968
  -5   1   5  553.06  646.70   1 0.39684-0.87820-0.11444 0.21071 0.91072-0.42936
  -5  -1   5  952.26  684.26   1 0.42914-0.91050-0.13593 0.03966 0.89294-0.41158
  -1   5   5  -80.77  409.02   1 0.54202-0.63829-0.21342 0.69477 0.81281-0.33145
   1   5   5  144.02  428.84   1 0.67587-0.57960-0.31193 0.79329 0.66774-0.18638
  -1  -5   5  -71.87  324.46   1 0.85673-0.95300-0.48391 0.00255 0.17842 0.30293
  -5  -2  -5  309.75  726.47   1-0.84706 0.36570 0.51773-0.71027 0.12010-0.60146
  -2   5  -5  353.79  451.52   1-0.79810 0.60555 0.51438-0.03302 0.31375-0.79511
  -5   2  -5  587.62  558.75   1-0.75018 0.26882 0.50152-0.30897 0.43092-0.91228
  -5   5  -2  642.85  509.21   1-0.46119-0.02015 0.37948 0.10187 0.80204-0.99459
  -5   5   2 -189.57  469.36   1 0.00515-0.48651 0.12833 0.35302 0.99171-0.79917
  -5   2   5  433.49  632.01   1 0.36733-0.84869-0.09503 0.28758 0.92521-0.44386
  -5  -2   5  205.56  356.73   1 0.42785-0.90921-0.13506-0.05747 0.89369-0.41233
  -2   5   5  678.85  870.42   1 0.46771-0.66025-0.16196 0.64332 0.86891-0.38755
   2   5   5  356.49  419.08   1 0.73045-0.53790-0.35547 0.83683 0.58316-0.10180
  -3   5  -5 1049.95  713.51   1-0.76545 0.47663 0.50612-0.02476 0.39739-0.87875
  -5   3  -5  494.75  733.35   1-0.73396 0.25260 0.49625-0.20743 0.46371-0.94507
  -5   5  -3  -91.86  390.89   1-0.56405 0.08269 0.42773 0.05362 0.70631-0.99513
  -5   5   3  -53.31  518.58   1 0.09978-0.58114 0.07236 0.40899 0.99237-0.70355
  -5   3   5 -217.66  394.58   1 0.33047-0.81183-0.07109 0.35990 0.94113-0.45977
  -3   5   5 -138.78  357.92   1 0.39130-0.68012-0.11078 0.59214 0.91356-0.43220
  -5  -3   5  -45.41  299.10   1 0.40967-0.89103-0.12294-0.16587 0.90390-0.42255
   3   5   5  458.44  488.72   1 0.77413-0.48531-0.39285 0.87420 0.49637-0.01501
  -4   5  -5  474.74  426.07   1-0.73902 0.35393 0.49793-0.01657 0.45376-0.93512
  -5   4  -5  418.59  438.92   1-0.72391 0.24255 0.49282-0.10773 0.48277-0.96413
  -5   5  -4  167.35  435.67   1-0.65066 0.16930 0.46500 0.01635 0.60034-0.98542
  -5   5   4  139.96  611.28   1 0.17711-0.65847 0.02542 0.45593 0.98386-0.59877
  -5   4   5 -153.70  392.82   1 0.28698-0.76834-0.04323 0.42831 0.95695-0.47560
  -4   5   5  495.57  357.46   1 0.31422-0.69931-0.06063 0.54199 0.94740-0.46605
   4   5   5  172.02  299.59   1 0.80641-0.42132-0.42298 0.90434 0.41325 0.06810
   5   4   5  -39.62  346.45   1 0.85786-0.37650-0.48616 0.87125 0.16646 0.31489
  -5   5  -5  475.59  778.07   1-0.72017 0.23881 0.49152-0.01016 0.48965-0.97101
  -5   5   5  515.74  522.86   1 0.23737-0.71873-0.01193 0.49329 0.97134-0.48998
   0   6   035411.85 2017.28   1-0.28297 0.28297 0.28881 0.28881 0.91460-0.91460
  -6   0   028120.92 3973.14   1-0.28881-0.28881 0.29190-0.29190 0.91179-0.91179
   0   0   634196.72 1770.30   1 0.83998-0.83998-0.45936 0.45936 0.28881 0.28881
  -6   0  -114914.01 2604.03   1-0.43402-0.14360 0.36618-0.36618 0.82312-0.91939
  -1   6   011805.18 1889.31   1-0.22719 0.13092 0.25897 0.31865 0.93878-0.93878
  -6   0   112870.54 2414.57   1-0.13540-0.44222 0.20854-0.20854 0.96859-0.87232
   0   1   614298.26 1602.26   1 0.82007-0.82007-0.43685 0.53312 0.36964 0.20798
   0  -1   614796.31 1590.75   1 0.85212-0.85212-0.47600 0.37973 0.21750 0.36012
  -6   0  -214007.41 2687.58   1-0.55836-0.01926 0.42516-0.42516 0.71236-0.90491
  -2   6   011965.38 2702.59   1-0.21143 0.01889 0.25042 0.32720 0.94476-0.94476
  -6   0   214962.31 2645.76   1 0.00977-0.58740 0.12564-0.12564 0.99202-0.79948
   0   2   617174.42 1736.01   1 0.79055-0.79055-0.40781 0.60036 0.45684 0.12078
   0  -2   620011.60 1991.29   1 0.85855-0.85855-0.48765 0.29510 0.15835 0.41927
  -6   0  -3 3592.29 1214.42   1-0.65682 0.07919 0.46750-0.46750 0.59162-0.88043
  -3   6   0 2260.32 1206.68   1-0.21610-0.07270 0.25296 0.32466 0.94303-0.94303
  -6   0   3 4906.04 2362.62   1 0.13380-0.71143 0.05184-0.05184 0.98965-0.70083
   0   3   6 3395.78  799.99   1 0.75003-0.75003-0.37187 0.66068 0.54695 0.03067
   0  -3   6 3086.41  647.01   1 0.86132-0.86132-0.49524 0.20642 0.11339 0.46423
  -6   0  -4 2014.26  757.35   1-0.73061 0.15298 0.49512-0.49512 0.47015-0.85524
  -4   6   0 2037.96  653.28   1-0.23278-0.15230 0.26198 0.31564 0.93657-0.93657
   0   4   6 2782.10  779.04   1 0.69761-0.69761-0.32896 0.71404 0.63648-0.05885
   0  -4   6 3123.42  810.25   1 0.86215-0.86215-0.49961 0.11453 0.08409 0.49353
  -6   0  -5  585.29  409.91   1-0.78366 0.20603 0.51104-0.51104 0.35313-0.83449
  -5   6   0  914.94  552.97   1-0.25715-0.22419 0.27508 0.30254 0.92639-0.92639
  -6   0   5 1026.73  639.87   1 0.30340-0.88103-0.05370 0.05370 0.95134-0.46998
   0   5   6  783.48  692.27   1 0.63289-0.63289-0.27927 0.76063 0.72211-0.14447
   0  -5   6  796.82  821.65   1 0.86227-0.86227-0.50134 0.01999 0.07158 0.50604
   0   6  -114010.91 2461.57   1-0.54306 0.54306 0.41819 0.15943 0.72814-0.82441
  -6  -1   018487.34 2844.01   1-0.35088-0.22674 0.32425-0.42053 0.87848-0.87848
  -6   1   011436.67 2828.03   1-0.25149-0.32613 0.27205-0.17577 0.92883-0.92883
   0   6   114249.30 2167.97   1-0.00048 0.00048 0.13162 0.44600 0.99129-0.89502
  -1   0   617670.04 1715.70   1 0.80049-0.89677-0.41723 0.41723 0.43025 0.14737
   1   0   617153.77 1865.09   1 0.85892-0.76265-0.48848 0.48848 0.15368 0.42394
  -6  -1  -1 3543.85 1483.39   1-0.49943-0.07819 0.39783-0.49411 0.76960-0.86587
  -1   6  -1 2991.54  878.98   1-0.43852 0.34225 0.36839 0.20923 0.81974-0.91601
  -6   1  -1 5790.69 1880.72   1-0.38986-0.18776 0.34412-0.24785 0.85415-0.95042
  -6  -1   1 4004.91 1518.73   1-0.18522-0.39240 0.23611-0.33238 0.95390-0.85763
  -6   1   1 3533.89 1206.52   1-0.11001-0.46761 0.19431-0.09804 0.97474-0.87847
   1   6   1 3961.64  991.06   1-0.02082 0.11709 0.14342 0.43420 0.98944-0.89317
  -1   6   1 3191.11  903.81   1-0.01130-0.08496 0.13791 0.43971 0.99037-0.89410
  -1   1   6 5514.83 1078.73   1 0.77297-0.86924-0.39181 0.48808 0.49899 0.07863
  -1  -1   6 3845.77  774.85   1 0.82033-0.91660-0.43713 0.34086 0.36872 0.20890
   1   1   6 3652.81  855.48   1 0.84852-0.75225-0.47064 0.56691 0.24187 0.33575
   1  -1   6 4078.91  897.10   1 0.86223-0.76596-0.50050 0.40423 0.07773 0.49989
  -6  -1  -2 9457.15 2059.56   1-0.61853 0.04090 0.45162-0.54789 0.64300-0.83554
  -6   1  -2 5484.12 2234.27   1-0.51369-0.06393 0.40456-0.30829 0.75659-0.94913
  -2   6  -1 7423.51 1939.52   1-0.38691 0.19437 0.34263 0.23499 0.85609-0.95236
  -2   6   1 4880.58 1295.27   1-0.03614-0.15639 0.15226 0.42536 0.98767-0.89140
  -6  -1   2 6438.07 2364.40   1-0.02335-0.55427 0.14488-0.24115 0.98917-0.79662
  -6   1   2 5573.46 2219.99   1 0.02174-0.59937 0.11863-0.02236 0.99269-0.80015
  -1   2   6 6573.22 1020.63   1 0.73673-0.83300-0.36068 0.55322 0.57194 0.00568
   1   2   6 6670.16 1114.43   1 0.82830-0.73203-0.44573 0.63827 0.33945 0.23817
  -1  -2   6 9615.84 1253.56   1 0.83374-0.93001-0.45190 0.25935 0.31725 0.26037
  -6  -1  -3 1382.66  518.69   1-0.70681 0.12918 0.48674-0.58301 0.51330-0.80212
  -6   1  -3  974.41  662.80   1-0.61661 0.03898 0.45080-0.35453 0.64541-0.93422
  -3   6  -1 1381.59  642.63   1-0.36503 0.07622 0.33151 0.24611 0.86996-0.96623
  -3   6   1  765.84  453.51   1-0.06865-0.22015 0.17089 0.40673 0.98289-0.88662
  -6  -1   3  999.73  557.17   1 0.11617-0.69380 0.06250-0.15877 0.99126-0.70244
  -6   1   3 2247.63 1068.80   1 0.13434-0.71197 0.05152 0.04475 0.98959-0.70077
  -1   3   6  891.42  665.23   1 0.69111-0.78738-0.32382 0.61264 0.64614-0.06851
   1   3   6  741.73  596.20   1 0.79590-0.69963-0.41284 0.70166 0.44281 0.13481
  -1  -3   6  952.32  639.97   1 0.84206-0.93833-0.46197 0.17316 0.27839 0.29923
  -1   4  -6  886.80  579.56   1-0.85524 0.75897 0.51468-0.12959 0.06046-0.63809
  -6  -1  -4 1187.23  587.26   1-0.76906 0.19143 0.50715-0.60342 0.38901-0.77409
  -6   1  -4 1532.38  827.47   1-0.69743 0.11980 0.48328-0.38701 0.52917-0.91425
  -4   6  -1 1343.83  840.93   1-0.36138-0.02370 0.32964 0.24798 0.87220-0.96847
  -4   6   1 1775.44  587.28   1-0.10589-0.27919 0.19199 0.38563 0.97566-0.87939
  -6  -1   4 1585.46  897.40   1 0.22506-0.80269-0.00424-0.09202 0.97433-0.58924
  -6   1   4  928.05  749.50   1 0.22393-0.80157-0.00354 0.09981 0.97459-0.58950
  -1   4   6 1768.23  701.42   1 0.63575-0.73202-0.28140 0.66649 0.71876-0.14113
   1   4   6  758.10  426.78   1 0.74954-0.65326-0.37145 0.75654 0.54791 0.02971
  -1  -4   6 2222.42  785.68   1 0.84644-0.94271-0.46774 0.08265 0.25444 0.32318
  -1   5  -6  128.33  431.76   1-0.85360 0.75733 0.51556-0.03420 0.07450-0.65213
  -6  -1  -5  728.95  560.46   1-0.81128 0.23365 0.51683-0.61310 0.27329-0.75465
  -6   1  -5  678.85  689.36   1-0.75817 0.18054 0.50397-0.40770 0.41372-0.89508
  -5   6  -1  107.29  186.16   1-0.36965-0.11170 0.33387 0.24375 0.86711-0.96338
  -5   6   1  414.88  354.10   1-0.14624-0.33511 0.21458 0.36304 0.96569-0.86942
  -6   1   5  275.54  613.48   1 0.29123-0.86886-0.04593 0.14220 0.95554-0.47419
  -6  -1   5  -43.61  413.45   1 0.30418-0.88181-0.05420-0.04206 0.95106-0.46971
  -1   5   6  125.58  410.39   1 0.57058-0.66686-0.23372 0.71508 0.78727-0.20964
   1   5   6  412.19  342.81   1 0.68805-0.59178-0.32142 0.80278 0.65058-0.07295
  -1  -5   6  309.76  761.65   1 0.84760-0.94387-0.46934-0.01201 0.24755 0.33007
   0   6  -214583.55 3226.95   1-0.71240 0.71240 0.48876 0.08886 0.50357-0.69611
  -6  -2   017871.16 3531.31   1-0.44471-0.13291 0.37144-0.56398 0.81501-0.81501
  -6   2   012757.81 2289.02   1-0.23345-0.34417 0.26235-0.06980 0.93630-0.93630
   0   6   214088.65 2906.75   1 0.22453-0.22453-0.00391 0.58154 0.97445-0.78191
  -2   0   615142.14 1671.05   1 0.73926-0.93181-0.36279 0.36279 0.56732 0.01030
  -2   1  -6 8419.77 1285.88   1-0.85711 0.66457 0.51338-0.41711 0.04234-0.61997
  -1   6  -2 5099.49 1571.06   1-0.60717 0.51090 0.44675 0.13087 0.65707-0.84961
  -6  -2  -1 9739.34 2317.39   1-0.58833 0.01070 0.43855-0.63109 0.67935-0.77563
  -6   2  -1 9314.24 2298.99   1-0.36376-0.21386 0.33086-0.13832 0.87074-0.96702
  -6  -2   1 7204.90 1692.73   1-0.26927-0.30835 0.28154-0.47409 0.92098-0.82471
  -6   2   1 4774.47 1763.74   1-0.10278-0.47484 0.19024 0.00229 0.97634-0.88006
  -1   6   2 8268.54 2336.09   1 0.17103-0.26730 0.02915 0.54847 0.98483-0.79229
   1   6   2 8083.37 1850.37   1 0.27769-0.18142-0.03733 0.61496 0.95994-0.76739
  -2   1   6 3198.25  809.57   1 0.70768-0.90023-0.33697 0.43324 0.62098-0.04335
  -2  -1   6 8876.11 1311.30   1 0.76355-0.95609-0.38351 0.28724 0.51952 0.05810
   2   1   611107.49 1568.44   1 0.86082-0.66827-0.49351 0.58978 0.12424 0.45339
  -2   2  -6 9261.44 1386.10   1-0.84979 0.65724 0.51703-0.32448 0.10261-0.68024
  -6  -2  -2 9610.57 2359.72   1-0.69254 0.11491 0.48145-0.67399 0.53719-0.72974
  -2   6  -2 8541.72 1906.99   1-0.53995 0.34741 0.41676 0.16086 0.73126-0.92381
  -6   2  -2 7019.85 3106.48   1-0.48391-0.09371 0.39044-0.19789 0.78318-0.97573
  -6  -2   2 7266.02 1503.29   1-0.08688-0.49074 0.18125-0.37379 0.97959-0.78704
  -6   2   2 6215.49 2191.69   1 0.01809-0.59573 0.12077 0.07177 0.99251-0.79997
  -2   6   2 9304.34 2231.86   1 0.11742-0.30996 0.06175 0.51587 0.99116-0.79861
   2   6   2 8277.61 1647.40   1 0.32998-0.13743-0.07077 0.64840 0.94133-0.74878
  -2   2   6 8328.32 1318.99   1 0.66840-0.86095-0.30617 0.49871 0.67785-0.10022
  -2  -2   610178.40 1334.86   1 0.78104-0.97358-0.39907 0.20653 0.48032 0.09731
   2   2   6 9446.29 1284.94   1 0.85073-0.65818-0.47387 0.66641 0.22737 0.35025
  -2   3  -6 1532.34  741.29   1-0.84235 0.64981 0.51850-0.22968 0.14692-0.72455
  -6  -2  -3 1756.68  806.88   1-0.76303 0.18540 0.50541-0.69796 0.40290-0.69171
  -6   2  -3 2309.57  972.06   1-0.58733 0.00970 0.43810-0.24556 0.68051-0.96933
  -3   6  -2 1308.31  587.13   1-0.50107 0.21225 0.39861 0.17901 0.76813-0.96067
  -6  -2   3 1434.19  823.28   1 0.07440-0.65203 0.08753-0.28007 0.99337-0.70456
  -3   6   2 2584.70  792.80   1 0.06380-0.35262 0.09383 0.48379 0.99354-0.80099
  -2   3   6 1551.73  645.72   1 0.62119-0.81374-0.27057 0.55938 0.73546-0.15783
  -2  -3   6 2710.87  813.44   1 0.79224-0.98478-0.40939 0.12057 0.45249 0.12513
   2   3   6 1934.87  658.19   1 0.82820-0.63566-0.44562 0.73443 0.33985 0.23777
  -2   4  -6 2364.88  891.63   1-0.83662 0.64407 0.51889-0.13380 0.17553-0.75316
  -6  -2  -4 2310.68  722.40   1-0.80885 0.23122 0.51643-0.70897 0.28116-0.66624
  -6   2  -4 1990.20  941.71   1-0.67152 0.09389 0.47335-0.28081 0.57007-0.95515
  -4   6  -2 1483.81  897.98   1-0.48201 0.09692 0.38953 0.18809 0.78481-0.97735
  -4   6   2 1259.62  903.17   1 0.01020-0.39529 0.12538 0.45224 0.99205-0.79951
  -6  -2   4  520.77  396.12   1 0.20012-0.77775 0.01124-0.20378 0.97970-0.59461
  -6   2   4 1363.79  595.39   1 0.20571-0.78334 0.00778 0.18476 0.97858-0.59349
  -2   4   6 1572.29  829.35   1 0.56598-0.75853-0.23043 0.61552 0.79155-0.21392
   2   4   6  551.95  389.17   1 0.79027-0.59773-0.40756 0.79264 0.45754 0.12008
  -2  -4   6 1709.52  581.95   1 0.79735-0.98990-0.41422 0.02913 0.43890 0.13872
  -6  -2  -5  632.14  493.13   1-0.83745 0.25981 0.51886-0.71140 0.17162-0.65298
  -2   5  -6  676.60  462.44   1-0.83369 0.64115 0.51892-0.03756 0.18886-0.76649
  -6   2  -5  480.38  497.03   1-0.73707 0.15944 0.49728-0.30474 0.45763-0.93899
  -5   6  -2  330.28  448.85   1-0.47691-0.00444 0.38708 0.19054 0.78912-0.98166
  -5   6   2 -140.49  424.20   1-0.04336-0.43799 0.15642 0.42120 0.98673-0.79419
  -6   2   5   86.94  303.43   1 0.26975-0.84738-0.03230 0.22484 0.96238-0.48102
  -6  -2   5  432.39  381.75   1 0.29019-0.86782-0.04527-0.14726 0.95589-0.47453
  -2   5   6  133.97  467.82   1 0.50282-0.69537-0.18605 0.66741 0.84412-0.26649
   2   5   6  415.86  553.87   1 0.73464-0.54210-0.35894 0.84030 0.57571 0.00191
  -3   0  -6 4529.71 1081.27   1-0.85458 0.56577 0.51505-0.51505 0.06627-0.64390
   0   6  -3 4441.63 1179.25   1-0.80021 0.80021 0.51481 0.06281 0.30760-0.59641
  -6  -3   0 3978.39 1183.14   1-0.57801 0.00038 0.43398-0.72279 0.69105-0.69105
  -6   3   0 3030.03 1042.27   1-0.23061-0.34702 0.26081 0.02799 0.93743-0.93743
   0   6   3 3933.32 1001.24   1 0.37469-0.37469-0.09985 0.67748 0.92175-0.63293
  -3   0   6 2771.57  970.69   1 0.65880-0.94762-0.29882 0.29882 0.69042-0.11279
  -3   1  -6 2138.71 1016.66   1-0.84377 0.55496 0.51832-0.42204 0.13923-0.71686
  -1   6  -3 1183.25  751.80   1-0.72179 0.62552 0.49208 0.08554 0.48668-0.77550
  -6  -3  -1  790.42  486.71   1-0.69875 0.12112 0.48377-0.77259 0.52696-0.62323
  -6   3  -1 1908.00  815.59   1-0.35268-0.22494 0.32518-0.03637 0.87742-0.97369
  -6   3   1 1505.29  569.03   1-0.10954-0.46808 0.19405 0.09476 0.97485-0.87858
  -1   6   3 1283.72  516.81   1 0.30580-0.40207-0.05523 0.63286 0.95049-0.66167
   1   6   3 1030.10  372.98   1 0.44532-0.34905-0.14680 0.72443 0.88324-0.59443
  -3   1   6  406.24  701.19   1 0.62731-0.91613-0.27511 0.37138 0.72855-0.15092
  -3  -1   6 1099.49  873.92   1 0.68310-0.97191-0.31755 0.22128 0.65766-0.08003
  -3   2  -6 1123.96  685.21   1-0.83208 0.54326 0.51890-0.32635 0.19589-0.77353
  -6  -3  -2 1833.03  539.92   1-0.77347 0.19584 0.50837-0.79719 0.37853-0.57107
  -2   6  -3 2177.18  791.36   1-0.65853 0.46598 0.46818 0.10944 0.58918-0.87799
  -6   3  -2 1708.82  627.21   1-0.46748-0.11014 0.38253-0.09372 0.79694-0.98948
  -2   6   3 1414.12  503.17   1 0.23875-0.43130-0.01280 0.59043 0.97099-0.68217
   2   6   3 2249.00  506.07   1 0.51696-0.32442-0.19586 0.77349 0.83329-0.54448
  -3   2   6 1677.40  783.70   1 0.58872-0.87754-0.24679 0.43933 0.76973-0.19210
  -3  -2   6 1881.72  626.73   1 0.70003-0.98884-0.33087 0.13832 0.63283-0.05520
   3   2   6 2163.20  726.77   1 0.86066-0.57185-0.49303 0.68558 0.12712 0.45050
  -3   3  -6  695.50  612.61   1-0.82180 0.53299 0.51823-0.22941 0.23679-0.81442
  -6  -3  -3  305.94  316.27   1-0.81777 0.24014 0.51776-0.80658 0.25133-0.54014
  -3   6  -3  355.18  361.71   1-0.61456 0.32574 0.44993 0.12769 0.64797-0.93679
  -6   3  -3  973.47  786.48   1-0.56884-0.00878 0.42989-0.14107 0.70114-0.98995
  -6   3   3  602.49  853.37   1 0.09930-0.67693 0.07265 0.21616 0.99240-0.70358
  -3   6   3 1355.62  667.32   1 0.17340-0.46222 0.02769 0.54993 0.98446-0.69564
  -3   3   6  423.66  715.31   1 0.54311-0.83193-0.21419 0.50300 0.81187-0.23424
  -3  -3   6  589.22  606.89   1 0.70912-0.99793-0.33812 0.04931 0.61871-0.04108
   3   3   6  766.08  769.19   1 0.84815-0.55933-0.47011 0.75892 0.24420 0.33342
  -6  -3  -4  167.55  376.84   1-0.84326 0.26563 0.51838-0.80720 0.14203-0.52712
  -3   4  -6 1010.90  859.46   1-0.81446 0.52565 0.51731-0.13223 0.26273-0.84036
  -6   3  -4  412.07  405.84   1-0.65367 0.07604 0.46622-0.17741 0.59610-0.98119
  -4   6  -3  673.15  660.60   1-0.58731 0.20223 0.43810 0.13952 0.68053-0.96934
  -4   6   3 1481.81  737.79   1 0.10951-0.49460 0.06651 0.51111 0.99175-0.70294
  -6   3   4  762.25  677.53   1 0.17861-0.75624 0.02450 0.26431 0.98361-0.59852
  -3   4   6  435.67  465.14   1 0.49059-0.77941-0.17761 0.56270 0.85309-0.27546
  -3  -4   6  540.63  457.44   1 0.70924-0.99806-0.33823-0.04685 0.61851-0.04088
   3   4   6   61.55  331.58   1 0.81981-0.53099-0.43658 0.82167 0.37053 0.20709
  -6  -3  -5  466.52  678.18   1-0.85675 0.27912 0.51366-0.80247 0.04601-0.52737
  -3   5  -6  776.42  807.53   1-0.81091 0.52209 0.51677-0.03541 0.27451-0.85214
  -6   3  -5  -86.27  485.66   1-0.72154 0.14391 0.49199-0.20318 0.48714-0.96850
  -5   6  -3  397.19  443.43   1-0.57334 0.09199 0.43190 0.14572 0.69622-0.98503
  -5   6   3 -145.14  429.14   1 0.04683-0.52819 0.10387 0.47375 0.99348-0.70467
  -6   3   5  856.97  674.34   1 0.24034-0.81797-0.01379 0.30260 0.97059-0.48923
  -3   5   6  264.69  285.23   1 0.43128-0.72009-0.13736 0.61872 0.89169-0.31406
   3   5   6  104.45  324.53   1 0.77191-0.48310-0.39087 0.87223 0.50135 0.07627
  -4   0  -6 2988.10 1025.73   1-0.84277 0.45769 0.51845-0.51845 0.14467-0.72230
   0   6  -4 3402.72  951.51   1-0.84136 0.84136 0.51860 0.05902 0.15214-0.53722
  -6   4   0 1722.97 1070.38   1-0.23994-0.33768 0.26584 0.11923 0.93367-0.93367
  -4   0   6 3395.05 1045.43   1 0.56412-0.94921-0.22910 0.22910 0.79326-0.21563
  -4  -1  -6  701.51  761.12   1-0.85537 0.47029 0.51460-0.61087 0.05928-0.63691
  -4   1  -6 1143.35  698.66   1-0.82792 0.44283 0.51873-0.42245 0.21320-0.79083
  -1   6  -4 2265.68  735.98   1-0.79235 0.69607 0.51312 0.06450 0.32997-0.71506
  -6   4  -1 1008.44  838.24   1-0.35404-0.22358 0.32588 0.05920 0.87661-0.97288
  -6   4   1 1120.04  809.91   1-0.12738-0.45024 0.20406 0.18102 0.97063-0.87436
  -1   6   4 1139.59  459.22   1 0.39800-0.49428-0.11521 0.69284 0.91011-0.52503
   1   6   4 1211.68  555.89   1 0.53619-0.43992-0.20931 0.78694 0.81772-0.43264
  -4   1   6  843.69  773.48   1 0.53630-0.92139-0.20939 0.30566 0.81763-0.24000
  -4  -1   6 1486.95  969.27   1 0.58428-0.96937-0.24358 0.14731 0.77412-0.19649
  -4   2  -6 1341.23  793.76   1-0.81362 0.42854 0.51719-0.32465 0.26554-0.84318
  -2   6  -4 2084.43  644.08   1-0.74277 0.55023 0.49915 0.07847 0.44622-0.83131
  -6   4  -2 1030.98  633.95   1-0.46272-0.11490 0.38022 0.00485 0.80082-0.99336
  -6   4   2  743.19  657.23   1-0.02305-0.55457 0.14471 0.24037 0.98920-0.79666
  -2   6   4 1196.69  503.14   1 0.32798-0.52052-0.06948 0.64711 0.94212-0.55703
  -4   2   6 1837.84  945.32   1 0.50138-0.88646-0.18505 0.37759 0.84520-0.26757
  -4  -2   6 2043.94  739.15   1 0.59587-0.98095-0.25198 0.05944 0.76252-0.18489
   2   6   4  746.76  336.98   1 0.60115-0.40860-0.25583 0.83346 0.75707-0.37199
  -4   3  -6 1051.69  822.07   1-0.80184 0.41676 0.51514-0.22633 0.30275-0.88038
  -3   6  -4  626.32  708.46   1-0.70254 0.41373 0.48517 0.09245 0.52060-0.90569
  -6   4  -3  527.13  453.35   1-0.56041-0.01721 0.42609-0.04100 0.71019-0.99901
  -6   4   3 1231.55  650.72   1 0.06818-0.64581 0.09123 0.29385 0.99349-0.70467
  -3   6   4  575.51  381.88   1 0.25846-0.54728-0.02518 0.60281 0.96569-0.58060
  -4   3   6  -41.76  440.58   1 0.45973-0.84482-0.15654 0.44536 0.87414-0.29651
  -4  -3   6  -54.57  288.49   1 0.59729-0.98237-0.25301-0.03579 0.76106-0.18343
   4   3   6  226.46  426.19   1 0.85835-0.47327-0.48721 0.77603 0.16074 0.41688
  -4   4  -6  385.04  865.64   1-0.79379 0.40871 0.51345-0.12836 0.32596-0.90359
  -4   6  -4  671.14  556.04   1-0.67372 0.28864 0.47422 0.10341 0.56674-0.95183
  -6   4  -4  754.38  671.44   1-0.64387 0.06624 0.46222-0.07714 0.60973-0.99481
  -6   4   4 1257.10  556.21   1 0.14394-0.72157 0.04569 0.33939 0.98853-0.60344
  -4   6   4  304.00  563.42   1 0.18978-0.57487 0.01762 0.56000 0.98166-0.59657
  -4   4   6  802.54  364.79   1 0.41166-0.79674-0.12426 0.50935 0.90282-0.32519
   4   4   6  679.07  689.52   1 0.83938-0.45430-0.45862 0.84371 0.29169 0.28593
  -4   5  -6 1064.63  815.20   1-0.79008 0.40500 0.51260-0.03124 0.33615-0.91378
  -6   4  -5  -90.80  469.96   1-0.71208 0.13445 0.48864-0.10356 0.50413-0.98549
  -5   6  -4  456.15  494.04   1-0.65559 0.17423 0.46700 0.11062 0.59338-0.97847
  -5   6   4  293.95  367.48   1 0.12206-0.60342 0.05895 0.51867 0.99076-0.60568
  -6   4   5  212.96  302.63   1 0.20395-0.78158 0.00887 0.37621 0.97894-0.49758
  -4   5   6  532.94  364.85   1 0.35736-0.74245-0.08852 0.56988 0.92976-0.35212
   4   5   6  427.00  301.44   1 0.79997-0.41489-0.41673 0.89809 0.43170 0.14592
  -5   0  -6  949.22  818.34   1-0.83048 0.34912 0.51885-0.51885 0.20269-0.78032
  -6   5   0  945.81  581.28   1-0.25922-0.31840 0.27618 0.20517 0.92548-0.92548
  -5   0   6  279.87  522.25   1 0.46085-0.94221-0.15730 0.15730 0.87342-0.29579
   0   6   5  382.33  433.44   1 0.52371-0.52371-0.20057 0.77820 0.82794-0.34658
  -5  -1  -6  386.08  493.18   1-0.84676 0.36540 0.51780-0.61407 0.12193-0.69956
  -1   6  -5  -27.93  386.71   1-0.83289 0.73662 0.51891 0.05871 0.19239-0.67375
  -5   1  -6  963.00  732.38   1-0.81332 0.33196 0.51715-0.42087 0.26656-0.84419
  -6   5  -1 -300.71  484.38   1-0.36575-0.21187 0.33188 0.14947 0.86952-0.96579
  -6   5   1  316.59  432.21   1-0.15429-0.42333 0.21904 0.26231 0.96343-0.86716
  -5   1   6  284.81  490.71   1 0.43907-0.92043-0.14259 0.23886 0.88706-0.30943
  -1   6   5  190.35  503.10   1 0.45820-0.55447-0.15550 0.73313 0.87513-0.39377
   1   6   5  349.69  296.59   1 0.58537-0.48910-0.24437 0.82200 0.77305-0.29169
  -5   2  -6  296.91  594.22   1-0.79775 0.31639 0.51431-0.32176 0.31475-0.89239
  -2   6  -5  855.10  762.87   1-0.79895 0.60640 0.51456 0.06306 0.31128-0.79264
  -6   5  -2  484.86  454.60   1-0.46799-0.10963 0.38278 0.09857 0.79652-0.98907
  -6   5   2  688.50  442.48   1-0.05654-0.52108 0.16397 0.31738 0.98484-0.79229
  -2   6   5  710.90  452.07   1 0.39032-0.58287-0.11013 0.68776 0.91406-0.43270
  -5   2   6  620.60  506.24   1 0.40971-0.89107-0.12296 0.31551 0.90388-0.32625
  -5  -2   6  569.95  510.40   1 0.47681-0.95817-0.16817-0.02436 0.86276-0.28513
   2   6   5  408.47  357.96   1 0.64144-0.44889-0.28567 0.86330 0.71199-0.23064
  -5   3  -6 -210.29  489.92   1-0.78539 0.30403 0.51147-0.22266 0.34864-0.92627
  -3   6  -5  142.53  625.52   1-0.76689 0.47807 0.50653 0.07109 0.39407-0.87543
  -6   5  -3  692.04  600.82   1-0.56103-0.01659 0.42637 0.05498 0.70953-0.99834
  -6   5   3  407.52  533.67   1 0.02984-0.60747 0.11388 0.36747 0.99304-0.70423
  -3   6   5  339.21  425.23   1 0.32120-0.61001-0.06511 0.64275 0.94476-0.46340
  -5   3   6  107.78  633.47   1 0.37347-0.85482-0.09905 0.38787 0.92233-0.34470
   5   3   6  619.24  730.74   1 0.86199-0.38063-0.49841 0.78723 0.09246 0.48516
  -5   4  -6  121.60  494.91   1-0.77718 0.29582 0.50937-0.12428 0.36949-0.94712
  -4   6  -5   52.89  559.43   1-0.74100 0.35591 0.49858 0.07904 0.44980-0.93116
  -6   5  -4  282.59  304.61   1-0.64172 0.06409 0.46134 0.02001 0.61265-0.99774
  -6   5   4  414.92  342.30   1 0.10261-0.68024 0.07066 0.41069 0.99220-0.60712
  -4   6   5  -12.41  423.93   1 0.25160-0.63668-0.02085 0.59849 0.96760-0.48624
  -5   4   6  539.07  654.26   1 0.33083-0.81219-0.07132 0.45641 0.94098-0.36335
   5   4   6  716.84  657.43   1 0.85110-0.36974-0.47443 0.85952 0.22477 0.35285
  -5   5  -6  257.82  540.52   1-0.77355 0.29219 0.50839-0.02703 0.37834-0.95597
  -5   6  -5  676.78  684.40   1-0.72250 0.24114 0.49233 0.08529 0.48537-0.96673
  -6   5  -5  643.50  625.79   1-0.70873 0.13110 0.48744-0.00608 0.50999-0.99134
  -6   5   5  189.23  609.05   1 0.16124-0.73887 0.03514 0.44621 0.98628-0.50492
  -5   6   5  133.78  504.16   1 0.18200-0.66336 0.02241 0.55521 0.98304-0.50168
  -5   5   6  454.95  411.23   1 0.28214-0.76350-0.04015 0.52151 0.95853-0.38090
  -6   0  -6 1032.45  802.92   1-0.82022 0.24259 0.51805-0.51805 0.24259-0.82022
  -6   6   0  648.92  477.65   1-0.28679-0.29083 0.29083 0.28679 0.91277-0.91277
  -6   0   6  507.55  404.36   1 0.35373-0.93136-0.08616 0.08616 0.93136-0.35373
   0   6   6  530.41  511.32   1 0.55579-0.55579-0.22317 0.80080 0.80080-0.22317
  -1   6  -6  592.42  850.76   1-0.85389 0.75762 0.51542 0.06220 0.07208-0.64971
  -6  -1  -6  156.97  353.29   1-0.83853 0.26090 0.51881-0.61508 0.16641-0.74404
  -6   1  -6  269.81  729.72   1-0.80202 0.22439 0.51518-0.41890 0.30223-0.87986
  -6   6  -1  843.56  412.84   1-0.38616-0.19147 0.34225 0.23537 0.85658-0.95285
  -6   6   1  505.38  358.37   1-0.18879-0.38883 0.23807 0.33956 0.95272-0.85644
  -6   1   6  311.06  370.22   1 0.33915-0.91678-0.07670 0.17297 0.93759-0.35996
  -6  -1   6   34.91  250.04   1 0.35848-0.93611-0.08925-0.00701 0.92925-0.35162
  -1   6   6   87.90  387.83   1 0.49569-0.59196-0.18112 0.75875 0.84939-0.27176
   1   6   6  454.91  393.75   1 0.61086-0.51459-0.26295 0.84058 0.74679-0.16916
  -6  -2  -6  835.02  750.07   1-0.85386 0.27623 0.51543-0.70798 0.07233-0.64996
  -2   6  -6  177.22  493.72   1-0.83406 0.64152 0.51892 0.05870 0.18722-0.76485
  -6   2  -6  850.57  509.94   1-0.78606 0.20843 0.51164-0.31909 0.34688-0.92451
  -6   6  -2  407.89  534.77   1-0.48188-0.09574 0.38947 0.18815 0.78491-0.97746
  -6   6   2  682.76  506.70   1-0.09692-0.48070 0.18693 0.39069 0.97757-0.78503
  -6   2   6  409.24  353.45   1 0.31627-0.89390-0.06194 0.25449 0.94664-0.36901
  -6  -2   6  929.75  390.96   1 0.35097-0.92860-0.08437-0.10816 0.93257-0.35494
  -2   6   6  217.46  225.69   1 0.43181-0.62436-0.13772 0.71535 0.89138-0.31375
   2   6   6  381.65  360.79   1 0.65966-0.46712-0.29947 0.87710 0.68931-0.11167
  -3   6  -6  663.11  386.62   1-0.81145 0.52263 0.51686 0.06076 0.27275-0.85038
  -6   3  -6  250.71  371.15   1-0.77367 0.19604 0.50843-0.21961 0.37805-0.95568
  -6   6  -3  473.49  445.51   1-0.56968-0.00794 0.43026 0.14736 0.70023-0.98905
  -6   6   3  372.49  365.11   1-0.01484-0.56278 0.13996 0.43766 0.99004-0.70122
  -6   3   6 -107.99  422.41   1 0.28608-0.86371-0.04266 0.33147 0.95725-0.37962
  -3   6   6  200.50  467.77   1 0.36528-0.65409-0.09369 0.67132 0.92617-0.34853
  -4   6  -6  330.75  459.14   1-0.79086 0.40578 0.51278 0.06484 0.33403-0.91166
  -6   4  -6  275.77  402.35   1-0.76560 0.18797 0.50616-0.12107 0.39705-0.97468
  -6   6  -4  590.09  465.64   1-0.64661 0.06898 0.46335 0.11427 0.60596-0.99105
  -6   6   4  271.52  316.18   1 0.05527-0.63290 0.09888 0.47874 0.99356-0.60847
  -6   4   6  304.87  315.04   1 0.24929-0.82692-0.01941 0.40449 0.96823-0.39060
  -4   6   6  335.28  284.22   1 0.29698-0.68207-0.04960 0.62723 0.95359-0.37596
  -7   0   0  334.15  406.18   1-0.33695-0.33695 0.31707-0.31707 0.88652-0.88652
   0   0   7   47.79  552.60   1 0.82894-0.82894-0.44644 0.44644 0.33695 0.33695
  -7   0  -1  548.06  522.58   1-0.45869-0.21520 0.37826-0.37826 0.80406-0.90033
  -1   7   0  361.43  357.84   1-0.30475 0.20848 0.30029 0.37361 0.90385-0.90385
  -7   0   1  356.95  417.92   1-0.20871-0.46518 0.24895-0.24895 0.94575-0.84948
   0   1   7  287.66  520.12   1 0.80927-0.80927-0.42582 0.52209 0.40465 0.26924
   0  -1   7  442.79  942.48   1 0.84217-0.84217-0.46212 0.36584 0.27781 0.39609
  -7   0  -2   80.71  377.59   1-0.56574-0.10815 0.42849-0.42849 0.70450-0.89704
  -2   7   0  312.36  329.56   1-0.27659 0.08404 0.28543 0.38847 0.91762-0.91762
  -7   0   2  335.83  461.82   1-0.08444-0.58946 0.17986-0.17986 0.98005-0.78751
   0   2   7  427.86  718.80   1 0.78174-0.78174-0.39970 0.59225 0.47865 0.19524
   0  -2   7  488.74  535.01   1 0.85046-0.85046-0.47347 0.28093 0.22917 0.44472
  -7   0  -3  660.24  491.59   1-0.65407-0.01983 0.46638-0.46638 0.59554-0.88435
  -3   7   0  432.24  321.62   1-0.27124-0.01757 0.28259 0.39130 0.92009-0.92009
  -7   0   3  835.79  641.85   1 0.02669-0.70059 0.11573-0.11573 0.99292-0.70410
   0   3   7  195.08  394.18   1 0.74510-0.74510-0.36770 0.65651 0.55642 0.11747
   0  -3   7  172.84  469.20   1 0.85522-0.85522-0.48113 0.19231 0.19264 0.48126
  -7   0  -4 1642.80  755.85   1-0.72339 0.04949 0.49264-0.49264 0.48373-0.86882
  -4   7   0  250.76  447.90   1-0.27976-0.10532 0.28711 0.38678 0.91613-0.91613
  -7   0   4  242.17  683.47   1 0.11931-0.79321 0.06061-0.06061 0.99100-0.60591
   0   4   7  615.08  623.13   1 0.69840-0.69840-0.32957 0.71466 0.63530 0.03859
   0  -4   7   80.47  433.77   1 0.85759-0.85759-0.48560 0.10051 0.16948 0.50441
  -7   0  -5  959.09  748.46   1-0.77558 0.10168 0.50894-0.50894 0.37341-0.85476
  -5   7   0  178.52  402.02   1-0.29740-0.18395 0.29643 0.37747 0.90756-0.90756
  -7   0   5  683.43  675.19   1 0.19203-0.86593 0.01623-0.01623 0.98125-0.49989
   0   5   7  477.75  606.97   1 0.64091-0.64091-0.28527 0.76663 0.71263-0.03873
   0  -5   7   95.15  621.33   1 0.85834-0.85834-0.48719 0.00583 0.16086 0.51303
  -6   7   0  338.18  433.67   1-0.32141-0.25621 0.30900 0.36489 0.89510-0.89510
  -7   0   6  691.34  485.36   1 0.24613-0.92003-0.01742 0.01742 0.96907-0.39144
   0   6   7   19.50  298.15   1 0.57215-0.57215-0.23484 0.81247 0.78580-0.11190
  -7  -1   0  -45.94  403.09   1-0.39323-0.28067 0.34582-0.44210 0.85192-0.85192
  -7   1   0  188.87  375.15   1-0.30119-0.37270 0.29842-0.20215 0.90566-0.90566
   0   7   1  485.21  457.41   1-0.12949 0.12949 0.20524 0.46866 0.97010-0.87383
  -1   0   7  513.40  782.03   1 0.79058-0.88685-0.40784 0.40784 0.45676 0.21713
   1   0   7  160.33 1056.38   1 0.85147-0.75520-0.47499 0.47499 0.22218 0.45171
  -7  -1  -1  412.50  320.99   1-0.51640-0.15749 0.40583-0.50210 0.75407-0.85034
  -1   7  -1  365.27  303.10   1-0.48796 0.39169 0.39238 0.28152 0.77969-0.87597
  -7   1  -1  479.19  351.58   1-0.41867-0.25522 0.35857-0.26230 0.83434-0.93062
  -7  -1   1  174.15  218.13   1-0.25774-0.41616 0.27539-0.37166 0.92613-0.82986
  -7   1   1  748.85  463.99   1-0.18084-0.49306 0.23370-0.13743 0.95534-0.85907
  -1   7   1  277.83  337.78   1-0.11212 0.01585 0.19550 0.47839 0.97427-0.87800
  -1   1   7 1122.80  940.98   1 0.76561-0.86189-0.38532 0.48159 0.51512 0.15877
  -1  -1   7  792.74  668.86   1 0.80900-0.90527-0.42555 0.32928 0.40548 0.26841
   1   1   7  269.22  558.93   1 0.83842-0.74215-0.45745 0.55372 0.29627 0.37762
   1  -1   7  819.21  874.26   1 0.85855-0.76228-0.48764 0.39137 0.15839 0.51551
  -7  -1  -2  334.25  398.10   1-0.61932-0.05457 0.45196-0.54823 0.64199-0.83454
  -7   1  -2  147.46  279.57   1-0.52567-0.14822 0.41016-0.31388 0.74527-0.93781
  -2   7  -1  114.36  443.78   1-0.43259 0.24005 0.36547 0.30842 0.82418-0.92046
  -7  -1   2 -168.11  402.20   1-0.12241-0.55148 0.20128-0.29755 0.97185-0.77931
  -2   7   1   95.81  170.59   1-0.11778-0.07475 0.19868 0.47521 0.97295-0.87668
  -7   1   2  904.99  539.47   1-0.06617-0.60772 0.16948-0.07320 0.98330-0.79076
  -1   2   7  664.00  883.21   1 0.73320-0.82947-0.35775 0.55029 0.57829 0.09560
   1   2   7  128.61  460.26   1 0.81744-0.72117-0.43411 0.62665 0.37858 0.29531
  -1  -2   7 -221.77  449.06   1 0.82185-0.91813-0.43874 0.24620 0.36338 0.31051
   1  -2   7 -250.05  523.73   1 0.86158-0.76531-0.49632 0.30377 0.10644 0.56745
  -7  -1  -3  900.29  603.49   1-0.69990 0.02600 0.48420-0.58047 0.52504-0.81386
  -7   1  -3  191.77  309.16   1-0.61743-0.05646 0.45115-0.35488 0.64438-0.93320
  -3   7  -1  -31.83  200.85   1-0.40593 0.11712 0.35221 0.32168 0.84330-0.93957
  -3   7   1  108.66  225.88   1-0.13621-0.15259 0.20899 0.46490 0.96838-0.87211
  -7  -1   3  934.53  660.47   1 0.00042-0.67433 0.13108-0.22736 0.99137-0.70255
  -7   1   3  517.31  501.99   1 0.03573-0.70963 0.11042-0.01415 0.99324-0.70442
  -1   3   7  338.87  728.32   1 0.69260-0.78887-0.32500 0.61381 0.64394 0.02995
   1   3   7  471.29  420.43   1 0.78669-0.69042-0.40424 0.69305 0.46657 0.20732
  -1  -3   7   84.50  432.85   1 0.83008-0.92635-0.44772 0.15890 0.33241 0.34148
   1  -3   7  -22.99  496.48   1 0.86228-0.76601-0.50190 0.21309 0.06742 0.60647
  -7  -1  -4  134.56  512.62   1-0.76001 0.08611 0.50452-0.60080 0.40965-0.79474
  -7   1  -4  267.70  528.72   1-0.69229 0.01839 0.48135-0.38508 0.53761-0.92269
  -4   7  -1  254.40  467.50   1-0.39752 0.01243 0.34798 0.32591 0.84904-0.94531
  -4   7   1 -172.80  375.78   1-0.16260-0.22248 0.22365 0.45025 0.96101-0.86473
  -7   1   4  327.18  343.72   1 0.12088-0.79478 0.05966 0.03660 0.99087-0.60578
  -1   4   7  322.00  407.26   1 0.64327-0.73955-0.28705 0.67214 0.70978-0.03587
   1   4   7  331.12  401.38   1 0.74461-0.64834-0.36728 0.75237 0.55735 0.11654
  -1  -4   7  221.84  449.30   1 0.83441-0.93068-0.45267 0.06758 0.31438 0.35951
  -7  -1  -5 1190.40  498.71   1-0.80304 0.12914 0.51538-0.61165 0.29915-0.78051
  -7   1  -5  -17.36  568.75   1-0.75085 0.07695 0.50173-0.40545 0.42950-0.91086
  -5   7  -1  174.49  284.50   1-0.40140-0.07995 0.34994 0.32396 0.84641-0.94268
  -5   7   1   34.02  407.61   1-0.19432-0.28702 0.24110 0.43280 0.95084-0.85457
  -7   1   5  292.42  222.01   1 0.18829-0.86219 0.01854 0.07772 0.98193-0.50057
  -7  -1   5  -97.54  302.26   1 0.18318-0.85708 0.02168-0.11796 0.98283-0.50147
  -1   5   7  338.26  413.53   1 0.58485-0.68112-0.24399 0.72535 0.77357-0.09967
   1   5   7 -101.30  345.01   1 0.68995-0.59368-0.32291 0.80427 0.64783 0.02607
  -1  -5   7  610.87  697.71   1 0.83517-0.93144-0.45356-0.02779 0.31107 0.36282
  -7  -1  -6  401.75  341.23   1-0.83237 0.15846 0.51890-0.61517 0.19466-0.77229
  -7   1  -6  243.39  569.68   1-0.79485 0.12095 0.51368-0.41741 0.32300-0.90063
  -6   7  -1  501.03  419.26   1-0.41396-0.16366 0.35622 0.31767 0.83769-0.93396
  -6   7   1  151.96  305.08   1-0.22984-0.34778 0.26040 0.41349 0.93774-0.84146
  -7  -1   6  154.86  218.19   1 0.24226-0.91617-0.01500-0.08127 0.97009-0.39246
  -7   1   6  345.30  315.10   1 0.23899-0.91289-0.01295 0.10922 0.97093-0.39330
  -1   6   7  699.73  705.63   1 0.51708-0.61335-0.19594 0.77357 0.83320-0.15930
   1   6   7  340.29  407.85   1 0.62175-0.52548-0.27098 0.84861 0.73483-0.06093
  -7  -2   0  190.53  362.11   1-0.47475-0.19914 0.38604-0.57858 0.79093-0.79093
  -7   2   0  855.89  505.05   1-0.28207-0.39182 0.28833-0.09579 0.91503-0.91503
   0   7   2   12.98  403.05   1 0.08580-0.08580 0.08073 0.59316 0.99303-0.80049
  -2   0   7  -15.98  487.94   1 0.73530-0.92784-0.35949 0.35949 0.57454 0.09935
   2   0   7  322.03  916.43   1 0.86110-0.66855-0.49444 0.49444 0.11842 0.55547
  -1   7  -2  949.03  419.32   1-0.63467 0.53839 0.45841 0.21548 0.62213-0.81467
  -7  -2  -1  670.87  529.44   1-0.59347-0.08042 0.44080-0.63335 0.67340-0.76967
  -7   2  -1  389.61  705.64   1-0.39403-0.27986 0.34623-0.15369 0.85138-0.94765
  -7  -2   1  565.35  480.27   1-0.33478-0.33911 0.31594-0.50849 0.88774-0.79147
  -7   2   1  273.26  582.42   1-0.16937-0.50453 0.22738-0.03484 0.95896-0.86268
  -1   7   2  862.97  428.27   1 0.06007-0.15635 0.09604 0.57786 0.99356-0.80101
  -2   1   7  608.98  743.83   1 0.70734-0.89988-0.33670 0.43297 0.62153 0.05237
  -2  -1   7 1186.60  869.43   1 0.75674-0.94929-0.37762 0.28135 0.53360 0.14030
   2   1   7  343.42 1026.44   1 0.85486-0.66232-0.48051 0.57678 0.19573 0.47817
   2  -1   7  754.34 1085.23   1 0.86220-0.66966-0.50376 0.40749 0.05302 0.62088
  -7  -2  -2  394.10  294.70   1-0.68548 0.01157 0.47876-0.67131 0.54853-0.74108
  -2   7  -2  372.15  431.00   1-0.56872 0.37618 0.42983 0.24406 0.70127-0.89382
  -7   2  -2  -13.47  389.94   1-0.49853-0.17536 0.39741-0.20486 0.77040-0.96295
  -7  -2   2  880.67  478.07   1-0.18743-0.48646 0.23732-0.42986 0.95317-0.76063
  -7   2   2  600.08  384.63   1-0.06296-0.61093 0.16764 0.02489 0.98383-0.79129
  -2   7   2  103.09  271.38   1 0.02650-0.21904 0.11584 0.55805 0.99291-0.80036
  -2   2   7  666.44  767.21   1 0.67242-0.86497-0.30927 0.50181 0.67244 0.00145
  -2  -2   7  168.72  460.66   1 0.77214-0.96469-0.39108 0.19854 0.50083 0.17306
   2   2   7  207.01  525.48   1 0.84109-0.64855-0.46075 0.65329 0.28329 0.39060
  -2   3  -7  251.78  544.27   1-0.85746 0.66492 0.51309-0.22427 0.03854-0.71244
  -7  -2  -3  584.41  407.12   1-0.75245 0.07855 0.50222-0.69477 0.42611-0.71492
  -7   2  -3  534.33  687.91   1-0.59072-0.08318 0.43959-0.24705 0.67660-0.96542
  -3   7  -2  -16.36  353.52   1-0.52895 0.24013 0.41168 0.26221 0.74210-0.93465
  -7  -2   3  258.07  394.96   1-0.04952-0.62437 0.15995-0.35250 0.98588-0.69706
  -3   7   2  116.49  219.05   1-0.01194-0.27687 0.13827 0.53562 0.99032-0.79777
  -7   2   3  118.75  601.02   1 0.03152-0.70542 0.11289 0.07964 0.99310-0.70429
  -2   3   7   88.79  427.50   1 0.63020-0.82275-0.27726 0.56608 0.72523-0.05133
  -2  -3   7  115.64  453.22   1 0.78185-0.97439-0.39981 0.11099 0.47838 0.19551
   2   3   7  460.43  772.61   1 0.81737-0.62482-0.43404 0.72285 0.37882 0.29507
  -2   4  -7  809.51  668.72   1-0.85485 0.66230 0.51491-0.12982 0.06399-0.73789
  -7  -2  -4  124.16  187.26   1-0.79911 0.12521 0.51459-0.70713 0.31081-0.69589
  -7   2  -4  260.36  310.23   1-0.66820-0.00569 0.47204-0.27950 0.57504-0.96012
  -4   7  -2  -26.68  377.81   1-0.50798 0.12289 0.40188 0.27202 0.76186-0.95441
  -4   7   2 -118.38  415.26   1-0.05364-0.33144 0.16231 0.51158 0.98527-0.79273
  -7   2   4  187.97  842.61   1 0.11093-0.78484 0.06565 0.12688 0.99165-0.60656
  -2   4   7  469.87  708.85   1 0.58041-0.77295-0.24078 0.62587 0.77790-0.10400
   2   4   7  223.38  419.96   1 0.78140-0.58886-0.39940 0.78449 0.47945 0.19444
  -2  -4   7  119.98  356.70   1 0.78594-0.97849-0.40355 0.01846 0.46843 0.20546
  -2   5  -7  823.77  949.62   1-0.85344 0.66090 0.51564-0.03428 0.07578-0.74968
  -7  -2  -5  653.37  575.22   1-0.83021 0.15630 0.51884-0.71138 0.20383-0.68519
  -7   2  -5   55.53  357.46   1-0.73066 0.05676 0.49514-0.30259 0.47006-0.95142
  -5   7  -2  512.86  382.48   1-0.50059 0.01923 0.39839 0.27551 0.76856-0.96110
  -5   7   2  311.48  401.74   1-0.09765-0.38370 0.18735 0.48655 0.97742-0.78488
  -7   2   5  837.26  606.93   1 0.17443-0.84833 0.02706 0.16547 0.98429-0.50293
  -2   5   7  384.71  793.82   1 0.52288-0.71542-0.19998 0.68134 0.82861-0.15471
   2   5   7  403.67  636.11   1 0.73121-0.53867-0.35610 0.83746 0.58181 0.09208
  -2   6  -7  115.60  457.13   1-0.85369 0.66115 0.51552 0.06210 0.07377-0.74767
  -7  -2  -6  479.49  607.61   1-0.84948 0.17558 0.51712-0.70966 0.10467-0.68230
  -7   2  -6  450.79  432.84   1-0.77905 0.10515 0.50986-0.31732 0.36483-0.94246
  -6   7  -2  531.83  398.20   1-0.50319-0.07443 0.39962 0.27428 0.76622-0.95876
  -6   7   2  -48.10  367.57   1-0.14337-0.43425 0.21298 0.46091 0.96647-0.77393
  -7   2   6  723.21  603.09   1 0.22277-0.89668-0.00282 0.19536 0.97486-0.39723
  -2   6   7  287.45  683.78   1 0.45748-0.65003-0.15502 0.73265 0.87559-0.20169
   2   6   7  -40.63  266.64   1 0.66509-0.47255-0.30363 0.88126 0.68224-0.00833
  -7   3   0 -242.30  424.27   1-0.27652-0.39737 0.28539 0.00341 0.91764-0.91764
   0   7   3  502.77  407.18   1 0.24485-0.24485-0.01662 0.69052 0.96941-0.68060
  -3   0   7 -127.19  501.23   1 0.66415-0.95297-0.30291 0.30291 0.68347-0.00957
  -3   1  -7  503.65 1004.76   1-0.85777 0.56895 0.51282-0.41655 0.03516-0.70906
  -1   7  -3  214.97  330.24   1-0.73650 0.64023 0.49710 0.17679 0.45873-0.74755
  -7   3  -1 1124.73  565.59   1-0.38252-0.29137 0.34041-0.05160 0.85894-0.95521
  -7   3   1  152.84  319.06   1-0.17096-0.50293 0.22826 0.06054 0.95847-0.86219
  -1   7   3  296.04  411.42   1 0.19634-0.29261 0.01357 0.66032 0.98044-0.69162
  -3   1   7  602.51  893.29   1 0.63597-0.92479-0.28157 0.37784 0.71850-0.04460
  -3  -1   7  523.99  741.53   1 0.68572-0.97453-0.31960 0.22332 0.65394 0.01996
   3   1   7  229.98  526.05   1 0.86155-0.57273-0.49618 0.59245 0.10736 0.56654
  -3   2  -7  698.09  902.69   1-0.85208 0.56327 0.51623-0.32369 0.08632-0.76023
  -2   7  -3  833.15  622.68   1-0.67562 0.48308 0.47496 0.19893 0.56385-0.85267
  -7   3  -2  386.10  399.87   1-0.48313-0.19077 0.39006-0.10125 0.78385-0.97639
  -7   3   2  211.52  530.94   1-0.07168-0.60221 0.17262 0.11619 0.98237-0.78983
  -2   7   3  431.47  446.30   1 0.14592-0.33847 0.04448 0.62941 0.98829-0.69947
  -3   2   7  227.76  472.29   1 0.60115-0.88996-0.25583 0.44837 0.75707-0.08317
  -3  -2   7  280.87  413.47   1 0.70061-0.98943-0.33133 0.13879 0.63194 0.04195
   3   2   7   16.35  537.40   1 0.85468-0.56587-0.48020 0.67274 0.19725 0.47664
  -3   3  -7  -67.88  587.27   1-0.84642 0.55761 0.51786-0.22905 0.12397-0.79787
  -3   7  -3  322.15  456.00   1-0.63250 0.34368 0.45751 0.21638 0.62499-0.91381
  -7   3  -3  111.91  656.16   1-0.57374-0.10015 0.43208-0.14326 0.69578-0.98460
  -7   3   3  505.39  350.66   1 0.01671-0.69061 0.12158 0.16722 0.99244-0.70362
  -3   7   3  524.50  530.89   1 0.09423-0.38305 0.07568 0.59821 0.99266-0.70385
  -3   3   7  539.88  603.05   1 0.55961-0.84843-0.22588 0.51470 0.79737-0.12347
  -3  -3   7  192.02  525.12   1 0.70851-0.99733-0.33764 0.04882 0.61967 0.05422
   3   3   7  672.70  804.91   1 0.83818-0.54936-0.45715 0.74596 0.29743 0.37647
  -3   4  -7  507.95  923.96   1-0.84209 0.55327 0.51852-0.13344 0.14833-0.82223
  -7  -3  -4  -25.75  393.22   1-0.83523 0.16133 0.51891-0.80773 0.18195-0.56704
  -7   3  -4  347.88  550.79   1-0.65165-0.02224 0.46541-0.17659 0.59894-0.98403
  -4   7  -3  624.32  700.96   1-0.60504 0.21995 0.44583 0.22806 0.65966-0.94847
  -4   7   3  203.52  337.02   1 0.04166-0.42674 0.10693 0.56697 0.99339-0.70457
  -7   3   4  709.04  521.96   1 0.09156-0.76547 0.07728 0.21153 0.99279-0.60770
  -3   4   7 -128.86  446.21   1 0.51132-0.80013-0.19193 0.57702 0.83768-0.16377
   3   4   7  409.58  552.24   1 0.80905-0.52023-0.42560 0.81069 0.40532 0.26857
  -3   5  -7  222.09  444.18   1-0.83988 0.55107 0.51872-0.03737 0.15971-0.83362
  -7   3  -5  392.19  463.21   1-0.71594 0.04204 0.49002-0.20121 0.49728-0.97864
  -5   7  -3  338.80  396.99   1-0.59022 0.10886 0.43938 0.23451 0.67718-0.96599
  -5   7   3  641.99  560.83   1-0.01156-0.46979 0.13805 0.53584 0.99035-0.70154
  -7   3   5  485.59  828.42   1 0.15208-0.82598 0.04073 0.24807 0.98752-0.50616
  -3   5   7  487.96  555.59   1 0.45623-0.74504-0.15417 0.63552 0.87640-0.20250
   3   5   7  -37.47  310.87   1 0.76444-0.47562-0.38429 0.86565 0.51763 0.15627
  -4   0  -7  510.62  869.90   1-0.85707 0.47198 0.51341-0.51341 0.04277-0.71668
  -7   4   0  542.72  465.06   1-0.28217-0.39172 0.28839 0.09669 0.91498-0.91498
   0   7   4  215.37  462.66   1 0.35270-0.35270-0.08549 0.75939 0.93182-0.54673
  -4   0   7   -7.21  513.81   1 0.57993-0.96502-0.24044 0.24044 0.77836-0.10446
  -4   1  -7  708.04  888.34   1-0.84937 0.46429 0.51715-0.42088 0.10538-0.77928
  -7   4  -1 -134.52  468.33   1-0.38217-0.29173 0.34023 0.04484 0.85917-0.95544
  -7   4   1  414.89  505.80   1-0.18319-0.49070 0.23500 0.15008 0.95457-0.85830
  -1   7   4  302.85  421.27   1 0.29599-0.39226-0.04896 0.72287 0.95393-0.56884
  -4   1   7  235.72  743.40   1 0.55417-0.93926-0.22202 0.31829 0.80224-0.12834
  -4  -1   7  118.14  468.86   1 0.59866-0.98374-0.25401 0.15774 0.75965-0.08575
  -4   2  -7  828.89  843.39   1-0.84096 0.45587 0.51864-0.32609 0.15425-0.82815
  -7   4  -2  624.75  435.64   1-0.47812-0.19577 0.38766-0.00258 0.78810-0.98064
  -7   4   2  492.04  440.46   1-0.09015-0.58375 0.18310 0.20198 0.97895-0.78640
  -2   7   4  186.76  310.37   1 0.23814-0.43068-0.01241 0.68632 0.97114-0.58606
  -4   2   7  363.79  522.64   1 0.52173-0.90682-0.19918 0.39173 0.82952-0.15562
  -4  -2   7 -318.71  376.35   1 0.60973-0.99482-0.26211 0.06957 0.74800-0.07410
   4   2   7  131.72  484.85   1 0.86085-0.47576-0.49361 0.68615 0.12359 0.55030
  -4   3  -7  576.35  407.22   1-0.83348 0.44839 0.51892-0.23010 0.18980-0.86370
  -3   7  -4    6.27  349.58   1-0.71382 0.42500 0.48927 0.18463 0.50107-0.88616
  -7   4  -3  417.60  480.88   1-0.56585-0.10804 0.42854-0.04346 0.70438-0.99319
  -7   4   3 -168.13  517.70   1-0.00690-0.66699 0.13535 0.24973 0.99077-0.70195
  -3   7   4  123.43  363.25   1 0.17962-0.46844 0.02387 0.65002 0.98344-0.59835
  -4   3   7  128.17  510.04   1 0.48282-0.86791-0.17228 0.46109 0.85860-0.18469
  -4  -3   7  294.83  508.39   1 0.61203-0.99711-0.26380-0.02500 0.74553-0.07163
   4   3   7  295.29  742.41   1 0.85095-0.46586-0.47420 0.76302 0.22583 0.44806
  -4   4  -7  336.74  688.67   1-0.82807 0.44298 0.51873-0.13365 0.21260-0.88650
  -4   7  -4  813.43  480.55   1-0.68546 0.30038 0.47876 0.19513 0.54855-0.93364
  -7   4  -4  604.43  780.14   1-0.64259-0.03131 0.46169-0.07661 0.61148-0.99656
  -7   4   4  -67.89  259.16   1 0.06421-0.73811 0.09358 0.29149 0.99353-0.60845
  -4   7   4  638.49  556.50   1 0.12071-0.50580 0.05976 0.61413 0.99088-0.60579
  -4   4   7  -85.99  421.46   1 0.43758-0.82267-0.14159 0.52667 0.88795-0.21405
   4   4   7  480.62  612.82   1 0.82857-0.44348-0.44603 0.83112 0.33840 0.33549
  -4   5  -7  158.99  643.07   1-0.82540 0.44031 0.51855-0.03719 0.22316-0.89707
  -7   4  -5  332.06  619.14   1-0.70705 0.03315 0.48683-0.10174 0.51289-0.99425
  -5   7  -4  476.63  462.41   1-0.66725 0.18590 0.47167 0.20222 0.57644-0.96153
  -5   7   4  888.95  867.99   1 0.06159-0.54295 0.09514 0.57876 0.99355-0.60846
  -7   4   5  566.28  598.22   1 0.12236-0.79626 0.05876 0.32631 0.99074-0.50938
  -4   5   7  -40.60  256.99   1 0.38609-0.77118-0.10734 0.58870 0.91619-0.24228
   4   5   7  816.77  582.94   1 0.78995-0.40486-0.40725 0.88861 0.45838 0.21551
  -5   0  -7  146.44  573.61   1-0.85038 0.36902 0.51684-0.51684 0.09855-0.77245
  -7   5   0  423.33  328.93   1-0.29720-0.37669 0.29632 0.18503 0.90766-0.90766
   0   7   5 -149.34  244.10   1 0.42268-0.42268-0.13161 0.80551 0.89666-0.41530
  -5   0   7  563.10  724.78   1 0.48625-0.96761-0.17463 0.17463 0.85618-0.18228
  -5   1  -7  317.78  479.11   1-0.84013 0.35877 0.51871-0.42243 0.15845-0.83236
  -7   5  -1  324.19  371.01   1-0.39130-0.28259 0.34485 0.13650 0.85320-0.94947
  -7   5   1   35.58  459.64   1-0.20430-0.46960 0.24654 0.23481 0.94735-0.85108
  -1   7   5  283.47  302.58   1 0.36521-0.46149-0.09365 0.76755 0.92619-0.44483
  -5   1   7  630.97  964.50   1 0.46496-0.94632-0.16009 0.25636 0.87073-0.19682
  -5  -1   7  496.29  625.65   1 0.49973-0.98109-0.18391 0.08764 0.84642-0.17252
  -5   2  -7  580.71  503.93   1-0.82999 0.34864 0.51883-0.32629 0.20472-0.87862
  -7   5  -2  204.38  327.96   1-0.48223-0.19166 0.38963 0.09171 0.78462-0.97716
  -7   5   2  236.16  402.26   1-0.11679-0.55710 0.19812 0.28323 0.97319-0.78064
  -2   7   5  -45.42  305.45   1 0.30575-0.49829-0.05520 0.72910 0.95050-0.46915
  -5   2   7  185.60  465.54   1 0.43663-0.91799-0.14095 0.33349 0.88852-0.21462
  -5  -2   7  311.37  487.13   1 0.50420-0.98556-0.18700-0.00553 0.84309-0.16918
   5   2   7  218.80  429.93   1 0.86228-0.38092-0.50236 0.69490 0.06398 0.60991
  -5   3  -7  368.90  690.34   1-0.82145 0.34009 0.51819-0.22937 0.23808-0.91198
  -3   7  -5  -79.12  475.07   1-0.77399 0.48518 0.50851 0.16538 0.37727-0.85862
  -7   5  -3   98.36  321.95   1-0.56623-0.10767 0.42871 0.05264 0.70397-0.99279
  -7   5   3   66.31  261.68   1-0.03802-0.63587 0.15335 0.32800 0.98743-0.69862
  -3   7   5  139.33  263.57   1 0.24495-0.53377-0.01668 0.69058 0.96939-0.48803
  -5   3   7  180.78  260.25   1 0.40174-0.88310-0.11768 0.40650 0.90815-0.23425
   5   3   7  365.88  562.25   1 0.85787-0.37651-0.48618 0.77500 0.16635 0.50755
  -5   4  -7  704.53  589.40   1-0.81547 0.33411 0.51746-0.13237 0.25928-0.93318
  -4   7  -5  176.26  501.54   1-0.74871 0.36362 0.50105 0.17284 0.43400-0.91536
  -7   5  -4  175.58  419.52   1-0.64062-0.03327 0.46088 0.02046 0.61414-0.99923
  -7   5   4  149.36  375.80   1 0.02989-0.70379 0.11385 0.36750 0.99304-0.60796
  -4   7   5  234.28  220.80   1 0.18330-0.56838 0.02161 0.65228 0.98281-0.50146
  -5   4   7  491.68  417.04   1 0.36063-0.84199-0.09066 0.47574 0.92829-0.25438
   5   4   7  151.59  384.88   1 0.84147-0.36011-0.46123 0.84631 0.28139 0.39250
  -6   0  -7  292.19  478.43   1-0.84385 0.26622 0.51830-0.51830 0.13879-0.81269
  -7   6   0   38.97  484.55   1-0.32019-0.35370 0.30836 0.26926 0.89576-0.89576
  -6   0   7  422.41  406.61   1 0.38664-0.96427-0.10771 0.10771 0.91591-0.24201
   0   7   6  630.98  451.51   1 0.46636-0.46636-0.16104 0.83494 0.86981-0.29218
  -6  -1  -7  258.82  651.84   1-0.85445 0.27682 0.51513-0.61140 0.06741-0.74131
  -6   1  -7  223.46  449.31   1-0.83207 0.25444 0.51890-0.42262 0.19595-0.86985
  -7   6  -1  259.00  379.41   1-0.40856-0.26533 0.35353 0.22409 0.84147-0.93775
  -7   6   1  394.60  371.92   1-0.23295-0.44094 0.26208 0.31554 0.93650-0.84023
  -6   1   7  542.58  330.61   1 0.37114-0.94877-0.09753 0.19380 0.92343-0.24953
  -6  -1   7  459.20  359.77   1 0.39335-0.97098-0.11213 0.01586 0.91252-0.23862
  -1   7   6  653.92  429.71   1 0.41118-0.50745-0.12394 0.79785 0.90308-0.32545
  -6   2  -7 -283.72  491.66   1-0.82100 0.24337 0.51814-0.32560 0.23974-0.91364
  -7   6  -2  503.09  497.37   1-0.49429-0.17961 0.39539 0.18223 0.77416-0.96671
  -7   6   2  705.08  371.76   1-0.15048-0.52341 0.21693 0.36069 0.96451-0.77197
  -6   2   7  235.08  344.89   1 0.34800-0.92563-0.08244 0.27498 0.93385-0.25995
  -2   7   6  212.12  297.28   1 0.35302-0.54556-0.08570 0.75960 0.93167-0.35404
   0   0   8 3092.94 1225.19   1 0.81547-0.81547-0.43209 0.43209 0.38508 0.38508
  -8   0  -1 1318.63  635.17   1-0.48850-0.28166 0.39264-0.39264 0.77922-0.87549
  -8   0   1  432.27  358.98   1-0.27638-0.49378 0.28532-0.28532 0.91771-0.82144
   0   1   8 1600.31  815.81   1 0.79594-0.79594-0.41288 0.50915 0.44271 0.32745
   0  -1   8 1205.48  899.14   1 0.82937-0.82937-0.44692 0.35065 0.33523 0.43493
  -8   0  -2 1212.38  578.70   1-0.58106-0.18910 0.43533-0.43533 0.68763-0.88018
  -2   8   0 1200.74  626.94   1-0.34718 0.15464 0.32235 0.44781 0.88065-0.88065
  -8   0   2  -95.07  435.29   1-0.16941-0.60075 0.22741-0.22741 0.95894-0.76640
   0   2   8  443.53  506.26   1 0.76965-0.76965-0.38887 0.58141 0.50637 0.26380
   0  -2   8 1020.19  814.36   1 0.83876-0.83876-0.45786 0.26531 0.29468 0.47548
  -8   0  -3  802.58  638.85   1-0.65960-0.11056 0.46861-0.46861 0.58763-0.87645
  -3   8   0  553.48  497.33   1-0.33226 0.04344 0.31464 0.45553 0.88915-0.88915
  -8   0   3  685.13  542.20   1-0.07079-0.69938 0.17211-0.17211 0.98253-0.69371
   0   3   8  688.70  754.40   1 0.73553-0.73553-0.35968 0.64850 0.57412 0.19605
   0  -3   8  254.42  820.24   1 0.84462-0.84462-0.46530 0.17648 0.26475 0.50542
  -8   0  -4  459.71  578.72   1-0.72330-0.04686 0.49261-0.49261 0.48389-0.86898
  -4   8   0 1031.33  531.49   1-0.33283-0.05225 0.31494 0.45523 0.88883-0.88883
  -8   0   4 1405.48  845.27   1 0.01480-0.78498 0.12269-0.12269 0.99233-0.60724
   0   4   8  465.25  633.91   1 0.69265-0.69265-0.32503 0.71012 0.64387 0.12629
   0  -4   8  236.90  451.26   1 0.84776-0.84776-0.46956 0.08448 0.24657 0.52359
  -8   0  -5  852.95  483.02   1-0.77292 0.00275 0.50822-0.50822 0.37986-0.86121
  -5   8   0 -133.80  382.20   1-0.34382-0.13753 0.32062 0.44955 0.88260-0.88260
  -8   0   5  607.98  497.05   1 0.08515-0.85532 0.08112-0.08112 0.99306-0.51170
   0   5   8  613.18  651.96   1 0.64020-0.64020-0.28474 0.76610 0.71347 0.05669
   0  -5   8 -202.33  467.42   1 0.84861-0.84861-0.47077-0.01058 0.24127 0.52889
  -8  -1   0 1049.81 1262.57   1-0.43706-0.33311 0.36767-0.46395 0.82084-0.82084
  -8   1   0  950.69  651.28   1-0.35059-0.41958 0.32410-0.22783 0.87865-0.87865
  -1   0   8 1881.19  803.84   1 0.77764-0.87391-0.39600 0.39600 0.48830 0.28186
   1   0   8 1184.23  877.94   1 0.84054-0.74427-0.46006 0.46006 0.28603 0.48413
  -8  -1  -1  976.11  511.15   1-0.54058-0.22959 0.41705-0.51332 0.73064-0.82691
  -8   1  -1  698.99  557.72   1-0.45149-0.31867 0.37475-0.27848 0.80975-0.90602
  -8  -1   1  443.78  554.32   1-0.32423-0.44594 0.31047-0.40674 0.89357-0.79730
  -8   1   1  463.55  287.84   1-0.24707-0.52310 0.26967-0.17340 0.93071-0.83444
  -1   1   8  966.92  930.64   1 0.75438-0.85065-0.37558 0.47186 0.53836 0.23180
  -1  -1   8  489.30  793.30   1 0.79509-0.89136-0.41207 0.31580 0.44499 0.32517
   1   1   8  919.39  897.17   1 0.82573-0.72946-0.44291 0.53918 0.34926 0.42090
   1  -1   8  650.59  650.99   1 0.85008-0.75381-0.47290 0.37663 0.23174 0.53842
  -8  -1  -2  413.12  423.07   1-0.62945-0.14072 0.45623-0.55250 0.62899-0.82154
  -8   1  -2 1139.22  644.18   1-0.54449-0.22568 0.41884-0.32257 0.72670-0.91924
  -8  -1   2  502.40  432.85   1-0.21006-0.56010 0.24968-0.34595 0.94526-0.75272
  -2   8   1 1066.09  630.96   1-0.20314 0.01060 0.24591 0.52425 0.94776-0.85149
  -8   1   2  419.64  362.59   1-0.14692-0.62324 0.21495-0.11868 0.96550-0.77296
  -1   2   8  679.69  785.79   1 0.72453-0.82080-0.35061 0.54315 0.59339 0.17678
   1   2   8  421.27  889.52   1 0.80415-0.70788-0.42077 0.61332 0.41984 0.35032
  -1  -2   8  536.26  492.50   1 0.80747-0.90374-0.42403 0.23149 0.41009 0.36007
   1  -2   8  935.84  801.48   1 0.85577-0.75949-0.48211 0.28957 0.18767 0.58250
  -8  -1  -3  451.17  540.10   1-0.70165-0.06851 0.48485-0.58112 0.52211-0.81092
  -8   1  -3  351.32  552.41   1-0.62597-0.14419 0.45477-0.35850 0.63350-0.92232
  -3   8  -1  323.77  266.62   1-0.45399 0.16518 0.37598 0.39419 0.80778-0.90406
  -3   8   1  206.30  428.24   1-0.20850-0.08030 0.24883 0.52133 0.94583-0.84956
  -8  -1   3  355.43  404.11   1-0.10293-0.66724 0.19032-0.28659 0.97630-0.68749
  -8   1   3  675.22  660.24   1-0.05545-0.71471 0.16335-0.06708 0.98500-0.69619
  -1   3   8  969.81  892.37   1 0.68740-0.78367-0.32091 0.60973 0.65152 0.11864
   1   3   8  815.68  862.36   1 0.77435-0.67808-0.39305 0.68187 0.49585 0.27431
  -1  -3   8  815.92  773.19   1 0.81545-0.91172-0.43206 0.14325 0.38516 0.38501
   1  -3   8  458.29  983.13   1 0.85884-0.76257-0.48829 0.19947 0.15479 0.61538
  -8  -1  -4  331.56  353.54   1-0.75772-0.01245 0.50383-0.60011 0.41473-0.79981
  -8   1  -4   50.29  640.58   1-0.69428-0.07588 0.48210-0.38583 0.53435-0.91944
  -4   8  -1  254.35  330.76   1-0.44053 0.05544 0.36938 0.40078 0.81821-0.91449
  -4   8   1  434.60  449.41   1-0.22463-0.16045 0.25758 0.51258 0.93978-0.84350
  -8  -1   4  673.00  653.05   1-0.00917-0.76100 0.13667-0.23294 0.99057-0.60548
  -8   1   4  818.49  605.11   1 0.02370-0.79387 0.11748-0.02121 0.99279-0.60770
  -1   4   8  689.44  566.17   1 0.64238-0.73865-0.28638 0.67146 0.71086 0.05930
   1   4   8  994.22  856.62   1 0.73498-0.63871-0.35922 0.74431 0.57511 0.19505
  -1  -4   8  231.36  778.87   1 0.81947-0.91574-0.43623 0.05114 0.37169 0.39848
   1  -4   8  240.93  702.22   1 0.86028-0.76401-0.49191 0.10683 0.13388 0.63629
  -8  -1  -5  852.00  456.51   1-0.79947 0.02929 0.51466-0.61093 0.30977-0.79113
  -8   1  -5 -235.62  505.57   1-0.74932-0.02084 0.50125-0.40497 0.43272-0.91408
  -5   8  -1  477.19  600.11   1-0.43977-0.04157 0.36901 0.40115 0.81879-0.91506
  -5   8   1  494.66  255.96   1-0.24805-0.23330 0.27020 0.49996 0.93029-0.83402
  -8   1   5  201.90  851.05   1 0.08890-0.85907 0.07888 0.01739 0.99291-0.51155
  -1   5   8  287.33  569.62   1 0.58896-0.68523-0.24696 0.72832 0.76950 0.00067
   1   5   8  221.11  355.00   1 0.68481-0.58854-0.31889 0.80025 0.65523 0.11493
   1  -5   8 1527.12  934.72   1 0.86074-0.76447-0.49328 0.01192 0.12563 0.64454
  -8  -2   0  628.12  764.66   1-0.50984-0.26032 0.40275-0.59529 0.76016-0.76016
  -8   2   0  951.94  689.31   1-0.33069-0.43947 0.31383-0.12128 0.89002-0.89002
  -2   0   8  754.43  548.27   1 0.72611-0.91866-0.35191 0.35191 0.59068 0.17948
   2   0   8 1039.40  637.43   1 0.85490-0.66235-0.48057 0.48057 0.19542 0.57474
  -8  -2  -1  141.98  388.15   1-0.60891-0.16125 0.44750-0.64005 0.65494-0.75121
  -8   2  -1  758.14  445.27   1-0.42785-0.34232 0.36312-0.17058 0.82769-0.92396
  -8   2   1  422.72  659.21   1-0.23261-0.53755 0.26190-0.06935 0.93664-0.84036
  -2   1   8 1121.17  752.82   1 0.70072-0.89326-0.33142 0.42769 0.63178 0.13839
  -2  -1   8  854.59  757.07   1 0.74556-0.93811-0.36808 0.27181 0.55555 0.21462
   2   1   8 1112.70  862.32   1 0.84510-0.65255-0.46592 0.56219 0.26213 0.50803
   2  -1   8 1171.40  982.74   1 0.85998-0.66743-0.49108 0.39481 0.13879 0.63138
  -8  -2  -2 1004.82  772.92   1-0.68898-0.08118 0.48010-0.67264 0.54294-0.73549
  -8   2  -2 1148.54  689.45   1-0.51927-0.25090 0.40717-0.21463 0.75137-0.94391
  -8   2   2 1168.94  551.08   1-0.13869-0.63147 0.21037-0.01783 0.96773-0.77518
  -2   8   2  491.12  290.15   1-0.06793-0.12460 0.17048 0.59968 0.98301-0.79047
  -2   2   8  377.67  734.30   1 0.66896-0.86150-0.30660 0.49914 0.67711 0.09306
  -2  -2   8 1649.11  980.73   1 0.75944-0.95198-0.37994 0.18740 0.52809 0.24207
   2   2   8  675.80  890.67   1 0.82878-0.63623-0.44626 0.63880 0.33759 0.43258
   2  -2   8  861.55 1026.97   1 0.86197-0.66943-0.49831 0.30577 0.09314 0.67702
  -8  -2  -3 1458.59  676.46   1-0.75024-0.01992 0.50153-0.69408 0.43080-0.71961
  -8   2  -3  332.95  353.99   1-0.60130-0.16886 0.44422-0.25167 0.66415-0.95296
  -3   8  -2  388.93  394.15   1-0.56462 0.27581 0.42799 0.34217 0.70569-0.89824
  -3   8   2  968.22  550.67   1-0.09201-0.19680 0.18415 0.58601 0.97858-0.78603
  -8   2   3  319.97  580.88   1-0.05328-0.71689 0.16210 0.03043 0.98533-0.69651
  -2   3   8  109.23  424.19   1 0.63044-0.82298-0.27744 0.56625 0.72495 0.04521
  -2  -3   8  249.85  468.07   1 0.76798-0.96052-0.38739 0.09858 0.51002 0.26014
   2   3   8  179.40  689.14   1 0.80408-0.61154-0.42071 0.70952 0.42005 0.35012
   2  -3   8  470.50  951.61   1 0.86226-0.66972-0.50299 0.21417 0.05911 0.71105
  -8  -2  -4   -4.20  411.33   1-0.79506 0.02489 0.51373-0.70627 0.32241-0.70749
  -8   2  -4  116.02  339.83   1-0.67184-0.09832 0.47348-0.28093 0.56958-0.95467
  -4   8  -2  500.25  383.76   1-0.54119 0.15610 0.41733 0.35283 0.73002-0.92257
  -4   8   2  395.47  328.93   1-0.12239-0.26269 0.20126 0.56890 0.97186-0.77931
  -8   2   4  179.09  738.47   1 0.02070-0.79088 0.11924 0.07329 0.99264-0.60756
  -2   4   8  340.55  552.63   1 0.58481-0.77735-0.24396 0.62905 0.77361-0.00343
  -2  -4   8  308.94  375.26   1 0.77112-0.96366-0.39017 0.00508 0.50311 0.26705
   2   4   8  256.08  537.61   1 0.76920-0.57665-0.38847 0.77356 0.50736 0.26281
  -8   3   0  391.78  370.83   1-0.32304-0.44712 0.30985-0.02103 0.89422-0.89422
  -3   0   8  484.11  547.94   1 0.66128-0.95010-0.30071 0.30071 0.68722 0.08295
   3   0   8  339.74  606.45   1 0.86119-0.57238-0.49478 0.49478 0.11629 0.65388
  -8   3  -1   47.84  510.87   1-0.41586-0.35431 0.35717-0.06835 0.83635-0.93262
  -8   3   1  803.43  507.33   1-0.23031-0.53985 0.26065 0.02815 0.93755-0.84128
  -3   1   8  363.15  794.23   1 0.63570-0.92452-0.28137 0.37764 0.71881 0.05135
  -3  -1   8  513.52  689.18   1 0.68069-0.96951-0.31567 0.21940 0.66105 0.10911
   3   1   8  -82.65  567.37   1 0.85610-0.56728-0.48272 0.57899 0.18455 0.58561
   3  -1   8 1198.37 1202.22   1 0.86226-0.57344-0.50300 0.40673 0.05903 0.71114
  -8   3  -2   77.14  248.18   1-0.50448-0.26568 0.40022-0.11141 0.76505-0.95759
  -8   3   2  620.94  392.94   1-0.14201-0.62816 0.21222 0.07658 0.96684-0.77430
  -2   8   3  322.65  471.44   1 0.04853-0.24107 0.10287 0.66729 0.99350-0.70469
  -3   2   8  966.46  784.45   1 0.60388-0.89269-0.25783 0.45037 0.75422 0.01595
  -3  -2   8  216.88  412.88   1 0.69391-0.98272-0.32603 0.13348 0.64201 0.12815
   3   2   8   96.48  560.28   1 0.84496-0.55615-0.46575 0.65829 0.26288 0.50729
  -3   8  -3 -334.90  445.61   1-0.65792 0.36910 0.46794 0.30223 0.59005-0.87887
  -8   3  -3  302.62  451.48   1-0.58542-0.18474 0.43726-0.14845 0.68269-0.97150
  -8   3   3  729.20  572.87   1-0.06177-0.70840 0.16696 0.12184 0.98402-0.69521
  -3   8   3  375.24  338.09   1 0.01040-0.29922 0.12527 0.64490 0.99206-0.70325
  -3   3   8  220.16  616.26   1 0.56567-0.85448-0.23020 0.51902 0.79184-0.02167
  -3  -3   8  257.84  534.49   1 0.70066-0.98947-0.33137 0.04255 0.63187 0.13829
   3   3   8  826.99  784.48   1 0.82558-0.53677-0.44274 0.73156 0.34982 0.42034
  -3   4  -8  462.28  737.74   1-0.85708 0.56827 0.51340-0.12831 0.04259-0.81277
  -8   3  -4  329.11  422.59   1-0.65638-0.11378 0.46732-0.17851 0.59224-0.97733
  -4   8  -3  517.34  464.97   1-0.62975 0.24466 0.45636 0.31381 0.62860-0.91742
  -4   8   3  863.95  575.46   1-0.03109-0.35399 0.14935 0.62081 0.98829-0.69947
  -8   3   4  786.44  551.57   1 0.00795-0.77812 0.12670 0.16211 0.99190-0.60682
  -3   4   8  -62.81  427.65   1 0.52092-0.80974-0.19862 0.58371 0.83017-0.05999
   3   4   8  628.43  537.46   1 0.79567-0.50685-0.41262 0.79771 0.44344 0.32672
  -8   4   0  -22.63  469.78   1-0.32573-0.44444 0.31125 0.07383 0.89276-0.89275
  -4   0   8 -104.36  513.36   1 0.58470-0.96979-0.24388 0.24388 0.77371-0.00353
  -8   4  -1  403.01  533.50   1-0.41397-0.35620 0.35623 0.02885 0.83769-0.93396
  -8   4   1   -7.26  410.59   1-0.23813-0.53203 0.26487 0.12021 0.93441-0.83814
  -4   1   8  418.70  823.84   1 0.56092-0.94601-0.22681 0.32309 0.79618-0.02601
  -4  -1   8  698.07  948.81   1 0.60191-0.98700-0.25639 0.16011 0.75628 0.01389
   4   1   8  889.01  867.62   1 0.86109-0.47600-0.49441 0.59068 0.11863 0.65154
  -4   2  -8  371.96  911.49   1-0.85623 0.47115 0.51403-0.32149 0.05120-0.82137
  -8   4  -2  801.66  687.62   1-0.49907-0.27110 0.39766-0.01258 0.76992-0.96246
  -8   4   2  499.09  598.78   1-0.15491-0.61525 0.21939 0.16569 0.96325-0.77071
  -2   8   4  -61.91  381.03   1 0.14235-0.33489 0.04665 0.72351 0.98871-0.60362
  -4   2   8  808.19  477.65   1 0.53079-0.91587-0.20552 0.39806 0.82220-0.05202
  -4  -2   8  521.55  707.16   1 0.61206-0.99715-0.26383 0.07128 0.74550 0.02467
   4   2   8  457.92  793.76   1 0.85458-0.46949-0.48002 0.67256 0.19814 0.57203
  -4   3  -8  341.45  626.07   1-0.85236 0.46727 0.51612-0.22730 0.08421-0.85439
  -8   4  -3  489.29  603.09   1-0.57780-0.19237 0.43389-0.04880 0.69129-0.98010
  -8   4   3  245.55  327.74   1-0.07917-0.69099 0.17688 0.20820 0.98104-0.69222
  -3   8   4  583.70  452.72   1 0.09540-0.38422 0.07498 0.69518 0.99260-0.60752
  -4   3   8  747.33  965.70   1 0.49442-0.87951-0.18025 0.46907 0.85032-0.08014
   4   3   8  360.86  438.50   1 0.84019-0.45510-0.45962 0.74844 0.28777 0.48240
  -8   5   0  451.65  518.76   1-0.33724-0.43292 0.31722 0.16413 0.88635-0.88635
  -5   0   8  836.52  941.56   1 0.49869-0.98005-0.18319 0.18319 0.84719-0.07702
  -5   1  -8  147.16  479.69   1-0.85557 0.37421 0.51448-0.41820 0.05751-0.82768
  -8   5  -1   -8.57  407.25   1-0.42084-0.34932 0.35965 0.12170 0.83279-0.92906
  -8   5   1  431.53  358.66   1-0.25453-0.51563 0.27367 0.20767 0.92752-0.83125
  -5   1   8  -10.12  486.00   1 0.47839-0.95975-0.16925 0.26552 0.86168-0.09150
  -5  -1   8  207.45  567.40   1 0.51175-0.99311-0.19223 0.09596 0.83734-0.06717
   5   1   8  666.28  738.05   1 0.86228-0.38093-0.50218 0.59845 0.06537 0.70480
  -9   0   0  103.39  541.15   1-0.43322-0.43322 0.36578-0.36578 0.82372-0.82372
   0   0   9 -175.39  501.43   1 0.79943-0.79943-0.41620 0.41620 0.43322 0.43322
  -9   0  -1   80.55  242.10   1-0.52179-0.34465 0.40835-0.40835 0.74898-0.84525
  -9   0   1  501.10  777.08   1-0.34027-0.52616 0.31879-0.31879 0.88463-0.78836
   0   1   9   99.57  543.22   1 0.77999-0.77999-0.39812 0.49439 0.48280 0.38363
   0  -1   9  347.59  647.43   1 0.81372-0.81372-0.43029 0.33402 0.39076 0.47568
  -9   0  -2  346.79  544.16   1-0.60201-0.26442 0.44452-0.44452 0.66330-0.85584
  -9   0   2  223.79  529.93   1-0.24786-0.61858 0.27010-0.27010 0.93037-0.73783
   0   2   9  181.42  508.03   1 0.75451-0.75451-0.37570 0.56824 0.53810 0.32834
   0  -2   9 -138.63  459.57   1 0.82372-0.82372-0.44074 0.24819 0.35667 0.50977
  -9   0  -3 -107.51  472.12   1-0.67143-0.19501 0.47331-0.47331 0.57021-0.85903
  -9   0   3  295.10  496.05   1-0.16084-0.70559 0.22268-0.22268 0.96153-0.67271
   0   3   9  162.11  438.15   1 0.72207-0.72207-0.34860 0.63742 0.59756 0.26888
   0  -3   9  280.17  639.45   1 0.83016-0.83016-0.44781 0.15899 0.33208 0.53435
  -9  -1   0 1362.77  579.48   1-0.48184-0.38460 0.38945-0.48572 0.78495-0.78495
  -9   1   0   -5.61  485.60   1-0.39977-0.46666 0.34912-0.25285 0.84751-0.84751
  -1   0   9   10.07  472.17   1 0.76179-0.85806-0.38198 0.38198 0.52321 0.34323
   1   0   9  696.14  843.25   1 0.82640-0.73013-0.44364 0.44364 0.34674 0.51969
  -9  -1  -1  577.04  393.29   1-0.56954-0.29690 0.43020-0.52647 0.70039-0.79666
  -9   1  -1  463.56  553.79   1-0.48708-0.37935 0.39196-0.29569 0.78045-0.87672
  -9  -1   1  291.61  669.19   1-0.38686-0.47958 0.34261-0.43888 0.85612-0.75985
  -9   1   1  705.13  452.03   1-0.31012-0.55632 0.30310-0.20683 0.90108-0.80481
  -1   1   9  283.97  499.70   1 0.73973-0.83600-0.36318 0.45945 0.56646 0.29997
  -1  -1   9 -275.17  501.27   1 0.77849-0.87476-0.39676 0.30049 0.48633 0.38011
   1   1   9  951.94 1088.96   1 0.81036-0.71409-0.42691 0.52318 0.40131 0.46513
   1  -1   9  -84.18  524.34   1 0.83759-0.74132-0.45644 0.36017 0.30013 0.56630
  -9  -1  -2  137.67  330.03   1-0.64621-0.22023 0.46318-0.55945 0.60651-0.79906
  -9   1  -2 -205.46  429.19   1-0.56819-0.29824 0.42960-0.33332 0.70185-0.89439
  -9   1   2  660.30  493.73   1-0.22244-0.64399 0.25640-0.16013 0.94062-0.74808
  -1   2   9 -137.98  480.42   1 0.71168-0.80795-0.34018 0.53273 0.61463 0.25180
   1   2   9  -83.78  502.11   1 0.78831-0.69204-0.40573 0.59827 0.46253 0.40390
  -1  -2   9   68.25  434.71   1 0.79041-0.88669-0.40769 0.21514 0.45719 0.40925
   1  -2   9  297.58  675.45   1 0.84502-0.74875-0.46582 0.27328 0.26255 0.60388
  -9  -1  -3 1039.40  700.86   1-0.71011-0.15632 0.48794-0.58421 0.50758-0.79640
  -9   1  -3  833.07  538.25   1-0.64035-0.22609 0.46077-0.36450 0.61452-0.90333
  -9   1   3  372.88  623.96   1-0.14081-0.72563 0.21155-0.11528 0.96716-0.67835
  -1   3   9    3.86  439.94   1 0.67700-0.77327-0.31280 0.60162 0.66619 0.20024
   1   3   9  736.37  715.63   1 0.75905-0.66277-0.37960 0.66842 0.52890 0.33754
  -1  -3   9  224.11  451.74   1 0.79802-0.89429-0.41486 0.12604 0.43708 0.42935
   1  -3   9  348.15  642.15   1 0.84961-0.75333-0.47220 0.18339 0.23490 0.63154
  -9   2   0  922.50  664.05   1-0.37932-0.48711 0.33879-0.14625 0.86100-0.86100
  -2   0   9  340.21  654.02   1 0.71270-0.90524-0.34101 0.34100 0.61299 0.25345
   2   0   9  223.77  619.34   1 0.84421-0.65167-0.46475 0.46475 0.26701 0.59943
  -9   2  -1  453.84  397.46   1-0.46416-0.40228 0.38092-0.18838 0.79965-0.89592
  -9   2   1  699.15  374.36   1-0.29349-0.57295 0.29437-0.10182 0.90950-0.81323
  -2   1   9  118.63  431.64   1 0.68919-0.88174-0.32232 0.41859 0.64893 0.21751
  -2  -1   9 1085.97  743.63   1 0.73064-0.92319-0.35563 0.25936 0.58281 0.28362
   2   1   9  412.32  587.05   1 0.83188-0.63934-0.44976 0.54603 0.32507 0.54137
   2  -1   9  524.78 1031.81   1 0.85209-0.65954-0.47595 0.37968 0.21772 0.64871
  -9   2  -2  302.65  307.89   1-0.54443-0.32200 0.41882-0.22628 0.72675-0.91929
  -9   2   2  -20.13  400.53   1-0.21045-0.65599 0.24989-0.05734 0.94512-0.75258
  -2   2   9  165.69  660.17   1 0.65976-0.85230-0.29955 0.49209 0.68919 0.17725
  -2  -2   9  659.22  660.85   1 0.74331-0.93585-0.36618 0.17364 0.55981 0.30663
   2   2   9 -164.26  490.58   1 0.81371-0.62116-0.43028 0.62282 0.39080 0.47564
   2  -2   9  475.09 1015.40   1 0.85677-0.66422-0.48398 0.29143 0.17806 0.68838
  -9   3   0 -145.52  448.18   1-0.37000-0.49643 0.33405-0.04523 0.86689-0.86689
  -3   0   9   58.27  458.41   1 0.65222-0.94103-0.29381 0.29381 0.69876 0.16767
   3   0   9  490.67  876.81   1 0.85478-0.56597-0.48037 0.48037 0.19643 0.67001
  -9   3  -1  378.76  403.23   1-0.45170-0.41473 0.37486-0.08604 0.80959-0.90586
  -9   3   1  224.56  217.95   1-0.28817-0.57827 0.29156-0.00274 0.91211-0.81583
  -3   1   9  870.58  827.52   1 0.62870-0.91752-0.27614 0.37242 0.72695 0.13948
  -3  -1   9  219.91  407.72   1 0.66989-0.95871-0.30732 0.21105 0.67586 0.19058
   3   1   9  537.29  757.85   1 0.84607-0.55726-0.46724 0.56351 0.25659 0.60984
   3  -1   9  599.12  927.28   1 0.85951-0.57069-0.48988 0.39361 0.14577 0.72067
;
_shelx_hkl_checksum              118
loop_
_space_group_symop_operation_xyz
'x, y, z'
'-x, -y, z'
'-x, y, -z'
'x, -y, -z'
'z, x, y'
'z, -x, -y'
'-z, -x, y'
'-z, x, -y'
'y, z, x'
'-y, z, -x'
'y, -z, -x'
'-y, -z, x'
'y, x, -z'
'-y, -x, -z'
'y, -x, z'
'-y, x, z'
'x, z, -y'
'-x, z, y'
'-x, -z, -y'
'x, -z, y'
'z, y, -x'
'z, -y, x'
'-z, y, x'
'-z, -y, -x'
loop_
_atom_site_label
_atom_site_type_symbol
_atom_site_fract_x
_atom_site_fract_y
_atom_site_fract_z
_atom_site_U_iso_or_equiv
_atom_site_adp_type
_atom_site_occupancy
_atom_site_site_symmetry_order
_atom_site_calc_flag
_atom_site_refinement_flags_posn
_atom_site_refinement_flags_adp
_atom_site_refinement_flags_occupancy
Rb2 Rb 0.0000 0.0000 0.0000 0.099(3) Uani 1 24 d S T P
I1 I 0.0000 -0.5000 0.0000 0.167(3) Uani 1 8 d S T P
C1 C 0.374(5) -0.626(5) -0.5000 0.323(2) Uani 0.78 2 d S TU P
loop_
_atom_site_aniso_label
_atom_site_aniso_U_11
_atom_site_aniso_U_22
_atom_site_aniso_U_33
_atom_site_aniso_U_23
_atom_site_aniso_U_13
_atom_site_aniso_U_12
Rb2 0.099(3) 0.099(3) 0.099(3) 0.000 0.000 0.000
I1 0.207(4) 0.087(3) 0.207(4) 0.000 0.000 0.000
C1 0.323(2) 0.323(2) 0.323(3) 0.0000(8) 0.0000(8) 0.0000(12)
loop_
_atom_type_symbol
_atom_type_description
_atom_type_scat_dispersion_real
_atom_type_scat_dispersion_imag
_atom_type_scat_source
C C 0.0033 0.0016 'International Tables Vol C Tables 4.2.6.8 and 6.1.1.4'
H H 0.0000 0.0000 'International Tables Vol C Tables 4.2.6.8 and 6.1.1.4'
N N 0.0061 0.0033 'International Tables Vol C Tables 4.2.6.8 and 6.1.1.4'
Rb Rb -0.9393 2.9676 'International Tables Vol C Tables 4.2.6.8 and 6.1.1.4'
I I -0.4742 1.8119 'International Tables Vol C Tables 4.2.6.8 and 6.1.1.4'
loop_
_geom_angle_atom_site_label_1
_geom_angle_atom_site_label_2
_geom_angle_atom_site_label_3
_geom_angle
_geom_angle_site_symmetry_1
_geom_angle_site_symmetry_3
I1 Rb2 I1 90.0 9_655 .
I1 Rb2 I1 90.0 9_655 1_565
I1 Rb2 I1 180.0 . 1_565
I1 Rb2 I1 90.0 9_655 5
I1 Rb2 I1 90.0 . 5
I1 Rb2 I1 90.0 1_565 5
I1 Rb2 I1 90.0 9_655 5_556
I1 Rb2 I1 90.0 . 5_556
I1 Rb2 I1 90.0 1_565 5_556
I1 Rb2 I1 180.0 5 5_556
I1 Rb2 I1 180.0 9_655 9
I1 Rb2 I1 90.0 . 9
I1 Rb2 I1 90.0 1_565 9
I1 Rb2 I1 90.0 5 9
I1 Rb2 I1 90.0 5_556 9
Rb2 I1 Rb2 180.0 1_545 .
C1 C1 C1 60.000(3) 11_645 8_544
C1 C1 C1 90.000(1) 11_645 9_654
C1 C1 C1 120.00(3) 8_544 9_654
C1 C1 C1 120.00(3) 11_645 5_645
C1 C1 C1 90.000(3) 8_544 5_645
C1 C1 C1 60.000(4) 9_654 5_645
C1 C1 C1 90.00(3) 11_645 3_654
C1 C1 C1 45.000(3) 8_544 3_654
C1 C1 C1 90.000(14) 9_654 3_654
C1 C1 C1 45.000(3) 5_645 3_654
C1 C1 C1 45.000(3) 11_645 4_544
C1 C1 C1 90.000(17) 8_544 4_544
C1 C1 C1 45.000(3) 9_654 4_544
C1 C1 C1 90.000(11) 5_645 4_544
C1 C1 C1 90.000(17) 3_654 4_544
loop_
_geom_bond_atom_site_label_1
_geom_bond_atom_site_label_2
_geom_bond_distance
_geom_bond_site_symmetry_2
Rb2 I1 3.6913(5) 9_655
Rb2 I1 3.6913(5) .
Rb2 I1 3.6913(5) 1_565
Rb2 I1 3.6913(5) 5
Rb2 I1 3.6913(5) 5_556
Rb2 I1 3.6913(5) 9
I1 Rb2 3.6913(5) 1_545
C1 C1 1.31(5) 11_645
C1 C1 1.31(5) 8_544
C1 C1 1.31(5) 9_654
C1 C1 1.31(5) 5_645
C1 C1 1.86(7) 3_654
C1 C1 1.86(7) 4_544
