#------------------------------------------------------------------------------
#$Date: 2019-11-25 20:06:54 +0200 (Mon, 25 Nov 2019) $
#$Revision: 241695 $
#$URL: file:///home/coder/svn-repositories/cod/cif/4/13/15/4131504.cif $
#------------------------------------------------------------------------------
#
# This file is available in the Crystallography Open Database (COD),
# http://www.crystallography.net/
#
# All data on this site have been placed in the public domain by the
# contributors.
#
data_4131504
loop_
_publ_author_name
'Zhang, Wan-Ying'
'Tang, Yuan-Yuan'
'Li, Peng-Fei'
'Shi, Ping-Ping'
'Liao, Wei-Qiang'
'Fu, Da-Wei'
'Ye, Heng-Yun'
'Zhang, Yi'
'Xiong, Ren-Gen'
_publ_section_title
;
 Precise Molecular Design of High-T<sub>c</sub> 3D Organic-Inorganic
 Perovskite Ferroelectric: [MeHdabco]RbI<sub>3</sub> (MeHdabco =
 N-Methyl-1,4-diazoniabicyclo[2.2.2]octane).
;
_journal_issue                   31
_journal_name_full               'Journal of the American Chemical Society'
_journal_page_first              10897
_journal_page_last               10902
_journal_paper_doi               10.1021/jacs.7b06013
_journal_volume                  139
_journal_year                    2017
_chemical_formula_sum            'C6 H14 I3 N2 Rb'
_chemical_formula_weight         580.36
_space_group_crystal_system      hexagonal
_space_group_IT_number           190
_space_group_name_Hall           'P -6c -2c'
_space_group_name_H-M_alt        'P -6 2 c'
_atom_sites_solution_hydrogens   geom
_audit_creation_method           SHELXL-2014/7
_cell_angle_alpha                90
_cell_angle_beta                 90
_cell_angle_gamma                120
_cell_formula_units_Z            2
_cell_length_a                   9.821(2)
_cell_length_b                   9.821(2)
_cell_length_c                   8.2067(16)
_cell_measurement_reflns_used    1123
_cell_measurement_temperature    293(2)
_cell_measurement_theta_max      26.7
_cell_measurement_theta_min      3.04
_cell_volume                     685.5(2)
_computing_structure_refinement  'SHELXL-2014/7 (Sheldrick, 2014)'
_diffrn_ambient_temperature      293(2)
_diffrn_measured_fraction_theta_full 0.985
_diffrn_measured_fraction_theta_max 0.988
_diffrn_measurement_device_type  'Rigaku saturn 724'
_diffrn_radiation_type           MoK\a
_diffrn_radiation_wavelength     0.71073
_diffrn_reflns_av_R_equivalents  0.1006
_diffrn_reflns_av_unetI/netI     0.0661
_diffrn_reflns_Laue_measured_fraction_full 0.985
_diffrn_reflns_Laue_measured_fraction_max 0.988
_diffrn_reflns_limit_h_max       12
_diffrn_reflns_limit_h_min       -12
_diffrn_reflns_limit_k_max       12
_diffrn_reflns_limit_k_min       -12
_diffrn_reflns_limit_l_max       9
_diffrn_reflns_limit_l_min       -10
_diffrn_reflns_number            4516
_diffrn_reflns_point_group_measured_fraction_full 0.989
_diffrn_reflns_point_group_measured_fraction_max 0.989
_diffrn_reflns_theta_full        25.242
_diffrn_reflns_theta_max         27.443
_diffrn_reflns_theta_min         3.450
_exptl_absorpt_coefficient_mu    10.330
_exptl_absorpt_correction_T_max  1.0000
_exptl_absorpt_correction_T_min  0.7451
_exptl_absorpt_correction_type   multi-scan
_exptl_crystal_colour            COLORLESS
_exptl_crystal_density_diffrn    2.812
_exptl_crystal_description       BLOCK
_exptl_crystal_F_000             520
_exptl_crystal_size_max          0.20
_exptl_crystal_size_mid          0.12
_exptl_crystal_size_min          0.10
_refine_diff_density_max         0.546
_refine_diff_density_min         -0.602
_refine_diff_density_rms         0.143
_refine_ls_abs_structure_details
;
 Flack x determined using 226 quotients [(I+)-(I-)]/[(I+)+(I-)]
 (Parsons, Flack and Wagner, Acta Cryst. B69 (2013) 249-259).
;
_refine_ls_abs_structure_Flack   0.01(2)
_refine_ls_extinction_coef       0.224(11)
_refine_ls_extinction_expression Fc^*^=kFc[1+0.001xFc^2^\l^3^/sin(2\q)]^-1/4^
_refine_ls_extinction_method     'SHELXL-2014/7 (Sheldrick 2014'
_refine_ls_goodness_of_fit_ref   1.052
_refine_ls_hydrogen_treatment    constr
_refine_ls_matrix_type           full
_refine_ls_number_parameters     23
_refine_ls_number_reflns         565
_refine_ls_number_restraints     0
_refine_ls_restrained_S_all      1.052
_refine_ls_R_factor_all          0.0284
_refine_ls_R_factor_gt           0.0279
_refine_ls_shift/su_max          0.000
_refine_ls_shift/su_mean         0.000
_refine_ls_structure_factor_coef Fsqd
_refine_ls_weighting_details
'w=1/[\s^2^(Fo^2^)+(0.0073P)^2^] where P=(Fo^2^+2Fc^2^)/3'
_refine_ls_weighting_scheme      calc
_refine_ls_wR_factor_gt          0.0609
_refine_ls_wR_factor_ref         0.0611
_reflns_Friedel_coverage         0.712
_reflns_Friedel_fraction_full    0.995
_reflns_Friedel_fraction_max     0.992
_reflns_number_gt                555
_reflns_number_total             565
_reflns_threshold_expression     'I > 2\s(I)'
_cod_data_source_file            ja7b06013_si_008.cif
_cod_data_source_block           2
_cod_depositor_comments
;
The following automatic conversions were performed:

data item '_exptl_absorpt_correction_type' value 'Multi-scan' was
changed to 'multi-scan' in accordance with the
/home/saulius/struct/COD-crude-data/automatic-downloads/DataCite-retrospective/ACS/depositions/lib/dictionaries/cif_core.dic
dictionary named 'cif_core.dic' version 2.4.2 last updated on
2011-04-26.

Automatic conversion script
Id: cif_fix_values 6909 2019-04-08 15:41:33Z antanas 
;
_cod_original_cell_volume        685.5(3)
_cod_database_code               4131504
_shelx_shelxl_version_number     2014/7
_shelx_space_group_comment
;
The symmetry employed for this shelxl refinement is uniquely defined
by the following loop, which should always be used as a source of
symmetry information in preference to the above space-group names.
They are only intended as comments.
;
_shelx_res_file
;

    2.res created by SHELXL-2014/7


TITL 2 in P1                     New: P-62c
CELL  0.71073    9.8210    9.8210    8.2067    90.000    90.000   120.000
ZERR        2    0.0020    0.0020    0.0016     0.000     0.000     0.000
LATT  -1
SYMM         - X + Y ,            - X ,    0.50000 - Z
SYMM             - Y ,          X - Y ,              Z
SYMM               X ,              Y ,    0.50000 - Z
SYMM         - X + Y ,            - X ,              Z
SYMM             - Y ,          X - Y ,    0.50000 - Z
SYMM               Y ,              X ,    0.50000 + Z
SYMM           X - Y ,            - Y ,            - Z
SYMM             - X ,        - X + Y ,    0.50000 + Z
SYMM               Y ,              X ,            - Z
SYMM           X - Y ,            - Y ,    0.50000 + Z
SYMM             - X ,        - X + Y ,            - Z
SFAC  C  H  I  N Rb
UNIT   12 28 6 4 2
L.S. 25
FMAP 2
PLAN -20
ACTA
temp 20
BOND $H
CONF
OMIT  0   2   1
OMIT 2   2   0
OMIT 0   0   2
OMIT -2   4   0

WGHT    0.007300
EXTI    0.224002
FVAR       0.35662   0.56210
N1    4    0.333333    0.666667    0.899560    10.33333    0.02911    0.02911 =
         0.02045    0.00000    0.00000    0.01455
AFIX  13
H1A   2    0.333333    0.666666    1.018975    10.33333   -1.20000
AFIX   0
C20   1    0.464659    0.823181    0.842873    11.00000    0.03831    0.02500 =
         0.03418   -0.00461   -0.00936    0.00584
AFIX  23
H20A  2    0.564563    0.839702    0.883487    11.00000   -1.20000
H20B  2    0.449078    0.907158    0.883485    11.00000   -1.20000
AFIX   0
RB7   5    1.000000    1.000000    1.000000    10.16667    0.03500    0.03500 =
         0.03083    0.00000    0.00000    0.01750
I1    3    0.797507    0.643339    0.750000    10.50000    0.03203    0.03440 =
         0.03513    0.00000    0.00000    0.01578

HKLF 4

REM  2 in P1                     New: P-62c
REM R1 =  0.0279 for     555 Fo > 4sig(Fo)  and  0.0284 for all     565 data
REM     23 parameters refined using      0 restraints

END

WGHT      0.0000      0.0000

REM Highest difference peak  0.546,  deepest hole -0.602,  1-sigma level  0.143
Q1    1   1.1838  1.4038  1.0986  11.00000  0.05    0.52
Q2    1   1.1582  0.8073  1.0831  11.00000  0.05    0.44
Q3    1   0.6588  0.4761  0.8939  11.00000  0.05    0.41
Q4    1   0.6522  0.5767  0.8169  11.00000  0.05    0.39
Q5    1   1.1019  1.1890  1.1059  11.00000  0.05    0.37
Q6    1   0.7583  1.0373  0.8738  11.00000  0.05    0.35
Q7    1   0.5250  0.8836  0.9033  11.00000  0.05    0.33
Q8    1   1.2603  1.0006  1.2500  10.50000  0.05    0.33
Q9    1   0.4459  0.4978  0.9176  11.00000  0.05    0.32
Q10   1   0.8727  0.5718  0.6919  11.00000  0.05    0.31
Q11   1   0.6929  0.4662  0.6879  11.00000  0.05    0.31
Q12   1   0.7113  0.8616  0.8880  11.00000  0.05    0.30
Q13   1   0.8255  0.4614  0.6205  11.00000  0.05    0.29
Q14   1   0.6952  0.7020  1.1630  11.00000  0.05    0.29
Q15   1   0.3388  0.8438  0.8934  11.00000  0.05    0.28
Q16   1   0.5009  0.5040  0.9557  11.00000  0.05    0.26
Q17   1   0.8743  1.0019  1.1058  11.00000  0.05    0.26
Q18   1   0.4054  0.8216  1.1093  11.00000  0.05    0.26
Q19   1   0.5732  0.9984  0.8965  11.00000  0.05    0.25
Q20   1   0.8031  0.4754  0.6889  11.00000  0.05    0.24
;
_shelx_res_checksum              21781
_shelx_hkl_file
;
   0   0  -2 1343.18  114.89
   0   0  -3    2.33    0.52
   0   0  -3   -0.31    0.33
   0   0  -4 1760.09  161.44
   0   0  -4  755.85  107.77
   0   0  -5    1.26    0.78
   0   0  -5   -0.64    0.54
   0   0  -6  836.61  119.16
   0   0  -7    0.11    0.82
   0   0  -7    1.15    1.28
   0   0  -8 1008.08  169.12
   0   0  -8  952.73  160.74
   0   0  -9    3.01    2.61
   0   0 -10  175.26   27.73
   0   1   1  159.51    6.17
  -1   1   1  189.40    9.97
   1  -1   1  137.19    8.75
   0   1   1  182.73   10.21
   1   0   1  158.92    5.10
   1  -1   1  192.31   10.91
  -1   0  -1  168.68    9.86
   1   0  -1  203.20    9.91
   0  -1  -1  178.78    6.69
  -1   1  -1  184.88   10.34
   0   1  -1  200.26   10.49
   0   1  -1  172.36    8.50
   1  -1  -1  189.29    8.47
   0  -1  -1  206.01   11.00
  -1   0  -1  174.51    4.64
   1   0  -2  170.15   11.33
  -1   0  -2  168.88    7.89
   0  -1  -2  164.75   11.08
   0  -1  -2  187.70    9.51
  -1   0  -2  190.27   13.40
  -1   1  -2  181.16   11.32
   0   1  -2  184.40   12.39
   1  -1  -2  195.05   11.96
   1  -1  -2  191.33   11.81
   1  -1   3  657.74   60.45
   0  -1   3  650.45   50.53
   0  -1  -3  628.40   60.47
   1  -1  -3  491.63   48.37
   0   1  -3  644.21   62.12
   1  -1  -3  635.65   58.73
  -1   1  -3  590.75   57.75
  -1   0  -3  682.17   66.00
   1   0  -3  629.45   62.36
   1   0  -3  671.42   42.04
  -1   0  -3  635.35   48.05
   0  -1  -3  668.60   53.98
   1  -1   4  320.58   44.50
   0  -1   4  679.88   55.45
  -1   0  -4  441.96   39.00
   1  -1  -4  479.32   44.93
  -1   1  -4  270.99   38.44
   0  -1  -4  461.60   45.64
   1   0  -4  500.11   50.38
   1  -1  -4  446.21   39.31
  -1   1  -4  488.10   45.31
   0  -1  -4  465.84   39.92
  -1   0  -4  579.63   58.42
   1   0  -4  479.19   34.68
   0   1  -4  497.85   49.60
  -1   0  -5  562.27   62.17
  -1   1  -5  484.56   50.95
   0   1  -5  317.97   36.31
   0  -1  -5  395.88   39.71
   0   1  -5  448.13   48.98
   0  -1  -5  423.71   46.06
   1  -1  -5  379.07   42.74
   1   0  -5  416.49   47.04
   1   0  -5  431.06   36.33
  -1   0  -5  428.96   40.69
   1  -1  -5  395.10   38.24
  -1   1  -5  483.47   51.13
   1   0  -6   42.93    3.83
   0   1  -6   39.94    4.93
  -1   1  -6   42.06    4.49
   0  -1  -6   42.96    5.05
  -1   0  -6   42.50    4.83
   0   1  -6   43.20    3.65
  -1   1  -6   42.18    4.37
   1   0  -6   36.88    4.59
   0  -1  -6   39.44    4.39
  -1   0  -6   42.70    5.85
   1  -1  -6   40.94    4.56
   1  -1  -6   41.93    5.49
   1  -1  -7  158.06   18.60
  -1   1  -7  158.25   17.24
  -1   0  -7  131.85   14.89
  -1   0  -7  133.67   18.77
   1   0  -7  119.09   11.90
   0   1  -7  100.98   12.16
   0  -1  -7  153.57   17.19
  -1   1  -7  161.99   18.00
   1   0  -7  158.10   18.64
   1  -1  -7  148.27   15.55
   0  -1  -7  131.04   14.88
   0   1  -7  153.06   18.02
  -1   0  -8   76.85    9.37
  -1   0  -8   84.47   13.31
   1  -1  -8   91.80   13.50
  -1   1  -8   89.81   12.67
   0   1  -8   92.30   11.78
  -1   1  -8   84.14   12.46
   0  -1  -8   81.56   11.53
   0  -1  -8   90.73   10.14
   1   0  -8   85.68   11.35
   1  -1  -9   48.95    7.86
  -1   0  -9   49.35    7.79
   0  -1  -9   53.92    8.94
  -1   0  -9   58.72    7.63
  -1   1  -9   60.50    9.01
   1   0  -9   59.26   10.87
   0   1  -9   64.12    9.44
   1   0 -10    6.94    3.84
   0   1 -10   12.79    3.76
   1  -1 -10   13.78    3.40
   1  -2   0  207.27   13.12
  -1   2   0  222.32   13.92
   2  -1   0  164.90    9.96
   2  -1   0  176.84    8.51
  -1  -1   0  142.26    9.71
  -1  -1   0  173.61    8.58
   2  -1   1    0.21    0.59
  -1  -1   1    2.39    0.70
   1  -2   1    1.83    0.80
   1   1   1    1.84    0.21
  -2   1   1    1.29    0.36
  -2   1  -1    1.98    0.46
   1  -2  -1    1.63    0.76
  -1  -1  -1    2.10    0.20
  -1  -1  -1    0.68    0.81
   1   1  -1    1.18    0.42
   1   1  -1   -0.03    0.48
   2  -1  -1    1.52    0.43
   1  -2  -1    1.32    0.42
  -1   2  -1    1.88    0.68
   1   1   2  876.61   53.38
  -1  -1   2 1111.95   73.11
   1  -2   2 1023.38  101.57
   2  -1   2  985.83  102.73
  -1   2  -2  987.10  110.60
   2  -1  -2 1083.51  105.97
   1  -2  -2  963.06  118.23
  -1  -1  -2  940.85   52.88
   1   1  -2  926.05   97.50
   1  -2  -2 1022.95   91.94
  -1  -1  -2 1030.14  111.95
   2  -1  -2 1026.31   68.88
  -2   1  -2 1045.56   98.92
  -1  -1   3    1.37    0.39
   1  -2   3    0.04    0.82
   2  -1   3    0.49    0.97
  -1   2  -3    3.59    1.11
   1  -2  -3    1.75    0.85
   1  -2  -3    2.53    0.54
  -1  -1  -3    1.44    0.86
   1   1  -3    2.01    0.77
   2  -1  -3    0.34    0.42
  -2   1  -3    2.56    0.66
  -1  -1  -3    0.97    0.30
   2  -1  -3    0.78    0.68
   1  -2   4  240.77   28.10
  -1  -1   4  370.63   25.39
   1  -2  -4  349.59   34.91
  -1  -1  -4  271.12   30.55
   2  -1  -4  258.05   28.75
   1   1  -4  289.75   30.74
   2  -1  -4  318.27   26.05
  -1  -1  -4  262.97   19.96
  -2   1  -4  313.87   24.79
  -1   2  -4  259.80   29.03
  -2   1  -4  349.58   34.85
   1  -2  -4  320.80   26.94
  -1  -1  -5    0.66    0.60
  -2   1  -5   -0.07    1.17
   1   1  -5    1.58    0.44
  -1  -1  -5    0.54    1.19
   1  -2  -5    0.43    1.00
   1   1  -5    1.15    1.09
  -1   2  -5    0.21    1.03
   2  -1  -5    0.00    1.00
  -2   1  -5    3.55    1.10
   2  -1  -5    0.09    0.87
   1  -2  -5    0.48    0.81
  -1  -1  -6  564.59   59.87
  -1   2  -6  613.81   80.14
   1  -2  -6  523.38   67.59
   1  -2  -6  580.89   76.39
   1   1  -6  559.27   79.44
   1   1  -6  544.88   55.54
   2  -1  -6  415.93   54.37
  -2   1  -6  529.18   75.26
  -1   2  -6  557.05   75.38
  -1  -1  -6  575.25   81.27
   2  -1  -6  528.05   71.84
  -2   1  -6  548.56   65.10
  -1   2  -7    3.58    1.52
  -2   1  -7   -0.29    1.19
   2  -1  -7    0.45    1.59
   1  -2  -7   -1.16    1.26
  -1   2  -7    0.33    1.18
  -1  -1  -7    0.62    1.51
  -2   1  -7    1.66    1.73
   1  -2  -7    0.51    1.16
   1   1  -7    7.68    2.33
  -1  -1  -7    3.60    1.02
   2  -1  -8   36.62    7.85
   1  -2  -8   36.55    4.82
  -2   1  -8   44.14    5.08
  -1  -1  -8   29.75    4.82
  -1   2  -8   33.86    5.84
   1  -2  -8   56.09    7.46
  -2   1  -8   42.53    6.31
   1   1  -8   44.03    6.41
  -1  -1  -8   28.11    7.12
  -1  -1  -9    0.32    1.70
  -2   1  -9    0.17    2.70
  -1   2  -9    2.29    1.87
   1  -2  -9    1.13    1.54
   2  -1  -9   -0.34    1.79
  -2   1  -9    0.95    1.61
   1   1  -9   -0.70    3.00
  -1   2 -10  127.34   25.43
   1   1 -10  117.95   20.26
   2  -1 -10  117.35   23.08
  -2   3   0  663.79   80.72
   1   2   0  888.23   75.84
   2  -3   0  858.48   98.14
   3  -1   0  839.30   66.61
  -1  -2   0  809.05   89.29
   3  -1   0  747.15   70.59
   2  -3   1  449.80   46.52
   1   2   1  467.32   30.94
   3  -1   1  303.34   26.67
   3  -1   1  389.14   35.63
  -1  -2   1  412.98   40.35
   3  -1  -1  461.88   32.25
   2  -3  -1  450.45   40.56
   3  -1  -1  447.46   34.25
  -2   3  -1  438.58   47.07
  -1  -2  -1  414.40   40.96
   2  -3  -1  415.22   41.46
   1   2  -1  457.10   38.83
   3  -1   2  120.89    9.36
   1   2   2   84.72    4.63
   2  -3   2   58.17    6.53
  -1  -2   2   97.89    6.45
   2  -3  -2   81.28    8.37
   3  -1  -2  105.46    7.89
  -1  -2  -2   90.58    7.53
   2  -3  -2   71.11    6.33
   3  -1  -2  111.40    4.51
  -2   3  -2   93.70    9.48
   1   2  -2   78.62    7.09
  -3   1  -2   76.44    5.82
   2  -3   3  286.94   30.21
  -1  -2   3  317.89   22.42
   1   2  -3  289.62   28.16
  -2   3  -3  306.31   32.16
   3  -1  -3  310.47   28.74
  -3   1  -3  297.56   20.52
  -3   1  -3  299.14   31.16
   3  -1  -3  267.98    8.78
   2  -3  -3  250.53   24.22
   2  -3  -3  283.64   29.69
  -1  -2  -3  289.16   29.66
  -1  -2  -3  276.15   16.92
   2  -3   4  721.53   93.63
  -1  -2   4  878.08   79.01
   2  -3  -4  710.87  105.33
   3  -1  -4  665.03   88.11
  -1  -2  -4  725.90   64.00
   1   2  -4  708.38   95.04
  -3   1  -4  780.21  111.58
  -2   3  -4  692.04   98.82
  -3   1  -4  699.96   70.51
   2  -3  -4  698.34   84.87
  -1  -2  -4  674.78   95.72
  -1  -2   5  104.27    7.46
   2  -3   5  131.56   15.91
  -3   1  -5   98.42    7.93
  -1  -2  -5  107.80    8.02
   3  -1  -5  103.65   11.40
  -3   1  -5  109.25   14.67
   2  -3  -5  122.59   12.59
  -2   3  -5  115.36   12.34
  -1  -2  -5  102.13   11.96
   1   2  -5  104.56   11.68
   2  -3  -5  115.19   11.97
   2  -3   6   17.32    3.00
  -1  -2  -6    6.47    3.19
  -2   3  -6    9.72    2.96
   1   2  -6    9.56    1.41
  -3   1  -6    6.93    1.80
   1   2  -6    6.47    2.29
   2  -3  -6    6.05    1.71
  -3   1  -6    7.38    2.34
   3  -1  -6   14.97    3.27
  -1  -2  -6   10.75    1.59
   3  -1  -7   53.66    7.18
  -3   1  -7   63.79    8.66
  -1  -2  -7   49.63    6.97
  -3   1  -7   51.21    5.05
   1   2  -7   56.78    7.63
  -2   3  -7   48.43    6.94
  -2   3  -7   49.85    8.65
   2  -3  -7   36.46    6.31
   2  -3  -7   48.59    6.94
  -1  -2  -7   43.91    4.28
  -1  -2  -8  221.18   35.55
   2  -3  -8  200.66   26.27
   1   2  -8  225.60   34.64
  -3   1  -8  223.76   27.69
  -3   1  -8  229.04   35.24
  -2   3  -8  212.88   35.54
  -2   3  -8  227.95   33.24
  -1  -2  -8  187.04   22.72
   3  -1  -8  221.73   33.19
  -3   1  -9   51.95   11.33
  -1  -2  -9   51.26   10.94
   3  -1  -9   45.50    7.73
   1   2  -9   42.76    7.96
   2  -3  -9   36.63    5.88
  -2   3  -9   42.03    7.81
   3  -1 -10    5.97    4.33
   1   2 -10    0.85    3.50
  -2   3 -10    7.28    3.01
  -1  -3   0  521.99   62.98
   1   3   0  433.97   46.31
   4  -1   0  534.12   42.43
   3  -4   0  502.51   63.53
  -3   4   0  506.85   58.55
   4  -1   1  620.41   66.46
   1   3   1  494.85   45.06
   4  -1   1  471.84   37.99
   3  -4   1  319.68   52.43
  -1  -3  -1  539.11   65.91
   3  -4  -1  529.24   63.14
   4  -1  -1  599.36   53.08
   3  -4  -1  487.57   55.41
  -3   4  -1  509.28   64.83
   1   3  -1  563.85   57.78
   4  -1  -1  436.52   42.99
  -1  -3   2  253.20   29.44
   3  -4   2  290.80   32.19
   1   3   2  256.54   18.61
  -4   1   2  321.39   19.07
   3  -4  -2  277.62   25.95
   3  -4  -2  292.11   31.46
  -3   4  -2  234.39   31.44
  -1  -3  -2  245.60   30.16
  -4   1  -2  231.59   27.12
   4  -1  -2  224.82   22.88
  -4   1  -2  256.70   20.63
   1   3  -2  273.12   27.23
   1   3   3  597.03   52.39
   3  -4   3  588.15   81.83
   1   3  -3  600.38   78.98
   3  -4  -3  600.28   83.38
  -4   1  -3  594.65   81.40
  -4   1  -3  586.35   50.37
  -3   4  -3  662.26   97.63
   4  -1  -3  588.38   72.74
   3  -4  -3  537.63   65.56
  -1  -3  -3  580.79   83.50
  -1  -3   4  390.26   35.64
   3  -4   4  330.50   43.87
   3  -4  -4  289.38   38.19
   4  -1  -4  313.06   38.61
  -1  -3  -4  405.06   53.40
  -3   4  -4  401.14   52.92
  -4   1  -4  324.32   43.46
  -1  -3  -4  413.13   33.36
  -4   1  -4  282.94   23.11
   3  -4  -4  335.59   37.87
   1   3  -4  295.57   38.21
  -1  -3   5  427.54   43.25
   4  -1  -5  378.29   53.44
  -4   1  -5  355.51   55.27
  -4   1  -5  364.84   31.16
  -3   4  -5  412.48   56.72
  -1  -3  -5  387.73   55.92
   3  -4  -5  373.60   52.29
  -1  -3  -5  375.27   35.77
   3  -4  -5  328.75   44.44
   1   3  -5  329.16   47.63
   3  -4   6  231.97   28.55
  -1  -3   6  173.47   17.08
  -1  -3  -6  164.18   16.20
   1   3  -6  189.65   27.21
  -4   1  -6  188.11   15.69
  -1  -3  -6  185.14   27.10
   4  -1  -6  164.16   23.45
  -3   4  -6  178.02   24.86
  -4   1  -6  178.00   25.33
   3  -4  -6  187.08   22.45
   3  -4   7  159.00   24.50
   3  -4  -7  161.83   23.38
  -3   4  -7  174.23   26.59
   3  -4  -7  162.46   24.19
   4  -1  -7  155.82   23.08
   1   3  -7  136.31   21.66
  -1  -3  -7  167.37   25.36
  -4   1  -7  195.26   33.41
   1   3  -8   81.51   15.21
  -1  -3  -8  109.68   17.13
  -4   1  -8   88.07   20.15
  -3   4  -8  104.61   16.05
   3  -4  -8   86.55   15.11
   4  -1  -8  106.49   16.13
  -3   4  -8  111.48   17.56
  -4   1  -9   79.23   18.68
  -3   4  -9   75.49   13.79
  -1  -3  -9   86.18   18.87
   3  -4  -9   78.45   11.65
   4  -1  -9   70.63   13.16
   1   3  -9   78.53   14.87
   1   3 -10   10.07    4.69
   4  -1 -10    9.91    4.13
  -4   5   0  542.68   74.02
   1   4   0  461.38   56.42
   4  -5   0  465.90   75.05
  -1  -4   0  578.74   83.03
   5  -1   0  571.21   53.39
  -5   1   0  517.95   61.55
  -1  -4   1  265.17   32.45
  -4   5   1  259.06   31.92
   5  -1   1  260.62   20.73
   4  -5   1  274.05   35.25
   1   4   1  249.05   24.95
  -5   1  -1  263.84   28.72
  -4   5  -1  218.18   31.50
  -1  -4  -1  274.53   35.66
   5  -1  -1  272.68   25.46
   1   4  -1  269.20   29.93
   4  -5  -1  296.06   37.71
  -1  -4   2  490.26  104.48
   1   4   2  908.85   99.20
   4  -5   2  838.33  135.62
  -5   1   2  975.21   88.03
   4  -5  -2  861.35  118.50
  -1  -4  -2  809.92  134.80
  -4   5  -2  855.80  152.50
  -5   1  -2  839.05  123.72
   4  -5  -2  837.46  131.90
  -5   1  -2  811.81   89.63
   5  -1  -2  811.79  105.08
   1   4  -2  857.73  124.74
   1   4   3  239.38   19.48
  -5   1   3  168.24   11.04
   4  -5   3  220.16   29.83
   4  -5  -3  255.07   28.05
  -4   5  -3  223.27   30.63
   4  -5  -3  266.87   28.15
  -5   1  -3  239.30   27.90
  -1  -4  -3  191.80   28.87
   1   4  -3  241.01   27.23
  -5   1  -3  260.03   17.97
   5  -1  -3  261.25   27.36
   4  -5   4  218.11   32.74
  -1  -4   4  148.13   20.95
   1   4   4  235.56   21.60
  -1  -4  -4  267.66   34.55
  -4   5  -4  256.93   35.08
   1   4  -4  219.63   29.42
   4  -5  -4  218.04   26.85
   5  -1  -4  263.31   28.27
  -5   1  -4  190.67   26.83
   4  -5  -4  212.43   27.97
   1   4   5  197.00   18.94
  -1  -4   5  229.04   24.73
   4  -5   5  193.54   30.32
  -4   5  -5  214.42   37.19
   5  -1  -5  201.79   29.25
   4  -5  -5  249.55   30.94
  -5   1  -5  186.27   30.85
   4  -5  -5  205.43   25.45
   1   4  -5  186.46   26.81
  -1  -4  -5  198.64   31.82
   4  -5   6  111.09   32.93
  -5   1  -6  348.84   55.14
   4  -5  -6  292.93   37.33
   1   4  -6  260.24   37.77
  -1  -4  -6  289.62   45.58
  -4   5  -6  311.92   44.80
   5  -1  -6  281.44   38.30
   4  -5   7  105.69   17.12
  -5   1  -7  103.50   18.30
  -4   5  -7   98.99   19.33
   4  -5  -7   91.44   15.53
   5  -1  -7   94.71   14.65
   4  -5  -7   93.13   13.49
  -1  -4  -7   90.99   16.65
   1   4  -7   86.19   17.76
   4  -5   8   98.16   21.40
   5  -1  -8   77.07   11.77
   1   4  -8   59.36   11.83
  -5   1  -8   62.53   12.91
  -4   5  -8   65.01   14.37
   4  -5  -8   53.24    9.74
  -1  -4  -8   85.13   13.90
   5  -1  -9   35.15    6.92
   1   4  -9   23.58    7.18
  -4   5  -9   38.75   11.33
  -1  -4  -9   30.67    8.07
  -4   5  -9   28.96    6.83
  -5   1  -9   25.19    8.06
   4  -5  -9   22.06    7.52
   6  -1   0  488.45   45.75
  -5   6   0  433.50   61.31
  -1  -5   0  454.44   64.58
   1   5   0  438.63   52.64
  -6   1   0  289.64   41.83
   5  -6   0  456.43   69.14
   5  -6   1  518.96   92.52
  -1  -5   1  571.13   89.22
  -5   6   1  617.23   93.54
   6  -1   1  511.71   53.42
  -6   1   1  604.30   69.55
   1   5   1  566.90   72.10
  -1  -5  -1  537.50   94.90
   6  -1  -1  532.53   61.52
   5  -6  -1  555.90   89.83
   1   5  -1  584.38   85.72
  -6   1  -1  528.75   76.48
  -5   6  -1  549.96   92.72
   1   5   2   41.94    4.02
  -1  -5   2   35.07    8.06
  -6   1   2   27.65    3.17
   5  -6   2   54.23    6.92
  -1  -5  -2   27.69    6.37
   5  -6  -2   40.53    5.69
   1   5  -2   47.55    5.56
  -6   1  -2   44.29    5.14
  -5   6  -2   20.66    5.66
   5  -6  -2   59.43    7.09
  -6   1  -2   49.99    3.59
   6  -1  -2   26.05    4.81
   5  -6   3  554.77   91.16
   1   5   3  438.13   49.21
  -6   1   3  408.14   35.17
  -1  -5   3  430.34   66.07
   1   5  -3  448.78   67.78
  -1  -5  -3  457.70   82.83
   5  -6  -3  550.15   78.86
  -6   1  -3  461.58   67.55
  -5   6  -3  504.32   81.81
   6  -1  -3  438.53   58.99
   5  -6  -3  497.09   71.29
  -1  -5   4  458.93   64.85
   1   5   4  420.77   49.48
   5  -6   4  439.98   76.83
   1   5  -4  439.52   73.45
  -6   1  -4  415.77   69.54
   5  -6  -4  444.04   66.53
  -5   6  -4  512.00   91.74
  -1  -5  -4  449.81   79.10
   5  -6  -4  448.78   71.42
   6  -1  -4  448.38   67.22
  -1  -5   5  376.58   49.40
   5  -6   5  321.20   51.09
  -5   6  -5  327.77   57.35
   5  -6  -5  347.05   53.00
   1   5  -5  293.37   46.75
   6  -1  -5  293.39   43.15
  -6   1  -5  325.74   55.45
  -1  -5  -5  328.94   56.72
   5  -6  -5  239.43   40.77
   5  -6   6   21.81    5.86
   5  -6  -6   21.38    4.41
  -5   6  -6   22.39    5.50
   1   5  -6   23.93    4.96
   6  -1  -6   16.64    4.37
  -1  -5  -6   16.93    7.86
  -6   1  -6   35.43    7.82
   5  -6  -6   22.61    3.69
   5  -6   7   40.60   17.08
   6  -1  -7  153.79   21.17
   5  -6  -7  144.44   19.63
  -5   6  -7  164.01   24.77
   1   5  -7  165.83   26.73
  -1  -5  -7  162.43   26.03
  -6   1  -7  149.66   24.05
   5  -6   8  122.05   25.30
   1   5  -8  104.71   22.33
  -5   6  -8  135.46   22.75
  -1  -5  -8  105.91   21.62
  -6   1  -8   84.38   20.20
   6  -1  -8  111.14   18.32
   5  -6  -8   92.69   15.95
   5  -6   9    2.59   15.94
  -6   1  -9   62.43   19.08
  -1  -5  -9   82.93   20.91
   1   5  -9   65.42   17.13
   5  -6  -9   74.59   13.83
   6  -1  -9   72.53   15.19
  -1  -6   0  334.61   56.82
  -7   1   0  303.90   42.84
  -6   7   0  351.54   59.48
   1   6   0  359.63   42.07
   6  -7   0  178.47   44.27
   7  -1   0  330.61   34.74
  -1  -6   1   79.68   27.04
  -7   1   1  273.35   30.02
   1   6   1  210.41   24.92
   7  -1   1  264.12   24.00
   6  -7   1  274.17   45.86
  -6   7   1  219.37   33.59
   7  -1  -1  206.60   22.34
   6  -7  -1  284.34   40.04
  -7   1  -1  243.46   30.07
  -6   7  -1  229.50   37.25
  -1  -6  -1  234.15   36.37
   1   6  -1  244.76   31.16
   6  -7   2  563.84  108.75
  -7   1   2  623.02   72.69
  -6   7   2  603.31   99.94
  -1  -6   2  590.67  104.56
  -6   7  -2  562.28  116.16
  -1  -6  -2  543.60  103.74
  -7   1  -2  540.40   67.53
  -7   1  -2  521.66   88.12
   6  -7  -2  601.48  113.84
   1   6  -2  537.78   91.79
   7  -1  -2  525.31   74.89
   6  -7   3  218.06   44.58
   1   6   3  243.61   30.05
  -7   1  -3  306.47   50.61
  -6   7  -3  268.62   46.88
   6  -7  -3  306.38   43.96
   7  -1  -3  260.18   36.92
   6  -7  -3  281.75   43.44
   1   6  -3  258.94   40.02
  -1  -6  -3  284.84   53.95
  -1  -6   4  125.63   30.09
   6  -7   4  346.95   54.02
   6  -7  -4  414.39   56.97
   7  -1  -4  280.47   42.05
   6  -7  -4  332.88   45.23
  -7   1  -4  348.25   52.18
   1   6  -4  304.31   47.72
  -6   7  -4  289.99   57.74
  -1  -6  -4  264.87   50.69
   6  -7   5  187.64   35.10
  -1  -6   5  118.18   21.07
   6  -7  -5  227.99   34.95
  -1  -6  -5  192.33   33.50
   1   6  -5  150.76   29.64
  -6   7  -5  166.36   29.46
  -7   1  -5  183.35   35.10
   6  -7  -5  171.98   26.30
   7  -1  -5  160.09   26.53
   6  -7   6  288.36   56.56
  -6   7  -6  334.35   65.20
   6  -7  -6  266.45   50.68
  -7   1  -6  255.99   49.51
   7  -1  -6  276.54   48.74
  -1  -6  -6  345.26   71.17
   1   6  -6  234.70   45.13
   6  -7  -6  264.93   45.48
   6  -7   7   69.80   14.29
   7  -1  -7   69.67   12.14
   1   6  -7   68.10   13.53
  -7   1  -7   57.69   14.01
   6  -7  -7   71.37   12.62
  -1  -6  -7   92.76   21.80
  -6   7  -7   77.92   15.47
   6  -7   8   95.75   21.09
  -6   7  -8   67.88   19.70
  -7   1  -8   82.02   16.65
  -1  -6  -8   64.98   17.92
   7  -1  -8   59.43   12.78
   1   6  -8   74.16   15.84
   6  -7  -8   77.97   13.96
   1   7   0  397.90   60.80
  -1  -7   0  403.57   76.92
   8  -1   0  404.12   53.19
   7  -8   0  486.65   91.94
  -7   8   0  477.58   96.35
  -8   1   0  470.59   68.57
   7  -8   1  197.38   34.98
  -1  -7   1  218.66   35.06
   8  -1   1  202.69   20.91
   1   7   1  179.19   23.91
  -8   1   1  221.80   24.52
  -7   8   1  201.86   31.07
   7  -8  -1  233.50   36.81
  -1  -7  -1  179.09   30.66
  -8   1  -1  142.27   26.42
   1   7  -1  201.81   29.97
  -7   8  -1  196.34   34.47
   8  -1  -1  131.78   18.76
   7  -8   2  496.90   91.91
  -8   1   2  474.62   57.34
  -1  -7   2  222.49   57.39
  -7   8   2  479.01   76.18
   1   7   2  368.45   48.84
   8  -1  -2  416.88   54.70
  -8   1  -2  505.80   81.04
   1   7  -2  419.22   68.11
  -1  -7  -2  501.37   83.83
   7  -8  -2  246.60   66.50
  -7   8  -2  501.66   95.68
   1   7   3  129.75   17.87
  -7   8   3  122.34   20.50
   7  -8   3  143.48   30.13
  -1  -7   3  135.69   24.05
   7  -8  -3  143.18   27.13
  -1  -7  -3  128.88   23.39
   1   7  -3  108.06   18.72
   8  -1  -3  113.54   15.75
  -7   8  -3  135.00   25.50
  -8   1  -3  136.20   22.58
   7  -8   4  266.67   55.11
  -1  -7   4  180.63   37.50
   7  -8  -4  262.28   42.59
   7  -8  -4  288.91   44.31
  -1  -7  -4  204.05   42.96
  -8   1  -4  260.64   45.01
   8  -1  -4  190.30   34.96
   1   7  -4  244.36   41.78
  -7   8  -4  208.65   44.02
   7  -8   5   77.55   16.21
  -1  -7   5   67.57   12.43
   1   7  -5   62.35   11.08
  -7   8  -5   63.97   15.87
  -1  -7  -5   68.57   13.60
   8  -1  -5   64.23   11.80
   7  -8  -5   59.54   11.01
   7  -8  -5   54.87   10.51
  -8   1  -5   30.57   10.36
   7  -8   6  219.56   45.11
   1   7  -6  171.25   35.16
  -1  -7  -6  214.06   42.54
  -7   8  -6  208.14   42.61
   7  -8  -6  198.15   36.15
  -8   1  -6  172.33   36.74
   8  -1  -6  201.59   32.46
   7  -8   7   42.54    9.62
   1   7  -7   30.77    8.46
  -1  -7  -7   26.53    9.70
  -8   1  -7   27.35    8.61
   7  -8  -7   40.68   10.91
  -7   8  -7   52.11   13.25
   8  -1  -7   28.65    9.56
  -9   1   0  135.99   23.26
  -1  -8   0  135.92   31.94
  -8   9   0  293.65   48.22
   8  -9   0  243.69   43.08
   1   8   0  228.00   31.34
   8  -9   1  365.96   74.18
  -1  -8   1  393.14   74.97
   1   8   1  280.95   45.29
  -9   1   1  353.15   55.00
  -8   9   1  324.61   63.10
   9  -1  -1  323.53   46.20
   1   8  -1  281.85   48.38
  -8   9  -1  357.62   76.82
  -1  -8  -1  321.26   61.33
   8  -9  -1  385.50   75.69
   1   8   2   19.52    3.63
  -8   9   2   22.38    5.45
   8  -9   2   32.52    7.76
  -1  -8   2   20.03    5.43
  -9   1  -2   32.67    7.19
  -1  -8  -2   21.24    6.24
   9  -1  -2   14.58    3.66
   1   8  -2   24.85    4.78
  -8   9  -2   11.79    6.58
   8  -9  -2   36.01    6.70
  -8   9   3  267.86   47.28
  -1  -8   3  300.26   54.35
   8  -9   3  246.44   53.75
   8  -9  -3  337.25   61.40
   1   8  -3  227.02   40.60
  -9   1  -3  272.40   51.67
  -8   9  -3  292.06   58.56
  -1  -8  -3  145.16   40.43
   9  -1  -3  226.71   33.78
   8  -9   4  215.40   47.86
  -8   9   4  150.85   32.22
  -1  -8   4  199.82   37.56
  -9   1  -4  168.67   34.00
  -8   9  -4  199.00   40.31
   9  -1  -4  177.66   26.92
   1   8  -4  189.99   39.88
   8  -9  -4  232.73   44.38
  -1  -8  -4  141.55   35.46
   8  -9   5  131.30   33.86
  -8   9  -5  203.91   43.44
  -1  -8  -5  170.98   36.95
   1   8  -5  140.04   28.50
   9  -1  -5  154.59   25.91
  -9   1  -5  149.94   31.48
   8  -9  -5  169.54   32.55
   8  -9  -5  215.14   41.14
   8  -9   6   17.31    6.56
  -8   9  -6   14.02    8.05
   1   8  -6   10.22    4.62
  -1  -8  -6    3.85    5.81
  -9   1  -6    9.98    5.01
   8  -9  -6   20.64    7.42
   9  -1  -6    9.07    3.89
   1   9   0  153.70   27.50
 -10   1   0  157.61   31.75
  -1  -9   0  235.13   49.52
  -9  10   0  226.33   44.48
   9 -10   0  206.81   48.65
  -9  10   1   61.52   12.82
  -1  -9   1   67.98   15.90
   1   9   1   58.06    9.35
   9 -10   1   68.96   20.17
  -1  -9  -1   54.53   16.73
   1   9  -1   45.54    9.06
  10  -1  -1   54.97    8.09
   9 -10  -1   75.41   18.67
 -10   1  -1   60.93   13.04
  -9  10  -1   49.09   13.85
  -9  10   2  164.46   33.11
  -1  -9   2   51.02   26.54
   9 -10   2  196.91   44.20
   9 -10  -2  270.62   45.97
 -10   1  -2  247.38   42.42
  -9  10  -2  204.05   40.90
   1   9  -2  214.58   34.06
  -1  -9  -2  195.51   36.87
  10  -1  -2  186.57   30.68
   9 -10   3   64.84   15.06
  -9  10   3   53.51   15.82
  -1  -9   3   55.55   12.21
  -9  10  -3   66.61   18.78
  10  -1  -3   41.84    8.62
  -1  -9  -3   55.34   17.09
   9 -10  -3   65.55   14.05
   1   9  -3   51.61    9.92
 -10   1  -3   56.07   12.44
  -9  10   4  117.60   24.80
   9 -10   4  104.28   27.53
   9 -10  -4  121.23   30.98
  -1  -9  -4  118.83   31.14
 -10   1  -4  105.56   29.63
  -9  10  -4  137.54   30.12
  10  -1  -4  115.00   21.91
   1   9  -4   95.65   26.31
  -9  10   5   39.86   10.95
   9 -10   5    8.97    8.70
  -9  10  -5   39.67   11.75
 -10   1  -5   24.13    8.65
  -1  -9  -5   26.04    8.71
   1   9  -5   28.94    7.12
  10  -1  -5   25.70    6.20
  10 -11   0  117.93   37.45
 -10  11   0  110.37   25.67
  -1 -10   0  125.34   29.03
  10 -11   1  141.95   35.84
  -1 -10   1   33.10   18.46
 -10  11   1  110.12   27.93
  -1 -10  -1  115.23   23.25
   1  10  -1   93.84   15.96
  10 -11  -1  120.28   25.82
 -11   1  -1  111.18   23.03
 -10  11  -1  112.94   22.91
  10 -11   2  101.53   23.65
  -1 -10   2   62.86   22.91
 -10  11   2   72.68   24.03
   1  10  -2   83.29   17.65
  10 -11  -2   94.26   21.74
 -11   1  -2   66.81   17.19
 -10  11  -2   91.64   23.20
  -1 -10  -2   75.59   19.51
 -10  11   3   89.28   20.99
   1  10  -3   77.59   17.22
 -11   1  -3  109.36   27.72
  10 -11  -3  117.33   31.79
  -1 -10  -3   80.55   20.29
 -10  11  -3  109.61   31.87
   0  -2   0  405.37   37.98
   0   2   0  410.68   31.80
   2  -2   0  409.73   35.64
  -2   0   0  429.72   28.72
  -2   2   0  383.28   30.57
   0  -2   1 1754.25  180.88
  -2   0   1 1469.29  105.02
   2  -2   1 1546.45  180.80
   2   0   1 1468.68   84.06
   0   2  -1 1579.00  172.32
   2  -2  -1 1312.72  157.04
  -2   0  -1 1564.57  171.39
   0  -2  -1 1614.31  195.49
  -2   2  -1 1450.30  176.08
  -2   0  -1 1452.27   75.34
   2  -2  -1 1456.73  144.98
   2   0  -1 1532.75  146.46
   2  -2   2 1191.96  137.31
   0  -2   2 1322.25  129.23
   2   0   2 1133.51   70.83
  -2   0  -2 1171.93   63.21
  -2   0  -2 1070.55  130.69
   0  -2  -2 1187.73  101.76
   2   0  -2 1134.55  122.41
   0  -2  -2 1214.50  151.74
   2  -2  -2 1115.86  118.68
  -2   2  -2 1139.58  141.39
   0   2  -2 1086.95  131.99
   0  -2   3 1302.80  133.85
   2  -2   3 1495.82  185.91
   2  -2  -3 1224.87  145.66
  -2   2  -3 1049.65  143.41
  -2   0  -3 1207.55  158.11
   0   2  -3 1235.82  160.29
   2   0  -3 1168.16  145.13
  -2   0  -3 1116.82   88.88
   2  -2  -3 1055.86  139.70
   0  -2  -3 1209.37  115.38
   0  -2  -3 1264.22  166.53
   0  -2   4  199.18   16.25
   2  -2   4  179.77   17.91
   0  -2  -4  190.19   14.09
  -2   0  -4  192.17   12.08
   0  -2  -4  179.01   17.37
   0   2  -4  181.93   17.76
   2   0  -4  188.98   17.80
  -2   2  -4  166.06   16.11
   2  -2  -4  210.45   18.91
   2  -2  -4  171.70   16.12
  -2   0  -4  210.05   21.57
   0  -2   5 1221.27  131.55
   2  -2   5  358.35  103.59
  -2   0  -5  976.46  102.01
   0   2  -5 1018.81  143.36
   2   0  -5  955.83  137.05
  -2   2  -5 1037.62  134.02
   2  -2  -5  986.46  131.23
   2  -2  -5 1164.66  154.34
   0  -2  -5  972.83  109.35
  -2   0  -5 1164.31  172.78
   0  -2  -5  962.20  138.10
   0  -2  -6  729.70   92.17
   2   0  -6  797.90  118.59
   0   2  -6  809.41  101.51
   2  -2  -6  501.55   92.05
   0  -2  -6  668.19  104.53
  -2   0  -6  794.03  120.44
   0   2  -6  770.94  115.82
  -2   2  -6  802.93  125.26
  -2   2  -6  749.72  103.58
  -2   0  -6  775.80   88.41
   2  -2  -6  692.89   99.35
   0   2  -7  705.48  122.38
   0  -2  -7  661.77   95.43
  -2   0  -7  750.60   99.68
   0   2  -7  712.48  100.78
   0  -2  -7  718.79  124.23
   2  -2  -7  740.62  120.72
   2   0  -7  790.12  133.55
   2  -2  -7  897.89  140.87
  -2   2  -7  813.25  130.69
  -2   2  -7  852.69  140.77
  -2   0  -7  758.44  132.52
   0   2  -8   59.06    8.35
   0  -2  -8   46.00    5.39
   2   0  -8   55.16    7.74
  -2   2  -8   58.44   10.55
  -2   2  -8   47.30    7.02
   0  -2  -8   59.19    9.74
   2  -2  -8   52.34    6.86
  -2   0  -8   56.76   10.42
  -2   0  -8   45.45    5.14
   0  -2  -9  243.16   34.66
   2   0  -9  304.16   49.04
   2  -2  -9  312.60   49.61
  -2   2  -9  322.02   50.89
  -2   2  -9  297.35   52.63
   0   2  -9  323.87   55.02
  -2   0  -9  288.53   54.04
   0   2 -10  139.72   25.45
   2  -2 -10  126.64   20.93
   2   0 -10  144.58   24.84
  -1   3   0  818.17   94.07
   3  -2   0  836.16   79.52
   3  -2   0  827.94   91.65
  -2  -1   0  788.62   76.36
   1  -3   0  933.39  115.75
   1  -3   1  438.02   45.09
  -1   3   1  317.32   33.56
   3  -2   1  425.09   41.85
  -2  -1   1  508.75   36.99
   2   1   1  441.60   18.79
  -3   2  -1  413.40   38.80
   3  -2  -1  415.31   37.53
  -1   3  -1  439.76   44.85
   2   1  -1  416.08   33.44
  -2  -1  -1  467.18   43.07
   3  -2  -1  463.89   37.88
  -2  -1  -1  423.90   23.01
   1  -3  -1  426.66   47.62
   1  -3   2   76.40    7.43
  -2  -1   2   74.09    4.33
   3  -2   2   92.01    7.68
   2   1  -2   78.97    6.65
   1  -3  -2   64.24    4.89
   3  -2  -2   85.71    5.82
   3  -2  -2   95.84    5.46
  -3   2  -2   70.28    6.32
   1  -3  -2   53.54    6.93
  -2  -1  -2  110.16    7.81
  -1   3  -2   88.69    7.20
   1  -3   3  259.57   25.18
  -2  -1   3  246.27   11.53
  -1   3  -3  297.94   31.33
   3  -2  -3  360.20   23.66
  -3   2  -3  289.15   25.51
   1  -3  -3  344.97   36.40
   1  -3  -3  281.26   22.79
   3  -2  -3  306.36   27.21
  -2  -1  -3  277.62   29.95
  -2  -1  -3  270.35   10.86
   2   1  -3  289.05   27.29
   3  -2   4  767.58  107.19
   1  -3   4  742.24   92.88
  -3   2  -4  737.51   88.77
   3  -2  -4  718.66   94.77
   3  -2  -4  845.93   83.92
   1  -3  -4  751.12   85.59
   1  -3  -4  747.05  109.55
  -2  -1  -4  773.35  110.20
  -2  -1  -4  761.58   56.61
   2   1  -4  723.34  100.98
  -1   3  -4  699.22   99.42
   3  -2   5  113.97   13.94
   1  -3   5   60.03    9.13
   2   1  -5   91.84   10.95
  -3   2  -5  108.12   10.00
   3  -2  -5  110.88   12.18
   3  -2  -5   99.70    7.78
   1  -3  -5  117.98   14.51
   1  -3  -5  119.29   10.65
  -2  -1  -5   98.84    6.15
  -2  -1  -5  128.66   15.33
  -1   3  -5  107.43   12.18
   1  -3   6    6.00    1.77
   1  -3  -6   12.73    2.49
   3  -2  -6    8.86    2.17
  -1   3  -6   14.71    3.23
  -3   2  -6    5.98    1.68
   2   1  -6    6.32    2.47
  -2  -1  -6   11.53    1.42
   1  -3  -6    5.26    2.28
  -3   2  -6   10.07    2.56
  -2  -1  -6   10.71    3.47
   1  -3   7   46.27    6.90
  -3   2  -7   50.27    7.07
   3  -2  -7   49.68    6.51
  -2  -1  -7   52.42    7.47
  -3   2  -7   51.15    7.42
   1  -3  -7   48.49    6.52
   2   1  -7   45.34    8.49
  -2  -1  -7   41.81    3.87
   1  -3  -7   58.79    9.20
  -1   3  -7   38.80    6.85
  -1   3  -8  202.15   32.48
   3  -2  -8  199.44   29.97
  -3   2  -8  231.98   37.87
  -3   2  -8  222.92   28.30
  -1   3  -8  183.10   26.94
   1  -3  -8  242.69   36.03
   1  -3  -8  205.80   25.98
  -2  -1  -8  219.02   33.12
   2   1  -8  253.81   41.18
   3  -2  -9   44.65    7.50
  -3   2  -9   45.86   10.47
  -2  -1  -9   45.21   10.45
  -1   3  -9   48.97    8.70
   1  -3  -9   40.42    5.93
   2   1  -9   38.68    8.67
   3  -2 -10    7.56    3.12
  -1   3 -10    8.08    4.73
   2   1 -10    3.93    3.25
  -2  -2   0 1719.48  253.18
   2  -4   0 1605.87  269.24
   2   2   0 1500.59  199.79
  -2   4   0 1840.01  287.87
   4  -2   0 1892.42  252.99
   4  -2   0 1793.72  203.26
   2  -4   1   -0.46    1.11
  -2   4   1    0.10    0.78
  -2  -2   1   -0.23    0.90
   2   2   1    0.21    0.37
   4  -2   1    0.43    0.92
   4  -2  -1    1.70    0.53
   2   2  -1    0.26    0.65
  -2  -2  -1    2.35    0.86
  -2   4  -1    0.41    0.98
   2  -4  -1    1.79    1.22
  -4   2  -1   -0.16    0.59
   4  -2  -1    0.90    0.64
   2   2   2  596.47   41.40
   2  -4   2  852.95  105.56
   4  -2   2  697.07   88.36
  -2  -2  -2  544.65   79.38
   2   2  -2  831.69   90.03
  -2   4  -2  898.21  112.82
   2  -4  -2  766.68  102.32
   4  -2  -2  865.65   75.26
  -4   2  -2  654.23   77.60
   2  -4  -2  641.31   82.33
   4  -2  -2  788.73   81.20
   4  -2   3    0.85    1.00
   2  -4   3   -0.11    0.95
   2   2   3    0.33    0.19
  -2  -2   3   -0.09    0.67
   2   2  -3    1.26    0.95
  -2   4  -3    1.73    1.11
   2  -4  -3    0.38    1.22
   2  -4  -3    0.99    0.77
   4  -2  -3    0.10    0.54
   4  -2  -3    0.87    0.87
  -2  -2  -3    3.65    1.14
   2  -4   4 1674.26  279.33
  -2  -2   4 1430.83  169.74
   4  -2   4 2175.50  377.86
  -2  -2  -4 1490.02  142.91
  -2  -2  -4 1556.53  286.01
   2   2  -4 1546.44  268.55
  -2   4  -4 1658.03  307.82
   2  -4  -4 1579.46  232.67
   2  -4  -4 1507.83  296.67
   4  -2  -4 1471.04  152.42
   4  -2  -4 1502.76  249.08
  -4   2  -4 1668.06  235.22
   2  -4   5   -0.11    1.09
  -2  -2  -5    0.50    0.36
  -2  -2  -5    0.25    1.53
  -2   4  -5    1.21    1.44
   2  -4  -5    3.02    2.25
   2  -4  -5    0.57    1.01
   2   2  -5    2.11    1.34
  -4   2  -5    4.35    2.19
   4  -2  -5    0.22    1.28
  -4   2  -5    3.60    1.25
   2  -4   6  968.65  148.27
  -2  -2  -6  618.95  108.79
   2  -4  -6  682.36  100.57
  -2   4  -6  667.69  116.07
   2  -4  -6  706.62  116.27
   4  -2  -6  589.30   96.35
   2   2  -6  602.74  101.98
  -4   2  -6  637.99  113.95
  -4   2  -6  581.01   77.17
   2  -4   7    2.28    1.65
   4  -2  -7   -0.26    1.73
  -4   2  -7    2.73    1.14
  -2   4  -7    1.48    1.84
   2  -4  -7    0.64    1.35
   2  -4  -7    0.07    1.91
   2   2  -7   -0.44    2.63
  -4   2  -7    1.16    2.66
  -2  -2  -7    0.54    2.04
   2   2  -8  659.57  125.16
  -4   2  -8  757.77  154.23
   4  -2  -8  703.83  133.17
  -2   4  -8  736.18  145.10
  -2   4  -8  620.55  126.60
   2  -4  -8  652.66  108.83
   2  -4  -8  586.49  128.39
  -2  -2  -8  647.17  128.22
  -4   2  -9    0.37    2.36
   2   2  -9   -0.08    3.25
  -2   4  -9    0.06    2.11
   2  -4  -9   -0.42    2.12
   4  -2  -9    1.24    2.04
  -2  -2  -9    0.15    2.12
   4  -2 -10   59.65   12.08
  -2   4 -10   61.12   17.08
   2   2 -10   68.91   13.75
   5  -2   0  193.54   19.92
  -3   5   0  169.62   23.95
   2   3   0  290.70   21.89
   3  -5   0  269.25   29.09
   5  -2   0  188.17   16.53
  -3   5   1  516.50   66.69
   5  -2   1  611.74   62.46
   3  -5   1  446.95   67.83
   2   3   1  481.25   47.55
  -2  -3   1  564.91   73.14
  -3   5  -1  479.82   69.89
   3  -5  -1  470.91   66.93
   2   3  -1  623.69   67.23
   5  -2  -1  508.19   53.90
   5  -2  -1  543.62   55.00
  -2  -3  -1  361.69   59.35
  -3   5   2  545.63   68.47
   5  -2   2  532.07   72.11
  -2  -3   2  561.10   67.25
   3  -5   2  519.93   77.36
   2   3   2  496.59   43.58
   5  -2  -2  545.46   60.55
  -3   5  -2  530.63   77.73
   5  -2  -2  517.09   48.82
  -5   2  -2  518.33   64.08
   3  -5  -2  507.49   81.13
   2   3  -2  482.30   61.97
  -2  -3  -2  566.73   76.76
  -2  -3   3  408.21   46.23
   3  -5   3  443.76   63.34
   2   3   3  440.83   31.83
   5  -2   3  575.11   77.48
   3  -5  -3  430.51   65.71
   5  -2  -3  435.27   34.52
   3  -5  -3  425.88   53.32
  -2  -3  -3  503.50   69.91
  -5   2  -3  428.78   50.06
   5  -2  -3  455.69   54.65
  -3   5  -3  530.77   79.53
   2   3  -3  457.73   58.14
  -2  -3   4   64.55    5.89
   3  -5  -4   93.06    8.87
   5  -2  -4   59.27    7.19
   2   3  -4   77.41    8.26
  -5   2  -4   47.91    4.97
  -2  -3  -4   58.29    8.53
   3  -5  -4   85.90    9.50
  -3   5  -4   57.91    9.05
  -5   2  -4   81.27    9.46
  -2  -3   5  226.97   19.46
   3  -5   5  185.90   25.31
   3  -5  -5  196.93   25.38
  -2  -3  -5  171.66   25.99
   3  -5  -5  195.43   27.10
  -3   5  -5  222.51   35.12
   2   3  -5  195.50   28.87
  -5   2  -5  191.36   32.31
  -5   2  -5  180.35   16.98
   5  -2  -5  194.10   24.81
   3  -5   6  310.42   47.00
   3  -5  -6  246.61   32.85
  -2  -3  -6  259.63   39.89
   3  -5  -6  281.17   44.29
  -5   2  -6  252.85   26.48
  -5   2  -6  252.02   41.54
  -3   5  -6  280.67   42.78
   2   3  -6  234.54   35.36
   5  -2  -6  253.65   35.93
   3  -5   7   37.47   10.98
   3  -5  -7   76.18   11.89
   3  -5  -7   76.95   10.35
   5  -2  -7   97.36   12.21
  -3   5  -7   98.73   14.70
  -2  -3  -7   96.84   14.99
  -5   2  -7   83.07   13.05
   2   3  -7   74.32   11.80
   3  -5   8   40.78    7.22
   5  -2  -8   14.52    4.83
   3  -5  -8   24.87    5.47
  -2  -3  -8   17.56    6.05
  -5   2  -8   33.42    7.06
   2   3  -8   22.17    7.31
  -3   5  -8   12.29    7.40
  -5   2  -9   61.36   14.99
  -3   5  -9   74.98   18.51
   2   3  -9   70.46   13.65
   3  -5  -9   69.03   11.18
   5  -2  -9   85.48   16.42
  -2  -3  -9   86.89   15.93
   6  -2   0   37.79    3.82
   6  -2   0   54.60    6.10
   2   4   0   42.39    5.27
   4  -6   0   56.04    9.36
  -4   6   0   43.51    6.27
  -2  -4   0   46.92    6.28
   4  -6   1  482.87  115.42
   6  -2   1  796.16  136.60
  -4   6   1  848.15  135.17
   2   4   1  835.27  101.93
  -2  -4   1  874.07  143.37
   4  -6  -1  776.25  137.68
   6  -2  -1  961.29  124.23
   6  -2  -1  799.79  103.92
  -4   6  -1  745.55  131.68
  -2  -4  -1  876.57  146.36
   2   4  -1  799.26  114.27
   6  -2   2  660.04  106.98
   4  -6   2  606.50  107.77
  -4   6   2  550.65   84.71
   2   4   2  614.44   65.22
  -2  -4   2  629.65   95.73
   6  -2  -2  560.21   75.16
   6  -2  -2  693.77   78.49
  -6   2  -2  555.59   74.65
   4  -6  -2  530.03   93.86
  -4   6  -2  555.32  106.11
  -2  -4  -2  528.79   93.99
   2   4  -2  636.99   94.33
   4  -6   3  558.60   91.07
   2   4   3  581.80   53.44
  -2  -4   3  520.56   72.23
   4  -6  -3  609.49   88.42
  -6   2  -3  458.32   61.40
  -6   2  -3  550.28   85.63
   6  -2  -3  495.58   69.19
   4  -6  -3  456.18   76.74
  -4   6  -3  531.78   92.21
  -2  -4  -3  451.82   83.78
   2   4  -3  512.46   74.75
   4  -6   4   14.78    3.28
  -2  -4   4   12.35    2.47
  -6   2  -4    9.66    1.76
   6  -2  -4   11.04    2.42
  -6   2  -4    9.19    3.88
  -4   6  -4   13.06    3.35
   4  -6  -4   14.01    3.48
   4  -6  -4    8.70    3.15
  -2  -4  -4   14.94    5.33
   2   4  -4    6.55    2.55
   4  -6   5  191.47   49.89
  -2  -4   5  413.89   48.59
   6  -2  -5  415.64   62.57
  -6   2  -5  419.97   73.16
  -4   6  -5  461.47   83.15
   4  -6  -5  465.84   73.85
   4  -6  -5  428.84   60.06
  -2  -4  -5  455.23   77.07
   2   4  -5  429.47   68.24
   4  -6   6  345.91   58.49
  -2  -4  -6  353.93   61.36
  -6   2  -6  254.14   48.01
   6  -2  -6  290.81   45.31
  -4   6  -6  340.02   59.30
   4  -6  -6  322.51   47.84
   4  -6  -6  363.03   65.56
   2   4  -6  267.94   47.55
   4  -6   7   95.70   32.65
  -2  -4  -7  242.86   44.56
  -6   2  -7  235.72   39.32
   2   4  -7  238.45   36.65
   6  -2  -7  249.05   40.54
  -4   6  -7  282.22   43.32
   4  -6  -7  251.21   37.14
   4  -6  -7  217.66   37.17
   4  -6   8    1.03    2.71
   2   4  -8   -2.38    2.31
   6  -2  -8    2.30    2.24
  -4   6  -8    2.85    2.54
   4  -6  -8   -1.20    2.52
  -6   2  -8    5.55    4.31
  -2  -4  -8   -0.09    3.11
   2   4  -9   92.24   20.68
   6  -2  -9   80.31   18.58
  -6   2  -9   74.56   23.02
  -4   6  -9   85.59   17.21
   4  -6  -9   74.75   15.15
  -2  -4  -9   77.40   18.15
   5  -7   0   86.26   14.45
  -7   2   0   97.26   11.39
   7  -2   0  125.65   10.04
  -2  -5   0   60.01   12.79
   2   5   0   83.46   10.14
  -5   7   0  115.27   15.30
  -7   2   1  321.88   45.53
  -2  -5   1  449.15   69.61
   5  -7   1  428.67   72.67
  -5   7   1  380.59   60.87
  -2  -5  -1  416.11   65.91
   2   5  -1  397.65   54.66
  -5   7  -1  376.34   68.74
   7  -2  -1  418.80   49.93
   5  -7  -1  505.79   81.01
  -7   2   2  217.44   26.16
  -2  -5   2  309.25   44.78
   5  -7   2  337.03   53.24
   2   5   2  293.46   29.82
  -5   7   2  300.62   44.45
  -7   2  -2  353.15   39.65
  -2  -5  -2  346.79   59.68
   2   5  -2  339.27   44.56
  -7   2  -2  336.87   50.64
  -5   7  -2  280.32   50.00
   5  -7  -2  246.75   43.70
   7  -2  -2  284.64   35.37
   2   5   3  238.62   23.08
  -7   2   3  269.98   24.16
  -5   7   3  291.44   41.74
  -2  -5   3  190.08   32.35
   5  -7   3  256.76   45.08
  -7   2  -3  285.82   32.41
   2   5  -3  345.30   46.12
  -7   2  -3  316.99   44.96
  -5   7  -3  314.63   49.25
   5  -7  -3  350.10   53.08
  -2  -5  -3  338.92   55.58
   7  -2  -3  274.50   34.24
  -2  -5   4   17.99    4.98
   5  -7  -4   37.20    6.45
  -7   2  -4   31.94    6.45
  -2  -5  -4   60.24    8.36
   7  -2  -4   45.73    5.68
  -5   7  -4   59.95    9.22
   5  -7  -4   30.44    5.82
   2   5  -4   27.06    5.70
  -2  -5   5  152.25   22.40
   5  -7   5  230.48   36.11
  -2  -5  -5  234.22   38.27
  -7   2  -5  183.68   35.27
  -5   7  -5  210.87   36.84
   5  -7  -5  194.68   29.72
   7  -2  -5  196.52   31.29
   2   5  -5  197.45   34.22
   5  -7  -5  236.14   35.23
   5  -7   6   77.63   17.99
  -2  -5  -6  153.44   27.83
  -7   2  -6   99.23   18.00
  -5   7  -6  125.81   22.79
   5  -7  -6  124.37   20.63
   7  -2  -6  102.97   16.38
   2   5  -6  104.27   17.51
   5  -7  -6  143.28   19.73
   5  -7   7  141.21   30.49
  -2  -5  -7  121.34   24.07
  -7   2  -7  104.17   23.24
   7  -2  -7  102.19   18.13
   2   5  -7  106.98   20.69
  -5   7  -7  118.54   23.47
   5  -7  -7  117.40   18.71
   5  -7   8   12.97    5.59
  -7   2  -8   27.37    8.69
   7  -2  -8   13.91    4.57
  -5   7  -8   19.17    6.45
   5  -7  -8   13.16    4.26
   2   5  -8   10.00    4.64
  -2  -5  -8   17.89    6.44
   2   6   0   13.99    2.74
  -2  -6   0   14.27    4.28
  -8   2   0   14.34    3.08
  -6   8   0   17.53    4.68
   6  -8   0   19.07    6.58
   8  -2   0   16.44    2.46
   2   6   1  239.18   28.95
  -8   2   1  225.66   26.43
  -6   8   1  166.63   31.99
   6  -8   1  242.96   48.53
   8  -2   1  247.46   29.00
  -8   2  -1  243.59   33.92
   2   6  -1  213.54   30.55
  -6   8  -1  195.81   35.94
   6  -8  -1  234.83   40.04
   8  -2  -1  218.13   27.26
  -2  -6  -1  236.16   38.70
   2   6   2  306.02   39.21
   6  -8   2  371.68   73.51
  -6   8   2  317.44   53.63
  -8   2   2  312.40   37.17
   8  -2  -2  320.48   46.96
  -2  -6  -2  328.91   58.41
  -8   2  -2  296.34   50.65
  -8   2  -2  346.79   45.59
   6  -8  -2  277.59   53.57
   2   6  -2  353.14   57.75
  -6   8  -2  309.43   61.21
  -2  -6   3   90.16   13.00
  -6   8   3   87.64   13.79
   6  -8   3  107.72   17.02
  -2  -6  -3   95.07   17.73
  -6   8  -3   72.93   19.62
   6  -8  -3  117.67   17.81
   2   6  -3   97.72   14.58
  -8   2  -3   69.75   12.99
   8  -2  -3   74.09   10.53
  -2  -6   4    7.81    2.87
   6  -8   4    7.10    5.57
  -6   8   4    9.14    3.16
  -8   2  -4    5.22    3.00
  -2  -6  -4    8.26    4.12
   2   6  -4    1.78    2.74
  -6   8  -4    5.47    4.35
   6  -8  -4    5.08    3.04
   8  -2  -4    9.33    2.44
   6  -8   5   52.02   11.69
  -2  -6  -5   68.26   14.16
  -6   8  -5   59.79   12.35
   2   6  -5   60.37   12.75
   6  -8  -5   55.98   10.84
   8  -2  -5   53.86    8.78
  -8   2  -5   46.86   10.12
   6  -8  -5   73.06   14.62
   6  -8   6  156.67   31.25
   2   6  -6  143.52   27.50
  -2  -6  -6  188.06   43.74
  -8   2  -6  156.24   31.85
   8  -2  -6  142.61   23.69
   6  -8  -6  153.97   26.63
   6  -8  -6  167.54   28.54
  -6   8  -6  152.20   33.04
   6  -8   7   51.77   11.97
  -2  -6  -7   44.52   12.07
  -6   8  -7   40.32   10.70
   6  -8  -7   37.00   11.17
   8  -2  -7   35.91    8.10
   2   6  -7   36.49    9.10
  -8   2  -7   47.82   13.99
   6  -8   8   -0.93    5.16
   2   6  -8    2.29    2.88
  -2  -6  -8   -3.57    5.79
   8  -2  -8    1.86    2.39
  -6   8  -8    1.18    3.47
   6  -8  -8    1.37    2.79
  -8   2  -8    0.06    4.69
  -2  -7   0  316.32   59.02
   2   7   0  310.42   51.82
   9  -2   0  340.39   48.48
  -9   2   0  349.21   60.26
   7  -9   0  366.63   79.63
  -7   9   0  328.33   65.10
   7  -9   1  103.51   18.43
   2   7   1   69.32    9.31
   9  -2   1   82.59   10.04
  -7   9   1   96.24   20.64
  -2  -7   1   96.09   15.58
  -9   2   1   99.30   11.86
  -2  -7  -1   28.40   12.31
   2   7  -1   87.50   13.98
   7  -9  -1  109.32   17.71
  -9   2  -1   81.50   15.14
   9  -2  -1   82.90   10.39
  -7   9  -1   92.90   18.94
   7  -9   2   47.75    9.68
   2   7   2   43.23    6.52
  -2  -7   2   52.81    9.56
  -9   2   2   37.16    4.78
  -7   9   2   45.31   11.12
   2   7  -2   43.79    7.29
  -7   9  -2   32.65    9.74
   7  -9  -2   55.22   12.82
  -2  -7  -2   43.47    9.35
  -9   2  -2   48.41    9.60
   9  -2  -2   26.13    5.73
  -7   9   3   56.27   10.11
   7  -9   3   57.96   12.55
  -2  -7   3   31.41    7.89
  -9   2  -3   38.64    9.00
  -2  -7  -3   58.27   11.42
  -7   9  -3   47.74   10.73
   2   7  -3   49.45    9.34
   7  -9  -3   62.17   13.13
   9  -2  -3   54.87    9.20
  -2  -7   4  310.53   59.74
  -7   9   4  288.56   59.12
   7  -9   4  326.47   65.88
  -7   9  -4  297.58   68.74
   7  -9  -4  262.03   60.67
   9  -2  -4  245.53   41.14
   2   7  -4  239.55   47.00
  -2  -7  -4  283.49   58.86
  -9   2  -4  324.43   68.64
   7  -9   5   46.51   11.83
  -7   9   5   41.54   13.12
  -2  -7  -5   53.72   12.23
  -7   9  -5   50.17   14.49
   7  -9  -5   47.04   11.05
   2   7  -5   41.02    9.03
  -9   2  -5   52.63   11.46
   9  -2  -5   32.67    9.87
   7  -9   6   14.02    6.22
  -7   9  -6   12.77    6.35
   2   7  -6   16.85    7.00
  -2  -7  -6    8.60    6.54
  -9   2  -6   14.36    5.99
   9  -2  -6   14.52    5.62
   7  -9  -6   18.89    7.54
   7  -9   7   29.38   14.82
  -2  -7  -7   29.34    9.18
  -7   9  -7   31.70   10.10
   2   7  -7   23.60    7.73
   7  -9  -7   27.19    8.44
  -9   2  -7   27.83    8.12
   9  -2  -7   22.87    8.22
   2   8   0   93.07   13.37
  -2  -8   0  110.61   19.32
  10  -2   0   98.24   14.07
 -10   2   0  100.04   15.31
   8 -10   0   76.87   20.91
  -8  10   0  108.80   21.24
   2   8   1   23.57    5.16
  -2  -8   1   15.47    5.91
  -8  10   1   23.91    6.73
   8 -10   1   31.81    7.01
 -10   2   1    3.40    3.36
  -8  10  -1   25.02    8.55
  -2  -8  -1   23.01    8.02
   2   8  -1   21.16    4.20
  10  -2  -1   18.46    3.78
 -10   2  -1   30.27    7.39
   8 -10  -1   24.98    6.97
  -2  -8   2    8.59    5.17
  -8  10   2   12.07    5.75
   8 -10   2   10.19    4.64
  -2  -8  -2    5.16    4.21
   2   8  -2    5.13    3.22
 -10   2  -2    7.37    4.35
  10  -2  -2    7.22    3.65
  -8  10  -2   12.64    6.86
   8 -10  -2   10.63    4.85
   8 -10   3   22.77    8.17
  -2  -8   3   30.14    5.99
  -8  10   3   25.60    8.80
  -2  -8  -3   13.00    9.68
   2   8  -3   17.88    5.67
 -10   2  -3   24.77    7.44
  10  -2  -3   17.39    6.22
  -8  10  -3   16.61    7.18
   8 -10  -3   25.92    7.60
  -8  10   4   52.52   12.58
   8 -10   4   75.94   19.77
  -2  -8  -4   45.37   17.43
   2   8  -4   47.38   10.39
 -10   2  -4   65.55   14.09
  10  -2  -4   46.13    9.26
  -8  10  -4   55.74   14.03
   8 -10  -4   53.35   12.98
  -8  10   5   12.92    5.48
   8 -10   5   13.71    6.85
  -2  -8  -5   13.91    8.84
   2   8  -5   16.73    5.21
 -10   2  -5   17.05    5.92
  10  -2  -5   12.57    4.45
  -8  10  -5    9.87    8.36
  -2  -9   0   21.62   11.43
 -11   2   0   40.03    9.02
  -9  11   0   23.07    9.13
   9 -11   0   36.18    9.85
  -2  -9   1   17.91    8.65
  -9  11   1   18.82    8.65
   9 -11   1    9.52    6.33
   2   9  -1    7.95    3.87
  -2  -9  -1    9.25    7.61
 -11   2  -1   16.58    4.63
   9 -11  -1   11.92    6.54
  -9  11  -1   16.68    6.01
   9 -11   2  138.49   34.88
  -2  -9   2   58.72   18.52
  -9  11   2  123.67   23.64
  -2  -9  -2   57.29   18.91
   2   9  -2  106.12   17.74
  11  -2  -2  121.36   16.86
  -9  11  -2  137.78   32.83
   9 -11  -2  134.74   31.61
 -11   2  -2   78.41   19.53
   9 -11   3   14.83    8.82
  -9  11   3   11.76    7.09
  -2  -9  -3    8.98    5.48
  11  -2  -3    7.77    3.54
   2   9  -3    9.42    3.85
  -9  11  -3   14.85    6.02
   9 -11  -3   14.82    8.50
 -11   2  -3   13.89    5.34
   9 -11   4   39.13   11.57
  -9  11   4   14.98    9.40
  -2  -9  -4   14.75    7.10
   2   9  -4   14.91    5.07
  11  -2  -4   17.24    5.21
  -9  11  -4   14.85    8.04
 -11   2  -4   21.49    9.84
   3  -3   0   21.29    2.22
  -3   3   0   18.88    1.88
  -3   0   0   20.71    1.92
   0  -3   0   23.18    3.45
   0   3   0   16.86    1.71
   3  -3   1  413.02   45.67
   0  -3   1  451.08   49.07
   3   0   1  373.18   20.85
  -3   0   1  382.48   28.48
   0   3   1  413.29   35.62
  -3   3  -1  439.83   47.83
   3  -3  -1  369.60   36.38
   3  -3  -1  513.15   49.86
   0   3  -1  400.56   39.96
  -3   0  -1  433.83   39.20
   3   0  -1  453.80   36.22
   0  -3  -1  436.12   49.05
   3  -3   2  905.47  107.31
   0  -3   2  925.94   98.96
  -3   3  -2  828.13  109.06
   3  -3  -2  891.23   90.87
   0   3  -2  769.10   96.12
  -3   0  -2  653.65   36.87
  -3   0  -2  799.09   93.21
   3   0  -2  805.95   86.02
   3  -3  -2  820.48   88.52
   0  -3  -2  809.72  104.57
   3  -3   3  244.31   26.03
   0  -3   3  168.72   18.77
   0   3  -3  231.99   23.53
  -3   3  -3  299.01   30.09
   3  -3  -3  249.15   22.12
  -3   0  -3  176.63   21.38
  -3   0  -3  234.08    8.87
   3   0  -3  229.70   22.37
   0  -3  -3  231.87   26.67
   0  -3  -3  250.92   18.79
   3  -3   4    8.22    2.16
   0  -3   4   12.72    2.08
   0   3  -4   16.75    2.54
  -3   3  -4   14.50    2.35
   3  -3  -4    8.92    1.67
   3  -3  -4   11.43    2.01
  -3   0  -4   17.57    3.82
  -3   0  -4   16.50    0.92
   3   0  -4   12.76    2.24
   0  -3  -4   18.21    2.86
   0  -3  -4   14.31    1.30
   0  -3   5  144.72   13.17
   0   3  -5  133.62   16.54
  -3   3  -5  142.44   14.73
   3  -3  -5   80.76   10.38
   3  -3  -5  130.10   13.41
  -3   0  -5  143.54    9.03
   3   0  -5  139.15   15.76
   0  -3  -5  154.81   18.06
   0  -3  -5  141.91   12.07
  -3   0  -5  166.86   19.16
   3  -3   6  404.37   55.14
   0  -3   6  345.74   37.23
   0   3  -6  272.05   39.66
  -3   3  -6  343.31   43.21
   3  -3  -6  287.05   36.01
   3  -3  -6  244.00   31.95
  -3   0  -6  277.26   24.64
   3   0  -6  307.15   42.03
   0  -3  -6  288.95   30.07
   0  -3  -6  300.00   42.54
  -3   0  -6  320.19   45.12
   0   3  -7   56.24    7.22
   0   3  -7   70.06   11.06
   0  -3  -7   85.45    8.94
  -3   3  -7   61.57   10.91
  -3   3  -7   78.77   11.32
   3  -3  -7   73.86    9.28
   3   0  -7   85.31   10.31
   0  -3  -7   90.38   12.07
  -3   0  -7   85.90   11.87
   0   3  -8   -2.36    2.94
  -3   3  -8    1.12    2.13
  -3   3  -8    2.18    1.84
   3  -3  -8    1.26    2.34
   0  -3  -8    2.72    3.05
   3   0  -8    4.80    1.99
   0  -3  -8    0.20    1.72
  -3   0  -8    0.62    3.23
   0   3  -9   44.96    8.46
  -3   3  -9   33.30    7.51
  -3   3  -9   39.90    7.16
   3  -3  -9   38.15    8.40
   3   0  -9   41.27    8.10
   0  -3  -9   44.21    8.57
  -3   0  -9   47.64   11.08
   0   3 -10  111.93   22.65
   3  -3 -10   73.05   13.65
   3   0 -10  116.48   22.78
  -3  -1   0  553.38   56.21
   1  -4   0  470.52   69.34
  -1   4   0  535.18   64.43
   4  -3   0  569.17   68.82
   4  -3   0  630.69   68.25
   4  -3   1  246.51   43.97
   3   1   1  542.92   29.26
  -3  -1   1  516.30   43.83
   1  -4   1  475.20   60.74
  -1   4   1  528.93   57.31
  -3  -1  -1  528.99   56.28
   3   1  -1  475.99   43.68
  -1   4  -1  533.92   61.79
   1  -4  -1  469.06   62.32
  -4   3  -1  493.86   54.63
   4  -3  -1  543.59   57.92
   4  -3  -1  432.82   43.98
  -3  -1   2  193.95   18.13
   1  -4   2  330.38   31.79
  -1   4   2  220.80   21.45
   4  -3   2  207.60   24.49
  -3  -1  -2  243.03   26.72
   3   1  -2  238.42   21.33
  -1   4  -2  196.73   23.54
   1  -4  -2  269.97   30.50
   4  -3  -2  235.46   21.70
  -4   3  -2  257.42   27.16
   1  -4   3  626.61   82.02
   4  -3   3  637.65   92.64
  -3  -1  -3  626.48   85.94
   3   1  -3  556.38   72.06
  -1   4  -3  593.94   86.27
   1  -4  -3  637.87   73.69
   1  -4  -3  571.03   88.47
   4  -3  -3  665.36   69.87
  -4   3  -3  550.55   77.45
   4  -3  -3  590.02   72.37
   4  -3   4  340.35   43.65
   1  -4   4  220.88   32.40
   4  -3  -4  365.15   33.23
  -3  -1  -4  388.02   50.64
   3   1  -4  319.67   39.62
  -1   4  -4  356.21   45.41
   1  -4  -4  321.64   32.75
   1  -4  -4  358.72   54.91
   4  -3  -4  371.59   41.73
  -4   3  -4  347.25   43.11
   1  -4   5  375.44   45.27
   4  -3   5  245.31   43.98
  -3  -1  -5  401.95   55.45
   3   1  -5  343.01   46.25
  -1   4  -5  393.68   58.23
   1  -4  -5  425.85   64.88
   1  -4  -5  313.50   35.89
   4  -3  -5  356.02   44.37
  -4   3  -5  418.18   52.29
   4  -3  -5  371.46   35.13
   1  -4   6  255.33   31.27
   4  -3   6  229.90   34.13
   4  -3  -6  146.77   20.80
  -3  -1  -6  173.19   27.12
   3   1  -6  183.36   24.46
   1  -4  -6  215.99   30.31
   1  -4  -6  176.69   19.12
  -4   3  -6  222.45   27.19
  -1   4  -6  149.14   23.31
   1  -4   7  173.27   23.42
   4  -3  -7  151.44   20.75
  -3  -1  -7  175.65   25.90
   3   1  -7  151.45   23.64
   1  -4  -7  188.28   28.13
   1  -4  -7  149.00   17.67
  -4   3  -7  169.46   30.09
  -1   4  -7  170.52   27.82
  -4   3  -7  145.34   19.02
  -3  -1  -8   93.46   15.82
   3   1  -8   94.26   18.50
  -1   4  -8  108.89   16.08
   1  -4  -8  115.00   17.64
   1  -4  -8   75.48   10.17
  -4   3  -8   82.82   15.42
  -4   3  -8   82.70   11.78
   4  -3  -8   96.13   13.23
  -3  -1  -9   80.48   14.33
   3   1  -9   72.90   12.92
   4  -3  -9   72.27   11.79
  -4   3  -9   71.35   13.78
  -1   4  -9   77.56   13.76
  -1   4 -10    7.29    5.03
   4  -3 -10    8.58    5.31
   3   1 -10   16.54    4.56
   5  -3   0  163.70   18.70
  -3  -2   0  234.96   20.70
   2  -5   0  138.01   19.90
  -2   5   0  191.04   21.04
   5  -3   0  195.80   18.08
   2  -5   1  540.96   71.66
  -2   5   1  482.95   62.31
   3   2   1  476.97   32.74
   5  -3   1  510.30   61.81
   5  -3  -1  507.92   51.52
  -5   3  -1  588.38   61.58
   5  -3  -1  282.30   43.97
  -3  -2  -1  516.72   57.88
  -2   5  -1  374.58   58.46
   3   2  -1  445.02   46.62
   2  -5  -1  370.38   64.86
  -3  -2   2  629.25   68.78
   2  -5   2  430.09   69.22
  -2   5   2  563.68   72.70
   5  -3   2  631.14   85.01
  -5   3  -2  396.13   61.61
  -3  -2  -2  552.64   75.29
   5  -3  -2  574.20   65.68
   5  -3  -2  596.97   66.19
  -2   5  -2  518.65   77.65
   2  -5  -2  465.72   75.01
   3   2  -2  505.81   62.79
   2  -5   3  362.34   58.84
   5  -3   3  463.24   65.28
  -3  -2   3  432.19   45.71
   3   2  -3  461.63   57.36
  -5   3  -3  430.98   58.56
   5  -3  -3  457.69   46.06
   5  -3  -3  513.92   61.26
  -3  -2  -3  460.82   62.65
  -2   5  -3  409.77   62.78
   2  -5  -3  506.81   59.61
   2  -5  -3  402.42   64.22
   2  -5   4   70.69    8.61
  -3  -2  -4   69.44   11.31
   3   2  -4   83.85    9.10
  -5   3  -4   78.65    7.74
   5  -3  -4   56.01    7.19
  -2   5  -4   69.93   12.48
   2  -5  -4   89.75    8.94
   2  -5  -4   93.33   10.90
   5  -3  -4   60.37    5.02
   2  -5   5  219.41   28.27
   5  -3   5  259.40   37.96
   3   2  -5  199.22   27.76
  -3  -2  -5  202.47   29.45
  -5   3  -5  209.99   27.18
   5  -3  -5  186.82   24.40
  -2   5  -5  210.52   31.63
   2  -5  -5  207.54   36.20
   2  -5  -5  197.49   24.96
   2  -5   6  268.15   37.70
  -3  -2  -6  271.63   41.56
   3   2  -6  272.59   43.06
  -5   3  -6  264.42   43.53
  -5   3  -6  277.28   32.96
   5  -3  -6  234.05   34.18
  -2   5  -6  296.42   48.90
   2  -5  -6  286.25   43.86
   2  -5  -6  208.13   27.98
   2  -5   7  104.08   13.46
  -5   3  -7   88.46   17.62
  -3  -2  -7   81.91   13.93
   3   2  -7   84.74   14.61
   5  -3  -7   78.66   11.54
  -2   5  -7   82.27   13.23
   2  -5  -7   73.34    9.38
   2  -5  -7   95.43   14.96
  -5   3  -7   77.54    9.37
   2  -5   8   28.40    6.44
  -3  -2  -8   13.61    5.27
   3   2  -8   37.89    6.94
   5  -3  -8   15.90    4.42
  -2   5  -8   13.16    7.36
   2  -5  -8   14.84    5.69
   2  -5  -8   23.55    4.63
  -5   3  -8   30.11    5.75
  -3  -2  -9   81.58   18.81
  -5   3  -9   76.69   17.74
   3   2  -9   82.01   18.79
   5  -3  -9   71.14   12.89
  -2   5  -9   88.04   16.26
   3  -6   0  533.76   77.10
  -3   6   0  453.25   66.81
   6  -3   0  318.02   53.59
   6  -3   0  449.17   49.65
   3   3   0  488.54   49.33
  -3  -3   0  387.21   56.07
   3  -6   1    0.66    1.86
  -3   6   1   -0.42    1.42
  -3  -3   1    4.19    1.46
   3   3   1    0.23    0.76
   6  -3   1   -0.60    1.23
  -3   6  -1    1.22    2.20
   3  -6  -1   -0.07    1.56
   3   3  -1    1.37    0.98
  -3  -3  -1    0.11    1.51
  -6   3  -1    0.14    1.07
   6  -3  -1    4.06    1.56
   6  -3  -1    0.37    1.41
   3  -6   2  916.87  178.84
  -3   6   2  959.21  160.56
   3   3   2  955.14   86.96
   6  -3   2 1023.73  174.46
  -3  -3   2 1042.84  156.40
  -3   6  -2  981.95  183.89
   3  -6  -2  889.74  186.52
   6  -3  -2  909.85  126.02
   6  -3  -2 1016.19  151.59
  -3  -3  -2  979.45  179.08
   3   3  -2  974.77  152.86
  -6   3  -2  856.00  151.82
   3  -6   3    2.83    1.92
  -3   6   3   -0.26    1.31
   6  -3   3   -0.20    1.54
  -3  -3   3    1.42    1.01
  -3   6  -3    1.07    2.02
   3  -6  -3    0.49    2.59
  -6   3  -3    0.44    1.15
   3   3  -3   -1.42    1.40
   6  -3  -3    0.98    0.61
  -3  -3  -3    0.87    1.61
   6  -3  -3    0.97    1.31
   3  -6   4  198.44   48.80
   6  -3   4  554.38   81.25
  -3  -3   4  260.72   36.08
  -3   6  -4  436.29   70.07
   3  -6  -4  606.39   72.89
   3  -6  -4  545.71   76.64
  -3  -3  -4  402.32   62.17
  -6   3  -4  571.27   64.83
   3   3  -4  546.63   68.82
   6  -3  -4  395.81   52.94
   3  -6   5    1.36    2.88
   6  -3   5    1.66    2.38
  -3   6  -5    1.00    2.33
   3  -6  -5    3.50    1.45
   3  -6  -5    2.77    3.00
  -6   3  -5    0.27    2.00
  -6   3  -5    1.14    1.13
   6  -3  -5    0.01    1.61
   3   3  -5    0.43    1.81
  -3  -3  -5    1.83    2.20
   3  -6   6  496.59   85.94
  -3   6  -6  494.52   86.44
   3  -6  -6  399.46   60.39
   3  -6  -6  382.94   73.68
  -3  -3  -6  464.82   85.64
  -6   3  -6  406.15   80.24
  -6   3  -6  408.19   56.46
   6  -3  -6  423.63   66.12
   3   3  -6  393.73   68.54
   3  -6   7    1.33    3.22
  -3   6  -7    0.16    2.51
   3  -6  -7    0.31    1.54
   3  -6  -7   -0.10    2.91
  -3  -3  -7    0.06    2.24
   6  -3  -7   -0.38    1.78
   3   3  -7    1.04    2.01
  -6   3  -7    1.64    2.36
   3  -6   8   74.46   16.84
  -3   6  -8  100.98   18.76
   3  -6  -8  120.74   15.32
  -6   3  -8  113.41   19.78
   6  -3  -8   77.05   15.08
   3   3  -8  105.01   16.89
  -3  -3  -8  111.87   26.03
  -3   6  -9    0.18    4.31
  -6   3  -9   -0.42    3.76
   6  -3  -9   -2.55    2.36
   3   3  -9    4.19    3.68
  -3  -3  -9   14.83    4.87
   7  -3   0  669.37  107.09
   7  -3   0  653.08   94.64
   3   4   0  869.38  119.27
  -3  -4   0  758.46  135.40
  -4   7   0  629.54  119.62
   4  -7   0  738.55  156.67
   7  -3   1  386.80   48.78
   3   4   1  424.76   47.46
  -3  -4   1  364.51   54.77
   4  -7   1  349.65   64.75
  -4   7   1  391.50   66.69
   7  -3  -1  338.91   43.90
  -3  -4  -1  370.59   57.46
   3   4  -1  371.62   48.15
   7  -3  -1  352.75   47.13
  -4   7  -1  330.45   61.47
   4  -7  -1  370.59   62.17
   7  -3   2  130.85   20.79
   3   4   2  122.82    9.25
  -3  -4   2   92.60   12.50
  -4   7   2   88.54   13.32
   4  -7   2   93.23   15.78
  -7   3  -2  112.08   13.74
   7  -3  -2   91.77   11.40
   7  -3  -2   96.20    9.42
  -3  -4  -2  108.39   16.04
   3   4  -2  111.21   14.80
  -4   7  -2   66.12   13.78
   4  -7  -2   97.54   15.16
   7  -3   3  243.07   46.17
  -3  -4   3  278.38   37.29
   4  -7   3  297.27   48.08
  -4   7   3  298.99   41.77
  -7   3  -3  249.43   35.72
   7  -3  -3  225.79   22.98
   7  -3  -3  281.08   35.37
  -3  -4  -3  337.96   53.87
   3   4  -3  235.71   36.51
  -4   7  -3  309.82   52.08
   4  -7  -3  268.57   42.17
  -3  -4   4  262.42   46.12
  -4   7   4  535.35   78.31
   4  -7   4  474.68   84.66
  -7   3  -4  418.93   59.17
  -7   3  -4  520.94   92.49
   7  -3  -4  526.78   73.15
  -3  -4  -4  592.63   91.96
   3   4  -4  505.10   78.64
  -4   7  -4  553.24   90.66
   4  -7  -4  517.28   93.13
   4  -7   5  103.99   26.53
  -7   3  -5  181.38   35.64
   7  -3  -5  190.91   25.53
  -3  -4  -5  216.07   38.92
   3   4  -5  156.66   26.90
  -4   7  -5  195.63   33.56
   4  -7  -5  220.37   35.76
   4  -7  -5  216.36   28.95
   4  -7   6   34.82    8.78
  -7   3  -6   23.50    6.39
   7  -3  -6   25.28    5.20
  -3  -4  -6   33.78   10.05
   3   4  -6   26.24    7.37
  -4   7  -6   29.57    7.05
   4  -7  -6   27.48    6.57
   4  -7  -6   42.17    7.68
   4  -7   7  142.78   26.87
  -7   3  -7  114.07   24.74
   7  -3  -7   90.42   15.60
  -3  -4  -7  101.80   21.66
   3   4  -7  114.02   22.16
  -4   7  -7  100.22   20.69
   4  -7  -7  113.47   20.64
   4  -7  -7  108.08   19.41
   4  -7   8  186.11   36.43
  -7   3  -8  134.01   29.80
   7  -3  -8  129.73   24.01
  -3  -4  -8  177.49   41.38
   3   4  -8  142.89   27.14
  -4   7  -8  172.89   34.31
   4  -7  -8  157.52   30.76
   8  -3   0  486.03   74.52
   3   5   0  412.05   61.61
  -3  -5   0  396.86   73.89
   8  -3   0  394.85   55.94
  -5   8   0  355.52   66.10
   5  -8   0  333.50   75.77
   8  -3   1  516.28   84.83
   3   5   1  462.07   60.76
  -3  -5   1  354.53   62.81
  -5   8   1  441.63   83.90
   8  -3   1  440.58   61.55
   5  -8   1  385.72   77.92
   8  -3  -1  439.87   67.47
  -3  -5  -1  352.92   71.23
   3   5  -1  400.82   58.23
   8  -3  -1  389.28   57.90
  -5   8  -1  351.48   69.79
   5  -8  -1  423.09   83.53
   3   5   2  306.77   33.36
  -3  -5   2  272.35   46.49
   5  -8   2  294.73   59.58
  -8   3   2  284.32   34.99
  -5   8   2  219.15   40.98
  -8   3  -2  298.92   39.09
  -3  -5  -2  269.05   52.06
   3   5  -2  283.53   41.33
  -8   3  -2  329.85   54.84
  -5   8  -2  210.01   46.29
   5  -8  -2  299.17   55.18
   8  -3  -2  253.38   39.30
   5  -8   3  134.92   43.74
  -5   8   3  348.39   56.97
  -8   3   3  295.22   33.04
  -8   3  -3  233.66   47.35
   8  -3  -3  291.21   40.90
  -3  -5  -3  345.37   56.64
   3   5  -3  340.22   52.75
  -5   8  -3  327.66   56.24
   5  -8  -3  301.70   50.35
  -8   3  -3  300.80   42.15
  -5   8   4  181.09   29.90
  -3  -5   4  205.12   28.24
   5  -8   4  202.63   41.62
  -8   3  -4  188.85   38.60
  -3  -5  -4  214.95   38.05
   3   5  -4  174.12   33.58
  -5   8  -4  224.02   42.17
   5  -8  -4  165.12   30.12
   8  -3  -4  196.18   31.15
  -5   8   5  179.31   28.86
   5  -8   5  214.89   36.94
  -8   3  -5  170.04   30.64
  -3  -5  -5  143.76   32.39
   3   5  -5  179.86   32.89
  -5   8  -5  172.59   34.13
   5  -8  -5  161.48   28.93
   8  -3  -5  175.30   29.78
   5  -8   6   81.37   15.41
  -8   3  -6   61.79   13.13
   8  -3  -6   64.29   13.70
  -3  -5  -6   73.25   16.26
   3   5  -6   76.69   15.96
  -5   8  -6   68.18   15.78
   5  -8  -6   72.24   13.09
   5  -8  -6   74.11   13.45
   5  -8   7  107.32   21.43
  -8   3  -7   57.45   13.07
  -3  -5  -7   89.93   22.69
   3   5  -7   70.90   13.31
  -5   8  -7   79.06   21.30
   5  -8  -7  100.07   19.07
   8  -3  -7   55.66   11.58
   5  -8   8   38.72   12.23
   8  -3  -8   49.79   12.19
  -8   3  -8   43.07   13.61
  -3  -5  -8   73.68   18.79
   3   5  -8   44.98   10.74
  -5   8  -8   65.21   14.74
   5  -8  -8   44.65   12.49
   9  -3   0  228.65   30.78
  -6   9   0  192.76   34.56
   3   6   0  183.75   27.64
  -3  -6   0  216.61   40.60
  -9   3   0  195.14   30.01
   6  -9   0  202.68   39.16
   9  -3   1  389.19   58.89
  -6   9   1  346.37   66.34
   3   6   1  363.70   53.15
  -3  -6   1  349.16   64.89
   6  -9   1  365.58   79.12
  -9   3   1  357.74   55.08
  -6   9  -1  297.08   61.20
   6  -9  -1  333.59   67.64
  -3  -6  -1  317.43   61.46
   3   6  -1  335.58   61.72
  -9   3  -1  355.87   60.65
   9  -3  -1  311.07   46.82
  -9   3   2  119.58   21.85
   6  -9   2  295.77   55.06
  -3  -6   2  215.58   36.51
  -6   9   2  265.38   43.32
  -9   3  -2  245.09   32.09
  -9   3  -2  285.89   46.72
  -6   9  -2  218.84   41.96
   6  -9  -2  341.86   58.28
  -3  -6  -2  253.55   43.14
   3   6  -2  268.96   35.98
   9  -3  -2  189.32   28.76
   6  -9   3  299.83   55.68
  -6   9   3  249.51   46.20
   9  -3  -3  233.16   37.64
  -9   3  -3  288.77   51.01
  -6   9  -3  264.10   50.85
   6  -9  -3  211.32   50.35
  -3  -6  -3  314.48   65.08
   3   6  -3  259.38   43.29
   6  -9   4  153.38   33.18
  -6   9   4  170.92   33.93
  -6   9  -4  208.90   46.07
   6  -9  -4  137.92   28.14
  -3  -6  -4  198.13   37.09
   3   6  -4  140.53   29.99
  -9   3  -4  138.59   34.89
   9  -3  -4  169.36   28.48
  -6   9   5  141.15   28.74
   6  -9   5  205.82   40.35
  -9   3  -5  151.95   31.86
  -6   9  -5  184.37   36.96
   6  -9  -5  179.64   33.19
  -3  -6  -5  212.10   41.89
   3   6  -5  177.32   36.77
   9  -3  -5  173.69   31.87
   6  -9   6  159.79   33.07
  -6   9   6  104.86   21.37
  -6   9  -6  153.48   33.44
   6  -9  -6  112.90   21.56
  -3  -6  -6   83.34   22.83
   3   6  -6  120.71   26.69
  -9   3  -6  107.36   21.50
   9  -3  -6   91.63   21.81
   6  -9   7   52.33   18.51
  -9   3  -7   85.86   20.20
  -6   9  -7  103.77   21.59
   6  -9  -7   84.96   18.72
  -3  -6  -7  107.89   29.85
   3   6  -7   94.01   20.90
   9  -3  -7   79.00   15.25
   7 -10   0   92.79   27.94
  -7  10   0  149.72   28.86
   3   7   0  149.98   21.98
  -3  -7   0  153.93   27.07
  10  -3   0  179.12   27.31
 -10   3   0  155.49   26.35
  -7  10   1  253.02   47.83
  -3  -7   1  272.39   49.07
   7 -10   1  188.82   47.70
  -7  10  -1  246.89   53.38
   7 -10  -1  271.01   52.08
  -3  -7  -1  253.62   52.78
   3   7  -1  223.74   35.26
 -10   3  -1  175.99   35.96
 -10   3  -1  264.40   41.71
  10  -3  -1  219.84   32.75
   7 -10   2   10.80    6.93
  -7  10   2   14.08    4.84
  -3  -7   2    1.33    4.25
  -7  10  -2    5.40    4.56
   7 -10  -2   10.68    6.08
  -3  -7  -2    6.10    4.49
   3   7  -2   11.93    3.30
 -10   3  -2   15.47    5.42
  10  -3  -2    7.63    3.77
  -7  10   3  187.86   34.28
  -3  -7   3  173.86   33.46
   7 -10   3  157.14   36.98
  -7  10  -3  170.02   42.06
   7 -10  -3  203.69   36.33
  -3  -7  -3  199.98   44.12
   3   7  -3  171.66   33.95
 -10   3  -3  126.41   30.03
  10  -3  -3  182.21   30.64
  -7  10   4   89.90   22.66
   7 -10   4  105.30   22.97
  -7  10  -4  104.87   28.81
   7 -10  -4   98.70   21.36
  -3  -7  -4  109.02   21.66
   3   7  -4   75.09   16.56
 -10   3  -4   81.55   22.57
  10  -3  -4   79.96   14.63
  -7  10   5  105.29   22.42
   7 -10   5  140.08   27.87
   7 -10  -5  130.86   30.98
  -3  -7  -5  115.30   25.99
   3   7  -5  100.43   20.19
 -10   3  -5   66.15   19.79
  10  -3  -5  100.48   17.41
  -7  10  -5  101.23   23.37
  -7  10   6    5.50    6.39
   7 -10   6    4.87    5.38
  -7  10  -6    8.57    5.02
  -3  -7  -6    2.95    5.46
   3   7  -6    8.33    4.02
 -10   3  -6    3.72    4.87
  10  -3  -6    5.85    3.33
 -11   3   0   86.03   19.60
  -3  -8   0   73.17   19.67
   8 -11   0  151.25   28.83
  -8  11   0  168.44   26.71
  -8  11   1   26.34    8.15
   8 -11   1   40.59    9.23
  -3  -8   1   27.03   10.00
 -11   3  -1    4.86    6.56
  -8  11  -1   28.43   10.17
  -3  -8  -1   26.41    7.25
   3   8  -1   23.30    4.77
  11  -3  -1   24.53    5.47
   8 -11  -1   28.17    8.42
   8 -11   2  356.21   92.60
  -8  11   2  376.76   89.28
  -3  -8   2  426.22   89.50
  -3  -8  -2  339.00   72.41
   3   8  -2  269.65   54.49
 -11   3  -2  297.61   71.55
  11  -3  -2  307.16   59.28
  -8  11  -2  353.76   81.33
   8 -11  -2  338.58   90.71
  -8  11   3   24.76    8.12
   8 -11   3   32.52   12.55
  -3  -8  -3   20.16   11.01
   3   8  -3   14.83    5.60
  -8  11  -3   23.11   10.80
  11  -3  -3   22.62    7.03
 -11   3  -3   35.57   10.98
   8 -11  -3   20.76    7.96
   8 -11   4  161.44   37.60
  -8  11   4  121.82   36.61
  -3  -8  -4  117.14   40.20
   3   8  -4  137.33   31.89
 -11   3  -4  159.32   44.06
  11  -3  -4  125.38   28.43
  -8  11  -4  153.97   38.44
   8 -11  -4  175.34   41.31
  -3  -9   0   48.09   18.62
  -9  12   0   55.14   14.47
   9 -12   0   61.04   16.79
   9 -12   1   17.24    9.28
  -3  -9   1   30.50    8.92
  -9  12   1   20.22    8.07
  -3  -9  -1   39.60   11.28
 -12   3  -1    8.55    6.90
  -9  12  -1   35.87    9.71
   9 -12  -1   43.98   13.13
   9 -12   2   89.34   26.05
  -3  -9  -2   29.80   14.65
 -12   3  -2   72.52   16.30
  -9  12  -2   71.13   17.84
   9 -12  -2   81.28   18.84
   0   4   0  271.69   29.05
   4  -4   0  298.05   37.57
  -4   4   0  260.01   30.58
   0  -4   0  299.64   36.27
  -4   0   0  351.90   31.83
   4  -4   1 1024.92  158.39
   0  -4   1 1017.71  165.14
   0   4   1  954.54  122.21
   4   0   1 1018.33   85.89
  -4   0   1  931.87  103.34
  -4   4  -1 1018.63  158.65
   4  -4  -1 1076.35  159.98
   4  -4  -1 1019.96  135.80
   0   4  -1  949.93  134.21
   0  -4  -1  870.04  150.42
  -4   0  -1 1085.39  147.33
   4   0  -1  969.21  108.72
   4  -4   2  880.68  137.13
   0   4   2  893.51  109.89
  -4   0   2 1000.54   82.20
   0  -4   2  947.31  131.99
  -4   4  -2  868.46  140.96
   0   4  -2  740.47  121.27
   4  -4  -2  861.13  107.54
   4  -4  -2 1090.23  148.20
   0  -4  -2  957.02  155.04
  -4   0  -2  893.22  123.84
  -4   0  -2  752.12   63.35
   4   0  -2  889.21  105.80
   0   4   3  771.04   97.01
   0  -4   3  996.25  132.26
   0   4  -3  862.26  130.64
  -4   4  -3  748.65  129.30
   4  -4  -3  857.76  118.33
   4  -4  -3  931.98  125.19
  -4   0  -3  684.28  123.73
   4   0  -3  871.16  121.49
   0  -4  -3  937.05  154.24
   0  -4   4   80.93    8.01
   0  -4  -4   80.20    6.78
   0   4  -4   55.71    8.02
   0  -4  -4   73.36   12.21
  -4   4  -4   69.54   10.49
   4  -4  -4   73.66    6.90
   4  -4  -4   72.37    8.04
  -4   0  -4   76.25    9.94
   4   0  -4   66.66    8.03
   4  -4   5  904.43  155.17
   0  -4   5  953.71  137.50
   0   4  -5  794.01  143.98
  -4   4  -5  871.65  148.56
   4  -4  -5  741.41  111.84
   4  -4  -5  790.21  128.59
  -4   0  -5  904.41  162.57
   4   0  -5  780.89  132.71
   0  -4  -5  795.37  110.15
   0  -4  -5  810.98  149.80
   0  -4   6  631.61   80.61
   4  -4   6  405.59   80.66
   0  -4  -6  447.55   58.72
   0   4  -6  501.53   85.99
   4  -4  -6  595.37   81.97
   4  -4  -6  455.74   71.21
  -4   4  -6  496.63   78.51
  -4   0  -6  553.25   95.76
   4   0  -6  468.19   73.95
   0  -4  -6  470.28   85.05
   4  -4   7  270.76   79.96
   0   4  -7  477.01   84.83
   4  -4  -7  475.72   76.07
  -4   0  -7  505.82   92.31
   4   0  -7  448.55   72.19
  -4   4  -7  555.96   88.96
   0  -4  -7  393.34   52.89
   0  -4  -7  505.26   85.13
   0   4  -8   21.95    5.52
  -4   4  -8   16.07    5.90
   4  -4  -8   20.13    4.52
  -4   4  -8   22.42    4.56
  -4   0  -8   27.46    7.62
   4   0  -8   24.10    5.17
   0  -4  -8   25.17    7.78
   0  -4  -9  128.86   24.63
   0   4  -9  142.99   24.68
   4  -4  -9  118.15   24.07
  -4   0  -9  127.71   24.38
   4   0  -9  131.91   23.57
  -4   4  -9  135.34   30.49
  -4   4  -9  135.06   25.49
   1  -5   0  459.79   62.91
  -1   5   0  555.91   61.05
   5  -4   0  579.39   68.43
   4   1   0  306.15   30.52
   5  -4   0  387.18   50.72
  -4  -1   0  512.39   50.01
   1  -5   1  154.28   26.25
  -1   5   1  242.61   27.30
   5  -4   1  286.65   36.06
   4   1   1  263.47   15.75
  -4  -1   1  283.49   24.55
   4   1  -1  235.29   21.23
  -1   5  -1  275.01   33.58
   1  -5  -1  268.61   37.85
  -5   4  -1  265.93   29.94
   5  -4  -1  308.45   35.21
   5  -4  -1  234.35   24.33
  -4  -1  -1  272.53   28.98
  -4  -1   2  521.47   74.17
   1  -5   2  970.12  144.19
  -1   5   2  927.36  125.86
  -1   5  -2  829.94  124.68
   1  -5  -2  845.47  142.10
  -5   4  -2  855.68  132.37
   5  -4  -2  964.56  130.53
   5  -4  -2  806.96  104.29
   4   1  -2  857.90  103.26
  -4  -1  -2  814.94  120.28
   1  -5   3  295.02   37.15
  -1   5   3  267.44   30.84
   5  -4   3  199.05   30.35
  -1   5  -3  265.93   35.53
   1  -5  -3  264.25   37.39
   4   1  -3  225.93   26.42
  -5   4  -3  253.45   34.60
   5  -4  -3  267.28   31.97
   5  -4  -3  268.94   28.66
  -4  -1  -3  267.27   34.01
   1  -5   4  237.02   32.30
  -1   5   4  269.91   29.58
   5  -4   4  284.70   39.05
  -1   5  -4  263.82   36.94
   1  -5  -4  207.04   35.31
  -5   4  -4  241.55   36.65
   5  -4  -4  282.66   35.92
   5  -4  -4  281.97   28.37
  -4  -1  -4  282.92   37.93
   4   1  -4  202.76   28.34
   1  -5   5  225.34   28.40
   5  -4   5  138.78   23.88
  -1   5  -5  177.00   27.94
   1  -5  -5  219.28   32.51
   1  -5  -5  239.56   26.49
  -5   4  -5  225.15   31.81
   5  -4  -5  195.72   25.80
   5  -4  -5  253.06   26.27
  -4  -1  -5  198.09   29.93
   4   1  -5  167.13   24.61
   1  -5   6  385.31   53.95
   5  -4   6  285.38   50.79
  -1   5  -6  292.30   53.02
   1  -5  -6  322.54   54.45
   1  -5  -6  328.36   41.49
  -5   4  -6  358.48   49.76
   5  -4  -6  254.76   42.12
  -4  -1  -6  307.50   53.22
   4   1  -6  335.05   51.07
   1  -5   7  129.07   17.04
   5  -4   7  135.14   22.89
   1  -5  -7   98.23   13.87
  -1   5  -7   82.89   15.61
   4   1  -7  103.36   16.53
  -5   4  -7   98.58   14.44
   5  -4  -7   90.36   14.44
   1  -5  -7  105.10   17.82
  -4  -1  -7   93.84   17.07
  -1   5  -8   74.91   13.39
  -5   4  -8   57.24    9.88
  -5   4  -8   61.97   18.07
   5  -4  -8   82.88   11.66
  -4  -1  -8   77.23   17.31
   4   1  -8   64.73   14.11
   1  -5  -8   68.16   13.57
   4   1  -9   23.39    6.48
  -1   5  -9   32.31    7.64
  -5   4  -9   26.30   10.43
   5  -4  -9   25.60    8.20
  -4  -1  -9   34.15    9.80
  -4  -2   0   43.59    4.14
   6  -4   0   46.42    4.95
   6  -4   0   45.31    4.61
   2  -6   0   28.22    5.19
  -2   6   0   26.42    4.50
   4   2   0   27.35    2.36
   6  -4   1  916.67  147.54
   2  -6   1  729.79  133.88
  -2   6   1  807.81  125.44
  -4  -2   1  905.27  119.53
   4   2   1  692.52   64.62
  -6   4  -1  733.35  119.51
   6  -4  -1  872.76  130.16
   6  -4  -1  763.38  106.35
  -2   6  -1  802.82  129.24
   2  -6  -1  794.64  150.57
  -4  -2  -1  795.40  116.77
   4   2  -1  782.30   97.12
   6  -4   2  590.28   88.18
   2  -6   2  189.12   63.17
  -2   6   2  654.74   94.37
  -4  -2   2  700.11   81.86
  -6   4  -2  544.55   83.09
   6  -4  -2  546.48   68.84
   6  -4  -2  565.71   75.64
  -2   6  -2  656.65   99.97
   2  -6  -2  575.06   94.79
   4   2  -2  555.01   69.11
  -4  -2  -2  524.74   77.21
   6  -4   3  206.89   57.71
   2  -6   3  259.52   60.65
  -2   6   3  511.85   68.94
  -6   4  -3  531.17   83.17
   6  -4  -3  600.41   66.91
   6  -4  -3  587.00   74.68
  -2   6  -3  553.85   80.40
   2  -6  -3  520.92   79.76
  -4  -2  -3  507.14   71.65
   4   2  -3  525.65   67.75
   2  -6   4    7.73    4.25
  -2   6   4   10.25    2.24
   6  -4   4    6.82    2.94
  -6   4  -4   10.00    2.62
   6  -4  -4    9.53    1.58
   6  -4  -4   17.23    2.71
  -2   6  -4   13.58    3.66
   2  -6  -4   10.00    3.47
   4   2  -4   11.59    2.84
  -4  -2  -4    9.46    3.24
   2  -6   5  518.12   83.03
  -4  -2  -5  408.84   73.63
  -6   4  -5  454.18   70.47
   6  -4  -5  443.97   74.39
  -2   6  -5  434.56   89.36
   2  -6  -5  445.40   69.66
   2  -6  -5  456.65   89.10
   4   2  -5  448.79   74.44
   6  -4   6  381.72   65.88
   2  -6   6  343.37   53.92
  -4  -2  -6  298.07   54.66
  -6   4  -6  270.16   44.67
   6  -4  -6  313.16   49.30
  -2   6  -6  307.67   57.46
   2  -6  -6  347.09   66.63
   2  -6  -6  355.80   55.24
   4   2  -6  327.85   52.33
   2  -6   7  335.09   49.64
  -6   4  -7  277.18   54.70
  -6   4  -7  281.04   44.15
   6  -4  -7  223.83   40.14
  -4  -2  -7  232.54   45.74
  -2   6  -7  271.09   52.13
   2  -6  -7  235.50   36.44
   2  -6  -7  275.42   50.57
   4   2  -7  263.23   48.50
  -6   4  -8    2.90    4.62
   6  -4  -8    3.23    2.58
  -2   6  -8    3.74    3.25
   2  -6  -8   10.77    4.37
   4   2  -8    1.23    2.82
  -4  -2  -8    1.66    3.18
  -6   4  -9   75.36   17.29
   6  -4  -9   82.62   18.41
  -4  -2  -9   74.82   16.60
  -2   6  -9   72.28   21.87
   4   2  -9   81.40   16.25
  -3   7   0  631.25   88.83
   7  -4   0  631.27   73.36
   7  -4   0  204.32   53.76
   3  -7   0  615.95   92.63
  -4  -3   0  724.59   86.46
   7  -4   1  175.80   40.59
  -3   7   1  329.27   48.63
   3  -7   1  406.05   67.16
   4   3   1  346.12   28.52
  -4  -3   1  131.56   32.07
  -7   4  -1  403.10   47.47
   7  -4  -1  354.12   43.29
   7  -4  -1  345.21   40.27
  -3   7  -1  353.10   56.03
   3  -7  -1  265.50   46.45
  -4  -3  -1  390.65   49.77
   4   3  -1  389.59   42.41
   7  -4   2  106.99   17.42
   3  -7   2  105.21   19.77
  -3   7   2  107.27   16.10
  -4  -3   2  120.78   15.59
  -3   7  -2   96.54   15.81
  -7   4  -2  126.59   18.19
   7  -4  -2  103.38   11.35
   7  -4  -2   93.02   11.86
   3  -7  -2  130.74   23.51
  -4  -3  -2  103.20   18.66
   4   3  -2  101.03   12.43
  -3   7   3  303.57   47.95
   7  -4   3  292.07   48.00
   3  -7   3  301.43   51.01
  -3   7  -3  345.19   62.03
   3  -7  -3  316.86   58.85
  -7   4  -3  242.71   40.32
   7  -4  -3  295.34   34.52
   7  -4  -3  304.77   44.36
  -4  -3  -3  268.04   43.12
   4   3  -3  315.33   47.69
   3  -7   4  665.18  115.49
  -3   7   4  585.11  101.27
   7  -4   4  578.26  107.62
   3  -7  -4  471.19  101.29
  -7   4  -4  400.40   77.01
   7  -4  -4  585.69   91.79
  -4  -3  -4  527.22   94.20
  -3   7  -4  592.93  115.54
   4   3  -4  581.10  102.17
   3  -7   5  237.11   36.75
  -3   7   5  196.98   29.17
  -3   7  -5  219.94   38.57
   3  -7  -5  191.97   34.22
  -7   4  -5  180.94   25.55
   7  -4  -5  180.08   28.12
  -4  -3  -5  184.37   36.44
   4   3  -5  212.15   36.76
   3  -7   6   32.63    8.72
  -3   7  -6   30.61    9.50
   3  -7  -6   26.47    5.54
   3  -7  -6   31.99    6.91
  -7   4  -6   20.06    6.33
   7  -4  -6   34.89    7.22
  -4  -3  -6   25.40    6.58
   4   3  -6   30.52    6.40
   3  -7   7  121.72   23.57
  -3   7  -7  113.53   26.20
   3  -7  -7  115.04   18.00
   3  -7  -7  115.66   24.83
  -7   4  -7  107.99   23.13
   7  -4  -7   93.58   16.88
  -4  -3  -7   98.09   19.41
   4   3  -7  103.41   21.63
  -3   7  -8  156.54   29.98
  -7   4  -8  135.86   31.46
   7  -4  -8  139.58   25.02
  -4  -3  -8  157.02   32.18
   4   3  -8  133.15   25.21
   8  -4   0  738.05  104.19
   8  -4   0  794.97  123.49
   4  -8   0  806.66  149.45
  -4   8   0  703.76  122.55
  -4  -4   0  295.57   85.60
   8  -4   1    1.46    2.01
   4  -8   1    3.32    2.44
  -4   8   1   -2.97    3.01
   4   4   1    1.44    1.23
  -4  -4   1   -0.19    1.93
  -8   4  -1   -2.38    2.34
   8  -4  -1    0.06    1.49
   8  -4  -1    0.22    2.26
  -4   8  -1    0.47    2.39
   4  -8  -1    4.05    2.24
  -4  -4  -1    5.44    3.16
   4   4  -1    3.30    1.45
   4  -8   2  104.07   19.71
  -4   8   2   99.49   17.85
   8  -4   2  102.61   14.28
  -4  -4   2   53.83   10.11
  -8   4  -2   97.54   16.57
   8  -4  -2   93.53   12.61
   8  -4  -2   80.21    9.38
  -4   8  -2   76.23   13.91
   4  -8  -2   77.47   16.58
  -4  -4  -2  103.10   15.76
   4   4  -2   95.50   12.55
   8  -4   3    1.65    2.29
   4  -8   3    3.60    2.58
  -4   8   3    0.10    2.05
  -4  -4   3   -0.46    1.58
  -8   4  -3    1.80    1.72
   8  -4  -3   -1.77    1.78
   8  -4  -3    0.97    1.04
  -4   8  -3    1.66    3.93
   4  -8  -3    3.41    2.29
  -4  -4  -3   11.74    2.89
   4   4  -3    1.65    1.99
   8  -4   4  339.13   83.27
   4  -8   4  471.45   92.05
  -4   8   4  411.82   73.48
  -8   4  -4  361.69   64.57
   8  -4  -4  419.19   67.68
  -4   8  -4  395.88   76.98
   4  -8  -4  463.65   90.98
  -4  -4  -4  442.20   89.31
   4   4  -4  407.77   72.56
   4  -8   5    4.16    3.82
  -4   8   5   -0.89    1.94
  -8   4  -5    6.17    2.49
   8  -4  -5    0.48    2.05
  -4   8  -5    0.24    3.70
   4  -8  -5   -0.11    3.04
  -4  -4  -5   -2.82    2.72
   4   4  -5    0.71    2.23
   4  -8   6   57.48   14.43
  -4   8   6   43.79    8.67
  -8   4  -6   38.45    9.98
  -4   8  -6   53.97   11.50
   4  -8  -6   50.58   11.91
   8  -4  -6   56.01   11.19
  -4  -4  -6   49.32   11.34
   4   4  -6   51.62   12.04
   4  -8   7    1.88    4.07
  -8   4  -7    8.96    4.11
   8  -4  -7    5.74    2.56
  -4   8  -7   -2.35    3.39
   4  -8  -7    1.50    2.69
   4  -8  -7   -2.47    4.78
  -4  -4  -7    3.53    3.50
   4   4  -7   -0.71    2.83
  -8   4  -8   95.93   23.34
   8  -4  -8  129.21   23.31
  -4   8  -8  146.39   31.93
  -4  -4  -8  146.02   32.04
   4   4  -8  132.14   23.81
  -5   9   0  179.48   36.15
   9  -4   0  197.77   33.02
   4   5   0  233.72   28.76
  -4  -5   0  213.48   41.43
   9  -4   0  277.76   43.90
   5  -9   0  245.19   43.49
  -5   9   1   88.00   16.75
   9  -4   1  123.05   19.64
   5  -9   1   90.92   18.28
   4   5   1   83.05   10.93
  -4  -5   1   97.86   17.74
  -5   9  -1   82.95   16.62
   5  -9  -1  106.34   24.35
  -4  -5  -1  102.54   17.90
  -9   4  -1   85.19   12.83
   9  -4  -1   79.04   12.12
   9  -4  -1  115.57   19.31
   4   5  -1   96.18   13.36
   5  -9   2  467.01   83.46
  -5   9   2  516.62   82.20
   9  -4   2  150.84   59.53
  -4  -5   2  512.13   72.23
  -5   9  -2  442.06   74.21
   5  -9  -2  410.17   74.85
   9  -4  -2  453.42   62.74
  -9   4  -2  563.62   80.51
   9  -4  -2  182.44   47.73
  -4  -5  -2  204.91   56.57
   4   5  -2  452.73   66.94
   5  -9   3  112.91   25.90
  -5   9   3   95.63   17.51
   9  -4   3   47.54   19.43
  -4  -5   3  128.08   17.36
  -5   9  -3  103.07   24.15
   5  -9  -3   95.30   18.23
  -9   4  -3   99.05   14.83
  -9   4  -3  114.48   20.26
   9  -4  -3   88.49   14.48
  -4  -5  -3  118.12   20.94
   4   5  -3  126.60   18.23
   5  -9   4  198.71   37.99
  -5   9   4  113.55   23.72
  -5   9  -4  131.10   26.93
   5  -9  -4  151.83   27.44
  -9   4  -4  161.86   30.03
   9  -4  -4  133.31   21.79
  -4  -5  -4  145.55   34.63
   4   5  -4  176.78   27.66
   5  -9   5   85.68   18.33
  -5   9   5   47.70   10.97
  -5   9  -5   53.84   13.12
   5  -9  -5   54.07   11.57
  -9   4  -5   69.51   15.95
   9  -4  -5   53.12   10.23
  -4  -5  -5   51.51   13.21
   4   5  -5   60.31   14.00
   5  -9   6  300.54   59.18
  -5   9   6  243.18   51.12
  -5   9  -6  238.08   56.17
   5  -9  -6  214.03   47.01
  -9   4  -6  231.00   54.71
   9  -4  -6  237.81   43.30
  -4  -5  -6  288.40   66.33
   4   5  -6  230.34   45.59
   5  -9   7    9.83    6.42
  -5   9   7   19.89    7.75
  -5   9  -7   12.57    7.51
  -9   4  -7   21.59    8.25
   9  -4  -7   17.86    5.24
  -4  -5  -7   28.00    7.83
   4   5  -7   21.92    6.14
  10  -4   0   34.66    7.54
  -6  10   0   24.16    6.58
   6 -10   0   23.90   10.01
 -10   4   0   25.12    5.82
   4   6   0   19.96    4.22
  -4  -6   0   28.34    6.50
  -6  10   1   30.87    8.97
   6 -10   1   46.29   10.77
 -10   4   1    9.57    6.17
  -4  -6   1   46.87   10.68
  -6  10  -1   34.93    9.56
   6 -10  -1   42.44    9.74
 -10   4  -1   45.69    8.75
 -10   4  -1   53.94    7.49
  10  -4  -1   44.30    8.77
  -4  -6  -1   52.29   11.75
   4   6  -1   46.64    7.38
   6 -10   2   65.69   17.13
  -6  10   2   52.60   15.38
 -10   4   2   40.20    7.28
  -4  -6   2   54.23   10.08
  -6  10  -2   55.52   14.41
   6 -10  -2   72.03   17.94
 -10   4  -2   66.08   10.24
 -10   4  -2   68.83   12.46
  10  -4  -2   43.95    7.98
  -4  -6  -2   59.49   12.83
   4   6  -2   49.06    9.37
  -6  10   3   32.69   11.01
   6 -10   3    6.00    8.33
  -4  -6   3   33.23    9.00
  -6  10  -3   37.37   10.60
   6 -10  -3   38.18    9.33
 -10   4  -3   35.35   11.13
  10  -4  -3   27.68    5.71
  -4  -6  -3   27.38    8.85
   4   6  -3   28.82    6.72
   6 -10   4   30.97   10.92
  -6  10   4   18.98    6.58
  -6  10  -4   29.92   11.61
   6 -10  -4   25.82    9.53
 -10   4  -4   13.64    6.86
  10  -4  -4   19.33    5.12
  -4  -6  -4   31.44    8.70
   4   6  -4   23.53    6.18
   6 -10   5   33.02   11.02
  -6  10   5   29.58    8.08
  -6  10  -5   23.55   12.37
   6 -10  -5   29.74    9.49
 -10   4  -5   30.86   12.19
  10  -4  -5   35.10    7.26
  -4  -6  -5   38.51   10.03
   4   6  -5   31.93   10.31
   6 -10   6   36.82    9.25
  -6  10   6   23.57   10.05
  -6  10  -6   45.05   12.84
   6 -10  -6   29.84    8.24
 -10   4  -6   26.44    7.76
  10  -4  -6   15.78    6.27
  -4  -6  -6   30.09    9.39
   4   6  -6   20.00    7.19
   7 -11   0   77.41   19.19
  -7  11   0   71.27   16.85
 -11   4   0   67.82   13.97
  11  -4   0   95.96   18.41
  -4  -7   0   77.15   15.18
   7 -11   1  163.35   36.68
  -7  11   1  131.86   31.52
 -11   4   1   79.25   18.20
  -4  -7   1  109.07   21.75
  -7  11  -1  108.26   26.67
   7 -11  -1  141.72   35.63
 -11   4  -1  153.28   26.00
  11  -4  -1  140.47   25.50
  -4  -7  -1  144.11   31.30
   4   7  -1  125.11   20.28
   7 -11   2   62.42   14.89
  -7  11   2   49.54   16.58
  -4  -7   2   58.94   14.03
  -7  11  -2   46.99   15.20
   7 -11  -2   67.19   16.78
 -11   4  -2   50.04   12.63
  11  -4  -2   40.07    8.54
  -4  -7  -2   47.58   16.58
   4   7  -2   57.51   10.57
   7 -11   3   91.17   26.17
  -7  11   3  141.93   27.35
  -7  11  -3  103.70   24.73
   7 -11  -3  107.21   24.40
 -11   4  -3  143.63   27.06
  11  -4  -3   96.54   17.38
  -4  -7  -3  111.70   26.17
   4   7  -3  119.20   21.86
   7 -11   4   38.89   13.01
  -7  11   4   46.63   15.18
  -7  11  -4   40.28   12.64
   7 -11  -4   25.71   11.44
 -11   4  -4   33.36   13.39
  11  -4  -4   38.49    8.06
  -4  -7  -4   41.52   11.93
   4   7  -4   39.88    9.61
   7 -11   5  103.81   24.30
  -7  11   5   79.14   18.63
  -7  11  -5   78.89   26.31
   7 -11  -5  105.94   23.29
 -11   4  -5   60.22   17.88
  11  -4  -5   74.83   15.56
  -4  -7  -5  102.62   23.05
   4   7  -5   75.57   17.20
   8 -12   0    1.82    4.61
  -8  12   0   11.78    5.65
  -4  -8   0    0.26    3.40
   8 -12   1   11.40    4.72
  -8  12   1    8.70    4.03
  -4  -8   1   -2.20    3.54
 -12   4  -1    1.74    3.58
  -8  12  -1    5.54    4.40
   8 -12  -1    2.26    4.45
  -4  -8  -1    1.18    3.66
   8 -12   2   45.04   11.48
  -8  12   2   25.83   13.95
 -12   4  -2   31.78    9.61
  -8  12  -2   27.85    9.17
   8 -12  -2   42.35   14.45
  -4  -8  -2   22.70    9.96
   8 -12   3   23.86    8.68
 -12   4  -3   17.22    7.42
   8 -12  -3   14.98   10.82
   5  -5   0  891.02  156.91
  -5   5   0  925.57  147.82
   0  -5   0  924.45  163.68
   0   5   0  933.84  134.61
  -5   0   0  896.24  122.40
   5  -5   1   20.85    4.74
   0  -5   1   20.36    4.40
   0   5   1   18.68    2.47
   5   0   1   24.56    1.90
  -5   0   1   24.41    2.89
  -5   5  -1   22.86    3.94
   5  -5  -1   25.57    3.50
   5  -5  -1   29.63    3.83
   0   5  -1   18.12    3.00
   0  -5  -1   19.71    5.23
  -5   0  -1   28.60    3.50
   5   0  -1   23.91    2.94
   0  -5   2  165.61   21.30
   5  -5   2  179.39   22.70
   0   5   2  168.43   16.89
  -5   5  -2  175.42   21.64
   5  -5  -2  172.04   17.74
   5  -5  -2  179.36   20.23
   0   5  -2  174.61   20.34
   0  -5  -2  160.22   21.43
  -5   0  -2  190.57   21.07
  -5   0  -2  126.31    9.00
   5   0  -2  157.23   14.82
   0  -5   3    0.67    1.84
   5  -5   3    2.16    1.89
   0   5  -3    3.46    2.46
  -5   5  -3    2.37    1.93
   5  -5  -3    4.39    1.46
   5  -5  -3    3.05    1.72
  -5   0  -3    4.61    2.01
   5   0  -3    3.93    1.33
   0  -5  -3    4.38    3.16
   0  -5   4  536.27  100.21
   5  -5   4  581.30  108.06
   0   5   4  735.12   97.89
   0   5  -4  679.02  120.44
  -5   5  -4  757.88  137.88
   5  -5  -4  690.09  103.32
   5  -5  -4  772.46  110.01
  -5   0  -4  767.03  131.06
   5   0  -4  642.52  101.62
   0  -5  -4  733.48  133.69
   0  -5   5    0.83    2.08
   5  -5   5    0.56    2.09
   0   5   5    1.08    1.70
   0   5  -5    4.26    1.98
  -5   5  -5    5.56    2.14
   5  -5  -5    0.70    1.71
   5  -5  -5    0.47    1.95
  -5   0  -5    2.13    2.90
   5   0  -5    1.52    1.65
   0  -5  -5    2.46    2.62
   0  -5   6   31.79    5.03
   5  -5   6   35.24    5.76
   0   5   6   23.03    3.77
   0   5  -6   35.03    5.98
  -5   5  -6   39.04    6.31
   5  -5  -6   32.59    5.39
   5  -5  -6   29.32    5.05
  -5   0  -6   38.22    6.75
   5   0  -6   38.61    5.57
   0  -5  -6   38.83    7.70
   5  -5   7    6.15    2.49
   0   5  -7    0.69    2.65
  -5   5  -7    9.55    3.63
   5  -5  -7    3.14    2.34
  -5   0  -7    1.14    2.93
   5   0  -7    2.70    2.34
   0  -5  -7    7.04    3.27
   5  -5   8  383.17   76.04
   0   5  -8  233.91   50.69
  -5   5  -8  237.32   45.11
   5  -5  -8  240.84   44.00
  -5   0  -8  228.62   47.07
   5   0  -8  218.95   40.97
   0  -5  -8  235.99   49.04
   0   5  -9    1.59    3.01
  -5   5  -9    1.89    4.97
   5  -5  -9   -0.32    2.83
  -5   0  -9    8.41    3.33
   5   0  -9    2.09    2.65
   0  -5  -9   -1.63    4.68
  -6   5   0  473.49   65.12
   1  -6   0  500.76   82.26
  -1   6   0  421.35   58.88
   6  -5   0  350.83   64.48
   5   1   0  442.20   42.30
  -5  -1   0  493.25   57.93
   6  -5   1  360.85   71.69
   1  -6   1  472.97   76.65
  -1   6   1  525.41   70.89
   5   1   1  540.63   43.27
  -5  -1   1  480.52   56.02
  -6   5  -1  609.30   86.19
   6  -5  -1  608.01   80.95
  -1   6  -1  637.07   87.30
   1  -6  -1  523.36   83.09
   6  -5  -1  616.24   87.07
  -5  -1  -1  284.31   54.39
   5   1  -1  508.07   54.02
   6  -5   2   11.47    4.38
   1  -6   2   14.67    4.85
  -1   6   2   24.20    3.82
  -5  -1   2   31.10    3.63
  -6   5  -2   51.37    6.85
   6  -5  -2   26.70    5.12
   6  -5  -2   33.31    4.57
  -1   6  -2   29.04    4.53
   1  -6  -2   45.48    6.17
  -5  -1  -2   34.12    6.00
   5   1  -2   47.86    4.07
   6  -5   3  504.53   88.37
   1  -6   3  528.65   82.92
  -1   6   3  563.07   83.20
  -5  -1   3  481.50   53.58
  -6   5  -3  501.25   87.89
   6  -5  -3  457.82   67.83
   6  -5  -3  555.94   77.33
  -1   6  -3  517.29   86.46
   1  -6  -3  460.02   82.61
  -5  -1  -3  504.11   80.21
   5   1  -3  497.47   69.96
   6  -5   4  529.54   93.42
   1  -6   4  519.15   81.82
  -1   6   4  408.55   62.34
  -6   5  -4  437.68   83.63
   6  -5  -4  450.12   68.68
   6  -5  -4  550.32   74.69
  -1   6  -4  463.07   80.77
   1  -6  -4  430.40   82.68
  -5  -1  -4  471.12   79.45
   5   1  -4  425.52   67.75
   6  -5   5  311.42   56.02
   1  -6   5  346.35   52.76
  -1   6   5  347.62   49.96
  -6   5  -5  299.21   50.68
   6  -5  -5  352.59   55.32
   6  -5  -5  335.13   43.64
  -1   6  -5  311.02   54.51
   1  -6  -5  319.99   57.95
  -5  -1  -5  321.69   55.23
   5   1  -5  330.47   51.75
   6  -5   6   14.92    4.46
   1  -6   6   15.35    4.04
  -1   6   6   15.11    3.04
  -6   5  -6   28.24    4.69
   6  -5  -6   12.50    4.19
  -1   6  -6   23.10    5.34
   1  -6  -6   31.71    5.60
  -5  -1  -6   17.28    6.75
   5   1  -6   30.08    4.84
   6  -5   7  200.22   34.82
   1  -6   7  190.25   29.03
  -6   5  -7  131.45   22.99
   6  -5  -7  154.89   25.15
  -1   6  -7  155.37   27.67
   1  -6  -7  157.72   28.85
  -5  -1  -7  164.53   33.67
   5   1  -7  147.87   24.71
  -6   5  -8  125.06   26.17
   6  -5  -8  116.73   23.28
  -1   6  -8  120.63   22.30
   1  -6  -8  113.23   27.70
  -5  -1  -8  117.75   22.36
   5   1  -8   94.56   17.89
  -6   5  -9   62.99   22.13
   6  -5  -9   67.94   12.79
  -1   6  -9   70.20   15.56
  -5  -1  -9   70.67   19.16
   5   1  -9   59.54   12.63
   7  -5   0  143.11   18.36
  -7   5   0  102.96   12.83
   2  -7   0   48.26   12.92
  -2   7   0  120.15   15.46
   5   2   0  117.86    9.95
   7  -5   1  133.25   41.62
   2  -7   1  363.73   59.89
  -2   7   1  416.02   57.92
   5   2   1  353.03   29.06
  -5  -2   1  447.05   52.91
  -7   5  -1  420.92   59.55
   7  -5  -1  453.78   61.59
   7  -5  -1  408.92   54.08
  -2   7  -1  423.05   63.94
   2  -7  -1  446.31   73.75
  -5  -2  -1  324.14   47.85
   5   2  -1  380.30   40.58
   7  -5   2  107.44   30.61
   2  -7   2  166.93   39.45
  -2   7   2  275.76   40.14
  -5  -2   2  242.14   32.66
  -7   5  -2  345.85   46.19
   7  -5  -2  291.86   35.91
   7  -5  -2  331.45   40.37
  -2   7  -2  321.39   47.38
   2  -7  -2  331.53   48.67
  -5  -2  -2  300.36   43.44
   5   2  -2  296.83   34.43
   7  -5   3  382.45   60.96
   2  -7   3  185.37   40.25
  -2   7   3  347.93   47.44
  -7   5  -3  273.51   44.58
   7  -5  -3  283.67   38.42
  -2   7  -3  317.00   47.10
   2  -7  -3  309.55   48.84
  -5  -2  -3  227.32   39.87
   5   2  -3  274.05   36.75
   7  -5   4   54.09    8.60
   2  -7   4   38.48   10.77
  -2   7   4   60.11    9.28
  -7   5  -4   33.75    8.82
   7  -5  -4   61.64    7.08
   7  -5  -4   51.42    9.02
  -2   7  -4   52.95    9.55
   2  -7  -4   26.67    8.26
  -5  -2  -4   56.23    8.24
   5   2  -4   36.08    6.73
   7  -5   5  188.26   29.52
   2  -7   5   85.67   23.77
  -2   7   5  205.29   28.25
  -7   5  -5  199.18   28.00
   7  -5  -5  207.48   28.23
  -2   7  -5  192.07   32.94
   2  -7  -5  217.82   38.86
  -5  -2  -5  182.63   30.03
   5   2  -5  222.86   30.23
   2  -7   6  132.05   21.67
  -2   7   6   83.03   15.57
  -7   5  -6  149.44   23.59
   7  -5  -6  122.54   22.74
  -2   7  -6  110.90   21.65
   2  -7  -6  182.26   25.53
  -5  -2  -6  112.51   20.81
   5   2  -6  145.83   22.12
   7  -5   7  140.13   27.32
   2  -7   7  133.28   22.17
  -2   7   7  116.76   18.97
   7  -5  -7  111.98   24.09
  -2   7  -7  137.22   30.72
   2  -7  -7  110.30   22.64
  -5  -2  -7  118.76   27.50
   5   2  -7  116.18   22.05
  -7   5  -8   10.37    5.72
   7  -5  -8   25.28    7.00
  -2   7  -8   25.05    6.20
   2  -7  -8    9.52    5.89
  -5  -2  -8   19.56    7.99
   5   2  -8   15.43    5.23
   8  -5   0  401.79   55.60
   3  -8   0  281.99   54.77
  -3   8   0  365.58   60.92
   8  -5   0  403.12   60.74
   5   3   0  294.21   34.11
  -5  -3   0  371.01   53.95
   3  -8   1  139.26   49.62
  -3   8   1  385.99   69.60
   8  -5   1  500.28   78.59
   5   3   1  363.83   36.45
  -5  -3   1  433.72   62.32
  -8   5  -1  432.29   67.71
   8  -5  -1  376.30   57.73
  -3   8  -1  355.25   66.97
   3  -8  -1  363.98   72.88
   8  -5  -1  382.78   54.81
  -5  -3  -1  434.78   69.75
   5   3  -1  414.54   49.80
   8  -5   2  301.31   52.44
   3  -8   2  280.47   48.36
  -3   8   2  238.13   42.95
  -5  -3   2  266.20   40.91
  -8   5  -2  345.79   52.06
   8  -5  -2  240.28   36.18
   8  -5  -2  245.47   37.36
  -3   8  -2  242.29   43.80
   3  -8  -2  281.85   52.85
  -5  -3  -2  266.40   49.50
   5   3  -2  274.20   37.31
   8  -5   3  324.51   60.05
   3  -8   3  375.16   74.06
  -3   8   3  313.34   57.92
  -5  -3   3  339.69   46.79
  -8   5  -3  320.90   61.44
   8  -5  -3  303.70   47.71
  -3   8  -3  302.20   55.46
   3  -8  -3  373.13   70.22
   8  -5  -3  330.39   46.02
  -5  -3  -3  327.91   54.96
   5   3  -3  375.48   60.73
   8  -5   4  217.03   38.94
   3  -8   4  213.04   37.15
  -3   8   4  213.40   35.25
  -8   5  -4  132.67   26.41
   8  -5  -4  199.76   29.96
  -3   8  -4  223.74   41.90
   3  -8  -4  197.48   36.66
  -5  -3  -4  186.07   31.90
   5   3  -4  231.17   38.35
   3  -8   5  107.22   26.06
  -3   8   5  190.41   31.17
   8  -5   5  113.20   25.56
  -8   5  -5  167.72   27.04
   8  -5  -5  159.22   25.19
  -3   8  -5  197.03   38.25
   3  -8  -5  196.09   33.13
  -5  -3  -5  167.69   29.02
   5   3  -5  185.60   28.32
   8  -5   6   90.48   18.09
   3  -8   6   92.11   16.49
  -3   8   6   77.11   16.07
   8  -5  -6   74.59   12.80
  -3   8  -6   65.23   15.57
   3  -8  -6   81.76   16.02
  -5  -3  -6   53.23   13.59
   5   3  -6   87.66   14.53
   3  -8   7   94.62   16.77
  -3   8   7   66.86   16.83
  -8   5  -7   60.28   15.29
   8  -5  -7   75.17   13.98
  -3   8  -7   90.44   17.77
   3  -8  -7   90.56   21.42
  -5  -3  -7   61.59   15.04
   5   3  -7   79.85   14.83
  -8   5  -8   28.58   10.54
   8  -5  -8   56.70   10.64
  -3   8  -8   48.42   13.24
  -5  -3  -8   57.78   13.63
   5   3  -8   50.28   14.27
   9  -5   0  219.73   34.45
   5   4   0  243.54   29.30
   4  -9   0  222.67   42.45
  -4   9   0  178.47   37.16
   9  -5   0  221.76   36.30
  -5  -4   1   97.91   15.83
   9  -5   1  112.52   18.67
   4  -9   1   90.76   18.59
  -4   9   1   71.66   14.05
  -5  -4  -1  114.03   15.78
   5   4  -1   55.78    9.23
   9  -5  -1   90.42   15.38
  -4   9  -1   79.76   14.30
   4  -9  -1   80.65   16.18
  -9   5  -1   92.18   16.23
   9  -5  -1   90.72   14.93
  -5  -4   2  520.94   87.61
   4  -9   2  439.54   99.18
  -4   9   2  491.53   96.26
   9  -5   2  527.62   97.94
  -5  -4  -2  513.35   96.45
   5   4  -2  370.03   71.71
  -4   9  -2  437.32   91.01
   4  -9  -2  384.59   86.81
  -9   5  -2  534.75  104.36
   9  -5  -2  468.89   78.77
   9  -5  -2  528.53   87.30
  -5  -4   3  108.24   17.40
   4  -9   3  119.44   23.38
  -4   9   3  115.08   21.08
   9  -5   3  121.12   25.60
  -5  -4  -3  115.20   26.29
   5   4  -3  120.60   19.01
  -4   9  -3  111.92   22.85
   4  -9  -3  108.60   20.52
  -9   5  -3  110.61   18.13
   9  -5  -3  102.65   18.61
   9  -5  -3   99.96   15.07
   4  -9   4  195.13   31.25
  -4   9   4  145.22   25.74
   9  -5   4   79.80   26.52
  -5  -4  -4  142.75   31.70
   5   4  -4  176.11   26.31
  -4   9  -4  132.23   24.90
   4  -9  -4  151.53   26.08
  -9   5  -4  126.36   20.38
   9  -5  -4   98.75   19.09
   4  -9   5   72.35   17.60
  -4   9   5   58.05   11.55
   9  -5   5   27.76   14.68
  -5  -4  -5   59.35   13.84
   5   4  -5   74.12   13.07
  -4   9  -5   64.26   17.68
   4  -9  -5   82.75   19.78
   9  -5  -5   53.36   10.72
   4  -9   6  300.03   68.47
  -4   9   6  266.78   49.52
  -5  -4  -6  260.98   55.86
   5   4  -6  240.60   48.79
  -4   9  -6  232.80   55.02
   4  -9  -6  266.39   60.23
  -9   5  -6  217.59   51.59
   9  -5  -6  263.29   52.14
   4  -9   7   29.13    9.90
  -5  -4  -7   21.77    7.75
   5   4  -7   21.68    6.35
  -4   9  -7   15.86    7.35
   4  -9  -7   22.57    8.32
  -9   5  -7   14.21    9.41
   9  -5  -7   23.08    5.97
   5 -10   0  303.34   66.87
  -5  10   0  265.07   63.92
   5   5   0  276.24   39.28
  -5  -5   0  292.01   57.93
  10  -5   0  281.56   51.30
  10  -5   0  303.16   51.82
   5 -10   1    0.60    4.26
  -5  10   1    0.06    4.01
  -5  -5   1    4.85    3.30
  10  -5   1    2.22    2.58
  -5  10  -1   -0.24    2.68
   5 -10  -1   -0.94    3.70
  -5  -5  -1    1.85    3.12
   5   5  -1   -0.82    1.80
 -10   5  -1    1.33    3.28
  10  -5  -1    4.95    2.89
  10  -5  -1    2.49    2.11
   5 -10   2  395.69  100.37
  -5  10   2  380.24   80.09
  -5  -5   2  360.62   65.40
  10  -5   2  583.86  121.96
  -5  10  -2  386.13   88.69
   5 -10  -2  339.22   80.27
  -5  -5  -2  410.75   81.98
   5   5  -2  396.31   77.27
 -10   5  -2  459.30   92.36
  10  -5  -2  379.55   66.18
  10  -5  -2  352.08   61.78
   5 -10   3    3.07    3.55
  -5  10   3   -0.75    4.46
  10  -5   3    5.50    5.67
  -5  10  -3    3.12    3.49
   5 -10  -3    3.77    3.03
  -5  -5  -3    2.61    3.54
   5   5  -3    4.14    3.92
  10  -5  -3    0.00    2.23
   5 -10   4  209.05   43.76
  -5  10   4  147.88   30.69
  -5  10  -4  121.16   27.51
   5 -10  -4  151.18   30.19
  -5  -5  -4  149.15   37.39
   5   5  -4  180.63   30.66
 -10   5  -4  141.56   31.80
  10  -5  -4  121.13   26.60
   5 -10   5   -1.94    3.33
  -5  10   5   -0.83    2.65
  -5  10  -5    1.41    4.38
   5 -10  -5    0.15    2.92
  -5  -5  -5   -4.98    4.30
   5   5  -5    0.00    3.86
 -10   5  -5   -0.83    3.08
  10  -5  -5    1.47    2.33
   5 -10   6  133.90   35.26
  -5  10   6  110.07   26.90
  -5  10  -6  121.77   27.27
   5 -10  -6   97.23   23.49
  -5  -5  -6  133.45   33.56
   5   5  -6   98.50   28.01
 -10   5  -6   85.09   28.85
  10  -5  -6  102.81   19.90
 -11   5   0  216.35   38.91
   6 -11   0  202.28   43.55
  -6  11   0  210.67   42.13
  -5  -6   0  130.35   31.80
 -11   5   0  206.00   36.00
   6 -11   1  209.35   43.05
  -6  11   1  180.20   36.68
  -5  -6   1  196.22   35.87
 -11   5   1  110.88   27.21
  -6  11  -1  174.98   35.31
   6 -11  -1  130.05   35.26
  -5  -6  -1  197.28   35.97
   5   6  -1  151.57   26.85
 -11   5  -1  222.96   44.40
  11  -5  -1  206.39   35.91
 -11   5  -1  226.91   39.70
   6 -11   2   42.63   11.50
  -6  11   2   31.04    9.20
  -5  -6   2   36.59    9.94
  -6  11  -2   36.09    9.36
   6 -11  -2   40.07   11.68
  -5  -6  -2   39.46   10.63
   5   6  -2   45.71   10.76
 -11   5  -2   49.02   14.24
  11  -5  -2   24.41    6.94
   6 -11   3  154.69   36.63
  -6  11   3  153.80   33.38
  -6  11  -3  145.68   35.35
   6 -11  -3  160.80   37.93
  -5  -6  -3  171.71   44.63
   5   6  -3  159.06   34.80
 -11   5  -3  170.61   36.31
  11  -5  -3  122.17   23.57
   6 -11   4  134.50   33.68
  -6  11   4  158.97   33.14
  -6  11  -4  135.95   34.62
   6 -11  -4  129.64   31.86
  -5  -6  -4  158.31   35.32
   5   6  -4  129.73   27.93
 -11   5  -4  141.49   32.60
  11  -5  -4  122.78   22.92
   6 -11   5   84.75   27.07
  -6  11   5  100.10   25.55
  -6  11  -5  106.30   24.69
   6 -11  -5   92.41   24.53
  -5  -6  -5  110.47   24.89
   5   6  -5  126.34   28.08
 -11   5  -5  108.65   25.13
  11  -5  -5   83.75   18.26
   7 -12   0   27.31    8.46
  -7  12   0   37.14   10.75
  -5  -7   0   12.20    5.73
 -12   5   0   14.33    6.15
   7 -12   1   52.43   13.90
  -7  12   1   52.09   15.12
  -5  -7   1   44.39   12.34
  -7  12  -1   42.38   10.98
   7 -12  -1   46.56   12.98
  -5  -7  -1   25.31   10.58
  12  -5  -1   34.33   10.01
 -12   5  -1   39.91   10.67
   7 -12   2   68.49   16.33
  -7  12   2   40.04   12.95
  -7  12  -2   22.51    9.73
   7 -12  -2   16.81   10.17
  -5  -7  -2   33.07    9.74
 -12   5  -2   48.67   14.56
  12  -5  -2   33.27    7.99
   7 -12   3   62.77   15.52
  -7  12   3   48.19   14.39
  -7  12  -3   49.52   15.05
   7 -12  -3   50.12   13.84
  -5  -7  -3   38.84   14.19
 -12   5  -3   58.12   14.93
  12  -5  -3   49.51   10.57
   6  -6   0 1266.21  256.64
  -6   6   0 1249.69  233.50
   0  -6   0 1127.51  233.77
   0   6   0 1388.42  229.20
  -6   0   0  989.51  175.20
   6  -6   1   16.56    3.95
  -6   6   1   14.15    3.32
   0  -6   1   45.68    6.52
   0   6   1   11.77    2.30
   6   0   1   15.41    1.53
  -6   0   1   23.11    3.04
  -6   6  -1   18.13    5.18
   6  -6  -1   12.54    3.57
   0   6  -1    9.56    3.64
   0  -6  -1   11.26    3.88
  -6   0  -1   16.98    3.00
   6   0  -1   15.07    1.98
   0  -6   2  253.88   36.45
   6  -6   2  141.57   33.51
   0   6   2  278.21   33.11
  -6   6  -2  263.43   39.73
   0   6  -2  288.31   40.94
   6  -6  -2  290.84   37.36
   6  -6  -2  189.24   33.80
   0  -6  -2  281.80   45.67
  -6   0  -2  286.60   35.73
   6   0  -2  262.28   30.91
   0  -6   3   11.63    4.51
   6  -6   3   16.21    3.50
   0   6   3    8.23    1.78
   0   6  -3   10.40    3.10
  -6   6  -3   11.91    3.69
   6  -6  -3   10.16    2.76
   6  -6  -3   16.36    3.79
   0  -6  -3   12.03    3.85
  -6   0  -3   12.22    3.00
   6   0  -3   10.29    2.35
   0  -6   4  309.19   78.67
   6  -6   4  540.63  108.06
   0   6   4  717.91   99.25
   0   6  -4  590.40  104.09
  -6   6  -4  667.54  127.88
   6  -6  -4  683.07  109.27
   6  -6  -4  646.95  100.12
  -6   0  -4  615.56  105.78
   6   0  -4  609.99   93.09
   0  -6  -4  635.45  126.28
   0  -6   5    7.42    3.36
   6  -6   5    6.07    4.45
   0   6   5    5.66    2.69
   0   6  -5    6.61    2.96
  -6   6  -5    4.16    2.85
   6  -6  -5    8.60    3.34
  -6   0  -5    9.98    4.20
   6   0  -5    5.83    2.41
   0  -6  -5    5.06    3.35
   0  -6   6   92.94   13.30
   6  -6   6   75.89   13.87
   0   6  -6   86.79   16.99
  -6   6  -6   93.71   15.83
   6  -6  -6   85.55   15.49
  -6   0  -6   72.99   14.88
   6   0  -6   94.08   16.23
   0  -6  -6   89.91   16.53
   6  -6   7    5.48    4.10
   0   6  -7    3.24    3.00
  -6   6  -7    3.94    3.15
   6  -6  -7    6.12    2.66
  -6   0  -7    6.79    4.65
   6   0  -7    2.19    3.94
   0  -6  -7    2.51    3.40
   6  -6   8  318.23   60.48
   0   6  -8  206.97   44.73
  -6   6  -8  250.08   46.84
   6  -6  -8  208.99   39.69
  -6   0  -8  212.06   46.36
   6   0  -8  217.14   41.58
   0  -6  -8  236.12   47.95
   7  -6   0  367.94   68.64
  -7   6   0  385.96   55.69
   1  -7   0  469.34   82.20
  -1   7   0  299.26   48.57
   6   1   0  363.68   34.84
  -6  -1   0  334.46   49.19
   7  -6   1  262.14   41.45
   1  -7   1  226.37   37.97
  -1   7   1  209.16   30.57
   6   1   1  239.08   20.06
  -6  -1   1  243.06   27.22
  -7   6  -1  281.97   42.84
   7  -6  -1  263.62   43.17
  -1   7  -1  239.95   37.32
   1  -7  -1  260.88   42.12
   7  -6  -1  238.85   33.35
  -6  -1  -1  228.13   31.45
   6   1  -1  231.67   24.47
   7  -6   2  398.86   87.06
   1  -7   2  547.85  103.65
  -1   7   2  525.08   80.90
  -6  -1   2  644.27   74.99
  -7   6  -2  521.20   95.62
   7  -6  -2  638.94   99.43
   7  -6  -2  578.42   84.37
  -1   7  -2  579.41   90.34
   1  -7  -2  542.68  103.16
  -6  -1  -2  312.57   70.45
   6   1  -2  504.28   69.52
   7  -6   3  290.55   48.91
   1  -7   3  339.02   54.93
  -1   7   3  284.21   40.52
  -7   6  -3  287.79   57.55
   7  -6  -3  268.08   40.05
   7  -6  -3  319.03   45.60
  -1   7  -3  279.89   46.94
   1  -7  -3  268.69   47.54
  -6  -1  -3  292.46   50.50
   6   1  -3  242.01   34.32
   7  -6   4  306.67   52.21
   1  -7   4  374.40   49.94
  -1   7   4  302.03   43.55
  -7   6  -4  327.15   52.27
   7  -6  -4  255.65   36.37
   7  -6  -4   99.81   28.63
  -1   7  -4  231.70   41.26
   1  -7  -4  325.61   53.52
  -6  -1  -4  283.37   43.74
   6   1  -4  298.44   40.76
   7  -6   5  167.22   32.77
   1  -7   5  185.65   29.91
  -1   7   5  208.73   30.80
  -7   6  -5  188.88   39.10
   7  -6  -5  174.10   29.85
   7  -6  -5  178.58   24.39
  -1   7  -5  168.00   29.60
   1  -7  -5  168.26   31.83
  -6  -1  -5  187.90   35.80
   6   1  -5  159.21   25.12
   7  -6   6  286.57   52.08
   1  -7   6  314.96   58.08
  -7   6  -6  272.79   50.67
   7  -6  -6  290.22   51.53
  -1   7  -6  307.16   57.15
   1  -7  -6  253.99   53.15
  -6  -1  -6  278.72   51.01
   6   1  -6  242.73   44.56
   7  -6   7   62.20   16.60
  -7   6  -7   73.13   13.56
   7  -6  -7   73.72   15.67
  -1   7  -7   70.37   14.52
   1  -7  -7   69.40   18.37
  -6  -1  -7   75.45   18.76
   6   1  -7   71.81   12.79
   7  -6   8  100.66   24.42
   7  -6  -8   62.66   13.12
  -1   7  -8   54.15   14.75
   1  -7  -8   74.29   16.43
  -6  -1  -8   64.44   19.85
   6   1  -8   94.24   18.81
   8  -6   0   15.61    4.11
   6   2   0   13.23    1.75
  -6  -2   0   15.22    3.11
   2  -8   0   16.57    4.40
  -2   8   0   11.49    3.46
  -8   6   0   17.03    3.61
  -6  -2   1  267.68   32.69
   2  -8   1  221.97   37.98
  -2   8   1  232.63   41.18
   8  -6   1  135.81   33.54
   8  -6  -1  248.24   38.37
   8  -6  -1  242.66   39.15
  -6  -2  -1  200.69   30.65
   6   2  -1  207.89   23.74
  -2   8  -1  219.46   35.20
   2  -8  -1  276.77   47.26
  -8   6  -1  247.58   37.09
   8  -6   2  348.54   60.92
  -6  -2   2  340.81   47.69
   2  -8   2  384.55   75.88
  -2   8   2  314.58   52.76
   8  -6  -2  303.86   47.96
   8  -6  -2  362.88   61.77
  -6  -2  -2  332.56   51.90
   6   2  -2  297.61   43.07
  -2   8  -2  251.41   47.40
   2  -8  -2  331.26   61.23
  -8   6  -2  369.13   64.04
   2  -8   3  112.22   20.48
  -2   8   3   83.47   16.76
   8  -6   3  114.80   23.50
   8  -6  -3  107.89   17.09
   8  -6  -3   90.86   13.62
  -6  -2  -3   93.41   18.73
   6   2  -3   92.47   12.91
  -2   8  -3   91.57   19.19
   2  -8  -3   92.63   21.32
  -8   6  -3   84.84   15.83
   8  -6   4   10.30    5.68
   2  -8   4    6.23    3.48
  -2   8   4    7.15    3.02
   8  -6  -4    5.31    2.23
   8  -6  -4    7.09    3.69
  -6  -2  -4   13.36    3.40
   6   2  -4    4.89    2.81
  -2   8  -4    4.73    3.61
   2  -8  -4    8.40    3.57
  -8   6  -4    5.75    4.22
   2  -8   5   27.41   10.34
  -2   8   5   68.31   10.87
   8  -6   5   56.04   14.24
   8  -6  -5   59.30    9.66
  -6  -2  -5   52.74   10.71
   6   2  -5   65.60   13.70
  -2   8  -5   62.46   14.82
   2  -8  -5   57.84   11.81
  -8   6  -5   57.20   14.72
   2  -8   6  216.53   37.91
  -2   8   6  158.36   29.55
   8  -6   6  150.47   28.43
   8  -6  -6  144.52   25.33
  -6  -2  -6  143.92   28.62
   6   2  -6  189.93   36.91
  -2   8  -6  138.28   28.61
   2  -8  -6  149.66   30.33
  -8   6  -6  151.53   31.28
   8  -6   7   45.39   12.10
   8  -6  -7   37.43    8.37
  -6  -2  -7   39.65    9.46
   6   2  -7   35.21    8.55
  -2   8  -7   51.35   10.98
   2  -8  -7   30.54    9.24
   8  -6  -8    1.31    2.67
  -6  -2  -8    4.33    3.22
   6   2  -8    0.64    2.75
  -2   8  -8    1.84    3.09
   2  -8  -8   -1.12    3.28
  -8   6  -8   -1.04    3.19
   3  -9   0  188.66   33.04
  -3   9   0  204.40   35.65
   6   3   0  161.00   18.31
  -6  -3   0  159.83   26.44
   9  -6   0  234.06   33.61
  -9   6   0  170.06   27.07
   3  -9   1  298.20   63.25
  -3   9   1  329.53   61.95
  -6  -3   1  297.86   47.68
   9  -6   1  224.27   59.31
  -3   9  -1  301.16   57.58
   3  -9  -1  333.78   68.66
   9  -6  -1  379.53   59.69
  -6  -3  -1  339.24   56.43
   6   3  -1  376.05   50.26
  -9   6  -1  319.99   57.01
   9  -6  -1  351.29   58.24
   3  -9   2  262.35   48.25
  -3   9   2  248.10   42.87
   9  -6   2  315.63   56.17
  -3   9  -2  272.27   49.43
   3  -9  -2  257.32   51.35
  -6  -3  -2  162.85   37.44
   6   3  -2  292.11   36.25
  -9   6  -2  278.26   47.61
   9  -6  -2  253.44   43.01
   9  -6  -2  158.24   34.26
   3  -9   3  277.60   58.00
  -3   9   3  255.01   49.26
   9  -6   3  270.32   54.68
  -3   9  -3  230.75   47.14
   3  -9  -3  324.32   70.28
  -6  -3  -3  276.88   55.26
   6   3  -3  296.73   49.58
   9  -6  -3  277.20   45.84
  -9   6  -3  294.48   58.63
   9  -6  -3  314.21   48.39
   3  -9   4  167.30   34.00
  -3   9   4  207.74   33.26
   9  -6   4  214.65   40.44
  -3   9  -4  160.48   31.97
   3  -9  -4  168.23   36.39
  -6  -3  -4  176.02   30.86
   6   3  -4  158.36   28.01
  -9   6  -4  134.59   27.10
   9  -6  -4  165.51   26.65
   3  -9   5  208.21   39.40
  -3   9   5  229.20   45.35
   9  -6   5  203.49   38.99
  -3   9  -5  164.09   37.65
   3  -9  -5  170.89   38.14
  -6  -3  -5  177.32   40.25
   6   3  -5  214.63   38.94
  -9   6  -5  192.03   41.25
   9  -6  -5  172.39   30.99
   3  -9   6   94.03   23.81
  -3   9   6  108.10   22.85
   9  -6   6  136.56   35.61
  -3   9  -6  131.79   30.37
   3  -9  -6  126.91   25.24
  -6  -3  -6   99.77   21.89
   6   3  -6  149.39   26.35
   9  -6  -6   90.29   22.72
  -3   9  -7   97.92   21.09
   3  -9  -7   89.03   20.82
  -6  -3  -7   72.92   18.44
   6   3  -7  111.15   21.17
  -9   6  -7   69.73   19.84
   9  -6  -7   97.78   21.71
  -6  -4   0   15.67    4.76
   4 -10   0   12.71    5.96
  -4  10   0   25.46    6.24
 -10   6   0   15.11    6.44
  10  -6   0   22.63    5.47
  10  -6   1   52.36   10.86
  -6  -4   1   43.54    8.36
   4 -10   1   57.54   12.94
  -4  10   1   33.24   12.86
  -6  -4  -1   40.28    9.91
   6   4  -1   44.65    8.39
  -4  10  -1   46.50   13.31
   4 -10  -1   43.62   11.16
 -10   6  -1   50.56    9.55
  10  -6  -1   59.10    9.68
  10  -6  -1   58.99   11.06
  -6  -4   2   55.40   11.94
   4 -10   2   58.60   13.74
  -4  10   2   48.13   12.04
  10  -6   2   67.91   13.52
  -6  -4  -2   61.96   12.69
   6   4  -2   69.19   11.88
  -4  10  -2   59.73   13.74
   4 -10  -2   52.56   12.64
 -10   6  -2   68.08   12.69
  10  -6  -2   51.03   12.98
  10  -6  -2   64.62   14.23
   4 -10   3   33.53   11.70
  -4  10   3   23.68    9.30
  10  -6   3   32.03   10.58
  -6  -4  -3   34.76    8.38
   6   4  -3   25.85    5.89
  -4  10  -3   25.17    6.90
   4 -10  -3   16.41    7.17
 -10   6  -3   28.23    6.64
  10  -6  -3   30.16    8.00
   4 -10   4   38.64   11.04
  -4  10   4   25.81    6.83
  10  -6   4   16.46    7.08
  -6  -4  -4   26.08    7.13
   6   4  -4   28.36    6.39
  -4  10  -4   22.49    9.44
   4 -10  -4   25.03    9.56
  10  -6  -4   14.53    5.08
   4 -10   5   29.32   13.03
  -4  10   5   38.15    9.59
  10  -6   5   23.74   12.08
  -6  -4  -5   31.36   12.92
   6   4  -5   41.90    9.12
  -4  10  -5   29.84    9.46
   4 -10  -5   32.54    9.15
  10  -6  -5   34.61    7.30
   4 -10   6   12.89    7.88
  -6  -4  -6   20.59   10.50
   6   4  -6   32.29   10.33
  -4  10  -6   26.03    8.08
   4 -10  -6   25.27    8.86
 -10   6  -6   24.71    8.12
  10  -6  -6   21.42    6.05
  -6  -5   0  206.82   43.68
   5 -11   0  215.56   51.44
  -5  11   0  201.03   44.11
  11  -6   0  205.59   40.26
 -11   6   0  199.64   38.04
  -6  -5   1  179.06   33.51
   5 -11   1  146.02   38.78
  -5  11   1  169.89   45.57
  11  -6   1  165.20   37.59
  -6  -5  -1  219.20   48.64
  -5  11  -1  184.74   38.39
   5 -11  -1  250.84   56.99
 -11   6  -1  214.79   44.10
  11  -6  -1  231.25   44.18
  11  -6  -1  206.66   39.70
   5 -11   2   44.91   10.92
  -5  11   2   31.75    9.20
  11  -6   2   40.04   12.19
  -6  -5  -2   14.26    8.67
   6   5  -2   35.57    8.52
  -5  11  -2   27.05    9.23
   5 -11  -2   26.42    9.42
 -11   6  -2   51.73    9.50
  11  -6  -2   37.71    9.77
   5 -11   3  163.84   38.17
  -5  11   3  151.66   37.52
  11  -6   3  231.62   57.45
  -6  -5  -3  136.24   33.19
   6   5  -3  152.68   28.65
  -5  11  -3  158.23   36.33
   5 -11  -3  146.21   33.83
  11  -6  -3  150.28   31.46
   5 -11   4  134.95   32.91
  -5  11   4  124.64   28.29
  11  -6   4  186.35   40.58
  -6  -5  -4  138.82   30.63
   6   5  -4  144.11   32.67
  -5  11  -4  124.31   26.62
   5 -11  -4  115.94   27.80
  11  -6  -4   98.73   22.73
   5 -11   5  116.21   33.22
  -5  11   5  106.18   30.55
  -6  -5  -5  103.73   24.61
   6   5  -5  113.31   28.75
  -5  11  -5   97.32   23.39
   5 -11  -5   92.38   23.47
 -11   6  -5  105.75   26.19
  11  -6  -5   89.01   18.31
  12  -6   0   56.04   13.86
   6 -12   0   27.77    9.59
  -6  12   0   23.77    9.50
  -6  -6   0   16.82    7.41
 -12   6   0   34.66    8.02
   6 -12   1    2.85    5.23
  -6  12   1    1.76    3.42
  -6  -6   1    0.82    2.43
  12  -6   1   -0.47    3.89
  -6  12  -1    2.00    4.54
   6 -12  -1   -1.98    4.90
  -6  -6  -1   -2.21    3.10
  12  -6  -1    0.80    2.92
   6 -12   2   31.84   13.95
  -6  12   2   18.52    8.60
  -6  12  -2   21.63    8.81
   6 -12  -2   42.41   14.83
  -6  -6  -2   35.03   10.11
 -12   6  -2   37.21   14.11
  12  -6  -2   25.85    6.99
   6 -12   3   -0.82    4.16
  -6  12   3    0.79    3.44
  -6  12  -3    0.69    3.82
   6 -12  -3    2.29    4.22
  -6  -6  -3   -0.50    4.09
 -12   6  -3    3.80    3.88
  12  -6  -3   -0.08    2.70
   7  -7   0   60.06   11.40
  -7   7   0   47.22    8.64
   0  -7   0   58.31   10.00
   0   7   0   37.18    5.95
  -7   0   0   62.66    8.69
   0  -7   1   98.79   15.75
   7  -7   1   92.57   14.87
  -7   7   1   73.72   13.90
   0   7   1   66.70    8.81
   7   0   1   78.25    6.83
  -7   0   1   98.07   10.52
  -7   7  -1   83.86   14.05
   7  -7  -1   38.13   11.79
   0   7  -1   74.65   12.27
   0  -7  -1   85.10   16.60
  -7   0  -1   84.37   11.13
   7   0  -1   80.16    8.88
   0  -7   2  408.81   64.58
   7  -7   2  103.11   44.14
   0   7   2  412.61   49.47
  -7   0   2  404.19   40.42
   0   7  -2  393.24   55.46
  -7   7  -2  405.07   63.28
   7  -7  -2  128.25   37.15
   7  -7  -2  488.66   67.19
   0  -7  -2  271.97   51.98
  -7   0  -2  435.30   56.60
   7   0  -2  388.41   43.75
   0  -7   3  169.90   27.12
   7  -7   3  170.14   30.33
   0   7   3  166.69   21.61
   0   7  -3  161.69   26.13
  -7   7  -3  175.79   32.20
   7  -7  -3  182.47   27.72
   7  -7  -3  201.81   32.30
   0  -7  -3  172.26   30.41
  -7   0  -3  172.87   26.17
   7   0  -3  149.53   20.69
   0  -7   4    4.99    2.79
   7  -7   4    6.42    3.61
   0   7   4    7.36    2.77
   0   7  -4    5.30    3.00
  -7   7  -4   10.88    4.96
   7  -7  -4    9.53    2.95
   7  -7  -4    8.01    2.99
   0  -7  -4    7.31    3.77
  -7   0  -4    9.10    4.30
   7   0  -4    6.49    2.48
   0  -7   5  102.16   18.65
   7  -7   5  114.77   21.36
   0   7  -5  121.72   25.19
  -7   7  -5  142.43   26.28
   7  -7  -5  118.91   19.13
   7  -7  -5  141.36   22.48
  -7   0  -5  118.04   24.94
   7   0  -5  114.62   17.71
   0  -7  -5  110.07   22.65
   7  -7   6  203.13   38.69
   0   7  -6  160.72   31.10
  -7   7  -6  177.33   39.67
   7  -7  -6  176.57   30.69
  -7   0  -6  171.71   33.07
   7   0  -6  182.23   34.35
   0  -7  -6  183.96   41.93
   7  -7   7   40.03   10.30
   0   7  -7   47.12   13.32
  -7   7  -7   50.33   13.50
   7  -7  -7   44.22   10.81
  -7   0  -7   44.99   10.61
   7   0  -7   38.15    8.79
   0  -7  -7   50.20   14.37
   7  -7   8    0.91    3.56
   0   7  -8    0.59    3.40
   7  -7  -8    3.66    2.74
  -7   0  -8    0.73    3.39
   7   0  -8    4.56    4.07
   0  -7  -8    3.20    4.02
   7   1   0  396.77   38.31
   1  -8   0  206.95   57.46
  -1   8   0  411.93   60.66
   8  -7   0  166.92   49.77
  -8   7   0  439.04   61.41
  -7  -1   1  202.72   24.19
   1  -8   1  193.02   31.16
  -1   8   1  151.89   24.14
   8  -7   1  221.99   35.43
  -8   7   1  192.40   30.33
  -7  -1  -1   87.18   20.49
   7   1  -1  178.56   20.64
  -1   8  -1  171.90   27.96
   1  -8  -1  210.83   38.44
  -8   7  -1  255.80   41.75
   8  -7  -1  242.14   35.57
   1  -8   2  455.62   92.37
  -1   8   2  429.32   78.91
   8  -7   2  569.52  105.53
  -7  -1  -2  505.86   90.94
   7   1  -2  421.52   64.91
  -1   8  -2  464.64   83.37
   1  -8  -2  437.50   97.10
  -8   7  -2  514.15  107.17
   8  -7  -2  461.94   88.08
   8  -7  -2  548.73   90.07
   1  -8   3  137.68   23.83
  -1   8   3  111.72   17.27
   8  -7   3  132.32   22.49
  -7  -1  -3  116.13   18.95
   7   1  -3  109.10   15.24
  -1   8  -3  118.42   20.11
   1  -8  -3   93.30   19.80
  -8   7  -3  114.49   21.74
   8  -7  -3  146.48   19.77
   8  -7  -3  125.52   18.75
   1  -8   4  265.64   44.67
  -1   8   4  215.08   38.54
   8  -7   4  200.99   42.00
  -7  -1  -4  212.21   43.54
   7   1  -4  239.80   35.15
  -1   8  -4  193.93   38.69
   1  -8  -4  240.52   43.85
  -8   7  -4  228.53   42.29
   8  -7  -4  232.72   37.93
   8  -7  -4  229.51   42.29
   1  -8   5   90.75   16.77
  -1   8   5   71.01   12.55
   8  -7   5   76.26   20.17
  -7  -1  -5   57.37   12.45
   7   1  -5   67.70   11.48
  -1   8  -5   59.91   12.83
   1  -8  -5   55.31   13.05
  -8   7  -5   71.93   15.15
   8  -7  -5   66.47   12.14
   1  -8   6  198.02   40.06
   8  -7   6  215.24   39.50
  -7  -1  -6  141.53   33.36
   7   1  -6  189.74   34.30
  -1   8  -6  201.16   39.98
   1  -8  -6  174.96   43.06
  -8   7  -6  193.77   37.61
   8  -7  -6  207.20   35.25
   8  -7   7   47.94   12.58
  -7  -1  -7   29.03    9.26
   7   1  -7   47.13    9.27
  -1   8  -7   28.25   12.11
   1  -8  -7   32.11    9.35
   8  -7  -7   37.52    7.87
   9  -7   0  376.90   55.86
   7   2   0  247.90   26.91
  -7  -2   0  164.93   33.63
   2  -9   0  168.64   41.47
  -2   9   0  331.05   47.22
  -9   7   0  342.91   53.49
  -7  -2   1   98.08   15.46
   2  -9   1  107.05   23.02
  -2   9   1   81.27   14.40
  -9   7   1   81.89   13.98
   9  -7   1  106.97   18.65
  -7  -2  -1   87.61   16.10
   7   2  -1   80.31   11.78
  -2   9  -1   95.11   17.21
   2  -9  -1   76.12   16.28
  -9   7  -1  102.27   18.22
   9  -7  -1  102.72   20.20
  -7  -2   2   38.33    6.69
   2  -9   2   16.41    9.02
  -2   9   2   34.60    7.65
   9  -7   2   47.41    9.17
  -7  -2  -2   18.80    6.57
   7   2  -2   39.68    6.75
  -2   9  -2   34.64    7.10
   2  -9  -2   53.43   10.22
  -9   7  -2   50.46    9.78
   9  -7  -2   37.98    7.41
   9  -7  -2   45.82    9.96
   2  -9   3   57.56   11.77
  -2   9   3   42.27    9.43
   9  -7   3   69.91   17.90
  -7  -2  -3   54.28   10.17
   7   2  -3   52.47    8.11
  -2   9  -3   48.99   10.55
   2  -9  -3   55.19   11.97
  -9   7  -3   63.92   15.32
   9  -7  -3   60.26   12.18
   9  -7  -3   63.04   10.20
   2  -9   4  329.90   63.74
  -2   9   4  231.83   48.44
   9  -7   4  338.98   70.59
  -7  -2  -4  260.77   58.43
   7   2  -4  283.80   50.99
  -2   9  -4  317.85   66.45
   2  -9  -4  284.65   59.43
  -9   7  -4  290.09   64.48
   9  -7  -4  287.83   50.86
   2  -9   5   19.70    9.41
  -2   9   5   44.94    8.91
   9  -7   5   47.30   10.83
  -7  -2  -5   51.66   12.63
   7   2  -5   52.10    9.17
  -2   9  -5   46.84   13.62
   2  -9  -5   37.27   10.26
  -9   7  -5   45.76   10.66
   9  -7  -5   55.89   12.24
   2  -9   6   13.90    5.38
   9  -7   6   11.29    5.39
  -7  -2  -6   15.48    5.46
   7   2  -6   15.26    7.14
  -2   9  -6   14.12    5.71
   2  -9  -6   15.02    5.81
   9  -7  -6   17.64    6.83
   9  -7   7   40.27   11.27
  -7  -2  -7   40.64   11.21
   7   2  -7   37.79   10.94
  -2   9  -7   26.05    9.52
   2  -9  -7   18.40    8.16
   9  -7  -7   20.52    9.21
   3 -10   0  167.43   32.03
  -3  10   0  150.93   27.83
  -7  -3   0  161.70   25.24
 -10   7   0  166.43   27.98
  10  -7   0  100.43   26.01
   3 -10   1  290.56   63.46
  -3  10   1  234.58   45.59
  -7  -3   1  250.23   43.96
  10  -7   1  360.64   72.15
 -10   7   1  231.20   43.02
  -3  10  -1  258.09   51.39
   3 -10  -1  236.52   48.51
  -7  -3  -1  226.71   43.37
   7   3  -1  226.81   32.26
 -10   7  -1  308.27   55.62
  10  -7  -1  267.55   54.52
   3 -10   2    8.14    4.40
  -3  10   2    0.51    5.39
  -7  -3   2    1.95    2.50
  10  -7   2    8.28    4.93
  -3  10  -2    1.19    4.80
   3 -10  -2   17.12    4.05
  10  -7  -2    9.67    5.21
  -7  -3  -2    4.12    5.26
   7   3  -2   11.28    3.39
 -10   7  -2   14.70    4.27
  10  -7  -2    3.81    3.13
   3 -10   3  213.00   47.42
  -3  10   3  184.99   40.28
  10  -7   3  209.69   40.47
  -3  10  -3  182.42   39.91
   3 -10  -3  211.26   49.30
  -7  -3  -3  194.01   36.71
   7   3  -3  174.33   30.37
 -10   7  -3  208.20   45.54
  10  -7  -3  114.72   27.62
  10  -7  -3  185.11   32.62
   3 -10   4  106.32   27.52
  -3  10   4   85.47   18.27
  10  -7   4  117.35   22.27
  -3  10  -4  106.41   25.28
   3 -10  -4   94.38   22.70
  -7  -3  -4   85.69   18.38
   7   3  -4  102.55   18.49
 -10   7  -4   81.74   22.11
  10  -7  -4   87.84   17.08
   3 -10   5   48.61   20.17
  -3  10   5  112.01   21.49
  10  -7   5   74.89   20.47
  -3  10  -5  108.39   26.05
   3 -10  -5  126.75   32.19
  -7  -3  -5  109.24   20.32
   7   3  -5  130.08   27.50
  10  -7  -5  115.69   24.13
   3 -10   6    1.49    4.79
  10  -7   6    4.43    8.00
  -3  10  -6    8.85    6.51
   3 -10  -6    8.35    7.20
  -7  -3  -6    5.28    3.94
   7   3  -6   16.45    5.91
  10  -7  -6    2.97    3.83
  -7  -4   0   95.93   15.51
   4 -11   0   76.08   18.64
  -4  11   0   71.91   15.08
  11  -7   0   42.35   13.58
 -11   7   0   71.79   14.34
  -7  -4   1   47.63   16.07
   4 -11   1  144.93   31.58
  -4  11   1  116.50   26.00
  11  -7   1  161.57   27.56
 -11   7   1  130.06   23.53
  -7  -4  -1  141.67   24.86
  -4  11  -1  124.55   25.16
   4 -11  -1  132.38   27.08
 -11   7  -1  170.32   33.27
  11  -7  -1  144.10   26.63
   4 -11   2   73.20   15.25
  -4  11   2   36.47   12.98
  11  -7   2   50.95   14.26
  -7  -4  -2   54.94   12.71
   7   4  -2   58.68   10.37
  -4  11  -2   42.11   13.68
   4 -11  -2   55.22   13.03
 -11   7  -2   72.65   18.32
  11  -7  -2   53.10   12.22
  11  -7  -2   67.91   12.87
   4 -11   3  135.87   30.77
  -4  11   3  125.70   30.83
  11  -7   3  122.17   27.95
  -7  -4  -3  129.71   26.19
   7   4  -3  124.84   22.23
  -4  11  -3  120.27   24.08
   4 -11  -3   86.71   22.84
  11  -7  -3  114.57   22.09
   4 -11   4   50.45   16.56
  -4  11   4   33.83   13.86
  11  -7   4   45.41   12.01
  -7  -4  -4   41.47   11.76
   7   4  -4   36.91   10.23
  -4  11  -4   39.20   14.46
   4 -11  -4   32.72   10.47
  11  -7  -4   44.24    9.61
   4 -11   5  112.76   31.27
  11  -7   5  144.42   38.59
  -7  -4  -5  101.36   30.28
   7   4  -5  107.00   23.48
  -4  11  -5   89.45   27.37
   4 -11  -5   81.99   21.02
  11  -7  -5   72.91   17.28
  12  -7   0   50.73   11.36
  -7  -5   0   32.90    9.52
   5 -12   0   47.58   15.49
  -5  12   0   37.42   11.09
 -12   7   0   43.43   14.21
   5 -12   1   42.24   17.91
  -5  12   1   42.11   13.48
 -12   7   1   45.18   14.57
  12  -7   1   55.21   13.20
  -7  -5  -1   46.95   12.35
  -5  12  -1   47.07   16.22
   5 -12  -1   45.20   14.98
 -12   7  -1   49.06   13.81
   5 -12   2   61.49   17.93
  -5  12   2   49.38   15.91
  12  -7   2   43.47   15.86
  -7  -5  -2   32.31   10.83
  -5  12  -2   39.18   12.23
   5 -12  -2   31.00   11.84
  12  -7  -2   35.83   13.66
   5 -12   3   17.54   13.11
  -5  12   3   49.15   12.87
  12  -7   3   37.35   16.66
  -7  -5  -3   58.39   13.44
  -5  12  -3   41.84   14.60
   5 -12  -3   47.75   13.13
  12  -7  -3   47.47   10.77
   8   0   0   22.39    2.97
  -8   0   0   20.85    4.18
   0  -8   0   26.78    8.99
   8  -8   0   30.20    6.55
  -8   8   0   35.45    7.19
   0   8   0   22.84    4.10
  -8   0   1  181.75   20.66
   0  -8   1  189.43   29.29
   8  -8   1  204.10   34.01
  -8   8   1  164.54   25.13
   0   8   1  166.25   26.63
  -8   0  -1   61.89   17.93
   8   0  -1  155.73   17.10
   0   8  -1  142.53   21.94
  -8   8  -1  209.61   37.77
   8  -8  -1  207.56   30.70
   0  -8  -1  175.55   29.22
   0   8   2   55.59    8.30
  -8   0   2   53.59    7.13
   0  -8   2   65.59   14.19
   8  -8   2   75.08   13.58
  -8   8   2   55.84   11.99
   0  -8  -2   55.17   10.82
  -8   0  -2   67.07   10.56
   8   0  -2   51.72    7.03
   0   8  -2   49.13    9.50
  -8   8  -2   65.22   12.56
   8  -8  -2   75.57   12.06
   0   8   3   73.03   12.42
   0  -8   3   86.30   15.11
   8  -8   3   84.27   16.31
   0  -8  -3   86.00   15.37
  -8   0  -3   77.45   14.02
   8   0  -3   76.22   10.52
   0   8  -3   62.15   13.14
  -8   8  -3   93.87   22.04
   8  -8  -3   90.57   14.16
   8  -8  -3   79.05   15.12
   0  -8   4   29.49    7.89
   8  -8   4   55.81   13.37
   0  -8  -4   36.69    9.18
  -8   0  -4   50.40    8.67
   8   0  -4   44.22    8.50
   0   8  -4   33.77    7.97
  -8   8  -4   40.68   12.90
   8  -8  -4   57.87   11.98
   8  -8  -4   26.87    7.60
   0  -8   5   32.23    9.36
   8  -8   5   64.95   12.92
   0  -8  -5   53.82   12.97
  -8   0  -5   49.74   10.94
   8   0  -5   52.87    9.17
   0   8  -5   70.54   14.99
  -8   8  -5   64.10   18.86
   8  -8  -5   58.04   10.58
   8  -8   6   24.59   10.78
   0  -8  -6   17.52    9.71
  -8   0  -6   17.44    6.28
   8   0  -6   19.31    5.36
   0   8  -6   20.95    5.97
  -8   8  -6   31.88    9.71
   8  -8  -6   22.96    6.24
   8  -8   7   11.07    8.01
   0  -8  -7   28.09    9.01
  -8   0  -7   33.32    8.14
   8   0  -7   30.23    7.16
   0   8  -7   27.71    7.75
   8  -8  -7   30.21    7.40
  -8  -1   0  239.83   29.17
   1  -9   0   89.29   27.99
  -1   9   0  257.13   35.82
   9  -8   0  108.63   32.60
  -9   8   0  248.50   35.26
  -8  -1   1  310.16   48.24
   1  -9   1  350.14   72.76
  -1   9   1  332.63   56.05
   9  -8   1  386.46   83.15
  -9   8   1  316.48   58.88
  -8  -1  -1  334.70   55.22
   8   1  -1  298.74   40.92
  -1   9  -1  293.99   58.42
   1  -9  -1  375.71   74.40
  -9   8  -1  342.99   69.61
   9  -8  -1  380.50   80.26
   1  -9   2   36.33    9.13
  -1   9   2   22.82    4.88
   9  -8   2   26.77    7.32
  -9   8   2   27.70    5.68
  -8  -1  -2   13.96    5.19
   8   1  -2   24.20    3.82
  -1   9  -2   14.46    5.25
   1  -9  -2   17.46    6.33
  -9   8  -2   31.03    7.17
   9  -8  -2   22.42    6.36
   1  -9   3  301.27   59.44
  -1   9   3  220.40   40.76
   9  -8   3  324.16   65.54
  -8  -1  -3  272.78   47.78
   8   1  -3  278.32   43.97
  -1   9  -3  283.70   54.86
   1  -9  -3  276.12   57.02
  -9   8  -3  310.54   69.75
   9  -8  -3  143.93   39.56
   9  -8  -3  319.24   53.93
   1  -9   4   71.91   27.82
  -1   9   4  199.52   32.25
   9  -8   4  236.37   47.67
  -8  -1  -4  192.99   33.93
   8   1  -4  198.25   29.67
  -1   9  -4  182.13   33.74
   1  -9  -4  168.21   33.99
  -9   8  -4  175.93   35.88
   9  -8  -4  194.70   32.64
   9  -8  -4  208.79   37.32
   1  -9   5  129.01   31.71
   9  -8   5  243.38   52.81
  -8  -1  -5  149.83   32.00
   8   1  -5  197.78   36.49
  -1   9  -5  173.50   33.56
   1  -9  -5  162.80   34.94
  -9   8  -5  219.16   43.37
   9  -8  -5  175.20   32.36
   9  -8   6    8.62    6.43
  -8  -1  -6    1.78    4.13
   8   1  -6   14.31    4.06
  -1   9  -6    1.69    4.41
   1  -9  -6    4.64    4.46
   9  -8  -6   10.30    4.09
  -8  -2   0   98.51   16.69
   2 -10   0  102.58   21.16
  -2  10   0  112.63   20.61
 -10   8   0   97.41   19.69
  10  -8   0  137.38   29.11
  -8  -2   1   17.57    4.37
   2 -10   1   31.37    9.90
  -2  10   1   22.53    7.57
 -10   8   1   23.74    5.84
  10  -8   1   21.92    7.03
  -8  -2  -1   35.01    6.86
   8   2  -1   17.17    3.28
  -2  10  -1   18.73    5.33
   2 -10  -1   22.76    6.46
 -10   8  -1   24.76    9.97
  10  -8  -1   17.12    6.34
   2 -10   2    5.09    5.51
  -2  10   2   16.54    5.42
 -10   8   2    9.59    5.60
  10  -8   2   17.11    5.25
  -8  -2  -2    4.58    3.69
   8   2  -2    6.05    3.68
  -2  10  -2    9.73    4.06
   2 -10  -2    9.59    6.88
 -10   8  -2    6.29    6.65
  10  -8  -2   10.89    5.79
   2 -10   3   14.89    7.01
  -2  10   3   11.23    8.31
  10  -8   3   27.97    8.52
  -8  -2  -3   21.00    5.86
   8   2  -3   20.50    6.21
  -2  10  -3   19.30    8.24
   2 -10  -3   30.61   10.71
 -10   8  -3   13.38    9.47
  10  -8  -3   17.85    6.17
  10  -8  -3   27.19    7.79
   2 -10   4   16.70   10.99
  10  -8   4   41.29   13.83
  -8  -2  -4   28.48    9.65
   8   2  -4   51.16    9.35
  -2  10  -4   47.69   11.13
   2 -10  -4   66.97   15.62
 -10   8  -4   53.90   14.81
  10  -8  -4   60.85   10.20
  10  -8   5   19.90    6.70
  -8  -2  -5    6.58    5.48
   8   2  -5   14.97    5.35
  -2  10  -5   16.01    8.11
   2 -10  -5   14.80    6.44
  10  -8  -5   20.94    7.34
  -8  -3   0  240.56   45.59
 -11   8   0  279.73   55.20
  11  -8   0  119.48   40.20
   3 -11   0  262.65   51.24
  -3  11   0  223.57   45.24
  11  -8   1   22.68    9.61
 -11   8   1   27.38    7.27
   3 -11   1   17.04    9.73
  -3  11   1   27.96    7.45
  -8  -3  -1   39.33   10.09
 -11   8  -1   28.51    8.65
  11  -8  -1   26.62    7.64
  -3  11  -1   22.17    8.22
   3 -11  -1   18.47    7.34
  11  -8   2  505.65  109.86
 -11   8   2  251.80   58.52
   3 -11   2  269.82   69.76
  -3  11   2  301.63   64.44
  -8  -3  -2  316.44   66.22
 -11   8  -2  354.39   75.80
  11  -8  -2  360.43   69.03
  -3  11  -2  320.64   72.23
   3 -11  -2  267.42   63.64
  -3  11   3   29.09   11.14
  11  -8   3   15.31    9.08
   3 -11   3   34.42   12.70
   3 -11  -3   22.06   10.25
  -8  -3  -3   45.04   11.67
   8   3  -3   28.40    6.43
 -11   8  -3   25.34    8.85
  11  -8  -3   20.51    7.74
  -3  11  -3   23.81    8.07
  11  -8   4  151.63   32.36
   3 -11   4   67.47   26.91
   3 -11  -4  163.80   39.95
  -8  -3  -4  133.69   34.99
   8   3  -4  138.61   23.92
  11  -8  -4  114.05   23.86
  -3  11  -4  118.36   33.30
  -8  -4   0   -0.09    4.22
  12  -8   0   14.56    4.76
   4 -12   0    4.71    5.84
  -4  12   0   10.25    4.86
 -12   8   0    6.85    4.76
   4 -12   1    9.48    4.55
  -4  12   1    3.05    4.12
 -12   8   1    5.36    5.71
  12  -8   1   -0.96    6.31
  -8  -4  -1   -0.10    3.80
  -4  12  -1    5.92    4.75
   4 -12  -1    3.43    6.11
 -12   8  -1    7.87    5.01
   4 -12   2   31.10   10.43
  -4  12   2   25.49   12.45
  12  -8   2   22.12   10.56
 -12   8   2   31.38    8.70
  -8  -4  -2   34.53   13.00
  -4  12  -2   32.31    8.82
   4 -12  -2   35.30   12.59
   4 -12   3   13.77    7.05
   4 -12  -3    8.61    5.43
   0  -9   0   57.59   10.44
   0   9   0   32.34    6.16
   9  -9   0   54.69   10.70
  -9   9   0   49.76   12.07
  -9   0   0   18.97    5.73
   0  -9   1   98.99   22.93
   0   9   1  120.68   20.18
   9  -9   1  142.77   29.32
  -9   9   1  126.18   22.16
   0   9  -1  105.86   18.71
   0  -9  -1  133.19   25.47
  -9   9  -1  156.20   34.93
   9  -9  -1  151.49   27.68
  -9   0  -1  138.00   20.78
   9   0  -1  114.23   17.52
   0  -9   2   31.68    8.73
   9  -9   2   62.77   14.54
  -9   9   2   42.38    8.41
   0   9   2   48.49    9.52
   0   9  -2   39.84    7.55
  -9   9  -2   42.69   10.28
   9  -9  -2   53.89   12.51
   0  -9  -2   22.17    8.18
  -9   0  -2   21.46    7.72
   9   0  -2   34.11    6.78
   0  -9   3  119.81   22.77
   9  -9   3  109.90   27.87
  -9   9   3   84.67   17.75
   0   9  -3   82.70   16.17
  -9   9  -3  112.25   24.22
   9  -9  -3  118.17   25.55
   0  -9  -3   85.66   23.51
  -9   0  -3   98.27   18.69
   9   0  -3   88.39   16.45
   0  -9   4    7.02    5.01
   9  -9   4   12.41    5.86
  -9   9   4   17.92    5.06
   0   9  -4   13.63    4.64
  -9   9  -4   15.01    6.05
   9  -9  -4   11.64    5.13
   0  -9  -4   14.44    7.58
  -9   0  -4   16.74    5.35
   9   0  -4   11.74    5.28
   9  -9   5   71.42   20.51
   0   9  -5   48.54   12.11
  -9   9  -5   51.65   20.19
   9  -9  -5   56.82   13.21
   0  -9  -5   59.87   13.32
  -9   0  -5   50.99   16.55
   9   0  -5   50.14   12.85
   9  -9   6    8.68    6.18
   0   9  -6    5.55    4.33
  -9   9  -6   10.61    5.19
   9  -9  -6    8.63    5.02
   0  -9  -6    8.28    5.01
  -9   0  -6    4.33    6.45
   9   0  -6    9.29    3.99
   1 -10   0  158.56   42.29
  -1  10   0  176.87   34.28
  10  -9   0  258.25   53.83
 -10   9   0  189.02   39.26
  -9  -1   0  174.75   32.21
   1 -10   1   25.06   10.54
  -1  10   1   75.31   13.58
  10  -9   1   31.56   11.52
 -10   9   1   62.33   10.76
  -9  -1   1   23.51    6.61
  -1  10  -1   55.68   11.87
   1 -10  -1   71.28   16.79
 -10   9  -1   56.91   12.56
  10  -9  -1   53.77   11.88
  -9  -1  -1   61.47   11.37
   1 -10   2  292.59   57.51
  -1  10   2  233.57   41.41
  10  -9   2   91.50   39.85
 -10   9   2  224.27   42.08
  -1  10  -2  200.53   43.66
   1 -10  -2  216.46   46.52
 -10   9  -2  284.69   58.62
  10  -9  -2  182.02   43.61
  -9  -1  -2  212.46   44.49
   9   1  -2  205.98   30.04
   1 -10   3   80.15   21.73
  10  -9   3   59.67   19.23
 -10   9   3   48.51   11.94
  -1  10  -3   57.90   15.32
   1 -10  -3   76.80   18.13
 -10   9  -3   76.81   22.34
  10  -9  -3   69.45   17.25
  -9  -1  -3   48.88   15.26
   9   1  -3   51.99    9.50
   1 -10   4   20.37   17.56
  10  -9   4  120.28   26.28
  -1  10  -4  118.06   20.34
   1 -10  -4  100.49   26.37
 -10   9  -4  100.04   22.52
  10  -9  -4  140.05   22.54
  -9  -1  -4   87.12   19.29
   9   1  -4  100.82   19.86
  10  -9   5   44.21   11.90
  -1  10  -5   26.91    8.37
   1 -10  -5   25.06    9.22
  10  -9  -5   39.63   12.22
  -9  -1  -5   32.34   11.84
   9   1  -5   27.63    7.49
   2 -11   0   42.78    7.77
  -2  11   0   20.61    6.03
  11  -9   0   19.53    8.06
 -11   9   0   41.34   10.77
  -9  -2   0    7.77    5.25
   2 -11   1   13.53    6.27
  -2  11   1   15.20    5.50
  11  -9   1   -1.49    8.66
 -11   9   1    7.40    5.24
  -2  11  -1   14.63    4.63
   2 -11  -1    6.30    5.14
 -11   9  -1   17.99    6.26
  11  -9  -1   21.65    8.05
  -9  -2  -1   12.00    5.01
   2 -11   2  135.65   34.26
  -2  11   2  122.07   30.78
  11  -9   2  151.86   33.72
 -11   9   2  108.22   26.12
  -2  11  -2  115.80   24.67
   2 -11  -2  106.66   24.98
 -11   9  -2  141.03   32.01
  11  -9  -2  152.85   28.61
  -9  -2  -2  126.97   29.20
   2 -11   3   13.67    9.78
  11  -9   3   20.77    8.41
 -11   9   3   12.61    5.64
  -2  11  -3   15.56    5.90
   2 -11  -3   16.88    7.11
 -11   9  -3   16.88    7.54
  -9  -2  -3   12.16    5.65
   2 -11   4   23.11   10.85
  11  -9   4   10.77    7.55
  -2  11  -4   19.31    6.31
   2 -11  -4   17.09    8.01
  11  -9  -4   19.41    6.60
  -9  -2  -4   10.16    8.50
  12  -9   0   57.44   17.96
 -12   9   0   65.71   17.67
   3 -12   0   74.37   21.00
  -3  12   0   49.24   16.30
  12  -9   1   41.43   17.01
 -12   9   1   24.43    8.40
   3 -12   1   21.52   15.67
  -3  12   1   25.25   13.48
 -12   9  -1   41.11   11.21
  12  -9  -1   33.60   13.31
  -9  -3  -1   30.60   11.54
  -3  12  -1   28.49    8.48
   3 -12  -1   24.27    8.74
 -12   9   2   66.08   16.91
   3 -12   2   81.51   20.82
  -3  12   2   83.82   18.31
  -3  12  -2   82.39   17.93
   3 -12  -2   59.69   15.89
   0 -10   0    2.84    3.89
   0  10   0    4.61    4.22
  10 -10   0    6.95    5.00
 -10  10   0    6.35    4.08
 -10   0   0    5.48    2.98
   0 -10   1   10.17    6.78
   0  10   1   12.67    3.41
  10 -10   1   21.03    8.36
 -10  10   1    9.41    5.05
   0  10  -1    5.73    3.58
   0 -10  -1    8.26    5.35
 -10  10  -1    9.29    4.91
  10 -10  -1   12.65    5.79
 -10   0  -1    3.94    3.47
   0 -10   2  104.39   21.47
  10 -10   2  108.25   28.80
 -10  10   2   86.86   18.49
   0  10  -2   83.32   19.00
   0 -10  -2   89.41   24.92
 -10  10  -2  124.03   31.16
  10 -10  -2   80.94   20.64
 -10   0  -2   84.70   21.19
   0 -10   3   10.17    5.17
  10 -10   3    7.70    5.31
 -10  10   3    4.42    4.24
   0  10  -3    1.96    3.41
   0 -10  -3   11.09    4.72
 -10  10  -3    0.76    6.04
  10 -10  -3   16.85    6.35
 -10   0  -3   11.70    4.16
  10   0  -3    4.83    2.60
  10 -10   4   -0.85    5.74
 -10  10   4   -0.51    3.26
   0  10  -4    1.05    2.94
 -10  10  -4   -3.33    6.18
   0 -10  -4    0.27    3.59
 -10   0  -4    7.76    3.26
   1 -11   0   84.92   20.65
  -1  11   0   92.62   18.46
  11 -10   0  125.06   26.19
 -11  10   0   96.66   24.22
   1 -11   1   68.35   21.08
  -1  11   1   98.63   18.30
  11 -10   1  133.63   34.30
 -11  10   1   93.17   21.48
  -1  11  -1  107.68   24.66
   1 -11  -1   78.68   20.54
 -11  10  -1  127.31   29.65
  11 -10  -1  138.05   27.48
 -10  -1  -1  104.61   23.66
   1 -11   2   72.78   21.30
  11 -10   2   84.89   22.76
 -11  10   2   91.06   19.53
  -1  11  -2   72.74   17.10
   1 -11  -2   87.70   21.85
 -11  10  -2  108.61   29.98
  11 -10  -2   90.78   26.89
 -10  -1  -2   79.34   22.79
   1 -11   3  115.90   24.12
 -11  10   3   95.27   25.74
  -1  11  -3   90.49   18.53
   1 -11  -3  126.15   30.73
 -11  10  -3  128.10   28.26
 -10  -1  -3   39.01   18.10
   0 -11   0   81.73   22.87
 -11  11   0   73.15   19.22
   0   0   0    0.00    0.00
;
_shelx_hkl_checksum              10004
loop_
_space_group_symop_operation_xyz
'x, y, z'
'-x+y, -x, -z+1/2'
'-y, x-y, z'
'x, y, -z+1/2'
'-x+y, -x, z'
'-y, x-y, -z+1/2'
'y, x, z+1/2'
'x-y, -y, -z'
'-x, -x+y, z+1/2'
'y, x, -z'
'x-y, -y, z+1/2'
'-x, -x+y, -z'
loop_
_atom_site_label
_atom_site_type_symbol
_atom_site_fract_x
_atom_site_fract_y
_atom_site_fract_z
_atom_site_U_iso_or_equiv
_atom_site_adp_type
_atom_site_occupancy
_atom_site_site_symmetry_order
_atom_site_calc_flag
_atom_site_refinement_flags_posn
_atom_site_refinement_flags_adp
_atom_site_refinement_flags_occupancy
N1 N 0.3333 0.6667 0.8996(11) 0.0262(18) Uani 1 3 d S T P
H1A H 0.3333 0.6667 1.0190 0.031 Uiso 1 3 calc R U P
C20 C 0.4647(9) 0.8232(8) 0.8429(8) 0.0369(17) Uani 1 1 d . . .
H20A H 0.5646 0.8397 0.8835 0.044 Uiso 1 1 calc R U .
H20B H 0.4491 0.9072 0.8835 0.044 Uiso 1 1 calc R U .
Rb7 Rb 1.0000 1.0000 1.0000 0.0336(4) Uani 1 6 d S T P
I1 I 0.79751(7) 0.64334(7) 0.7500 0.0342(4) Uani 1 2 d S T P
loop_
_atom_site_aniso_label
_atom_site_aniso_U_11
_atom_site_aniso_U_22
_atom_site_aniso_U_33
_atom_site_aniso_U_23
_atom_site_aniso_U_13
_atom_site_aniso_U_12
N1 0.029(3) 0.029(3) 0.020(4) 0.000 0.000 0.0146(14)
C20 0.038(4) 0.025(3) 0.034(3) -0.005(3) -0.009(3) 0.006(3)
Rb7 0.0350(5) 0.0350(5) 0.0308(7) 0.000 0.000 0.0175(3)
I1 0.0320(5) 0.0344(4) 0.0351(5) 0.000 0.000 0.0158(3)
loop_
_atom_type_symbol
_atom_type_description
_atom_type_scat_dispersion_real
_atom_type_scat_dispersion_imag
_atom_type_scat_source
C C 0.0033 0.0016 'International Tables Vol C Tables 4.2.6.8 and 6.1.1.4'
H H 0.0000 0.0000 'International Tables Vol C Tables 4.2.6.8 and 6.1.1.4'
I I -0.4742 1.8119 'International Tables Vol C Tables 4.2.6.8 and 6.1.1.4'
N N 0.0061 0.0033 'International Tables Vol C Tables 4.2.6.8 and 6.1.1.4'
Rb Rb -0.9393 2.9676 'International Tables Vol C Tables 4.2.6.8 and 6.1.1.4'
loop_
_geom_angle_atom_site_label_1
_geom_angle_atom_site_label_2
_geom_angle_atom_site_label_3
_geom_angle
_geom_angle_site_symmetry_1
_geom_angle_site_symmetry_3
C20 N1 C20 110.9(4) . 3_665
C20 N1 C20 110.9(4) . 5_565
C20 N1 C20 110.9(4) 3_665 5_565
C20 N1 H1A 108.0 . .
C20 N1 H1A 108.0 3_665 .
C20 N1 H1A 108.0 5_565 .
N1 C20 C20 108.0(4) . 4_556
N1 C20 H20A 110.1 . .
C20 C20 H20A 110.1 4_556 .
N1 C20 H20B 110.1 . .
C20 C20 H20B 110.1 4_556 .
H20A C20 H20B 108.4 . .
I1 Rb7 I1 172.585(19) . 8_677
I1 Rb7 I1 93.761(18) . 9_765
I1 Rb7 I1 91.786(13) 8_677 9_765
I1 Rb7 I1 83.133(19) . 7
I1 Rb7 I1 91.786(13) 8_677 7
I1 Rb7 I1 91.786(13) 9_765 7
I1 Rb7 I1 91.786(13) . 2_676
I1 Rb7 I1 83.133(19) 8_677 2_676
I1 Rb7 I1 172.585(19) 9_765 2_676
I1 Rb7 I1 93.760(19) 7 2_676
I1 Rb7 I1 91.786(13) . 3_765
I1 Rb7 I1 93.760(18) 8_677 3_765
I1 Rb7 I1 83.133(19) 9_765 3_765
I1 Rb7 I1 172.585(19) 7 3_765
I1 Rb7 I1 91.786(13) 2_676 3_765
I1 Rb7 Rb7 123.991(9) . 2_677
I1 Rb7 Rb7 56.009(9) 8_677 2_677
I1 Rb7 Rb7 56.009(9) 9_765 2_677
I1 Rb7 Rb7 56.009(9) 7 2_677
I1 Rb7 Rb7 123.991(9) 2_676 2_677
I1 Rb7 Rb7 123.991(9) 3_765 2_677
I1 Rb7 Rb7 56.009(9) . 2_676
I1 Rb7 Rb7 123.991(9) 8_677 2_676
I1 Rb7 Rb7 123.991(9) 9_765 2_676
I1 Rb7 Rb7 123.991(9) 7 2_676
I1 Rb7 Rb7 56.009(9) 2_676 2_676
I1 Rb7 Rb7 56.009(9) 3_765 2_676
Rb7 Rb7 Rb7 180.0 2_677 2_676
Rb7 I1 Rb7 67.982(19) . 2_676
loop_
_geom_bond_atom_site_label_1
_geom_bond_atom_site_label_2
_geom_bond_distance
_geom_bond_site_symmetry_2
N1 C20 1.503(7) .
N1 C20 1.503(7) 3_665
N1 C20 1.503(7) 5_565
N1 H1A 0.9800 .
C20 C20 1.524(13) 4_556
C20 H20A 0.9700 .
C20 H20B 0.9700 .
Rb7 I1 3.6698(8) .
Rb7 I1 3.6699(8) 8_677
Rb7 I1 3.6698(8) 9_765
Rb7 I1 3.6698(8) 7
Rb7 I1 3.6698(8) 2_676
Rb7 I1 3.6698(8) 3_765
Rb7 Rb7 4.1033(8) 2_677
Rb7 Rb7 4.1033(8) 2_676
I1 Rb7 3.6698(8) 2_676
loop_
_geom_torsion_atom_site_label_1
_geom_torsion_atom_site_label_2
_geom_torsion_atom_site_label_3
_geom_torsion_atom_site_label_4
_geom_torsion
_geom_torsion_site_symmetry_1
_geom_torsion_site_symmetry_4
C20 N1 C20 C20 -61.8(5) 3_665 4_556
C20 N1 C20 C20 61.8(5) 5_565 4_556
