#------------------------------------------------------------------------------
#$Date: 2019-11-25 21:30:24 +0200 (Mon, 25 Nov 2019) $
#$Revision: 241860 $
#$URL: file:///home/coder/svn-repositories/cod/cif/4/13/16/4131688.cif $
#------------------------------------------------------------------------------
#
# This file is available in the Crystallography Open Database (COD),
# http://www.crystallography.net/
#
# All data on this site have been placed in the public domain by the
# contributors.
#
data_4131688
loop_
_publ_author_name
'Jordan, Robert S.'
'Li, Yolanda L.'
'Lin, Cheng-Wei'
'McCurdy, Ryan D.'
'Lin, Janice B.'
'Brosmer, Jonathan L.'
'Marsh, Kristofer L.'
'Khan, Saeed I.'
'Houk, K. N.'
'Kaner, Richard B.'
'Rubin, Yves'
_publ_section_title
;
 Synthesis of N = 8 Armchair Graphene Nanoribbons from Four Distinct
 Polydiacetylenes.
;
_journal_issue                   44
_journal_name_full               'Journal of the American Chemical Society'
_journal_page_first              15878
_journal_page_last               15890
_journal_paper_doi               10.1021/jacs.7b08800
_journal_volume                  139
_journal_year                    2017
_chemical_formula_moiety         'C24 H24 N2 O2'
_chemical_formula_sum            'C24 H24 N2 O2'
_chemical_formula_weight         372.45
_space_group_crystal_system      triclinic
_space_group_IT_number           2
_space_group_name_Hall           '-P 1'
_space_group_name_H-M_alt        'P -1'
_atom_sites_solution_hydrogens   mixed
_audit_creation_method           SHELXL-2014/6
_cell_angle_alpha                88.299(2)
_cell_angle_beta                 89.480(1)
_cell_angle_gamma                81.756(2)
_cell_formula_units_Z            1
_cell_length_a                   4.7918(2)
_cell_length_b                   5.4310(2)
_cell_length_c                   19.0454(7)
_cell_measurement_reflns_used    4264
_cell_measurement_temperature    100(2)
_cell_measurement_theta_max      68.84
_cell_measurement_theta_min      2.32
_cell_volume                     490.30(3)
_computing_cell_refinement       'Bruker SAINT'
_computing_data_collection       'Bruker APEX2'
_computing_data_reduction        'Bruker SAINT'
_computing_molecular_graphics    'Bruker SHELXTL'
_computing_publication_material  'Bruker SHELXTL'
_computing_structure_refinement  'SHELXL-2014/6 (Sheldrick, 2014)'
_computing_structure_solution    'SHELXS-97 (Sheldrick 2008)'
_diffrn_ambient_temperature      100(2)
_diffrn_detector_area_resol_mean 8.3333
_diffrn_measured_fraction_theta_full 0.963
_diffrn_measured_fraction_theta_max 0.949
_diffrn_measurement_device_type  'Bruker APEX-II CCD'
_diffrn_measurement_method       '\f and \w scans'
_diffrn_radiation_type           CuK\a
_diffrn_radiation_wavelength     1.54178
_diffrn_reflns_av_R_equivalents  0.0295
_diffrn_reflns_av_unetI/netI     0.0299
_diffrn_reflns_Laue_measured_fraction_full 0.963
_diffrn_reflns_Laue_measured_fraction_max 0.949
_diffrn_reflns_limit_h_max       5
_diffrn_reflns_limit_h_min       -5
_diffrn_reflns_limit_k_max       6
_diffrn_reflns_limit_k_min       -6
_diffrn_reflns_limit_l_max       22
_diffrn_reflns_limit_l_min       -22
_diffrn_reflns_number            6355
_diffrn_reflns_point_group_measured_fraction_full 0.963
_diffrn_reflns_point_group_measured_fraction_max 0.949
_diffrn_reflns_theta_full        67.679
_diffrn_reflns_theta_max         69.164
_diffrn_reflns_theta_min         2.321
_diffrn_source                   'I\mS micro--focus source'
_exptl_absorpt_coefficient_mu    0.638
_exptl_absorpt_correction_T_max  0.75
_exptl_absorpt_correction_T_min  0.57
_exptl_absorpt_correction_type   multi-scan
_exptl_absorpt_process_details   'SADABS V2014/2 (Bruker AXS Inc.)'
_exptl_crystal_colour            colorless
_exptl_crystal_density_diffrn    1.261
_exptl_crystal_description       platelet
_exptl_crystal_F_000             198
_exptl_crystal_size_max          0.300
_exptl_crystal_size_mid          0.180
_exptl_crystal_size_min          0.020
_refine_diff_density_max         0.228
_refine_diff_density_min         -0.220
_refine_diff_density_rms         0.046
_refine_ls_extinction_method     none
_refine_ls_goodness_of_fit_ref   1.052
_refine_ls_hydrogen_treatment    mixed
_refine_ls_matrix_type           full
_refine_ls_number_parameters     132
_refine_ls_number_reflns         1744
_refine_ls_number_restraints     0
_refine_ls_restrained_S_all      1.052
_refine_ls_R_factor_all          0.0416
_refine_ls_R_factor_gt           0.0390
_refine_ls_shift/su_max          0.001
_refine_ls_shift/su_mean         0.000
_refine_ls_structure_factor_coef Fsqd
_refine_ls_weighting_details
'w=1/[\s^2^(Fo^2^)+(0.0701P)^2^+0.1201P] where P=(Fo^2^+2Fc^2^)/3'
_refine_ls_weighting_scheme      calc
_refine_ls_wR_factor_gt          0.1092
_refine_ls_wR_factor_ref         0.1115
_reflns_Friedel_coverage         0.000
_reflns_number_gt                1599
_reflns_number_total             1744
_reflns_threshold_expression     'I > 2\s(I)'
_cod_data_source_file            ja7b08800_si_004.cif
_cod_data_source_block           cu_yr1704c_s
_cod_database_code               4131688
_shelx_space_group_comment
; 
The symmetry employed for this shelxl refinement is uniquely defined 
by the following loop, which should always be used as a source of 
symmetry information in preference to the above space-group names. 
They are only intended as comments. 
;
_shelx_estimated_absorpt_t_min   0.832
_shelx_estimated_absorpt_t_max   0.987
_shelxl_version_number           2014/6
_shelx_res_file
; 
TITL cu_yr1704c_s in P-1 
CELL 1.54178   4.79180   5.43100  19.04540  88.2985  89.4797  81.7561 
ZERR    1.00   0.00020   0.00020   0.00070   0.0020   0.0021   0.0023 
LATT 1 
SFAC C  H  O  N 
UNIT 24 24 2 2 
L.S. 20 
BOND $H 
FMAP 2 
PLAN 5 
acta 
size .3 .18 .02 
rem colorless very thin plates 
TEMP -173 
WGHT    0.070100    0.120100 
FVAR       0.32125 
O1    3    0.601954    0.312667    0.804957    11.00000    0.01528    0.03279 = 
         0.02779    0.00770   -0.00125   -0.00575 
N1    4    0.150237    0.448910    0.771639    11.00000    0.01314    0.02117 = 
         0.01929    0.00193    0.00100   -0.00493 
H1N   2   -0.027265    0.433155    0.780300    11.00000   -1.20000 
C1    1    0.893965    0.539244    0.523058    11.00000    0.01806    0.01952 = 
         0.01926    0.00208   -0.00219   -0.00421 
C2    1    0.706996    0.610006    0.563938    11.00000    0.01920    0.01925 = 
         0.01935    0.00145   -0.00278   -0.00487 
C3    1    0.485402    0.691995    0.612218    11.00000    0.01522    0.02085 = 
         0.01855   -0.00187   -0.00163   -0.00529 
C4    1    0.323194    0.926269    0.603460    11.00000    0.02107    0.01978 = 
         0.02053    0.00209   -0.00141   -0.00551 
AFIX  43 
H4    2    0.362058    1.035156    0.565812    11.00000   -1.20000 
AFIX   0 
C5    1    0.105767    0.998024    0.650075    11.00000    0.02025    0.01734 = 
         0.02507   -0.00070   -0.00218   -0.00106 
AFIX  43 
H5    2   -0.006096    1.156177    0.643774    11.00000   -1.20000 
AFIX   0 
C6    1    0.048241    0.842241    0.706062    11.00000    0.01600    0.02117 = 
         0.01996   -0.00304   -0.00026   -0.00309 
AFIX  43 
H6    2   -0.101784    0.893360    0.737731    11.00000   -1.20000 
AFIX   0 
C7    1    0.212615    0.610986    0.715173    11.00000    0.01466    0.01978 = 
         0.01759   -0.00051   -0.00263   -0.00650 
C8    1    0.428504    0.534194    0.668337    11.00000    0.01615    0.01710 = 
         0.02072   -0.00036   -0.00222   -0.00279 
AFIX  43 
H8    2    0.537681    0.374675    0.674324    11.00000   -1.20000 
AFIX   0 
C9    1    0.347167    0.307815    0.811845    11.00000    0.01559    0.01966 = 
         0.01863   -0.00129    0.00004   -0.00562 
C10   1    0.231331    0.146119    0.868761    11.00000    0.01849    0.02171 = 
         0.02081    0.00214   -0.00058   -0.00756 
AFIX  13 
H10   2    0.063313    0.081071    0.849651    11.00000   -1.20000 
AFIX   0 
C11   1    0.450681   -0.074031    0.889832    11.00000    0.02550    0.02536 = 
         0.03384    0.00861    0.00000   -0.00529 
AFIX 137 
H11A  2    0.616455   -0.013187    0.908947    11.00000   -1.50000 
H11B  2    0.506245   -0.173310    0.848536    11.00000   -1.50000 
H11C  2    0.370651   -0.177422    0.925588    11.00000   -1.50000 
AFIX   0 
C12   1    0.136573    0.306670    0.931722    11.00000    0.03639    0.02756 = 
         0.02332    0.00130    0.00587   -0.00691 
AFIX 137 
H12A  2    0.055932    0.205305    0.967884    11.00000   -1.50000 
H12B  2   -0.006014    0.445364    0.916586    11.00000   -1.50000 
H12C  2    0.299135    0.372131    0.951003    11.00000   -1.50000 
AFIX   0 
HKLF 4 
  
REM  cu_yr1704c_s in P-1 
REM R1 =  0.0390 for    1599 Fo > 4sig(Fo)  and  0.0416 for all    1744 data 
REM    132 parameters refined using      0 restraints 
  
END 
  
WGHT      0.0707      0.1191 
  
REM Highest difference peak  0.228,  deepest hole -0.220,  1-sigma level  0.046 
Q1    1   0.8667  0.5167  0.5671  11.00000  0.05    0.23 
Q2    1   0.3387  0.0437  0.8782  11.00000  0.05    0.22 
Q3    1   0.2463  0.4277  0.8011  11.00000  0.05    0.21 
Q4    1  -0.0626  1.0638  0.6265  11.00000  0.05    0.20 
Q5    1   0.7545  0.2589  0.8382  11.00000  0.05    0.20 
;
_shelx_res_checksum              98990
_shelx_hkl_file
; 
  -1   0   0    7.22    0.41 
  -1   0   0    7.07    0.41 
   1   0   0    7.18    0.44 
   1   0   0    6.40    0.42 
  -2   0   0    1.89    0.10 
   2   0   0    1.84    0.09 
   2   0   0    1.88    0.09 
  -3   0   0    2.84    0.14 
   3   0   0    2.82    0.15 
   3   0   0    2.90    0.15 
   4   0   0    4.67    0.23 
   4   0   0    4.46    0.23 
   4   0   0    4.89    0.23 
   4   0   0    4.62    0.22 
   5   0   0    0.92    0.08 
   5   0   0    1.01    0.06 
   5   0   0    0.99    0.08 
   5  -1   0    7.22    0.33 
   5  -1   0    7.01    0.33 
   5  -1   0    7.36    0.33 
   4  -1   0    6.90    0.33 
   4  -1   0    7.15    0.33 
   4  -1   0    7.24    0.33 
   4  -1   0    7.34    0.34 
   4  -1   0    6.96    0.33 
   3  -1   0    0.47    0.05 
  -3   1   0    0.50    0.05 
   2  -1   0   29.30    1.26 
  -2   1   0   27.35    1.26 
   1  -1   0   10.51    0.50 
  -1   1   0   12.78    0.50 
  -1   1   0   10.27    0.50 
   0  -1   0   38.05    2.39 
   0  -1   0   44.00    2.43 
   0   1   0   41.36    2.53 
   0   1   0   40.35    2.44 
   1   1   0    4.70    0.22 
   1   1   0    4.96    0.22 
   2   1   0    9.56    0.42 
   2   1   0    8.40    0.41 
   2   1   0    9.66    0.41 
   2   1   0    8.84    0.41 
   3   1   0   37.07    1.67 
   3   1   0   38.16    1.67 
   4   1   0    0.05    0.06 
   5   1   0    1.99    0.13 
   5  -2   0    0.15    0.03 
   5  -2   0    0.25    0.03 
   5  -2   0    0.19    0.03 
   5  -2   0    0.17    0.03 
   4  -2   0   23.55    1.02 
   4  -2   0   24.83    1.03 
   4  -2   0   22.26    1.03 
   4  -2   0   22.11    1.03 
   4  -2   0   21.89    1.02 
   3  -2   0    9.16    0.42 
   3  -2   0    9.41    0.42 
  -3   2   0    8.46    0.41 
   2  -2   0    2.11    0.11 
  -2   2   0    2.11    0.11 
   1  -2   0    0.77    0.05 
  -1   2   0    0.87    0.05 
  -1   2   0    0.89    0.06 
   0  -2   0   15.49    0.73 
   0   2   0   17.75    0.73 
   0   2   0   16.25    0.74 
   0   2   0   16.13    0.73 
   1   2   0   44.07    1.89 
   1   2   0   41.28    1.89 
   1   2   0   42.22    1.88 
   2   2   0    0.52    0.06 
   2   2   0    0.44    0.04 
   3   2   0    0.03    0.05 
   4  -3   0    0.34    0.05 
   4  -3   0    0.35    0.04 
   3  -3   0    0.02    0.06 
   3  -3   0   -0.02    0.08 
   3  -3   0    0.01    0.04 
   3  -3   0    0.03    0.04 
  -3   3   0    0.03    0.06 
   2  -3   0    2.36    0.17 
   2  -3   0    2.62    0.15 
  -2   3   0    2.54    0.13 
  -2   3   0    2.33    0.15 
  -1   3   0   20.19    0.97 
  -1   3   0   22.78    0.96 
   0  -3   0    9.52    0.43 
   0   3   0    9.33    0.44 
   0   3   0    9.72    0.43 
  -1  -3   0   26.25    1.16 
   1   3   0   25.51    1.16 
   1   3   0   26.13    1.17 
  -2  -3   0    9.25    0.44 
   2   3   0   10.08    0.46 
   2   3   0    9.57    0.44 
  -3  -3   0    0.44    0.07 
   3   3   0    0.57    0.07 
   3   3   0    0.64    0.09 
   3   3   0    0.56    0.08 
   3   3   0    0.56    0.07 
   4  -4   0    3.19    0.15 
   3  -4   0    1.85    0.11 
   3  -4   0    1.85    0.14 
  -3   4   0    1.93    0.12 
   2  -4   0    4.94    0.25 
   2  -4   0    5.32    0.27 
   2  -4   0    5.49    0.29 
  -2   4   0    5.68    0.27 
   1  -4   0    1.80    0.13 
  -1   4   0    1.64    0.14 
  -1   4   0    1.79    0.12 
   0  -4   0    1.87    0.12 
   0   4   0    1.64    0.12 
   0   4   0    1.76    0.12 
  -1  -4   0    6.18    0.29 
   1   4   0    5.96    0.30 
   1   4   0    6.06    0.31 
  -2  -4   0    3.72    0.19 
   2   4   0    3.78    0.19 
   2   4   0    3.57    0.19 
   2   4   0    3.64    0.21 
   2   4   0    3.50    0.20 
   2   4   0    3.48    0.20 
   3   4   0    0.52    0.08 
   3   4   0    0.86    0.07 
   3   4   0    0.55    0.07 
   3   4   0    0.53    0.07 
   4   4   0   15.58    0.74 
   4   4   0   16.17    0.75 
   4   4   0   17.20    0.74 
   3  -5   0    1.31    0.07 
   2  -5   0    0.85    0.07 
   2  -5   0    0.89    0.09 
  -2   5   0    0.85    0.09 
   1  -5   0    5.54    0.28 
   1  -5   0    5.95    0.30 
   1  -5   0    6.21    0.29 
  -1   5   0    6.18    0.29 
   0  -5   0    4.86    0.24 
   0  -5   0    5.20    0.25 
   0   5   0    4.76    0.24 
   0   5   0    5.03    0.24 
   0   5   0    4.59    0.25 
  -1  -5   0   12.70    0.59 
  -1  -5   0   12.83    0.58 
   1   5   0   13.45    0.58 
   1   5   0   12.74    0.59 
   1   5   0   12.38    0.59 
   1   5   0   12.98    0.59 
   1   5   0   12.61    0.58 
  -2  -5   0   26.01    1.16 
   2   5   0   25.43    1.15 
   2   5   0   25.48    1.16 
   2   5   0   25.92    1.15 
   2   5   0   25.18    1.15 
   2   5   0   26.02    1.16 
   2   5   0   25.73    1.15 
   2   5   0   25.48    1.15 
  -3  -5   0    2.05    0.13 
   3   5   0    1.95    0.12 
   3   5   0    2.01    0.14 
   3   5   0    1.97    0.15 
   3   5   0    1.95    0.14 
   3   5   0    1.94    0.13 
   4   5   0    0.73    0.07 
   4   5   0    0.70    0.06 
   4   5   0    0.81    0.07 
   1  -6   0    0.64    0.07 
  -1   6   0    0.64    0.08 
   0  -6   0    1.97    0.11 
   0  -6   0    1.92    0.13 
   0   6   0    1.97    0.12 
   0   6   0    1.99    0.12 
  -1  -6   0    7.11    0.33 
  -1  -6   0    7.15    0.34 
   1   6   0    6.99    0.33 
   1   6   0    7.06    0.33 
  -2  -6   0   12.61    0.66 
  -2  -6   0   13.94    0.65 
   2   6   0   14.02    0.65 
   2   6   0   14.62    0.65 
   2   6   0   14.68    0.65 
   2   6   0   15.10    0.66 
   2   6   0   16.58    0.66 
   2   6   0   14.39    0.65 
   3   6   0    0.61    0.06 
   3   6   0    0.55    0.07 
   3   6  -1    0.14    0.05 
   3   6  -1    0.08    0.03 
   2   6  -1   32.89    1.40 
   2   6  -1   32.19    1.40 
   2   6  -1   31.44    1.40 
   2   6  -1   31.21    1.40 
   2   6  -1   30.58    1.40 
   2   6  -1   30.81    1.40 
  -2  -6   1   31.18    1.40 
   1   6  -1    0.90    0.09 
   1   6  -1    0.95    0.08 
  -1  -6   1    0.90    0.07 
  -1  -6   1    0.92    0.08 
   0   6  -1    4.73    0.23 
   0   6  -1    4.57    0.24 
   0  -6   1    4.76    0.24 
   0  -6   1    4.74    0.22 
   1  -6   1    0.05    0.04 
   4   5  -1    1.23    0.09 
   4   5  -1    1.20    0.08 
   4   5  -1    1.17    0.09 
   3   5  -1    0.58    0.06 
   3   5  -1    0.61    0.08 
   3   5  -1    0.42    0.06 
   3   5  -1    0.44    0.07 
   3   5  -1    0.54    0.07 
  -3  -5   1    0.54    0.07 
   2   5  -1    0.39    0.07 
   2   5  -1    0.45    0.08 
   2   5  -1    0.24    0.06 
   2   5  -1    0.32    0.06 
   2   5  -1    0.21    0.05 
   2   5  -1    0.39    0.05 
   2   5  -1    0.32    0.05 
  -2  -5   1    0.32    0.06 
   1   5  -1    7.89    0.36 
   1   5  -1    7.81    0.37 
   1   5  -1    7.69    0.37 
   1   5  -1    7.90    0.36 
   1   5  -1    7.72    0.37 
  -1  -5   1    7.66    0.37 
  -1  -5   1    7.73    0.36 
   0   5  -1    1.27    0.10 
   0   5  -1    1.09    0.12 
   0  -5   1    1.25    0.10 
   0  -5   1    1.25    0.11 
  -1   5  -1   10.12    0.46 
   1  -5   1   10.02    0.46 
   1  -5   1    9.51    0.45 
   1  -5   1   10.20    0.48 
  -2   5  -1    0.78    0.07 
   2  -5   1    0.50    0.09 
   2  -5   1    0.49    0.05 
   2  -5   1    0.65    0.07 
   3  -5   1    0.01    0.03 
   4   4  -1    0.14    0.07 
   4   4  -1    0.16    0.06 
   4   4  -1    0.16    0.06 
   3   4  -1    7.38    0.35 
   3   4  -1    7.32    0.36 
   3   4  -1    7.24    0.36 
   3   4  -1    7.44    0.36 
   3   4  -1    7.37    0.35 
   2   4  -1    4.83    0.25 
   2   4  -1    4.84    0.27 
   2   4  -1    5.00    0.25 
   2   4  -1    4.71    0.24 
   2   4  -1    4.67    0.24 
  -2  -4   1    4.95    0.25 
   1   4  -1    0.31    0.05 
   1   4  -1    0.40    0.07 
   1   4  -1    0.46    0.07 
  -1  -4   1    0.38    0.06 
  -1  -4   1    0.42    0.06 
   0   4  -1    3.30    0.18 
   0   4  -1    3.34    0.19 
   0  -4   1    3.49    0.18 
  -1   4  -1    1.69    0.12 
  -1   4  -1    1.80    0.13 
   1  -4   1    1.77    0.13 
  -2   4  -1    0.36    0.07 
   2  -4   1    0.25    0.09 
   2  -4   1    0.38    0.07 
   2  -4   1    0.29    0.05 
  -3   4  -1    0.45    0.06 
   3  -4   1    0.35    0.07 
   3  -4   1    0.30    0.05 
   4  -4   1   10.62    0.48 
   3   3  -1   18.83    0.87 
   3   3  -1   18.44    0.85 
   3   3  -1   19.58    0.86 
  -3  -3   1   18.63    0.86 
   2   3  -1    0.06    0.05 
   2   3  -1    0.02    0.03 
   1   3  -1    0.32    0.05 
   1   3  -1    0.34    0.04 
   0   3  -1   19.29    0.85 
   0   3  -1   18.83    0.86 
   0  -3   1   18.80    0.85 
  -1   3  -1    9.47    0.44 
  -1   3  -1   10.03    0.45 
  -2   3  -1    0.87    0.07 
  -2   3  -1    0.82    0.08 
   2  -3   1    0.77    0.10 
   2  -3   1    0.82    0.09 
  -3   3  -1    0.02    0.06 
   3  -3   1    0.01    0.07 
   3  -3   1   -0.01    0.05 
   3  -3   1    0.01    0.04 
   3  -3   1    0.06    0.04 
  -4   3  -1    1.12    0.10 
   4  -3   1    1.01    0.07 
   4  -3   1    1.07    0.08 
   4  -3   1    1.08    0.08 
   2   2  -1   37.44    1.67 
   2   2  -1   37.17    1.66 
   1   2  -1   79.93    3.66 
   1   2  -1   85.38    3.69 
   0   2  -1    4.99    0.24 
   0   2  -1    5.02    0.24 
   0   2  -1    5.65    0.24 
  -1   2  -1   10.03    0.44 
  -1   2  -1    9.99    0.43 
   1  -2   1    8.80    0.43 
  -2   2  -1   15.68    0.70 
   2  -2   1   15.53    0.70 
  -3   2  -1    4.65    0.22 
   3  -2   1    4.78    0.24 
   3  -2   1    4.53    0.23 
   5  -2   1    0.07    0.03 
   5  -2   1    0.09    0.02 
   5  -2   1    0.12    0.03 
   5  -2   1    0.13    0.03 
   3   1  -1   15.48    0.68 
   3   1  -1   14.85    0.68 
   2   1  -1    5.60    0.27 
   2   1  -1    5.72    0.28 
   2   1  -1    6.55    0.28 
   2   1  -1    6.35    0.28 
   1   1  -1   30.13    1.33 
   1   1  -1   29.85    1.33 
   0   1  -1    7.56    0.57 
   0   1  -1    7.45    0.55 
   0  -1   1    8.20    0.58 
   0  -1   1    7.78    0.56 
  -1   1  -1    0.75    0.04 
  -1   1  -1    0.57    0.04 
   1  -1   1    0.69    0.04 
   1  -1   1    0.62    0.04 
  -2   1  -1   12.10    0.59 
  -2   1  -1   13.43    0.59 
   2  -1   1   13.76    0.59 
   2  -1   1   13.15    0.59 
  -3   1  -1    4.34    0.21 
   3  -1   1    4.57    0.22 
   4  -1   1   36.23    1.63 
   4  -1   1   37.55    1.63 
   4  -1   1   36.98    1.62 
   4  -1   1   33.56    1.63 
   4  -1   1   38.59    1.63 
   5  -1   1    0.53    0.05 
   5  -1   1    0.80    0.06 
   5  -1   1    0.61    0.05 
   5   0  -1    4.43    0.23 
   5   0  -1    5.01    0.23 
   5   0  -1    5.11    0.22 
   4   0  -1    0.10    0.05 
   4   0  -1    0.17    0.05 
   4   0  -1    0.21    0.04 
   3   0  -1    3.39    0.16 
   3   0  -1    3.24    0.16 
  -3   0   1    3.32    0.16 
   2   0  -1   30.34    1.30 
   2   0  -1   30.12    1.30 
  -2   0   1   27.21    1.30 
   1   0  -1  189.92    9.72 
   1   0  -1  198.82    9.61 
  -1   0   1  213.98   13.84 
   0   0  -1   15.90    0.91 
   0   0  -1   15.68    0.88 
   0   0   1   15.72    0.87 
   0   0   1   16.37    0.93 
   1   0   1  136.19    6.04 
  -2   0  -1   18.11    0.84 
   2   0   1   19.16    0.84 
   2   0   1   18.91    0.84 
  -3   0  -1    0.04    0.04 
   3   0   1    0.02    0.03 
   3   0   1    0.03    0.04 
   4   0   1    1.10    0.08 
   4   0   1    1.07    0.09 
   4   0   1    1.08    0.09 
   4   0   1    1.08    0.09 
   5   0   1   10.05    0.44 
   5   0   1   10.70    0.45 
   5   0   1    8.86    0.44 
   5   0   1    9.77    0.45 
   5  -1  -1    0.09    0.03 
   5  -1  -1    0.08    0.04 
   5  -1  -1    0.08    0.04 
   4  -1  -1   14.30    0.66 
   4  -1  -1   15.53    0.66 
   4  -1  -1   13.46    0.66 
   4  -1  -1   14.87    0.67 
   4  -1  -1   14.66    0.65 
   3  -1  -1    3.19    0.17 
  -3   1   1    3.37    0.16 
   2  -1  -1    4.88    0.22 
  -2   1   1    4.64    0.22 
   1  -1  -1    2.51    0.12 
  -1   1   1    2.41    0.11 
   0  -1  -1   36.03    1.93 
   0  -1  -1   41.06    2.09 
   0   1   1   37.58    2.48 
   0   1   1   37.59    2.27 
   1   1   1   64.35    2.72 
   1   1   1   61.30    2.72 
   1   1   1   58.63    2.72 
  -2  -1  -1   30.38    1.30 
   2   1   1   31.95    1.30 
   2   1   1   26.27    1.30 
   2   1   1   29.95    1.31 
   2   1   1   27.61    1.30 
  -3  -1  -1    0.72    0.10 
   3   1   1    0.60    0.08 
   3   1   1    0.64    0.06 
   3   1   1    0.73    0.06 
  -4  -1  -1    2.01    0.13 
   4   1   1    1.72    0.13 
   4   1   1    2.06    0.10 
   4   1   1    1.89    0.12 
   5   1   1    5.29    0.24 
   5   1   1    4.98    0.24 
   5  -2  -1    1.16    0.06 
   5  -2  -1    1.02    0.07 
   5  -2  -1    1.08    0.07 
   5  -2  -1    0.98    0.07 
   4  -2  -1   68.02    3.12 
   4  -2  -1   69.57    3.11 
   4  -2  -1   75.34    3.13 
   4  -2  -1   72.00    3.12 
   4  -2  -1   74.38    3.12 
  -4   2   1   62.73    3.12 
   3  -2  -1   34.48    1.51 
   3  -2  -1   32.87    1.51 
  -3   2   1   34.23    1.51 
   2  -2  -1    1.05    0.07 
  -2   2   1    1.09    0.06 
   1  -2  -1    5.51    0.28 
  -1   2   1    6.32    0.28 
  -1   2   1    6.51    0.28 
   0  -2  -1  136.15    6.22 
   0   2   1  139.35    6.23 
   0   2   1  136.02    6.23 
   0   2   1  150.21    6.22 
  -1  -2  -1    2.97    0.14 
   1   2   1    2.94    0.14 
   1   2   1    3.17    0.15 
   1   2   1    3.06    0.14 
  -2  -2  -1    2.08    0.11 
   2   2   1    2.03    0.11 
   2   2   1    2.15    0.12 
   2   2   1    2.09    0.11 
   3   2   1    1.86    0.13 
   4  -3  -1    7.40    0.35 
   4  -3  -1    7.32    0.34 
   4  -3  -1    7.70    0.34 
   4  -3  -1    7.51    0.34 
  -4   3   1    7.17    0.35 
   3  -3  -1    0.58    0.06 
   3  -3  -1    0.51    0.05 
   3  -3  -1    0.54    0.07 
  -3   3   1    0.47    0.07 
   2  -3  -1    0.20    0.06 
  -2   3   1    0.19    0.04 
  -2   3   1    0.16    0.07 
  -1   3   1   16.32    0.73 
   0  -3  -1   15.27    0.68 
   0   3   1   14.45    0.69 
   0   3   1   15.48    0.67 
  -1  -3  -1   11.52    0.52 
   1   3   1   11.59    0.53 
   1   3   1   11.41    0.52 
  -2  -3  -1   17.96    0.82 
   2   3   1   17.65    0.81 
   2   3   1   18.58    0.83 
  -3  -3  -1    1.57    0.12 
   3   3   1    1.69    0.14 
   3   3   1    1.89    0.13 
   3   3   1    1.84    0.13 
   4  -4  -1    0.86    0.06 
   3  -4  -1    2.64    0.14 
   3  -4  -1    2.80    0.14 
  -3   4   1    2.80    0.16 
   2  -4  -1    0.44    0.05 
   2  -4  -1    0.42    0.08 
  -2   4   1    0.43    0.08 
  -2   4   1    0.36    0.07 
   1  -4  -1    0.34    0.08 
  -1   4   1    0.15    0.06 
   0  -4  -1    0.54    0.07 
   0   4   1    0.50    0.07 
   0   4   1    0.32    0.07 
  -1  -4  -1   10.27    0.47 
   1   4   1   10.07    0.47 
   1   4   1    9.89    0.48 
  -2  -4  -1    3.78    0.20 
   2   4   1    4.16    0.21 
   2   4   1    3.95    0.21 
   2   4   1    3.85    0.21 
   2   4   1    3.77    0.22 
   3   4   1   31.97    1.39 
   3   4   1   30.74    1.38 
   3   4   1   30.50    1.39 
   3   4   1   29.66    1.38 
   3   4   1   31.86    1.39 
   4   4   1    6.53    0.31 
   4   4   1    6.55    0.33 
   4   4   1    6.67    0.32 
   3  -5  -1    1.16    0.07 
   2  -5  -1    3.25    0.17 
   2  -5  -1    2.94    0.15 
   1  -5  -1    1.57    0.14 
   1  -5  -1    1.81    0.12 
   1  -5  -1    1.53    0.10 
  -1   5   1    1.60    0.12 
   0  -5  -1    3.59    0.19 
   0  -5  -1    4.10    0.22 
   0  -5  -1    4.15    0.21 
   0   5   1    4.10    0.21 
   0   5   1    3.99    0.21 
   0   5   1    4.13    0.22 
  -1  -5  -1    4.92    0.25 
  -1  -5  -1    5.25    0.25 
   1   5   1    4.83    0.26 
   1   5   1    5.04    0.25 
   1   5   1    4.99    0.26 
   1   5   1    5.23    0.25 
  -2  -5  -1   20.98    0.95 
   2   5   1   21.14    0.95 
   2   5   1   20.91    0.94 
   2   5   1   21.12    0.95 
   2   5   1   20.93    0.95 
   2   5   1   21.07    0.95 
   2   5   1   20.52    0.95 
   2   5   1   20.89    0.94 
  -3  -5  -1    0.08    0.05 
   3   5   1    0.12    0.06 
   3   5   1    0.10    0.05 
   3   5   1    0.10    0.05 
   3   5   1    0.12    0.06 
   3   5   1    0.09    0.05 
   3   5   1    0.14    0.07 
   4   5   1    0.02    0.04 
   4   5   1    0.02    0.05 
   4   5   1    0.04    0.05 
   1  -6  -1    1.74    0.10 
   1  -6  -1    2.05    0.11 
  -1   6   1    1.95    0.11 
   0  -6  -1    2.81    0.15 
   0  -6  -1    2.76    0.16 
   0   6   1    2.82    0.15 
   0   6   1    2.83    0.15 
  -1  -6  -1    0.17    0.05 
  -1  -6  -1    0.23    0.04 
   1   6   1    0.28    0.06 
   1   6   1    0.31    0.06 
  -2  -6  -1    0.39    0.04 
   2   6   1    0.50    0.05 
   2   6   1    0.28    0.04 
   2   6   1    0.41    0.08 
   2   6   1    0.40    0.04 
   2   6   1    0.53    0.06 
   2   6   1    0.47    0.06 
   3   6   1    1.39    0.08 
   3   6   1    1.25    0.09 
   3   6  -2    1.10    0.08 
   2   6  -2    0.77    0.06 
   2   6  -2    0.77    0.08 
   2   6  -2    0.79    0.07 
   2   6  -2    0.71    0.07 
   2   6  -2    0.80    0.08 
   1   6  -2    2.16    0.13 
   1   6  -2    2.22    0.12 
  -1  -6   2    2.14    0.12 
  -1  -6   2    2.28    0.13 
   0   6  -2    1.62    0.11 
   0  -6   2    1.68    0.10 
   0  -6   2    1.63    0.11 
   1  -6   2    0.15    0.03 
   4   5  -2    0.44    0.05 
   4   5  -2    0.48    0.06 
   4   5  -2    0.45    0.06 
   3   5  -2    4.23    0.22 
   3   5  -2    4.14    0.21 
   3   5  -2    3.94    0.20 
   3   5  -2    3.85    0.21 
   2   5  -2    7.87    0.38 
   2   5  -2    7.88    0.38 
   2   5  -2    7.88    0.37 
   2   5  -2    7.67    0.37 
   2   5  -2    7.97    0.37 
   2   5  -2    7.96    0.38 
   2   5  -2    7.72    0.38 
  -2  -5   2    7.64    0.37 
  -2  -5   2    7.99    0.37 
   1   5  -2    0.45    0.08 
   1   5  -2    0.44    0.06 
   1   5  -2    0.41    0.06 
   1   5  -2    0.80    0.07 
   1   5  -2    0.53    0.08 
  -1  -5   2    0.59    0.07 
  -1  -5   2    0.52    0.06 
   0   5  -2    0.41    0.07 
   0   5  -2    0.77    0.08 
   0  -5   2    0.56    0.06 
   0  -5   2    0.45    0.07 
  -1   5  -2    9.16    0.44 
   1  -5   2    9.48    0.44 
   1  -5   2    9.66    0.45 
  -2   5  -2    5.99    0.28 
   2  -5   2    5.55    0.30 
   2  -5   2    5.61    0.27 
   2  -5   2    6.08    0.28 
   4   4  -2    9.37    0.44 
   4   4  -2    9.64    0.45 
   3   4  -2    2.05    0.15 
   3   4  -2    2.13    0.14 
   3   4  -2    2.12    0.14 
   3   4  -2    2.13    0.15 
   2   4  -2    0.36    0.06 
   2   4  -2    0.34    0.07 
   2   4  -2    0.46    0.07 
   2   4  -2    0.53    0.07 
   2   4  -2    0.44    0.09 
  -2  -4   2    0.68    0.08 
   1   4  -2   21.85    1.10 
   1   4  -2   24.56    1.10 
   1   4  -2   24.99    1.10 
   1   4  -2   25.03    1.11 
  -1  -4   2   25.76    1.10 
  -1  -4   2   24.37    1.10 
   0   4  -2    0.13    0.05 
   0   4  -2    0.14    0.06 
   0   4  -2    0.17    0.08 
   0  -4   2    0.12    0.05 
  -1   4  -2    0.45    0.10 
  -1   4  -2    0.81    0.10 
  -1   4  -2    0.71    0.07 
   1  -4   2    0.85    0.10 
  -2   4  -2    1.80    0.12 
   2  -4   2    1.78    0.13 
   2  -4   2    1.57    0.10 
   2  -4   2    1.64    0.15 
  -3   4  -2    2.65    0.15 
   3  -4   2    2.58    0.13 
   3  -4   2    2.58    0.16 
   3   3  -2    2.55    0.15 
   3   3  -2    2.66    0.15 
  -3  -3   2    2.44    0.15 
   2   3  -2   35.98    1.60 
   2   3  -2   35.15    1.59 
   1   3  -2    0.18    0.04 
   1   3  -2    0.13    0.03 
   0   3  -2    3.40    0.17 
   0   3  -2    3.40    0.18 
  -1   3  -2    0.62    0.07 
  -2   3  -2    1.66    0.13 
  -2   3  -2    2.14    0.12 
   2  -3   2    1.81    0.14 
   2  -3   2    1.81    0.12 
  -3   3  -2    4.58    0.25 
   3  -3   2    4.63    0.23 
   3  -3   2    4.28    0.31 
   3  -3   2    4.81    0.23 
   3  -3   2    5.18    0.24 
   3  -3   2    5.17    0.25 
  -4   3  -2    4.74    0.23 
   4  -3   2    4.53    0.21 
   4  -3   2    4.04    0.23 
   4  -3   2    4.73    0.21 
   4  -3   2    4.35    0.21 
   2   2  -2    3.57    0.18 
   2   2  -2    3.46    0.17 
   1   2  -2    0.22    0.03 
   1   2  -2    0.19    0.03 
   0   2  -2   59.13    2.68 
   0   2  -2   61.90    2.69 
  -1   2  -2  181.27    7.51 
  -1   2  -2  166.51    7.50 
   1  -2   2  160.95    7.50 
  -2   2  -2   12.68    0.55 
  -2   2  -2   11.53    0.56 
   2  -2   2   12.74    0.56 
  -3   2  -2    2.41    0.15 
  -3   2  -2    2.85    0.14 
   3  -2   2    2.26    0.18 
   3  -2   2    2.78    0.15 
   3  -2   2    2.87    0.15 
  -4   2  -2    0.68    0.08 
   4  -2   2    0.69    0.07 
   4  -2   2    0.76    0.08 
   4  -2   2    0.81    0.06 
   4  -2   2    0.77    0.05 
   4  -2   2    0.55    0.10 
   4  -2   2    0.62    0.06 
   5  -2   2    0.05    0.03 
   5  -2   2    0.00    0.03 
   5  -2   2    0.04    0.03 
   5  -2   2   -0.01    0.02 
   3   1  -2   11.69    0.53 
   2   1  -2    6.91    0.33 
   2   1  -2    6.77    0.33 
   2   1  -2    7.78    0.34 
   2   1  -2    7.55    0.33 
   1   1  -2   27.55    1.22 
   1   1  -2   27.11    1.21 
   0   1  -2  173.85    7.72 
  -1   1  -2    6.04    0.32 
  -1   1  -2    7.88    0.32 
   1  -1   2    7.35    0.32 
   1  -1   2    6.94    0.32 
  -2   1  -2    3.93    0.19 
  -2   1  -2    3.53    0.18 
   2  -1   2    4.01    0.18 
   2  -1   2    4.04    0.18 
  -3   1  -2    0.01    0.04 
   3  -1   2    0.01    0.04 
   4  -1   2   19.32    0.87 
   4  -1   2   20.94    0.87 
   4  -1   2   18.16    0.87 
   4  -1   2   19.26    0.87 
   5  -1   2   31.99    1.45 
   5  -1   2   34.52    1.45 
   5  -1   2   32.13    1.45 
   5  -1   2   32.08    1.45 
   5   0  -2    6.03    0.28 
   5   0  -2    6.01    0.28 
   5   0  -2    5.74    0.27 
   4   0  -2    0.86    0.09 
   4   0  -2    0.81    0.09 
   4   0  -2    1.04    0.07 
   4   0  -2    0.94    0.08 
   3   0  -2   16.21    0.72 
  -3   0   2   15.71    0.72 
   2   0  -2   13.48    0.60 
   2   0  -2   13.95    0.60 
  -2   0   2   12.54    0.59 
   1   0  -2    1.83    0.09 
   0   0  -2   84.31    4.65 
   0   0  -2   87.55    4.58 
   0   0   2   88.26    4.75 
   0   0   2   88.61    4.64 
  -1   0  -2    4.41    0.20 
   1   0   2    3.95    0.19 
   1   0   2    3.96    0.19 
   1   0   2    4.71    0.20 
  -2   0  -2    2.57    0.13 
   2   0   2    2.50    0.12 
   2   0   2    2.43    0.12 
   3   0   2    8.59    0.40 
   3   0   2    8.68    0.40 
   4   0   2    0.86    0.07 
   4   0   2    0.82    0.08 
   4   0   2    0.94    0.06 
   4   0   2    0.75    0.08 
   5   0   2   13.02    0.60 
   5   0   2   13.66    0.60 
   5   0   2   13.62    0.60 
   5   0   2   13.33    0.60 
   5  -1  -2    0.58    0.07 
   5  -1  -2    0.67    0.05 
   5  -1  -2    0.53    0.05 
   5  -1  -2    0.60    0.06 
  -5   1   2    0.55    0.07 
   4  -1  -2    8.88    0.40 
   4  -1  -2    8.39    0.38 
   4  -1  -2    7.81    0.39 
   4  -1  -2    7.44    0.41 
   4  -1  -2    8.91    0.39 
   3  -1  -2    0.13    0.04 
  -3   1   2    0.13    0.04 
   2  -1  -2    0.60    0.05 
  -2   1   2    0.59    0.04 
   1  -1  -2    0.10    0.02 
  -1   1   2    0.07    0.02 
   0  -1  -2  399.29   30.06 
   0  -1  -2  356.75   31.29 
   0   1   2  357.10   18.30 
   0   1   2  370.43   26.29 
  -1  -1  -2  208.64    9.28 
   1   1   2  210.11    9.31 
   1   1   2  210.06    9.28 
   1   1   2  209.52    9.28 
  -2  -1  -2   51.15    2.28 
   2   1   2   46.67    2.28 
   2   1   2   54.56    2.28 
   2   1   2   54.88    2.29 
   2   1   2   49.68    2.28 
  -3  -1  -2    5.68    0.28 
   3   1   2    5.41    0.27 
   3   1   2    5.76    0.28 
   3   1   2    6.01    0.27 
   4   1   2   18.35    0.81 
   4   1   2   18.48    0.81 
   4   1   2   17.77    0.82 
   5   1   2   11.11    0.52 
   5   1   2   11.97    0.52 
   5  -2  -2    1.31    0.07 
   5  -2  -2    1.30    0.08 
   5  -2  -2    1.40    0.08 
   4  -2  -2    4.51    0.24 
   4  -2  -2    5.25    0.25 
   4  -2  -2    4.90    0.24 
   4  -2  -2    4.75    0.23 
   4  -2  -2    5.11    0.24 
   3  -2  -2   19.74    0.89 
   3  -2  -2   18.74    0.89 
  -3   2   2   20.61    0.88 
   2  -2  -2    0.12    0.03 
  -2   2   2    0.11    0.03 
   1  -2  -2    3.28    0.16 
  -1   2   2    3.44    0.16 
   0  -2  -2   35.99    1.61 
   0   2   2   38.00    1.61 
   0   2   2   35.20    1.62 
  -1  -2  -2   14.37    0.66 
   1   2   2   15.42    0.66 
   1   2   2   14.78    0.66 
   1   2   2   14.61    0.67 
  -2  -2  -2   16.15    0.73 
   2   2   2   16.72    0.74 
   2   2   2   15.40    0.73 
   2   2   2   16.58    0.73 
   3   2   2   17.36    0.77 
   3   2   2   16.97    0.81 
   3   2   2   16.98    0.79 
   4  -3  -2    1.51    0.11 
   4  -3  -2    1.52    0.09 
   4  -3  -2    1.35    0.09 
   4  -3  -2    1.38    0.09 
  -4   3   2    1.80    0.12 
   3  -3  -2    0.12    0.05 
   3  -3  -2    0.11    0.04 
   2  -3  -2    2.63    0.15 
  -2   3   2    2.67    0.13 
  -2   3   2    2.33    0.16 
   0  -3  -2    4.51    0.21 
   0   3   2    4.27    0.22 
   0   3   2    4.46    0.20 
  -1  -3  -2    1.35    0.08 
   1   3   2    1.27    0.08 
   1   3   2    1.34    0.09 
   1   3   2    1.34    0.08 
  -2  -3  -2    9.57    0.45 
   2   3   2    9.76    0.46 
   2   3   2    9.75    0.45 
  -3  -3  -2    4.00    0.20 
   3   3   2    3.66    0.22 
   3   3   2    3.92    0.21 
   3   3   2    4.02    0.21 
   4   3   2    2.85    0.23 
   4  -4  -2    3.75    0.18 
   3  -4  -2    0.45    0.05 
   3  -4  -2    0.44    0.04 
  -3   4   2    0.38    0.07 
   2  -4  -2    0.20    0.04 
   2  -4  -2    0.27    0.07 
  -2   4   2    0.19    0.06 
  -2   4   2    0.28    0.07 
   1  -4  -2    1.59    0.12 
  -1   4   2    1.62    0.12 
   0  -4  -2    2.46    0.13 
   0   4   2    2.34    0.14 
   0   4   2    2.22    0.15 
  -1  -4  -2    1.58    0.11 
   1   4   2    1.58    0.11 
   1   4   2    1.57    0.13 
  -2  -4  -2   -0.03    0.05 
   2   4   2    0.03    0.07 
   2   4   2    0.19    0.06 
   2   4   2    0.00    0.06 
   3   4   2    0.20    0.08 
   3   4   2    0.19    0.05 
   3   4   2    0.15    0.06 
   3   4   2    0.18    0.07 
   3   4   2    0.21    0.07 
   4   4   2    2.32    0.16 
   4   4   2    2.37    0.17 
   4   4   2    2.37    0.15 
   4   4   2    2.90    0.17 
   3  -5  -2    6.04    0.27 
   2  -5  -2    2.21    0.14 
   2  -5  -2    2.24    0.12 
  -2   5   2    2.23    0.13 
   1  -5  -2    4.51    0.22 
   1  -5  -2    4.08    0.20 
   1  -5  -2    4.31    0.24 
  -1   5   2    4.28    0.22 
   0  -5  -2    0.88    0.07 
   0  -5  -2    0.99    0.09 
   0  -5  -2    1.06    0.11 
   0   5   2    0.95    0.10 
   0   5   2    0.82    0.09 
   0   5   2    0.97    0.10 
  -1  -5  -2    2.18    0.13 
   1   5   2    2.12    0.14 
   1   5   2    2.09    0.13 
   1   5   2    2.17    0.15 
   1   5   2    1.97    0.13 
  -2  -5  -2    2.46    0.15 
   2   5   2    2.32    0.15 
   2   5   2    2.43    0.17 
   2   5   2    2.55    0.14 
   2   5   2    2.41    0.16 
   2   5   2    2.26    0.17 
   2   5   2    2.89    0.18 
   2   5   2    2.46    0.14 
   3   5   2    2.39    0.13 
   3   5   2    2.25    0.13 
   3   5   2    2.25    0.14 
   3   5   2    2.10    0.14 
   3   5   2    2.25    0.15 
   4   5   2    3.18    0.17 
   4   5   2    3.48    0.18 
   4   5   2    3.45    0.17 
   1  -6  -2    2.25    0.12 
   1  -6  -2    2.38    0.13 
  -1   6   2    2.46    0.13 
   0  -6  -2   11.47    0.50 
   0  -6  -2   11.27    0.49 
   0  -6  -2    9.68    0.48 
   0   6   2   11.03    0.49 
   0   6   2   10.55    0.49 
  -1  -6  -2    0.87    0.09 
  -1  -6  -2    0.92    0.07 
   1   6   2    0.85    0.09 
   1   6   2    0.84    0.09 
   1   6   2    0.84    0.08 
  -2  -6  -2    4.37    0.21 
  -2  -6  -2    4.47    0.22 
   2   6   2    4.49    0.21 
   2   6   2    4.15    0.21 
   2   6   2    4.33    0.21 
   2   6   2    4.41    0.22 
   3   6   2    0.26    0.03 
   3   6   2    0.31    0.06 
   2   6  -3    0.00    0.04 
   2   6  -3    0.00    0.03 
   2   6  -3    0.03    0.04 
   2   6  -3    0.03    0.04 
   2   6  -3    0.00    0.05 
   1   6  -3    0.13    0.05 
   1   6  -3    0.12    0.04 
  -1  -6   3    0.06    0.03 
  -1  -6   3    0.06    0.05 
   0   6  -3    0.00    0.05 
   0  -6   3    0.00    0.03 
   0  -6   3    0.00    0.05 
   1  -6   3    4.78    0.22 
   4   5  -3    6.87    0.34 
   4   5  -3    7.08    0.33 
   4   5  -3    7.10    0.32 
   3   5  -3    1.30    0.11 
   3   5  -3    1.19    0.11 
   3   5  -3    1.24    0.10 
   3   5  -3    1.30    0.10 
   3   5  -3    1.25    0.11 
   2   5  -3    1.62    0.11 
   2   5  -3    1.51    0.11 
   2   5  -3    1.41    0.13 
   2   5  -3    1.56    0.11 
   2   5  -3    1.52    0.12 
   2   5  -3    1.50    0.12 
  -2  -5   3    1.40    0.11 
   1   5  -3   21.07    0.92 
   1   5  -3   20.50    0.92 
   1   5  -3   21.27    0.93 
   1   5  -3   20.55    0.92 
  -1  -5   3   19.70    0.92 
  -1  -5   3   19.91    0.93 
   0   5  -3   24.57    1.08 
   0  -5   3   23.38    1.07 
   0  -5   3   23.94    1.08 
  -1   5  -3    0.49    0.07 
  -1   5  -3    0.48    0.07 
   1  -5   3    0.32    0.08 
   1  -5   3    0.38    0.06 
  -2   5  -3    0.06    0.05 
   2  -5   3    0.07    0.05 
   2  -5   3    0.09    0.08 
   4   4  -3    8.31    0.39 
   4   4  -3    8.22    0.39 
   3   4  -3    0.40    0.06 
   3   4  -3    0.34    0.06 
   3   4  -3    0.44    0.08 
   3   4  -3    0.54    0.08 
   3   4  -3    0.34    0.07 
   2   4  -3    0.08    0.05 
   2   4  -3    0.10    0.06 
   2   4  -3    0.08    0.07 
   2   4  -3    0.10    0.05 
   2   4  -3    0.07    0.07 
   2   4  -3    0.10    0.06 
   2   4  -3    0.09    0.06 
   2   4  -3    0.08    0.06 
  -2  -4   3    0.07    0.06 
  -2  -4   3    0.13    0.06 
   1   4  -3   56.45    2.50 
   1   4  -3   56.71    2.49 
   1   4  -3   52.85    2.48 
   1   4  -3   56.32    2.49 
  -1  -4   3   58.71    2.49 
  -1  -4   3   54.36    2.49 
   0   4  -3    7.83    0.37 
   0   4  -3    7.73    0.37 
   0   4  -3    8.03    0.39 
   0  -4   3    8.10    0.37 
  -1   4  -3    3.00    0.16 
  -1   4  -3    2.48    0.17 
   1  -4   3    2.74    0.16 
   1  -4   3    2.76    0.17 
  -2   4  -3    4.95    0.25 
   2  -4   3    4.78    0.25 
   2  -4   3    5.09    0.27 
   2  -4   3    4.52    0.23 
  -3   4  -3    3.95    0.20 
   3  -4   3    3.90    0.23 
   3  -4   3    4.08    0.21 
   3  -4   3    3.67    0.19 
   3   3  -3   44.68    2.05 
   3   3  -3   47.22    2.05 
   2   3  -3   11.74    0.55 
   2   3  -3   11.72    0.54 
   1   3  -3   43.93    1.98 
   1   3  -3   45.13    1.99 
   0   3  -3   10.28    0.48 
  -1   3  -3    1.19    0.09 
  -2   3  -3    1.46    0.11 
   2  -3   3    1.37    0.12 
  -3   3  -3    0.24    0.06 
   3  -3   3    0.19    0.10 
   3  -3   3    0.22    0.07 
   3  -3   3    0.19    0.05 
   3  -3   3    0.12    0.05 
   4  -3   3    0.15    0.04 
   4  -3   3    0.12    0.06 
   4  -3   3    0.19    0.03 
   2   2  -3    0.98    0.08 
   2   2  -3    0.93    0.07 
   1   2  -3   12.15    0.53 
   1   2  -3   11.30    0.53 
   0   2  -3    0.77    0.05 
   0   2  -3    0.64    0.05 
  -1   2  -3   47.36    2.00 
  -1   2  -3   45.36    1.99 
   1  -2   3   42.42    2.00 
  -2   2  -3   13.15    0.59 
  -2   2  -3   12.79    0.58 
   2  -2   3   12.65    0.58 
  -3   2  -3    0.21    0.05 
  -3   2  -3    0.09    0.05 
   3  -2   3    0.23    0.06 
   3  -2   3    0.19    0.05 
   3  -2   3    0.20    0.09 
  -4   2  -3    0.42    0.08 
   4  -2   3    0.37    0.08 
   4  -2   3    0.46    0.07 
   4  -2   3    0.38    0.04 
   4  -2   3    0.34    0.05 
   4  -2   3    0.38    0.05 
   4  -2   3    0.38    0.05 
   5  -2   3    2.84    0.14 
   5  -2   3    2.83    0.14 
   5  -2   3    3.01    0.14 
   5  -2   3    2.72    0.13 
   3   1  -3    3.52    0.17 
   2   1  -3    4.46    0.21 
   2   1  -3    4.76    0.22 
   1   1  -3   54.82    2.39 
   1   1  -3   52.67    2.39 
  -1  -1   3   53.91    2.38 
   0   1  -3   51.88    2.30 
  -1   1  -3    6.65    0.34 
  -1   1  -3    8.26    0.35 
   1  -1   3    7.76    0.35 
   1  -1   3    8.09    0.35 
  -2   1  -3    0.86    0.06 
  -2   1  -3    1.07    0.07 
   2  -1   3    1.03    0.06 
   2  -1   3    0.98    0.06 
  -3   1  -3    9.09    0.42 
   3  -1   3    9.01    0.44 
   3  -1   3    9.22    0.42 
   3  -1   3    9.13    0.42 
   4  -1   3   19.67    0.89 
   4  -1   3   21.39    0.90 
   4  -1   3   19.59    0.89 
   4  -1   3   19.65    0.89 
   4  -1   3   19.38    0.89 
   5  -1   3   19.11    0.90 
   5  -1   3   20.05    0.91 
   5  -1   3   22.41    0.91 
   5  -1   3   19.79    0.91 
   5   0  -3    1.14    0.08 
   5   0  -3    1.02    0.08 
   4   0  -3    7.41    0.33 
   4   0  -3    7.42    0.34 
   4   0  -3    6.01    0.32 
   4   0  -3    7.06    0.33 
   3   0  -3   13.45    0.60 
  -3   0   3   13.30    0.60 
   2   0  -3   65.65    2.76 
  -2   0   3   58.84    2.76 
   1   0  -3    9.84    0.44 
   1   0  -3   10.09    0.45 
   0   0  -3    3.44    0.33 
   0   0  -3    3.41    0.33 
   0   0   3    3.50    0.34 
   0   0   3    3.50    0.33 
  -1   0  -3   14.87    0.66 
   1   0   3   13.82    0.66 
   1   0   3   13.80    0.66 
   1   0   3   16.31    0.66 
  -2   0  -3    1.11    0.07 
   2   0   3    1.05    0.06 
   2   0   3    1.08    0.06 
  -3   0  -3    0.53    0.08 
   3   0   3    0.50    0.06 
   3   0   3    0.52    0.06 
   4   0   3    0.25    0.05 
   4   0   3    0.36    0.04 
   4   0   3    0.29    0.05 
   4   0   3    0.32    0.05 
   4   0   3    0.24    0.07 
   5  -1  -3    0.62    0.06 
   5  -1  -3    0.53    0.05 
   5  -1  -3    0.56    0.05 
   5  -1  -3    0.55    0.06 
  -5   1   3    0.82    0.10 
   4  -1  -3    9.54    0.44 
   4  -1  -3    9.64    0.43 
   4  -1  -3    9.50    0.43 
   4  -1  -3    8.93    0.43 
   3  -1  -3    6.76    0.32 
  -3   1   3    6.82    0.31 
   2  -1  -3   14.26    0.65 
  -2   1   3   14.64    0.65 
   1  -1  -3    8.98    0.38 
   1  -1  -3    8.14    0.38 
  -1   1   3    8.24    0.38 
   0  -1  -3    0.32    0.03 
   0   1   3    0.37    0.03 
  -1  -1  -3 1000.00   43.87 
   1   1   3  969.62   44.24 
   1   1   3  984.68   43.79 
  -2  -1  -3    0.46    0.04 
   2   1   3    0.45    0.05 
   2   1   3    0.46    0.04 
   2   1   3    0.41    0.04 
  -3  -1  -3    2.65    0.15 
   3   1   3    2.31    0.13 
   3   1   3    2.64    0.13 
   3   1   3    2.47    0.15 
   4   1   3    1.79    0.10 
   4   1   3    1.78    0.13 
   4   1   3    1.63    0.10 
   4   1   3    1.75    0.21 
   4   1   3    1.78    0.10 
   5   1   3    1.62    0.09 
   5   1   3    1.57    0.09 
   5   1   3    1.43    0.08 
   5  -2  -3    0.32    0.03 
   5  -2  -3    0.40    0.04 
   5  -2  -3    0.38    0.04 
   4  -2  -3    8.43    0.39 
   4  -2  -3    8.27    0.38 
   4  -2  -3    7.89    0.38 
   4  -2  -3    8.04    0.37 
   3  -2  -3    5.90    0.28 
   3  -2  -3    5.47    0.29 
  -3   2   3    6.12    0.28 
   2  -2  -3    4.50    0.22 
  -2   2   3    4.81    0.22 
  -1   2   3    0.01    0.02 
   0  -2  -3   43.62    1.90 
   0   2   3   41.93    1.91 
   0   2   3   43.15    1.90 
  -1  -2  -3   43.07    1.89 
   1   2   3   41.69    1.90 
   1   2   3   42.89    1.89 
  -2  -2  -3    8.67    0.39 
   2   2   3    8.64    0.40 
   2   2   3    8.40    0.39 
  -3  -2  -3    3.43    0.20 
   3   2   3    3.85    0.20 
   3   2   3    3.48    0.20 
   3   2   3    3.48    0.18 
   4   2   3    2.45    0.16 
   4   2   3    2.21    0.15 
   4   2   3    2.39    0.12 
   4  -3  -3    3.84    0.19 
   4  -3  -3    3.74    0.17 
   4  -3  -3    3.66    0.18 
   4  -3  -3    3.11    0.17 
  -4   3   3    3.67    0.19 
   3  -3  -3   39.90    1.75 
   3  -3  -3   39.18    1.74 
   3  -3  -3   41.47    1.74 
  -3   3   3   36.32    1.75 
   2  -3  -3   11.74    0.55 
  -2   3   3   12.18    0.54 
  -1   3   3    0.94    0.06 
   0  -3  -3   10.28    0.45 
   0   3   3    9.45    0.45 
   0   3   3    9.79    0.44 
  -1  -3  -3   70.50    3.07 
   1   3   3   68.67    3.08 
   1   3   3   68.73    3.07 
  -2  -3  -3    4.40    0.22 
   2   3   3    4.58    0.23 
   2   3   3    4.39    0.22 
  -3  -3  -3    0.04    0.05 
   3   3   3    0.05    0.07 
   3   3   3    0.00    0.07 
   3   3   3    0.06    0.06 
   4   3   3    2.29    0.16 
   4   3   3    2.33    0.14 
   4   3   3    2.41    0.16 
   3  -4  -3    0.18    0.04 
   3  -4  -3    0.17    0.04 
   2  -4  -3    0.38    0.05 
   2  -4  -3    0.45    0.05 
  -2   4   3    0.30    0.07 
  -2   4   3    0.37    0.07 
   1  -4  -3   12.60    0.58 
  -1   4   3   12.49    0.57 
   0  -4  -3    2.03    0.12 
   0   4   3    1.91    0.14 
   0   4   3    1.98    0.13 
  -1  -4  -3    2.21    0.13 
   1   4   3    2.15    0.13 
   1   4   3    2.24    0.15 
  -2  -4  -3    4.89    0.25 
   2   4   3    4.84    0.27 
   2   4   3    4.87    0.25 
   2   4   3    5.07    0.25 
   3   4   3   19.64    0.91 
   3   4   3   20.10    0.90 
   3   4   3   19.96    0.90 
   3   4   3   20.64    0.91 
   3   4   3   19.44    0.90 
   4   4   3    0.48    0.06 
   4   4   3    0.41    0.09 
   4   4   3    0.48    0.08 
   4   4   3    0.60    0.09 
   4   4   3    0.45    0.07 
   3  -5  -3    0.26    0.03 
   2  -5  -3    0.01    0.08 
   2  -5  -3    0.05    0.04 
  -2   5   3    0.04    0.06 
   1  -5  -3    1.62    0.12 
   1  -5  -3    1.50    0.09 
  -1   5   3    1.60    0.11 
  -1   5   3    1.50    0.12 
   0  -5  -3    0.69    0.05 
   0  -5  -3    0.59    0.08 
   0  -5  -3    0.85    0.07 
   0   5   3    0.67    0.08 
   0   5   3    0.73    0.07 
   0   5   3    0.75    0.07 
  -1  -5  -3    7.81    0.36 
  -1  -5  -3    7.31    0.35 
   1   5   3    7.30    0.35 
   1   5   3    7.81    0.37 
   1   5   3    7.62    0.37 
   1   5   3    7.55    0.36 
   1   5   3    7.85    0.36 
  -2  -5  -3    0.40    0.07 
   2   5   3    0.26    0.07 
   2   5   3    0.30    0.06 
   2   5   3    0.28    0.08 
   2   5   3    0.39    0.06 
   2   5   3    0.45    0.08 
   2   5   3    0.34    0.07 
   3   5   3    8.73    0.41 
   3   5   3    8.55    0.40 
   3   5   3    8.87    0.40 
   3   5   3    8.71    0.41 
   3   5   3    8.68    0.41 
   4   5   3    0.91    0.09 
   4   5   3    1.09    0.10 
   4   5   3    1.02    0.08 
   1  -6  -3    0.65    0.05 
   1  -6  -3    0.67    0.07 
  -1   6   3    0.69    0.07 
   0  -6  -3    0.71    0.06 
   0  -6  -3    0.97    0.10 
   0  -6  -3    0.73    0.07 
   0   6   3    0.82    0.08 
   0   6   3    0.86    0.08 
  -1  -6  -3    0.56    0.07 
  -1  -6  -3    0.38    0.05 
   1   6   3    0.45    0.06 
   1   6   3    0.36    0.05 
   1   6   3    0.46    0.06 
  -2  -6  -3    8.84    0.40 
  -2  -6  -3    8.99    0.42 
   2   6   3    8.87    0.40 
   2   6   3    9.07    0.43 
   2   6   3    8.58    0.40 
   2   6   3    8.45    0.40 
   2   6   3    8.76    0.40 
   3   6   3   11.68    0.53 
   2   6  -4    0.56    0.06 
   2   6  -4    0.60    0.06 
   2   6  -4    0.72    0.06 
   2   6  -4    0.65    0.06 
   1   6  -4    0.62    0.06 
   1   6  -4    0.59    0.06 
   1   6  -4    0.63    0.06 
  -1  -6   4    0.57    0.06 
  -1  -6   4    0.33    0.07 
   0   6  -4    3.67    0.18 
   0  -6   4    3.86    0.22 
   0  -6   4    3.10    0.17 
   1  -6   4    0.11    0.03 
   4   5  -4    0.06    0.05 
   3   5  -4    0.58    0.06 
   3   5  -4    0.77    0.07 
   3   5  -4    0.78    0.06 
   3   5  -4    0.86    0.08 
   3   5  -4    0.74    0.07 
   2   5  -4    0.22    0.06 
   2   5  -4    0.14    0.04 
   2   5  -4    0.16    0.05 
   2   5  -4    0.36    0.07 
   2   5  -4    0.20    0.05 
  -2  -5   4    0.30    0.06 
   1   5  -4   46.86    2.09 
   1   5  -4   46.94    2.09 
   1   5  -4   46.38    2.09 
   1   5  -4   48.02    2.09 
  -1  -5   4   45.93    2.08 
  -1  -5   4   47.31    2.09 
   0   5  -4    1.41    0.11 
   0  -5   4    1.32    0.10 
   0  -5   4    1.24    0.11 
  -1   5  -4    1.36    0.11 
   1  -5   4    1.29    0.10 
   1  -5   4    1.19    0.13 
  -2   5  -4    0.77    0.09 
   2  -5   4    0.77    0.08 
   2  -5   4    0.70    0.09 
   4   4  -4    0.10    0.06 
   4   4  -4    0.11    0.05 
   3   4  -4    2.91    0.16 
   3   4  -4    2.68    0.16 
   3   4  -4    2.55    0.16 
   3   4  -4    2.40    0.17 
   3   4  -4    2.71    0.17 
   2   4  -4    0.83    0.09 
   2   4  -4    0.45    0.08 
   2   4  -4    0.53    0.07 
   2   4  -4    0.79    0.07 
   2   4  -4    0.79    0.07 
   2   4  -4    0.82    0.08 
  -2  -4   4    0.75    0.10 
   1   4  -4    3.31    0.19 
   1   4  -4    3.08    0.17 
   1   4  -4    3.19    0.18 
   1   4  -4    3.08    0.17 
   1   4  -4    3.09    0.17 
  -1  -4   4    3.36    0.17 
  -1  -4   4    3.09    0.17 
   0   4  -4    0.00    0.06 
   0   4  -4    0.02    0.05 
   0   4  -4    0.00    0.06 
   0  -4   4    0.03    0.05 
  -1   4  -4    7.53    0.42 
  -1   4  -4    9.45    0.40 
   1  -4   4    8.80    0.41 
   1  -4   4    8.40    0.40 
  -2   4  -4    3.84    0.19 
   2  -4   4    3.55    0.19 
   2  -4   4    3.61    0.22 
   2  -4   4    3.25    0.18 
  -3   4  -4    3.51    0.19 
   3  -4   4    3.63    0.22 
   3  -4   4    3.59    0.17 
   3  -4   4    3.84    0.19 
   3   3  -4   14.46    0.64 
   3   3  -4   13.50    0.64 
   3   3  -4   13.92    0.64 
   2   3  -4    6.76    0.32 
   2   3  -4    6.69    0.33 
   1   3  -4   19.15    0.84 
   1   3  -4   17.75    0.83 
   0   3  -4    5.38    0.26 
  -1   3  -4    8.84    0.42 
  -2   3  -4    0.05    0.05 
  -2   3  -4    0.02    0.07 
   2  -3   4    0.05    0.07 
  -3   3  -4    0.11    0.06 
   3  -3   4    0.07    0.04 
   3  -3   4    0.12    0.04 
   3  -3   4    0.07    0.06 
   3  -3   4    0.08    0.09 
  -4   3  -4    0.23    0.06 
   4  -3   4    0.33    0.04 
   4  -3   4    0.28    0.04 
   4  -3   4    0.27    0.06 
   3   2  -4    6.09    0.30 
   2   2  -4   15.71    0.70 
   2   2  -4   14.87    0.69 
   1   2  -4   43.73    1.89 
   1   2  -4   41.12    1.89 
   0   2  -4    0.11    0.02 
   0   2  -4    0.10    0.03 
  -1   2  -4   15.90    0.68 
   1  -2   4   14.22    0.67 
  -2   2  -4    5.99    0.27 
  -2   2  -4    6.00    0.28 
   2  -2   4    5.79    0.28 
  -3   2  -4    4.18    0.23 
  -3   2  -4    4.46    0.22 
   3  -2   4    4.47    0.23 
   3  -2   4    4.75    0.25 
   3  -2   4    4.71    0.23 
  -4   2  -4    3.84    0.22 
   4  -2   4    4.13    0.19 
   4  -2   4    3.97    0.20 
   4  -2   4    4.00    0.20 
   4  -2   4    4.47    0.22 
   4  -2   4    4.05    0.20 
   5  -2   4    3.56    0.17 
   5  -2   4    4.04    0.17 
   5  -2   4    3.83    0.18 
   5  -2   4    3.41    0.17 
   3   1  -4    1.98    0.10 
  -3  -1   4    1.75    0.10 
   2   1  -4    2.06    0.11 
   2   1  -4    2.07    0.10 
  -2  -1   4    1.78    0.10 
   1   1  -4    0.01    0.02 
   1   1  -4    0.01    0.02 
  -1  -1   4    0.01    0.01 
   0   1  -4   65.41    2.82 
   0   1  -4   64.72    2.82 
   0  -1   4   60.70    2.81 
  -1   1  -4  116.04    5.12 
   1  -1   4  115.72    5.12 
   1  -1   4  115.21    5.11 
  -2   1  -4   26.96    1.32 
  -2   1  -4   31.08    1.33 
   2  -1   4   30.27    1.33 
   2  -1   4   30.87    1.33 
  -3   1  -4   28.00    1.26 
   3  -1   4   26.63    1.27 
   3  -1   4   29.64    1.26 
   3  -1   4   28.17    1.26 
   4  -1   4    0.82    0.12 
   4  -1   4    1.03    0.08 
   4  -1   4    0.83    0.07 
   4  -1   4    0.96    0.08 
   4  -1   4    0.93    0.07 
   4  -1   4    0.65    0.09 
   5  -1   4    4.97    0.22 
   5  -1   4    5.09    0.22 
   5  -1   4    4.51    0.22 
   5  -1   4    4.29    0.22 
   5   0  -4    1.60    0.10 
   5   0  -4    1.37    0.09 
   4   0  -4    1.12    0.12 
   4   0  -4    1.02    0.09 
   4   0  -4    1.12    0.10 
   3   0  -4   17.22    0.76 
  -3   0   4   16.62    0.76 
   2   0  -4   13.50    0.58 
  -2   0   4   12.55    0.58 
   1   0  -4    4.97    0.21 
   1   0  -4    4.85    0.21 
  -1   0   4    4.13    0.21 
   0   0  -4   43.69    2.32 
   0   0  -4   45.86    2.30 
   0   0   4   47.22    2.33 
   0   0   4   45.52    2.46 
  -1   0  -4  282.88   12.46 
   1   0   4  285.26   12.44 
   1   0   4  275.23   12.44 
  -2   0  -4    0.76    0.06 
   2   0   4    0.72    0.05 
   2   0   4    0.78    0.06 
  -3   0  -4   12.96    0.61 
   3   0   4   13.45    0.60 
   3   0   4   13.35    0.60 
   4   0   4    9.35    0.44 
   4   0   4   10.39    0.47 
   4   0   4    9.42    0.44 
   4   0   4    9.84    0.44 
   4   0   4    9.53    0.44 
   4   0   4    9.65    0.45 
   5   0   4   12.33    0.56 
   5   0   4   12.62    0.56 
   5   0   4   12.11    0.56 
   5   0   4   12.77    0.56 
   5  -1  -4    2.36    0.15 
   5  -1  -4    2.55    0.13 
   5  -1  -4    2.34    0.12 
   5  -1  -4    2.74    0.13 
   4  -1  -4    3.15    0.18 
   4  -1  -4    3.03    0.15 
   4  -1  -4    3.05    0.16 
   4  -1  -4    2.69    0.16 
   3  -1  -4    0.69    0.07 
  -3   1   4    0.64    0.06 
   2  -1  -4    7.47    0.35 
  -2   1   4    7.78    0.35 
   1  -1  -4   10.09    0.46 
   1  -1  -4   10.47    0.46 
  -1   1   4   10.26    0.46 
   0  -1  -4  312.29   14.28 
   0   1   4  332.87   14.27 
  -1  -1  -4   20.15    0.87 
   1   1   4   18.33    0.87 
   1   1   4   19.92    0.88 
   1   1   4   19.96    0.87 
  -2  -1  -4   36.98    1.66 
  -2  -1  -4   39.06    1.67 
   2   1   4   36.83    1.66 
   2   1   4   33.72    1.66 
   2   1   4   40.42    1.67 
  -3  -1  -4    2.08    0.13 
   3   1   4    2.13    0.12 
   3   1   4    1.87    0.13 
   4   1   4   11.70    0.52 
   4   1   4   11.61    0.51 
   4   1   4   10.61    0.51 
   4   1   4   10.98    0.51 
   4   1   4   11.78    0.54 
   5   1   4    2.84    0.14 
   5   1   4    2.79    0.14 
   5   1   4    3.00    0.14 
   5  -2  -4    0.27    0.04 
   5  -2  -4    0.21    0.03 
   5  -2  -4    0.27    0.04 
   4  -2  -4    1.11    0.08 
   4  -2  -4    1.04    0.09 
   4  -2  -4    1.06    0.09 
   4  -2  -4    1.26    0.11 
   3  -2  -4    4.18    0.23 
  -3   2   4    4.74    0.22 
   2  -2  -4   11.70    0.55 
  -2   2   4   12.56    0.55 
  -1   2   4    3.91    0.18 
   0  -2  -4    0.03    0.02 
   0   2   4    0.01    0.03 
   0   2   4    0.09    0.02 
  -1  -2  -4    2.22    0.11 
   1   2   4    2.15    0.12 
   1   2   4    2.21    0.11 
  -2  -2  -4    0.02    0.03 
   2   2   4    0.05    0.04 
   2   2   4    0.04    0.03 
  -3  -2  -4    4.88    0.27 
   3   2   4    5.10    0.25 
   3   2   4    4.97    0.27 
   3   2   4    5.58    0.26 
   4   2   4    0.89    0.10 
   4   2   4    0.75    0.07 
   4   2   4    0.77    0.06 
   4   2   4    0.68    0.05 
   5   2   4    9.36    0.42 
   4  -3  -4    3.14    0.14 
   4  -3  -4    2.79    0.16 
   4  -3  -4    2.81    0.15 
  -4   3   4    3.23    0.17 
   3  -3  -4   34.48    1.55 
   3  -3  -4   39.19    1.57 
   3  -3  -4   35.35    1.56 
   3  -3  -4   32.82    1.56 
  -3   3   4   33.25    1.57 
   2  -3  -4   21.98    1.01 
  -2   3   4   21.26    1.01 
  -2   3   4   24.17    1.01 
  -1   3   4    8.24    0.37 
   0  -3  -4   10.32    0.46 
   0   3   4    9.85    0.45 
   0   3   4   10.02    0.46 
  -1  -3  -4   12.30    0.56 
   1   3   4   12.63    0.57 
   1   3   4   12.11    0.56 
  -2  -3  -4    4.93    0.25 
   2   3   4    5.56    0.26 
   2   3   4    5.15    0.26 
   2   3   4    5.10    0.25 
  -3  -3  -4    2.27    0.14 
   3   3   4    2.21    0.16 
   3   3   4    2.51    0.15 
   3   3   4    2.13    0.16 
   4   3   4    0.60    0.07 
   4   3   4    0.46    0.08 
   4   3   4    0.57    0.09 
   4   3   4    0.59    0.05 
   3  -4  -4   12.89    0.57 
   3  -4  -4   12.66    0.57 
  -3   4   4   12.55    0.58 
   2  -4  -4    5.58    0.27 
   2  -4  -4    6.12    0.27 
  -2   4   4    5.64    0.28 
   1  -4  -4    5.91    0.34 
   1  -4  -4    6.84    0.30 
  -1   4   4    6.01    0.30 
  -1   4   4    6.91    0.31 
  -1   4   4    6.54    0.32 
   0  -4  -4    0.16    0.06 
   0   4   4    0.12    0.06 
   0   4   4    0.05    0.04 
   0   4   4    0.17    0.06 
  -1  -4  -4    0.12    0.05 
   1   4   4    0.13    0.06 
   1   4   4    0.13    0.07 
   1   4   4    0.15    0.10 
  -2  -4  -4    3.02    0.17 
   2   4   4    3.28    0.18 
   2   4   4    3.03    0.20 
   2   4   4    3.11    0.20 
   2   4   4    3.05    0.17 
   2   4   4    3.04    0.18 
   2   4   4    3.23    0.17 
   3   4   4    0.64    0.09 
   3   4   4    0.76    0.09 
   3   4   4    0.94    0.07 
   3   4   4    0.81    0.06 
   3   4   4    0.77    0.08 
   3   4   4    1.01    0.08 
   4   4   4    0.14    0.07 
   4   4   4    0.13    0.05 
   4   4   4    0.21    0.08 
   4   4   4    0.22    0.11 
   4   4   4    0.22    0.06 
   2  -5  -4    0.98    0.07 
  -2   5   4    1.02    0.09 
   1  -5  -4    0.62    0.05 
   1  -5  -4    0.49    0.07 
  -1   5   4    0.62    0.07 
  -1   5   4    0.54    0.07 
   0  -5  -4    3.12    0.18 
   0  -5  -4    3.18    0.17 
   0  -5  -4    2.97    0.15 
   0   5   4    2.97    0.17 
   0   5   4    2.98    0.17 
   0   5   4    2.83    0.16 
  -1  -5  -4    4.53    0.21 
  -1  -5  -4    4.65    0.23 
   1   5   4    4.46    0.24 
   1   5   4    4.57    0.23 
   1   5   4    4.39    0.22 
   1   5   4    4.61    0.24 
   1   5   4    4.60    0.23 
  -2  -5  -4    0.82    0.07 
   2   5   4    1.24    0.08 
   2   5   4    0.78    0.10 
   2   5   4    1.06    0.08 
   2   5   4    1.02    0.07 
   2   5   4    0.85    0.09 
   2   5   4    1.14    0.10 
   2   5   4    1.14    0.11 
   3   5   4    3.55    0.18 
   3   5   4    3.60    0.19 
   3   5   4    3.52    0.18 
   3   5   4    3.57    0.20 
   3   5   4    3.52    0.19 
   4   5   4   13.39    0.61 
   4   5   4   13.86    0.62 
   4   5   4   13.57    0.61 
   1  -6  -4    6.44    0.31 
   1  -6  -4    6.85    0.32 
  -1   6   4    7.43    0.33 
   0  -6  -4    0.63    0.05 
   0  -6  -4    0.49    0.04 
   0   6   4    0.61    0.06 
   0   6   4    0.63    0.06 
  -1  -6  -4    1.44    0.11 
  -1  -6  -4    1.57    0.09 
  -1  -6  -4    1.41    0.08 
   1   6   4    1.43    0.10 
   1   6   4    1.49    0.11 
   1   6   4    1.47    0.11 
  -2  -6  -4    4.29    0.20 
   2   6   4    4.23    0.20 
   2   6   4    4.25    0.21 
   2   6   4    4.23    0.21 
   2   6  -5    0.70    0.07 
   2   6  -5    0.68    0.06 
   2   6  -5    0.69    0.07 
   2   6  -5    0.68    0.07 
   1   6  -5    4.38    0.22 
   1   6  -5    4.55    0.22 
   1   6  -5    4.59    0.22 
  -1  -6   5    4.79    0.22 
   0   6  -5    1.31    0.09 
   0  -6   5    1.04    0.07 
   1  -6   5    3.85    0.19 
   4   5  -5   11.04    0.51 
   3   5  -5    0.31    0.05 
   3   5  -5    0.37    0.06 
   3   5  -5    0.36    0.05 
   3   5  -5    0.36    0.06 
   3   5  -5    0.30    0.06 
   2   5  -5    6.54    0.31 
   2   5  -5    6.49    0.30 
   2   5  -5    6.34    0.30 
   2   5  -5    6.42    0.30 
   2   5  -5    6.13    0.31 
   1   5  -5    6.66    0.33 
   1   5  -5    7.04    0.32 
   1   5  -5    6.42    0.32 
  -1  -5   5    6.91    0.33 
   0   5  -5   17.48    0.78 
   0   5  -5   17.38    0.78 
   0  -5   5   16.95    0.78 
   0  -5   5   17.16    0.79 
  -1   5  -5    1.56    0.11 
   1  -5   5    1.46    0.13 
   1  -5   5    1.38    0.11 
  -2   5  -5    0.36    0.06 
   2  -5   5    0.37    0.05 
   2  -5   5    0.23    0.07 
   4   4  -5    0.22    0.05 
   4   4  -5    0.26    0.09 
   3   4  -5    7.49    0.36 
   3   4  -5    7.37    0.36 
   3   4  -5    7.91    0.36 
   3   4  -5    7.74    0.36 
   3   4  -5    7.41    0.37 
   2   4  -5    0.77    0.07 
   2   4  -5    0.42    0.07 
   2   4  -5    0.71    0.07 
   2   4  -5    0.48    0.06 
   2   4  -5    0.64    0.08 
   1   4  -5    2.87    0.16 
   1   4  -5    2.94    0.18 
   1   4  -5    3.20    0.17 
   1   4  -5    2.69    0.16 
   1   4  -5    2.98    0.17 
  -1  -4   5    2.88    0.16 
   0   4  -5   -0.01    0.05 
   0   4  -5    0.05    0.07 
   0   4  -5    0.05    0.06 
   0  -4   5    0.02    0.06 
  -1   4  -5    2.31    0.14 
   1  -4   5    2.12    0.15 
   1  -4   5    2.14    0.14 
  -2   4  -5    0.17    0.06 
   2  -4   5    0.13    0.08 
   2  -4   5    0.20    0.06 
  -3   4  -5    6.86    0.33 
   3  -4   5    6.96    0.33 
   3  -4   5    6.65    0.31 
   3  -4   5    7.12    0.35 
   3   3  -5    2.47    0.17 
   3   3  -5    2.61    0.15 
   3   3  -5    2.49    0.17 
   3   3  -5    2.59    0.15 
   3   3  -5    2.54    0.15 
   2   3  -5    0.56    0.08 
   2   3  -5    0.40    0.05 
   1   3  -5   11.05    0.51 
   1   3  -5   10.62    0.50 
   0   3  -5   43.18    1.93 
  -1   3  -5    0.05    0.05 
   1  -3   5    0.13    0.06 
  -2   3  -5    0.09    0.07 
  -2   3  -5    0.18    0.05 
   2  -3   5    0.14    0.08 
  -3   3  -5    4.80    0.24 
   3  -3   5    4.64    0.23 
   3  -3   5    4.68    0.27 
   3  -3   5    5.11    0.23 
   3  -3   5    4.71    0.25 
  -4   3  -5    9.04    0.43 
   4  -3   5    9.10    0.42 
   4  -3   5    9.96    0.42 
   4  -3   5    9.34    0.43 
   3   2  -5    9.52    0.44 
   2   2  -5    2.56    0.14 
   1   2  -5  202.10    8.68 
   1   2  -5  189.71    8.66 
   0   2  -5    8.37    0.37 
   0   2  -5    8.11    0.37 
   0  -2   5    7.69    0.36 
  -1   2  -5    5.72    0.26 
   1  -2   5    5.19    0.25 
  -2   2  -5    6.21    0.30 
  -2   2  -5    5.91    0.28 
   2  -2   5    6.33    0.29 
  -3   2  -5    0.05    0.06 
  -3   2  -5    0.00    0.05 
   3  -2   5    0.02    0.05 
   3  -2   5   -0.01    0.04 
   3  -2   5    0.02    0.09 
   3  -2   5   -0.02    0.07 
   3  -2   5   -0.01    0.04 
   3  -2   5    0.01    0.05 
   4  -2   5    0.09    0.10 
   4  -2   5    0.09    0.04 
   4  -2   5    0.10    0.04 
   4  -2   5    0.13    0.07 
   4  -2   5    0.15    0.05 
   4  -2   5    0.07    0.04 
  -5   2  -5    1.40    0.07 
   5  -2   5    1.36    0.07 
   5  -2   5    0.98    0.07 
   4   1  -5    2.97    0.18 
   4   1  -5    2.75    0.16 
   3   1  -5   11.65    0.50 
  -3  -1   5   10.46    0.50 
   2   1  -5    2.36    0.11 
   2   1  -5    2.11    0.12 
  -2  -1   5    2.07    0.10 
   1   1  -5   24.69    1.16 
   1   1  -5   26.86    1.16 
  -1  -1   5   26.56    1.15 
   0   1  -5    1.03    0.06 
   0   1  -5    1.03    0.06 
   0  -1   5    1.00    0.05 
  -1   1  -5    0.44    0.04 
   1  -1   5    0.29    0.03 
   1  -1   5    0.34    0.03 
  -2   1  -5   52.57    2.34 
   2  -1   5   51.85    2.33 
   2  -1   5   53.17    2.33 
  -3   1  -5    3.04    0.15 
  -3   1  -5    2.61    0.16 
   3  -1   5    3.12    0.18 
   3  -1   5    3.01    0.16 
   3  -1   5    2.95    0.16 
   4  -1   5    5.67    0.27 
   4  -1   5    5.36    0.25 
   4  -1   5    5.41    0.25 
   4  -1   5    5.24    0.25 
   4  -1   5    5.24    0.26 
   4  -1   5    5.43    0.30 
   5  -1   5    1.55    0.09 
   5  -1   5    1.49    0.08 
   5  -1   5    1.79    0.09 
   5  -1   5    1.57    0.09 
   5  -1   5    1.44    0.11 
   5   0  -5    0.73    0.07 
   5   0  -5    0.59    0.07 
   5   0  -5    0.75    0.07 
   4   0  -5    0.32    0.06 
   4   0  -5    0.30    0.06 
   4   0  -5    0.28    0.07 
   3   0  -5   15.91    0.72 
   2   0  -5   14.40    0.60 
   2   0  -5   11.69    0.60 
  -2   0   5   13.79    0.59 
   1   0  -5   25.05    1.07 
   1   0  -5   23.27    1.07 
  -1   0   5   25.13    1.07 
  -1   0   5   22.89    1.07 
   0   0  -5    0.01    0.01 
   0   0   5    0.03    0.01 
  -1   0  -5  124.14    5.36 
  -1   0  -5  120.97    5.36 
   1   0   5  122.61    5.36 
   1   0   5  117.07    5.36 
  -2   0  -5    0.81    0.07 
   2   0   5    0.68    0.06 
   2   0   5    0.70    0.05 
  -3   0  -5    4.46    0.22 
   3   0   5    4.37    0.21 
   3   0   5    3.92    0.23 
   3   0   5    4.30    0.21 
   4   0   5   11.06    0.49 
   4   0   5   10.50    0.48 
   4   0   5   10.20    0.48 
   4   0   5   10.25    0.48 
   4   0   5   10.41    0.48 
   4   0   5   11.11    0.51 
   5   0   5    8.34    0.37 
   5   0   5    8.20    0.38 
   5   0   5    8.49    0.39 
   5   0   5    8.20    0.38 
   5   0   5    8.04    0.37 
   5  -1  -5    1.51    0.09 
   5  -1  -5    1.61    0.09 
   5  -1  -5    1.57    0.09 
   5  -1  -5    1.41    0.11 
   4  -1  -5    0.78    0.08 
   4  -1  -5    0.83    0.07 
   4  -1  -5    0.73    0.07 
   4  -1  -5    0.67    0.06 
   3  -1  -5    6.15    0.29 
  -3   1   5    6.34    0.29 
   2  -1  -5   39.18    1.73 
  -2   1   5   38.91    1.73 
   1  -1  -5   19.94    0.86 
   1  -1  -5   19.75    0.86 
  -1   1   5   17.82    0.86 
  -1   1   5   19.70    0.86 
   0  -1  -5   17.68    0.83 
   0   1   5   20.23    0.83 
   0   1   5   18.15    0.83 
  -1  -1  -5    0.56    0.04 
   1   1   5    0.49    0.03 
   1   1   5    0.54    0.04 
   1   1   5    0.56    0.05 
  -2  -1  -5   24.63    1.21 
  -2  -1  -5   28.56    1.21 
   2   1   5   28.14    1.21 
   2   1   5   27.85    1.20 
   2   1   5   25.78    1.20 
  -3  -1  -5    0.42    0.07 
   3   1   5    0.52    0.06 
   3   1   5    0.47    0.08 
   4   1   5    2.32    0.13 
   4   1   5    2.34    0.12 
   4   1   5    2.44    0.15 
   4   1   5    2.35    0.13 
   4   1   5    2.49    0.17 
   5   1   5    0.07    0.03 
   5   1   5    0.06    0.03 
   5   1   5    0.06    0.03 
   5   1   5    0.09    0.06 
   5  -2  -5    1.02    0.07 
   5  -2  -5    0.99    0.07 
   5  -2  -5    0.98    0.06 
   4  -2  -5    0.20    0.06 
   4  -2  -5    0.21    0.04 
   4  -2  -5    0.21    0.05 
   4  -2  -5    0.24    0.05 
   3  -2  -5   58.71    2.73 
   3  -2  -5   66.45    2.73 
   3  -2  -5   60.68    2.73 
   3  -2  -5   61.05    2.74 
   3  -2  -5   53.25    2.74 
  -3   2   5   61.47    2.73 
  -3   2   5   61.60    2.74 
  -3   2   5   69.20    2.73 
   2  -2  -5    4.32    0.21 
  -2   2   5    4.65    0.21 
  -1   2   5    3.18    0.15 
   0  -2  -5   32.21    1.40 
   0   2   5   32.73    1.40 
   0   2   5   29.50    1.40 
  -1  -2  -5   22.87    1.01 
   1   2   5   22.16    1.01 
   1   2   5   22.55    1.00 
  -2  -2  -5   29.31    1.33 
   2   2   5   30.33    1.34 
   2   2   5   29.63    1.33 
  -3  -2  -5   29.84    1.38 
   3   2   5   30.32    1.38 
   3   2   5   32.08    1.37 
   3   2   5   29.90    1.37 
   4   2   5    0.21    0.03 
   4   2   5    0.25    0.09 
   4   2   5    0.20    0.04 
   4   2   5    0.20    0.06 
   5   2   5   10.55    0.48 
   5   2   5   10.34    0.47 
   5   2   5   11.03    0.48 
   4  -3  -5    3.01    0.15 
   4  -3  -5    3.13    0.14 
   4  -3  -5    2.80    0.16 
   4  -3  -5    2.45    0.15 
  -4   3   5    3.10    0.17 
   3  -3  -5    6.37    0.31 
   3  -3  -5    6.24    0.29 
   3  -3  -5    5.80    0.30 
   3  -3  -5    6.34    0.29 
  -3   3   5    6.35    0.30 
   2  -3  -5   11.81    0.57 
  -2   3   5   13.55    0.57 
  -2   3   5   12.08    0.57 
  -1   3   5    9.20    0.42 
   0  -3  -5   27.59    1.16 
   0   3   5   24.27    1.15 
  -1  -3  -5   22.87    1.02 
   1   3   5   22.39    1.02 
   1   3   5   22.70    1.01 
  -2  -3  -5    6.56    0.32 
   2   3   5    7.27    0.33 
   2   3   5    6.65    0.33 
   2   3   5    6.56    0.32 
   3   3   5    0.25    0.06 
   3   3   5    0.39    0.08 
   3   3   5    0.29    0.08 
   3   3   5    0.40    0.13 
   3   3   5    0.19    0.08 
   3   3   5    0.30    0.07 
   3   3   5    0.28    0.07 
   4   3   5    0.01    0.06 
   4   3   5    0.04    0.05 
   4   3   5   -0.02    0.03 
   4   3   5   -0.01    0.07 
   3  -4  -5    0.01    0.04 
   3  -4  -5    0.02    0.03 
  -3   4   5    0.03    0.06 
  -3   4   5    0.03    0.07 
   2  -4  -5    0.14    0.04 
   2  -4  -5    0.22    0.05 
  -2   4   5    0.15    0.06 
   1  -4  -5    0.25    0.04 
   1  -4  -5    0.18    0.04 
  -1   4   5    0.11    0.05 
  -1   4   5    0.17    0.06 
  -1   4   5    0.16    0.07 
   0  -4  -5    4.60    0.22 
   0   4   5    4.35    0.23 
   0   4   5    3.92    0.21 
   0   4   5    4.36    0.22 
  -1  -4  -5   14.53    0.66 
   1   4   5   15.19    0.66 
   1   4   5   13.75    0.65 
   1   4   5   14.15    0.66 
   1   4   5   14.03    0.67 
   1   4   5   14.47    0.66 
  -2  -4  -5    3.13    0.19 
   2   4   5    3.01    0.17 
   2   4   5    2.89    0.17 
   2   4   5    3.00    0.15 
   2   4   5    2.94    0.16 
   2   4   5    2.92    0.20 
   2   4   5    2.90    0.18 
   2   4   5    2.70    0.22 
   3   4   5    5.30    0.25 
   3   4   5    5.59    0.28 
   3   4   5    5.70    0.29 
   3   4   5    5.56    0.26 
   3   4   5    5.45    0.27 
   3   4   5    5.58    0.28 
   4   4   5    3.83    0.27 
   4   4   5    3.54    0.18 
   4   4   5    3.42    0.18 
   4   4   5    3.41    0.19 
   4   4   5    3.65    0.21 
   2  -5  -5    0.08    0.04 
  -2   5   5    0.10    0.05 
   1  -5  -5    1.60    0.09 
   1  -5  -5    1.62    0.12 
  -1   5   5    1.45    0.12 
  -1   5   5    1.47    0.11 
   0  -5  -5    0.04    0.07 
   0  -5  -5    0.07    0.06 
   0  -5  -5    0.08    0.04 
   0   5   5    0.04    0.06 
   0   5   5    0.08    0.06 
   0   5   5    0.04    0.05 
  -1  -5  -5    0.49    0.05 
  -1  -5  -5    0.30    0.07 
   1   5   5    0.36    0.05 
   1   5   5    0.48    0.07 
   1   5   5    0.43    0.08 
   1   5   5    0.37    0.07 
   1   5   5    0.41    0.06 
  -2  -5  -5    0.81    0.07 
   2   5   5    0.78    0.07 
   2   5   5    0.87    0.10 
   2   5   5    0.94    0.09 
   2   5   5    0.96    0.06 
   2   5   5    1.27    0.11 
   2   5   5    1.09    0.08 
   2   5   5    1.09    0.09 
  -3  -5  -5    1.74    0.10 
   3   5   5    1.74    0.13 
   3   5   5    1.67    0.11 
   3   5   5    1.58    0.12 
   3   5   5    1.71    0.11 
   3   5   5    1.68    0.12 
   4   5   5    3.00    0.15 
   4   5   5    3.01    0.15 
   4   5   5    3.04    0.16 
   1  -6  -5   -0.02    0.03 
   0  -6  -5    1.57    0.08 
   0  -6  -5    1.50    0.09 
   0   6   5    1.58    0.11 
   0   6   5    1.57    0.10 
  -1  -6  -5    5.94    0.27 
  -1  -6  -5    5.41    0.26 
  -1  -6  -5    5.50    0.30 
   1   6   5    5.72    0.27 
   1   6   5    5.82    0.27 
   1   6   5    5.84    0.27 
  -2  -6  -5    0.52    0.05 
   2   6   5    0.74    0.05 
   2   6   5    0.67    0.07 
   2   6   5    0.61    0.06 
   2   6  -6    0.02    0.05 
   2   6  -6    0.03    0.03 
   2   6  -6    0.02    0.03 
   1   6  -6    0.42    0.07 
   1   6  -6    0.49    0.05 
   1   6  -6    0.30    0.04 
  -1  -6   6    0.46    0.05 
   0  -6   6    6.53    0.31 
   3   5  -6    0.04    0.05 
   3   5  -6    0.01    0.05 
   3   5  -6    0.01    0.04 
   3   5  -6   -0.02    0.04 
   3   5  -6   -0.01    0.04 
   2   5  -6    3.73    0.21 
   2   5  -6    3.84    0.19 
   2   5  -6    3.87    0.19 
   2   5  -6    4.03    0.20 
   2   5  -6    3.66    0.19 
   1   5  -6    2.33    0.14 
   1   5  -6    2.38    0.15 
   1   5  -6    2.39    0.14 
  -1  -5   6    2.32    0.15 
   0   5  -6    0.43    0.07 
   0   5  -6    0.43    0.06 
   0   5  -6    0.39    0.07 
   0  -5   6    0.42    0.09 
   0  -5   6    0.24    0.05 
   0  -5   6    0.32    0.07 
  -1   5  -6    0.24    0.06 
   1  -5   6    0.15    0.07 
   1  -5   6    0.17    0.05 
  -2   5  -6    0.06    0.05 
   2  -5   6    0.01    0.06 
   2  -5   6    0.05    0.04 
   4   4  -6    1.76    0.12 
   4   4  -6    1.49    0.11 
   3   4  -6    1.12    0.10 
   3   4  -6    1.04    0.10 
   3   4  -6    0.98    0.11 
   3   4  -6    1.04    0.11 
   3   4  -6    1.13    0.09 
   2   4  -6    0.09    0.05 
   2   4  -6    0.05    0.05 
   2   4  -6    0.07    0.06 
   2   4  -6    0.00    0.06 
   2   4  -6    0.02    0.05 
   1   4  -6    0.51    0.06 
   1   4  -6    0.54    0.07 
   1   4  -6    0.27    0.07 
   1   4  -6    0.33    0.06 
   1   4  -6    0.49    0.07 
   1   4  -6    0.70    0.12 
   1   4  -6    0.39    0.06 
  -1  -4   6    0.52    0.07 
   0   4  -6    9.75    0.47 
   0   4  -6    9.32    0.46 
   0   4  -6   10.30    0.46 
   0  -4   6    9.86    0.46 
  -1   4  -6   22.91    1.01 
   1  -4   6   22.04    1.00 
   1  -4   6   22.02    1.02 
  -2   4  -6    0.36    0.06 
   2  -4   6    0.26    0.06 
   2  -4   6    0.27    0.09 
   3  -4   6    0.05    0.05 
   3  -4   6    0.08    0.08 
   3  -4   6    0.06    0.05 
   3   3  -6   16.30    0.75 
   3   3  -6   17.08    0.75 
   3   3  -6   16.63    0.75 
   3   3  -6   15.87    0.76 
   2   3  -6    4.69    0.23 
   1   3  -6    1.15    0.09 
   1   3  -6    1.12    0.08 
   0   3  -6   14.49    0.67 
  -1   3  -6    0.40    0.07 
   1  -3   6    0.46    0.07 
  -2   3  -6    0.00    0.06 
  -2   3  -6    0.01    0.05 
   2  -3   6    0.00    0.06 
   2  -3   6    0.00    0.07 
  -3   3  -6    5.44    0.27 
   3  -3   6    5.25    0.29 
   3  -3   6    5.41    0.26 
   3  -3   6    5.49    0.25 
   3  -3   6    5.42    0.27 
  -4   3  -6    0.15    0.05 
   4  -3   6    0.12    0.05 
   4  -3   6    0.12    0.04 
   3   2  -6   12.80    0.57 
   3   2  -6   11.86    0.58 
   2   2  -6   30.89    1.38 
   1   2  -6   24.15    1.06 
   1   2  -6   23.18    1.06 
   0   2  -6   49.15    2.07 
   0   2  -6   46.38    2.06 
   0  -2   6   43.84    2.06 
  -1   2  -6   54.67    2.36 
   1  -2   6   51.23    2.35 
  -2   2  -6   11.15    0.52 
   2  -2   6   11.29    0.52 
   2  -2   6   11.11    0.51 
  -3   2  -6    0.02    0.05 
   3  -2   6    0.07    0.08 
   3  -2   6    0.06    0.04 
   3  -2   6    0.03    0.06 
   3  -2   6    0.06    0.05 
   4  -2   6    1.36    0.08 
   4  -2   6    1.25    0.10 
   4  -2   6    1.50    0.12 
   4  -2   6    1.41    0.15 
   4  -2   6    1.43    0.08 
   4  -2   6    1.26    0.09 
  -5   2  -6    0.17    0.04 
   5  -2   6    0.14    0.04 
   5  -2   6    0.19    0.05 
   4   1  -6    4.51    0.25 
   4   1  -6    4.67    0.23 
   3   1  -6    1.91    0.10 
  -3  -1   6    1.86    0.10 
   2   1  -6    0.70    0.06 
  -2  -1   6    0.66    0.04 
   1   1  -6   81.37    3.40 
   1   1  -6   73.61    3.39 
  -1  -1   6   74.72    3.39 
   0   1  -6   82.68    3.66 
   0   1  -6   82.83    3.66 
   0  -1   6   82.24    3.65 
  -1   1  -6    2.29    0.11 
   1  -1   6    2.26    0.11 
   1  -1   6    1.93    0.11 
  -2   1  -6   26.90    1.19 
   2  -1   6   26.57    1.19 
   2  -1   6   26.28    1.19 
  -3   1  -6   20.81    0.96 
  -3   1  -6   20.16    0.95 
   3  -1   6   22.02    0.96 
   3  -1   6   21.05    0.95 
   3  -1   6   21.57    0.95 
   4  -1   6    9.80    0.43 
   4  -1   6    9.49    0.43 
   4  -1   6    9.98    0.44 
   4  -1   6    9.22    0.43 
   4  -1   6    9.14    0.43 
   4  -1   6    9.19    0.46 
   5  -1   6    5.49    0.24 
   5  -1   6    4.93    0.25 
   5  -1   6    5.14    0.24 
   5  -1   6    5.21    0.24 
   5  -1   6    5.09    0.24 
   5   0  -6   18.83    0.84 
   5   0  -6   19.63    0.84 
   5   0  -6   17.74    0.85 
   4   0  -6   13.57    0.63 
   4   0  -6   14.59    0.64 
   4   0  -6   13.15    0.63 
   3   0  -6    0.62    0.06 
  -3   0   6    0.59    0.05 
   2   0  -6    0.22    0.03 
   2   0  -6    0.36    0.04 
  -2   0   6    0.31    0.03 
   1   0  -6    6.85    0.34 
  -1   0   6    7.31    0.33 
  -1   0   6    7.94    0.33 
   0   0  -6    1.28    0.07 
   0   0  -6    1.34    0.07 
   0   0   6    1.36    0.07 
  -1   0  -6    1.08    0.07 
  -1   0  -6    1.12    0.06 
   1   0   6    1.17    0.06 
   1   0   6    1.04    0.06 
  -2   0  -6   29.91    1.34 
   2   0   6   30.86    1.33 
   2   0   6   29.00    1.33 
  -3   0  -6    2.21    0.14 
   3   0   6    2.20    0.14 
   3   0   6    2.29    0.13 
   3   0   6    2.17    0.12 
   4   0   6    1.47    0.12 
   4   0   6    1.52    0.15 
   4   0   6    1.52    0.08 
   4   0   6    1.46    0.09 
   4   0   6    1.41    0.09 
   4   0   6    1.48    0.09 
   5   0   6    6.41    0.29 
   5   0   6    6.10    0.30 
   5   0   6    5.98    0.28 
   5   0   6    6.50    0.29 
   5   0   6    5.84    0.28 
   5  -1  -6    0.78    0.07 
   5  -1  -6    0.85    0.07 
   5  -1  -6    0.78    0.09 
   4  -1  -6    1.17    0.10 
   4  -1  -6    1.04    0.08 
   4  -1  -6    1.07    0.09 
   4  -1  -6    1.20    0.12 
   3  -1  -6    0.00    0.04 
   3  -1  -6   -0.01    0.06 
  -3   1   6    0.03    0.03 
  -3   1   6   -0.01    0.04 
   2  -1  -6    0.59    0.05 
  -2   1   6    0.65    0.05 
  -2   1   6    0.56    0.04 
   1  -1  -6  113.33    4.72 
   1  -1  -6  104.39    4.72 
  -1   1   6  106.80    4.72 
  -1   1   6  102.37    4.72 
   0  -1  -6   60.63    2.77 
   0   1   6   58.53    2.77 
   0   1   6   62.95    2.77 
   0   1   6   68.11    2.77 
  -1  -1  -6   44.37    1.96 
  -1  -1  -6   43.95    1.96 
   1   1   6   43.78    1.96 
   1   1   6   42.61    1.96 
   1   1   6   46.06    1.96 
  -2  -1  -6    4.92    0.24 
   2   1   6    4.47    0.22 
   2   1   6    4.92    0.23 
   2   1   6    4.84    0.24 
  -3  -1  -6    0.04    0.06 
   3   1   6    0.03    0.07 
   3   1   6    0.00    0.04 
   4   1   6    6.27    0.29 
   4   1   6    6.26    0.29 
   4   1   6    6.18    0.30 
   4   1   6    6.23    0.32 
   4   1   6    6.49    0.29 
   5   1   6    0.05    0.03 
   5   1   6    0.05    0.03 
   5   1   6    0.05    0.03 
   5   1   6    0.07    0.05 
   5  -2  -6    1.15    0.07 
   4  -2  -6    0.07    0.06 
   4  -2  -6    0.05    0.05 
   4  -2  -6    0.02    0.05 
   4  -2  -6    0.04    0.04 
   3  -2  -6    7.71    0.36 
   3  -2  -6    8.13    0.37 
   3  -2  -6    7.67    0.38 
   3  -2  -6    7.39    0.37 
   3  -2  -6    7.26    0.37 
   3  -2  -6    7.81    0.37 
  -3   2   6    8.73    0.37 
  -3   2   6    7.92    0.38 
  -3   2   6    8.99    0.37 
   2  -2  -6   20.60    0.91 
  -2   2   6   22.10    0.91 
  -2   2   6   18.62    0.91 
   1  -2  -6    5.85    0.30 
  -1   2   6    6.32    0.28 
   0  -2  -6   45.72    2.05 
   0   2   6   46.66    2.05 
  -1  -2  -6    1.12    0.07 
   1   2   6    1.10    0.07 
   1   2   6    1.03    0.07 
  -2  -2  -6  148.18    6.64 
   2   2   6  147.37    6.64 
   2   2   6  154.40    6.65 
  -3  -2  -6    3.21    0.20 
   3   2   6    3.58    0.19 
   3   2   6    3.30    0.19 
   3   2   6    3.25    0.18 
   4   2   6    5.96    0.28 
   4   2   6    5.90    0.27 
   4   2   6    6.00    0.31 
   4   2   6    6.10    0.29 
   5   2   6    5.72    0.25 
   5   2   6    5.55    0.25 
   5   2   6    5.83    0.27 
   5   2   6    5.23    0.28 
   4  -3  -6    2.92    0.15 
   4  -3  -6    2.57    0.13 
   4  -3  -6    2.75    0.14 
  -4   3   6    2.66    0.16 
   3  -3  -6    0.49    0.06 
   3  -3  -6    0.51    0.05 
   3  -3  -6    0.57    0.08 
   3  -3  -6    0.43    0.06 
  -3   3   6    0.61    0.08 
  -2   3   6   -0.02    0.04 
  -2   3   6   -0.04    0.06 
  -1   3   6    0.01    0.03 
   0  -3  -6    2.08    0.11 
   0   3   6    1.94    0.11 
  -1  -3  -6    9.18    0.42 
   1   3   6    8.81    0.42 
   1   3   6    9.08    0.41 
  -2  -3  -6    0.03    0.04 
   2   3   6    0.06    0.06 
   2   3   6    0.04    0.06 
   2   3   6    0.05    0.05 
  -3  -3  -6    4.74    0.39 
   3   3   6    6.66    0.27 
   3   3   6    6.08    0.29 
   3   3   6    5.90    0.30 
   3   3   6    5.72    0.31 
   3   3   6    6.12    0.27 
   3   3   6    5.93    0.28 
   3   3   6    5.55    0.29 
   3   3   6    5.29    0.29 
   4   3   6    1.22    0.12 
   4   3   6    1.17    0.12 
   4   3   6    1.30    0.10 
   4   3   6    1.43    0.08 
   5   3   6    0.78    0.07 
   5   3   6    0.68    0.05 
   3  -4  -6    0.11    0.03 
   3  -4  -6    0.11    0.04 
  -3   4   6    0.13    0.06 
   2  -4  -6   18.96    0.82 
   2  -4  -6   17.35    0.81 
  -2   4   6   18.34    0.82 
   1  -4  -6    8.55    0.40 
   1  -4  -6    9.24    0.41 
  -1   4   6    9.06    0.42 
  -1   4   6    8.85    0.42 
   0   4   6    1.16    0.10 
   0   4   6    1.06    0.08 
  -1  -4  -6    1.92    0.12 
   1   4   6    1.72    0.15 
   1   4   6    1.87    0.12 
   1   4   6    1.94    0.13 
   2   4   6   14.93    0.67 
   2   4   6   14.58    0.67 
   2   4   6   14.32    0.65 
   2   4   6   14.58    0.66 
   2   4   6   14.38    0.68 
   2   4   6   14.43    0.66 
   3   4   6    2.59    0.16 
   3   4   6    2.71    0.16 
   3   4   6    2.68    0.19 
   3   4   6    2.69    0.17 
   3   4   6    2.66    0.13 
   3   4   6    2.72    0.15 
   4   4   6    4.62    0.22 
   4   4   6    4.42    0.23 
   4   4   6    4.57    0.24 
   4   4   6    4.74    0.23 
   4   4   6    4.42    0.21 
   2  -5  -6    0.92    0.06 
   2  -5  -6    1.00    0.07 
  -2   5   6    0.99    0.09 
   1  -5  -6    1.87    0.11 
  -1   5   6    1.93    0.13 
  -1   5   6    1.89    0.12 
   0  -5  -6    0.18    0.04 
   0  -5  -6    0.13    0.06 
   0   5   6    0.15    0.07 
   0   5   6    0.09    0.05 
   0   5   6    0.20    0.06 
  -1  -5  -6    0.20    0.04 
  -1  -5  -6    0.12    0.06 
   1   5   6    0.26    0.04 
   1   5   6    0.24    0.07 
   1   5   6    0.18    0.07 
   1   5   6    0.24    0.07 
   1   5   6    0.23    0.05 
  -2  -5  -6    0.01    0.03 
   2   5   6    0.05    0.05 
   2   5   6   -0.02    0.07 
   2   5   6   -0.03    0.06 
   2   5   6    0.02    0.07 
   2   5   6   -0.01    0.04 
   2   5   6    0.02    0.06 
   2   5   6   -0.04    0.04 
   3   5   6    7.77    0.36 
   3   5   6    7.44    0.35 
   3   5   6    7.74    0.36 
   3   5   6    7.70    0.37 
   3   5   6    7.90    0.37 
   3   5   6    7.81    0.36 
   4   5   6    1.82    0.12 
   4   5   6    1.74    0.10 
   4   5   6    1.83    0.10 
   1  -6  -6    0.19    0.03 
   0  -6  -6    2.36    0.12 
   0  -6  -6    2.45    0.13 
   0   6   6    2.45    0.13 
   0   6   6    2.61    0.14 
  -1  -6  -6    3.35    0.16 
  -1  -6  -6    3.49    0.16 
   1   6   6    3.34    0.17 
   1   6   6    3.29    0.17 
  -2  -6  -6    0.65    0.05 
  -2  -6  -6    0.68    0.05 
   2   6   6    0.77    0.06 
   2   6   6    0.71    0.06 
   2   6  -7    0.05    0.03 
  -2  -6   7    0.08    0.03 
   1   6  -7    2.59    0.13 
  -1  -6   7    2.83    0.13 
   3   5  -7    5.96    0.29 
   3   5  -7    6.30    0.29 
   3   5  -7    6.26    0.29 
   3   5  -7    6.10    0.29 
   3   5  -7    5.81    0.29 
   2   5  -7    0.04    0.04 
   2   5  -7    0.05    0.04 
   2   5  -7    0.04    0.06 
   2   5  -7    0.06    0.04 
   2   5  -7    0.03    0.05 
   1   5  -7    0.03    0.07 
   1   5  -7    0.05    0.05 
   1   5  -7   -0.03    0.06 
   1   5  -7    0.07    0.05 
  -1  -5   7    0.03    0.09 
   0   5  -7    9.09    0.42 
   0   5  -7    9.22    0.42 
   0   5  -7    8.78    0.42 
   0  -5   7    9.55    0.42 
   0  -5   7    8.92    0.43 
  -1   5  -7    1.75    0.12 
   1  -5   7    1.61    0.13 
   1  -5   7    1.57    0.10 
  -2   5  -7    0.28    0.05 
   2  -5   7    0.23    0.04 
   4   4  -7    2.57    0.16 
   4   4  -7    2.42    0.14 
   4   4  -7    2.67    0.15 
   3   4  -7    0.00    0.06 
   3   4  -7   -0.02    0.05 
   3   4  -7    0.01    0.06 
   3   4  -7    0.03    0.05 
   3   4  -7    0.04    0.06 
   2   4  -7    0.15    0.05 
   2   4  -7    0.19    0.06 
   2   4  -7    0.18    0.05 
   2   4  -7    0.16    0.05 
   2   4  -7    0.21    0.05 
   1   4  -7    0.10    0.06 
   1   4  -7    0.08    0.05 
   1   4  -7    0.07    0.06 
   1   4  -7    0.09    0.05 
   1   4  -7    0.11    0.06 
   1   4  -7    0.09    0.05 
   0   4  -7  136.76    6.32 
   0   4  -7  147.35    6.32 
   0   4  -7  145.37    6.32 
   0  -4   7  141.28    6.32 
  -1   4  -7    5.10    0.25 
   1  -4   7    4.96    0.25 
   1  -4   7    5.04    0.27 
  -2   4  -7    0.11    0.05 
   2  -4   7    0.11    0.08 
   2  -4   7    0.10    0.05 
  -3   4  -7    2.63    0.14 
   3  -4   7    2.62    0.17 
   3  -4   7    2.55    0.15 
   4   3  -7    7.08    0.34 
   4   3  -7    7.33    0.35 
   3   3  -7    0.33    0.06 
   3   3  -7    0.47    0.08 
   3   3  -7    0.32    0.05 
   3   3  -7    0.47    0.07 
   2   3  -7    4.73    0.24 
   2   3  -7    4.98    0.24 
   2   3  -7    4.56    0.25 
   1   3  -7    0.02    0.04 
   1   3  -7    0.00    0.03 
   0   3  -7    1.29    0.10 
  -1   3  -7    0.39    0.07 
   1  -3   7    0.33    0.07 
  -2   3  -7    0.12    0.05 
  -2   3  -7    0.07    0.10 
   2  -3   7    0.13    0.06 
   2  -3   7    0.17    0.08 
  -3   3  -7    5.38    0.27 
   3  -3   7    5.54    0.28 
   3  -3   7    5.51    0.26 
   3  -3   7    5.67    0.30 
   3  -3   7    5.81    0.26 
  -4   3  -7    2.71    0.13 
   4  -3   7    2.51    0.13 
   4  -3   7    2.50    0.14 
   4  -3   7    2.78    0.13 
   4   2  -7   25.31    1.18 
   3   2  -7    6.99    0.33 
   3   2  -7    6.47    0.35 
   3   2  -7    7.38    0.34 
   2   2  -7    6.04    0.29 
   1   2  -7   36.73    1.64 
   0   2  -7    3.43    0.17 
   0   2  -7    3.26    0.16 
   0  -2   7    3.17    0.16 
  -1   2  -7   13.20    0.59 
   1  -2   7   12.34    0.58 
  -2   2  -7    1.56    0.11 
   2  -2   7    1.65    0.12 
   2  -2   7    1.65    0.10 
   3  -2   7    0.09    0.05 
   3  -2   7    0.09    0.06 
   3  -2   7    0.09    0.09 
   3  -2   7    0.08    0.04 
   4  -2   7    5.38    0.25 
   4  -2   7    5.61    0.30 
   4  -2   7    5.32    0.26 
   4  -2   7    5.54    0.26 
   4  -2   7    5.69    0.27 
   5   1  -7    0.78    0.07 
   4   1  -7    0.28    0.06 
   4   1  -7    0.24    0.07 
  -3  -1   7    2.48    0.13 
   2   1  -7    0.35    0.05 
  -2  -1   7    0.46    0.04 
   1   1  -7   54.52    2.42 
  -1  -1   7   54.42    2.41 
   0   1  -7    1.06    0.07 
   0   1  -7    1.12    0.07 
   0  -1   7    1.14    0.06 
  -1   1  -7   33.95    1.53 
   1  -1   7   34.53    1.52 
  -2   1  -7    1.12    0.09 
   2  -1   7    1.26    0.08 
   2  -1   7    1.25    0.08 
  -3   1  -7    1.10    0.09 
  -3   1  -7    0.90    0.10 
   3  -1   7    1.07    0.09 
   3  -1   7    1.07    0.11 
   3  -1   7    1.00    0.09 
   4  -1   7    0.02    0.04 
   4  -1   7    0.03    0.06 
   4  -1   7    0.02    0.04 
   4  -1   7    0.03    0.03 
   4  -1   7    0.06    0.09 
   4  -1   7    0.01    0.04 
  -5   1  -7    0.34    0.04 
   5  -1   7    0.51    0.05 
   5  -1   7    0.37    0.03 
   5  -1   7    0.35    0.04 
   5  -1   7    0.57    0.05 
   5  -1   7    0.30    0.05 
   5   0  -7    0.70    0.06 
   5   0  -7    0.50    0.07 
   4   0  -7   12.66    0.57 
   4   0  -7   11.92    0.56 
   4   0  -7   12.29    0.56 
   3   0  -7    6.80    0.31 
  -3   0   7    6.33    0.30 
   2   0  -7   21.18    0.89 
   2   0  -7   18.54    0.90 
  -2   0   7   20.23    0.89 
   1   0  -7   17.26    0.81 
  -1   0   7   18.94    0.81 
   0   0  -7   16.29    0.72 
   0   0  -7   15.68    0.72 
   0   0   7   16.81    0.71 
   0   0   7   15.24    0.71 
  -1   0  -7   19.72    0.87 
  -1   0  -7   19.37    0.86 
   1   0   7   20.04    0.86 
   1   0   7   18.46    0.86 
  -2   0  -7   11.48    0.53 
   2   0   7   11.34    0.52 
   2   0   7   11.46    0.52 
  -3   0  -7    3.09    0.18 
   3   0   7    3.08    0.16 
   3   0   7    3.10    0.18 
   3   0   7    3.17    0.17 
   4   0   7   35.23    1.63 
   4   0   7   36.94    1.61 
   4   0   7   36.06    1.61 
   4   0   7   36.15    1.62 
   4   0   7   35.97    1.61 
   4   0   7   36.84    1.61 
   5   0   7    0.48    0.06 
   5   0   7    0.53    0.05 
   5   0   7    0.51    0.04 
   5   0   7    0.50    0.04 
   5   0   7    0.32    0.10 
   5  -1  -7    3.82    0.17 
   5  -1  -7    3.22    0.17 
   5  -1  -7    2.98    0.17 
   4  -1  -7    6.84    0.32 
   4  -1  -7    6.68    0.32 
   4  -1  -7    6.53    0.33 
   3  -1  -7    2.30    0.16 
   3  -1  -7    2.31    0.14 
   3  -1  -7    2.45    0.13 
  -3   1   7    2.49    0.13 
   2  -1  -7   27.90    1.20 
  -2   1   7   25.46    1.20 
  -2   1   7   27.48    1.20 
   1  -1  -7   39.39    1.81 
  -1   1   7   41.94    1.81 
  -1   1   7   40.91    1.81 
   0  -1  -7  109.11    4.81 
   0   1   7  102.24    4.80 
   0   1   7  114.52    4.80 
  -1  -1  -7   26.23    1.19 
  -1  -1  -7   27.42    1.18 
   1   1   7   27.26    1.19 
   1   1   7   25.33    1.18 
   1   1   7   26.60    1.18 
  -2  -1  -7  172.60    7.49 
   2   1   7  157.85    7.48 
   2   1   7  173.69    7.50 
   2   1   7  172.70    7.49 
  -3  -1  -7    2.62    0.16 
   3   1   7    2.47    0.15 
   3   1   7    2.65    0.16 
   4   1   7    0.47    0.05 
   4   1   7    0.46    0.07 
   4   1   7    0.52    0.04 
   4   1   7    0.47    0.05 
   4   1   7    0.22    0.09 
   5   1   7    1.35    0.08 
   5   1   7    1.38    0.10 
   5   1   7    1.33    0.13 
   5   1   7    1.33    0.08 
   5   1   7    1.35    0.07 
   4  -2  -7    0.17    0.06 
   4  -2  -7    0.18    0.05 
   4  -2  -7    0.13    0.04 
   4  -2  -7    0.18    0.05 
   3  -2  -7    0.76    0.06 
   3  -2  -7    1.03    0.09 
   3  -2  -7    0.95    0.11 
   3  -2  -7    0.95    0.10 
   3  -2  -7    0.93    0.10 
  -3   2   7    0.93    0.09 
   2  -2  -7   12.14    0.54 
  -2   2   7   11.47    0.54 
  -2   2   7   12.23    0.54 
   1  -2  -7    3.08    0.16 
  -1   2   7    3.42    0.15 
   0  -2  -7    1.83    0.10 
   0   2   7    1.81    0.09 
  -1  -2  -7   45.42    1.98 
   1   2   7   42.23    1.98 
   1   2   7   45.82    1.98 
  -2  -2  -7   46.93    2.07 
  -2  -2  -7   45.29    2.06 
   2   2   7   45.99    2.06 
   2   2   7   46.77    2.07 
  -3  -2  -7   10.88    0.54 
   3   2   7   12.12    0.53 
   3   2   7   11.25    0.54 
   3   2   7   11.07    0.52 
   4   2   7    0.00    0.04 
   4   2   7    0.05    0.04 
   4   2   7    0.06    0.08 
   4   2   7    0.05    0.07 
   4   2   7    0.00    0.05 
   4   2   7    0.01    0.03 
   5   2   7    5.31    0.25 
   5   2   7    5.53    0.24 
   5   2   7    5.37    0.24 
   5   2   7    4.79    0.27 
   4  -3  -7    0.97    0.08 
   4  -3  -7    0.91    0.06 
   4  -3  -7    1.05    0.09 
  -4   3   7    1.12    0.10 
   3  -3  -7    0.92    0.09 
   3  -3  -7    1.04    0.08 
   3  -3  -7    1.05    0.11 
  -3   3   7    0.98    0.10 
   2  -3  -7   19.24    0.90 
   2  -3  -7   17.58    0.88 
   2  -3  -7   19.93    0.87 
  -2   3   7   19.48    0.88 
  -2   3   7   19.55    0.88 
  -2   3   7   21.29    0.88 
  -1   3   7    8.42    0.39 
   0  -3  -7   28.32    1.25 
   0   3   7   27.57    1.25 
  -1  -3  -7    0.16    0.04 
   1   3   7    0.14    0.04 
   1   3   7    0.15    0.05 
  -2  -3  -7    5.73    0.28 
   2   3   7    6.11    0.29 
   2   3   7    5.62    0.28 
   2   3   7    5.89    0.30 
   3   3   7    0.07    0.03 
   3   3   7    0.05    0.09 
   3   3   7    0.07    0.07 
   3   3   7    0.05    0.03 
   3   3   7    0.04    0.08 
   3   3   7    0.04    0.06 
   3   3   7    0.03    0.05 
   4   3   7    1.70    0.13 
   4   3   7    1.76    0.09 
   4   3   7    1.76    0.11 
   4   3   7    1.65    0.13 
   4   3   7    1.63    0.09 
   5   3   7    3.83    0.18 
   5   3   7    3.62    0.17 
   3  -4  -7    1.75    0.10 
   3  -4  -7    1.65    0.09 
  -3   4   7    1.74    0.12 
   2  -4  -7   15.62    0.73 
   2  -4  -7   16.98    0.73 
  -2   4   7   16.11    0.74 
  -2   4   7   16.29    0.74 
   1  -4  -7   22.35    0.96 
   1  -4  -7   21.09    0.96 
  -1   4   7   21.37    0.97 
  -1   4   7   21.32    0.97 
   0  -4  -7    4.06    0.19 
   0   4   7    4.13    0.20 
   0   4   7    3.63    0.20 
   0   4   7    3.74    0.19 
   0   4   7    4.00    0.21 
  -1  -4  -7   11.60    0.51 
   1   4   7   11.43    0.51 
   1   4   7   10.45    0.55 
   1   4   7   11.08    0.51 
   1   4   7   11.24    0.51 
   1   4   7    9.57    0.50 
   1   4   7   11.02    0.49 
   2   4   7    0.05    0.04 
   2   4   7    0.01    0.06 
   2   4   7    0.00    0.04 
   2   4   7    0.01    0.09 
   2   4   7    0.12    0.07 
   2   4   7    0.04    0.06 
   3   4   7    1.08    0.11 
   3   4   7    1.01    0.07 
   3   4   7    1.05    0.09 
   3   4   7    0.89    0.10 
   3   4   7    1.01    0.09 
   3   4   7    1.25    0.10 
   4   4   7    2.29    0.16 
   4   4   7    2.23    0.13 
   4   4   7    2.08    0.14 
   4   4   7    2.22    0.11 
   4   4   7    2.28    0.12 
   2  -5  -7    3.73    0.18 
   2  -5  -7    3.51    0.17 
  -2   5   7    3.91    0.19 
   1  -5  -7    3.89    0.18 
   1  -5  -7    3.72    0.18 
  -1   5   7    3.70    0.19 
  -1   5   7    3.81    0.20 
   0  -5  -7    2.90    0.14 
   0  -5  -7    2.92    0.16 
   0   5   7    2.82    0.17 
   0   5   7    2.56    0.15 
   0   5   7    2.66    0.16 
  -1  -5  -7    0.23    0.07 
  -1  -5  -7    0.21    0.04 
   1   5   7    0.15    0.05 
   1   5   7    0.23    0.04 
   1   5   7    0.25    0.08 
   1   5   7    0.22    0.07 
  -2  -5  -7    1.77    0.09 
   2   5   7    1.54    0.13 
   2   5   7    1.78    0.12 
   2   5   7    2.34    0.17 
   2   5   7    1.59    0.10 
   2   5   7    1.50    0.14 
   2   5   7    1.62    0.12 
   2   5   7    1.66    0.11 
   3   5   7    1.52    0.09 
   3   5   7    1.67    0.12 
   3   5   7    1.68    0.13 
   3   5   7    1.66    0.12 
   3   5   7    1.64    0.10 
   3   5   7    1.68    0.11 
   4   5   7    0.39    0.05 
   0  -6  -7    0.20    0.04 
   0  -6  -7    0.23    0.03 
   0   6   7    0.22    0.05 
   0   6   7    0.21    0.05 
  -1  -6  -7    3.63    0.17 
  -1  -6  -7    3.47    0.16 
   1   6   7    3.53    0.18 
   1   6   7    3.39    0.17 
  -2  -6  -7    1.29    0.07 
  -2  -6  -7    1.37    0.08 
   2   6   7    1.33    0.09 
   2   6   7    1.30    0.08 
   1   6  -8    3.65    0.18 
  -1  -6   8    4.00    0.18 
   3   5  -8    0.77    0.07 
   3   5  -8    0.60    0.06 
   3   5  -8    0.45    0.05 
   3   5  -8    0.57    0.06 
   3   5  -8    0.59    0.06 
   2   5  -8    5.01    0.24 
   2   5  -8    5.25    0.26 
   2   5  -8    5.08    0.24 
   2   5  -8    4.66    0.24 
   2   5  -8    5.16    0.25 
   1   5  -8    1.03    0.10 
   1   5  -8    1.07    0.11 
   1   5  -8    1.20    0.12 
   1   5  -8    1.15    0.11 
   1   5  -8    1.11    0.10 
   0   5  -8    1.03    0.10 
   0   5  -8    1.02    0.10 
   0  -5   8    1.00    0.10 
   0  -5   8    0.95    0.11 
  -1   5  -8    0.03    0.05 
   1  -5   8    0.00    0.04 
   1  -5   8    0.00    0.06 
  -2   5  -8    2.02    0.12 
   2  -5   8    1.87    0.11 
   4   4  -8    1.77    0.11 
   4   4  -8    1.65    0.11 
   4   4  -8    1.78    0.11 
   3   4  -8    5.26    0.26 
   3   4  -8    5.30    0.26 
   3   4  -8    5.90    0.28 
   3   4  -8    5.40    0.27 
   3   4  -8    5.09    0.27 
   2   4  -8    3.96    0.20 
   2   4  -8    3.88    0.22 
   2   4  -8    3.93    0.20 
   2   4  -8    4.05    0.20 
   2   4  -8    3.86    0.21 
   2   4  -8    3.90    0.21 
   1   4  -8   11.58    0.54 
   1   4  -8   11.99    0.53 
   1   4  -8   11.05    0.54 
   1   4  -8   11.83    0.54 
   1   4  -8   11.55    0.53 
   1   4  -8   11.44    0.53 
   0   4  -8    1.70    0.12 
   0   4  -8    1.81    0.13 
   0  -4   8    1.55    0.13 
  -1   4  -8   22.26    1.01 
   1  -4   8   22.67    1.02 
   1  -4   8   22.05    1.00 
  -2   4  -8    2.36    0.14 
   2  -4   8    2.36    0.17 
   2  -4   8    2.31    0.14 
  -3   4  -8    0.01    0.05 
   3  -4   8    0.03    0.06 
   3  -4   8    0.01    0.04 
   4   3  -8   23.94    1.08 
   4   3  -8   24.25    1.08 
   3   3  -8    0.10    0.05 
   3   3  -8    0.04    0.06 
   3   3  -8    0.05    0.05 
   3   3  -8    0.07    0.07 
   3   3  -8    0.08    0.08 
   2   3  -8    0.39    0.07 
   2   3  -8    0.37    0.06 
   2   3  -8    0.30    0.06 
   2   3  -8    0.36    0.05 
   1   3  -8    2.41    0.13 
   1   3  -8    2.24    0.15 
   0   3  -8    9.06    0.42 
   0  -3   8    8.53    0.43 
  -1   3  -8    3.66    0.21 
  -1   3  -8    4.12    0.20 
  -2   3  -8    0.04    0.05 
  -2   3  -8   -0.02    0.05 
   2  -3   8    0.01    0.08 
   2  -3   8   -0.03    0.04 
   2  -3   8    0.09    0.06 
  -3   3  -8    0.14    0.04 
  -3   3  -8    0.13    0.06 
   3  -3   8    0.15    0.09 
   3  -3   8    0.05    0.06 
   3  -3   8    0.13    0.04 
  -4   3  -8    1.08    0.06 
   4  -3   8    1.02    0.06 
   4  -3   8    0.96    0.08 
   4  -3   8    0.98    0.07 
   4   2  -8   44.05    2.08 
   4   2  -8   48.99    2.07 
   3   2  -8   52.87    2.53 
   3   2  -8   57.25    2.53 
   3   2  -8   60.24    2.53 
   2   2  -8    0.23    0.05 
   1   2  -8    1.93    0.11 
   1   2  -8    1.89    0.11 
  -1  -2   8    1.74    0.09 
   0   2  -8    3.69    0.18 
   0   2  -8    3.77    0.18 
   0  -2   8    3.41    0.17 
  -1   2  -8    6.66    0.32 
   1  -2   8    6.85    0.31 
  -2   2  -8    2.41    0.15 
   2  -2   8    2.65    0.14 
   2  -2   8    2.73    0.16 
   3  -2   8    0.61    0.10 
   3  -2   8    0.61    0.06 
   3  -2   8    0.55    0.08 
   3  -2   8    0.65    0.06 
   4  -2   8    0.04    0.03 
   4  -2   8    0.06    0.06 
   4  -2   8    0.05    0.09 
   4  -2   8    0.03    0.04 
   5   1  -8    0.04    0.06 
   5   1  -8    0.03    0.04 
   4   1  -8    1.79    0.13 
   4   1  -8    1.72    0.12 
   4   1  -8    1.75    0.14 
   3   1  -8    0.55    0.07 
   3   1  -8    0.49    0.08 
  -3  -1   8    0.60    0.05 
   2   1  -8    0.41    0.05 
  -2  -1   8    0.45    0.04 
   1   1  -8   11.96    0.54 
  -1  -1   8   11.82    0.53 
   0   1  -8  138.08    6.00 
   0   1  -8  136.93    6.01 
   0  -1   8  132.02    6.00 
  -1   1  -8   10.98    0.49 
   1  -1   8   10.45    0.48 
  -2   1  -8    5.48    0.27 
   2  -1   8    5.61    0.26 
   2  -1   8    5.31    0.26 
  -3   1  -8    0.83    0.10 
  -3   1  -8    1.03    0.09 
   3  -1   8    1.07    0.12 
   3  -1   8    0.94    0.10 
   3  -1   8    0.92    0.09 
   4  -1   8    0.31    0.10 
   4  -1   8    0.49    0.05 
   4  -1   8    0.57    0.04 
   4  -1   8    0.43    0.07 
   4  -1   8    0.43    0.05 
   4  -1   8    0.45    0.05 
  -5   1  -8    1.03    0.07 
   5  -1   8    1.06    0.06 
   5  -1   8    0.99    0.06 
   5  -1   8    0.92    0.06 
   5  -1   8    1.11    0.08 
   5  -1   8    1.08    0.06 
   5   0  -8    2.93    0.17 
   5   0  -8    3.45    0.16 
   4   0  -8    0.10    0.07 
   4   0  -8    0.15    0.05 
   4   0  -8    0.15    0.06 
   4   0  -8    0.13    0.06 
   3   0  -8    5.21    0.28 
   3   0  -8    5.15    0.27 
  -3   0   8    5.88    0.26 
   2   0  -8    2.92    0.15 
  -2   0   8    2.63    0.13 
   1   0  -8    0.10    0.03 
  -1   0   8    0.16    0.02 
   0   0  -8   12.88    0.63 
   0   0  -8   14.62    0.63 
   0   0   8   14.65    0.63 
  -1   0  -8   17.87    0.80 
  -1   0  -8   18.83    0.80 
   1   0   8   16.72    0.79 
   1   0   8   17.75    0.79 
  -2   0  -8    0.15    0.05 
   2   0   8    0.14    0.04 
   2   0   8    0.13    0.03 
  -3   0  -8   27.92    1.29 
   3   0   8   27.78    1.28 
   3   0   8   29.32    1.28 
   3   0   8   28.80    1.28 
   4   0   8   15.19    0.72 
   4   0   8   16.69    0.72 
   4   0   8   16.26    0.72 
   4   0   8   15.66    0.74 
   4   0   8   16.47    0.72 
   4   0   8   16.11    0.73 
   5   0   8    0.15    0.02 
   5   0   8    0.17    0.05 
   5   0   8    0.14    0.03 
   5   0   8    0.18    0.03 
   5  -1  -8    2.87    0.15 
   5  -1  -8    3.26    0.15 
   4  -1  -8    1.39    0.12 
   4  -1  -8    1.29    0.12 
   4  -1  -8    1.12    0.10 
   4  -1  -8    1.28    0.10 
  -4   1   8    1.35    0.14 
   3  -1  -8    5.10    0.26 
   3  -1  -8    5.71    0.26 
   3  -1  -8    5.15    0.28 
  -3   1   8    5.84    0.26 
   2  -1  -8    0.25    0.03 
  -2   1   8    0.28    0.03 
  -2   1   8    0.27    0.03 
   1  -1  -8   20.01    0.93 
  -1   1   8   20.98    0.93 
  -1   1   8   21.45    0.93 
   0  -1  -8    1.42    0.08 
   0   1   8    1.43    0.08 
   0   1   8    1.51    0.07 
  -1  -1  -8    9.12    0.40 
  -1  -1  -8    8.67    0.40 
   1   1   8    8.51    0.40 
   1   1   8    8.78    0.40 
   1   1   8    8.66    0.39 
  -2  -1  -8   19.81    0.89 
   2   1   8   20.30    0.88 
   2   1   8   18.38    0.87 
  -3  -1  -8    0.09    0.07 
   3   1   8    0.05    0.07 
   3   1   8    0.07    0.06 
   4   1   8    1.96    0.11 
   4   1   8    1.92    0.11 
   4   1   8    2.05    0.16 
   4   1   8    2.09    0.10 
   4   1   8    1.90    0.13 
   5   1   8    3.23    0.17 
   5   1   8    3.14    0.15 
   5   1   8    2.94    0.18 
   5   1   8    3.28    0.15 
   5   1   8    3.16    0.15 
   4  -2  -8    2.23    0.15 
   4  -2  -8    2.60    0.13 
   4  -2  -8    2.28    0.12 
   4  -2  -8    2.43    0.13 
   3  -2  -8    2.21    0.14 
   3  -2  -8    2.41    0.14 
   3  -2  -8    2.33    0.13 
   3  -2  -8    2.50    0.16 
   3  -2  -8    2.47    0.14 
  -3   2   8    2.42    0.15 
  -2   2   8   -0.03    0.03 
   1  -2  -8   13.04    0.60 
  -1   2   8   13.34    0.59 
   0  -2  -8   43.07    1.92 
   0   2   8   43.22    1.92 
  -1  -2  -8    9.99    0.44 
   1   2   8    9.99    0.44 
   1   2   8    9.09    0.45 
  -2  -2  -8    8.78    0.41 
  -2  -2  -8    8.35    0.40 
   2   2   8    8.64    0.41 
   2   2   8    8.52    0.40 
   3   2   8    4.29    0.21 
   3   2   8    3.35    0.21 
   3   2   8    3.56    0.20 
   4   2   8    6.39    0.30 
   4   2   8    6.86    0.30 
   4   2   8    6.64    0.30 
   4   2   8    6.41    0.33 
   4   2   8    6.69    0.31 
   4   2   8    6.51    0.33 
   5   2   8    0.00    0.05 
   5   2   8    0.04    0.04 
   5   2   8    0.01    0.02 
   5   2   8    0.03    0.03 
   4  -3  -8    6.58    0.31 
   4  -3  -8    6.72    0.30 
  -4   3   8    6.20    0.31 
   3  -3  -8    0.04    0.06 
   3  -3  -8    0.05    0.05 
   3  -3  -8    0.09    0.04 
  -3   3   8    0.10    0.06 
   2  -3  -8   82.58    3.58 
   2  -3  -8   77.00    3.58 
  -2   3   8   82.77    3.59 
  -2   3   8   81.03    3.59 
  -1   3   8    1.62    0.10 
   0  -3  -8   15.83    0.72 
   0   3   8   15.90    0.71 
  -1  -3  -8    3.09    0.16 
   1   3   8    2.95    0.15 
  -2  -3  -8    0.35    0.06 
   2   3   8    0.53    0.08 
   2   3   8    0.32    0.08 
   2   3   8    0.43    0.08 
   2   3   8    0.46    0.07 
   3   3   8    8.12    0.39 
   3   3   8    8.35    0.37 
   3   3   8    7.88    0.40 
   3   3   8    8.13    0.36 
   3   3   8    8.26    0.37 
   3   3   8    7.74    0.38 
   3   3   8    7.97    0.39 
   4   3   8    0.05    0.06 
   4   3   8    0.04    0.03 
   4   3   8    0.01    0.07 
   4   3   8    0.09    0.03 
   4   3   8    0.01    0.04 
   5   3   8    1.06    0.07 
   5   3   8    1.02    0.06 
   3  -4  -8    0.29    0.04 
   3  -4  -8    0.32    0.04 
  -3   4   8    0.39    0.06 
   2  -4  -8    0.01    0.03 
   2  -4  -8    0.03    0.04 
  -2   4   8    0.01    0.05 
  -2   4   8   -0.02    0.06 
   1  -4  -8    4.49    0.21 
   1  -4  -8    4.64    0.22 
  -1   4   8    4.45    0.23 
  -1   4   8    4.54    0.23 
   0  -4  -8    0.15    0.04 
   0  -4  -8    0.16    0.04 
   0   4   8    0.18    0.06 
   0   4   8    0.17    0.04 
   0   4   8    0.17    0.07 
  -1  -4  -8    9.97    0.45 
   1   4   8   10.73    0.47 
   1   4   8   10.18    0.45 
   1   4   8    9.73    0.47 
   1   4   8    9.48    0.45 
   1   4   8   10.09    0.46 
   1   4   8    9.92    0.47 
  -2  -4  -8    0.12    0.03 
   2   4   8    0.07    0.07 
   2   4   8    0.09    0.04 
   2   4   8    0.10    0.04 
   2   4   8    0.05    0.06 
   2   4   8    0.03    0.05 
   2   4   8    0.13    0.09 
   2   4   8    0.08    0.07 
   3   4   8    0.48    0.06 
   3   4   8    0.49    0.05 
   3   4   8    0.51    0.09 
   3   4   8    0.48    0.08 
   3   4   8    0.49    0.07 
   3   4   8    0.57    0.08 
   4   4   8    0.50    0.04 
   4   4   8    0.45    0.05 
   4   4   8    0.46    0.06 
   4   4   8    0.40    0.06 
   4   4   8    0.60    0.08 
   2  -5  -8    4.01    0.18 
   2  -5  -8    3.66    0.18 
  -2   5   8    3.96    0.19 
   1  -5  -8    0.11    0.04 
   1  -5  -8    0.08    0.04 
  -1   5   8    0.07    0.06 
  -1   5   8    0.09    0.05 
   0  -5  -8    1.81    0.10 
   0  -5  -8    1.61    0.10 
   0   5   8    1.70    0.12 
   0   5   8    1.71    0.13 
  -1  -5  -8    0.24    0.04 
   1   5   8    0.20    0.05 
   1   5   8    0.19    0.07 
   1   5   8    0.25    0.04 
  -2  -5  -8    2.20    0.11 
   2   5   8    2.07    0.14 
   2   5   8    2.05    0.14 
   2   5   8    2.05    0.15 
   2   5   8    2.04    0.11 
   2   5   8    2.10    0.12 
  -3  -5  -8    1.04    0.06 
   3   5   8    1.04    0.09 
   3   5   8    1.01    0.08 
   3   5   8    1.02    0.10 
   3   5   8    1.04    0.09 
   3   5   8    1.04    0.09 
   3   5   8    1.00    0.07 
   0  -6  -8    1.38    0.07 
   0   6   8    1.42    0.10 
  -1  -6  -8    0.48    0.04 
  -1  -6  -8    0.42    0.04 
   1   6   8    0.47    0.05 
   1   6   8    0.46    0.05 
  -2  -6  -8    0.09    0.02 
  -2  -6  -8    0.06    0.03 
   2   6   8    0.06    0.03 
   3   5  -9    0.33    0.05 
   3   5  -9    0.30    0.06 
   3   5  -9    0.31    0.05 
   3   5  -9    0.34    0.04 
   3   5  -9    0.41    0.05 
   2   5  -9    2.93    0.16 
   2   5  -9    3.06    0.17 
   2   5  -9    3.05    0.16 
   2   5  -9    3.03    0.16 
   2   5  -9    2.94    0.15 
   1   5  -9    0.62    0.07 
   1   5  -9    0.40    0.06 
   1   5  -9    0.67    0.07 
   1   5  -9    0.48    0.08 
  -1  -5   9    0.57    0.06 
   0   5  -9    4.83    0.23 
   0   5  -9    4.94    0.24 
   0  -5   9    4.78    0.23 
   0  -5   9    4.56    0.25 
  -1   5  -9    5.36    0.26 
   1  -5   9    5.16    0.27 
   2  -5   9    0.85    0.07 
   4   4  -9    4.95    0.23 
   4   4  -9    5.07    0.24 
   4   4  -9    4.82    0.24 
   3   4  -9    0.81    0.07 
   3   4  -9    0.86    0.08 
   3   4  -9    0.57    0.07 
   3   4  -9    0.85    0.08 
   2   4  -9    2.09    0.14 
   2   4  -9    2.28    0.16 
   2   4  -9    2.12    0.13 
   2   4  -9    2.17    0.13 
   2   4  -9    2.11    0.15 
   2   4  -9    2.16    0.14 
   1   4  -9    3.24    0.17 
   1   4  -9    3.29    0.18 
   1   4  -9    3.07    0.17 
   1   4  -9    3.29    0.17 
   1   4  -9    2.65    0.18 
   1   4  -9    2.83    0.18 
   0   4  -9   17.27    0.78 
   0   4  -9   18.07    0.77 
   0  -4   9   17.06    0.77 
   0  -4   9   15.81    0.78 
  -1   4  -9    2.72    0.16 
   1  -4   9    2.73    0.20 
   1  -4   9    2.60    0.18 
  -2   4  -9    0.71    0.07 
   2  -4   9    0.43    0.06 
   2  -4   9    0.52    0.09 
  -3   4  -9    0.31    0.05 
   3  -4   9    0.24    0.04 
   4   3  -9    4.67    0.23 
   4   3  -9    4.73    0.23 
   3   3  -9    0.49    0.09 
   3   3  -9    0.51    0.08 
   3   3  -9    0.30    0.05 
   3   3  -9    0.46    0.06 
   3   3  -9    0.43    0.07 
   2   3  -9    0.61    0.08 
   2   3  -9    0.35    0.06 
   2   3  -9    0.59    0.11 
   2   3  -9    0.51    0.06 
   2   3  -9    0.50    0.07 
   2   3  -9    0.55    0.11 
   1   3  -9    0.07    0.04 
   1   3  -9    0.20    0.06 
   1   3  -9    0.09    0.06 
   0   3  -9   23.72    1.05 
   0   3  -9   23.22    1.07 
  -1   3  -9   25.52    1.32 
  -1   3  -9   31.67    1.31 
   1  -3   9   30.34    1.32 
  -2   3  -9    7.12    0.33 
  -2   3  -9    7.00    0.34 
   2  -3   9    7.31    0.33 
   2  -3   9    7.08    0.34 
   2  -3   9    7.07    0.36 
  -3   3  -9    3.37    0.18 
  -3   3  -9    3.34    0.16 
   3  -3   9    3.49    0.18 
   3  -3   9    2.95    0.16 
   3  -3   9    3.13    0.20 
  -4   3  -9    2.45    0.12 
   4  -3   9    2.51    0.13 
   4   2  -9    4.33    0.22 
   4   2  -9    4.02    0.23 
   4   2  -9    4.42    0.22 
   3   2  -9   19.50    0.86 
   3   2  -9   18.53    0.87 
   3   2  -9   18.11    0.86 
   3   2  -9   20.12    0.89 
   2   2  -9    0.28    0.06 
   1   2  -9    0.57    0.07 
  -1  -2   9    0.63    0.05 
   0   2  -9    0.52    0.06 
   0   2  -9    0.56    0.06 
   0  -2   9    0.55    0.05 
  -1   2  -9    2.08    0.13 
   1  -2   9    2.20    0.12 
  -2   2  -9    3.57    0.21 
   2  -2   9    4.14    0.22 
   2  -2   9    4.14    0.20 
   3  -2   9    4.66    0.25 
   3  -2   9    5.11    0.23 
   3  -2   9    4.78    0.27 
  -4   2  -9    5.67    0.26 
   4  -2   9    5.76    0.26 
   4  -2   9    5.37    0.27 
   4  -2   9    5.41    0.29 
   4  -2   9    5.44    0.26 
   5   1  -9    0.11    0.06 
   5   1  -9    0.19    0.04 
   4   1  -9    5.03    0.27 
   4   1  -9    5.33    0.25 
   4   1  -9    4.68    0.25 
   3   1  -9    0.08    0.07 
   3   1  -9    0.03    0.06 
  -3  -1   9    0.05    0.03 
   2   1  -9    1.64    0.11 
  -2  -1   9    1.58    0.08 
   1   1  -9   47.53    2.12 
  -1  -1   9   47.90    2.11 
   0   1  -9   -0.02    0.03 
   0   1  -9   -0.02    0.03 
   0  -1   9   -0.01    0.02 
  -1   1  -9    0.02    0.04 
   1  -1   9    0.16    0.03 
  -2   1  -9   21.55    1.04 
   2  -1   9   22.88    1.03 
   2  -1   9   24.62    1.07 
  -3   1  -9    5.76    0.33 
   3  -1   9    6.84    0.32 
   3  -1   9    6.75    0.31 
   3  -1   9    7.31    0.31 
   3  -1   9    6.63    0.31 
   3  -1   9    6.84    0.34 
   3  -1   9    6.47    0.34 
   4  -1   9    1.89    0.10 
   4  -1   9    1.62    0.15 
   4  -1   9    1.89    0.10 
   4  -1   9    1.78    0.10 
   4  -1   9    1.89    0.10 
   4  -1   9    1.72    0.13 
  -5   1  -9    1.06    0.07 
   5  -1   9    1.31    0.08 
   5  -1   9    1.26    0.07 
   5  -1   9    1.12    0.07 
   5  -1   9    1.29    0.07 
   5  -1   9    1.14    0.07 
   5   0  -9    0.05    0.05 
   5   0  -9    0.07    0.04 
   4   0  -9    1.18    0.10 
   4   0  -9    1.18    0.10 
   4   0  -9    1.03    0.12 
   3   0  -9    0.11    0.07 
   3   0  -9    0.09    0.06 
  -3   0   9    0.07    0.03 
   2   0  -9    3.50    0.19 
  -2   0   9    3.88    0.17 
   1   0  -9    2.86    0.15 
  -1   0   9    3.14    0.14 
   0   0  -9    0.16    0.03 
   0   0   9    0.20    0.02 
  -1   0  -9    0.72    0.06 
  -1   0  -9    0.69    0.06 
   1   0   9    0.69    0.05 
   1   0   9    0.69    0.05 
  -2   0  -9    1.80    0.12 
   2   0   9    1.85    0.11 
   2   0   9    1.85    0.11 
  -3   0  -9    2.17    0.16 
   3   0   9    2.10    0.14 
   3   0   9    2.33    0.16 
   3   0   9    2.28    0.14 
   4   0   9    8.38    0.37 
   4   0   9    8.00    0.37 
   4   0   9    7.91    0.37 
   4   0   9    7.94    0.38 
   4   0   9    8.25    0.36 
   4   0   9    7.64    0.40 
   5   0   9    1.14    0.09 
   5   0   9    1.31    0.07 
   5   0   9    1.20    0.07 
   5   0   9    1.15    0.06 
   5  -1  -9    0.45    0.05 
   5  -1  -9    0.45    0.04 
   4  -1  -9   12.82    0.59 
   4  -1  -9   12.32    0.59 
   4  -1  -9   12.99    0.59 
   4  -1  -9   13.65    0.60 
  -4   1   9   12.85    0.59 
   3  -1  -9   11.64    0.52 
   3  -1  -9   11.33    0.53 
   3  -1  -9   10.41    0.52 
   3  -1  -9   10.60    0.52 
   3  -1  -9   11.60    0.53 
  -3   1   9   12.85    0.52 
  -2   1   9    8.24    0.37 
   1  -1  -9   15.58    0.71 
  -1   1   9   14.58    0.70 
  -1   1   9   16.97    0.70 
   0  -1  -9    6.19    0.28 
   0   1   9    5.91    0.27 
   0   1   9    6.15    0.28 
  -1  -1  -9    6.90    0.32 
  -1  -1  -9    6.99    0.31 
   1   1   9    6.88    0.31 
   1   1   9    6.49    0.31 
  -2  -1  -9    3.86    0.20 
   2   1   9    3.38    0.18 
   2   1   9    3.93    0.19 
  -3  -1  -9    0.05    0.08 
   3   1   9    0.05    0.06 
   3   1   9    0.07    0.08 
   4   1   9   10.12    0.45 
   4   1   9   10.09    0.47 
   4   1   9    9.77    0.48 
   4   1   9   10.21    0.45 
   4   1   9   10.13    0.46 
   5   1   9    0.66    0.04 
   5   1   9    0.71    0.05 
   5   1   9    0.69    0.06 
   5   1   9    0.71    0.05 
   4  -2  -9    0.42    0.06 
   4  -2  -9    0.50    0.07 
   4  -2  -9    0.41    0.05 
   4  -2  -9    0.36    0.05 
  -4   2   9    0.55    0.07 
   3  -2  -9    0.04    0.05 
   3  -2  -9    0.02    0.04 
   3  -2  -9    0.00    0.05 
   3  -2  -9    0.01    0.06 
   3  -2  -9    0.02    0.06 
  -3   2   9   -0.02    0.06 
   2  -2  -9    0.61    0.06 
  -2   2   9    0.74    0.06 
  -2   2   9    0.89    0.08 
   1  -2  -9    3.05    0.16 
  -1   2   9    3.09    0.15 
   0  -2  -9  128.26    5.75 
   0   2   9  131.53    5.75 
  -1  -2  -9    0.02    0.05 
  -1  -2  -9    0.00    0.03 
   1   2   9    0.00    0.04 
   1   2   9    0.00    0.03 
  -2  -2  -9   29.16    1.32 
  -2  -2  -9   28.79    1.30 
   2   2   9   30.78    1.31 
   2   2   9   27.59    1.32 
   2   2   9   29.46    1.31 
  -3  -2  -9    4.36    0.27 
   3   2   9    5.58    0.23 
   3   2   9    4.94    0.24 
   3   2   9    4.93    0.26 
   3   2   9    5.03    0.26 
   3   2   9    5.10    0.34 
   3   2   9    4.46    0.25 
   3   2   9    5.25    0.25 
   3   2   9    5.24    0.23 
   4   2   9    5.46    0.25 
   4   2   9    5.51    0.25 
   4   2   9    5.62    0.26 
   4   2   9    5.10    0.28 
   4   2   9    5.27    0.25 
   4   2   9    5.34    0.28 
   5   2   9    0.14    0.03 
   5   2   9    0.14    0.03 
   5   2   9    0.14    0.04 
   5   2   9    0.16    0.02 
   4  -3  -9    0.04    0.03 
   4  -3  -9    0.00    0.03 
   3  -3  -9    3.96    0.19 
   3  -3  -9    3.83    0.20 
  -3   3   9    3.94    0.20 
   2  -3  -9    0.07    0.04 
   2  -3  -9    0.09    0.05 
  -2   3   9    0.02    0.06 
  -2   3   9    0.09    0.06 
  -1   3   9   13.13    0.59 
  -1   3   9   13.04    0.60 
   0  -3  -9    0.28    0.06 
   0   3   9    0.23    0.04 
  -1  -3  -9    6.84    0.33 
   1   3   9    6.82    0.32 
  -2  -3  -9    3.12    0.17 
  -2  -3  -9    3.16    0.20 
   2   3   9    3.08    0.19 
   2   3   9    3.09    0.17 
   2   3   9    3.36    0.18 
   2   3   9    3.39    0.19 
   3   3   9   65.50    2.92 
   3   3   9   66.21    2.93 
   3   3   9   65.17    2.94 
   3   3   9   65.15    2.93 
   3   3   9   66.18    2.94 
   3   3   9   65.99    2.92 
   3   3   9   67.38    2.92 
   4   3   9    0.62    0.04 
   4   3   9    0.46    0.07 
   4   3   9    0.47    0.05 
   4   3   9    0.48    0.07 
   4   3   9    0.59    0.04 
   3  -4  -9    3.00    0.14 
  -3   4   9    3.10    0.16 
   2  -4  -9    3.38    0.16 
   2  -4  -9    3.16    0.16 
  -2   4   9    3.18    0.18 
  -2   4   9    3.22    0.17 
   1  -4  -9    0.15    0.04 
   1  -4  -9    0.16    0.04 
  -1   4   9    0.22    0.06 
  -1   4   9    0.11    0.06 
   0  -4  -9    2.43    0.12 
   0  -4  -9    2.65    0.13 
   0   4   9    2.42    0.14 
   0   4   9    2.26    0.13 
   0   4   9    2.45    0.16 
  -1  -4  -9    6.02    0.28 
   1   4   9    5.74    0.28 
   1   4   9    6.21    0.29 
   1   4   9    5.92    0.30 
   1   4   9    5.87    0.30 
   1   4   9    6.42    0.28 
  -2  -4  -9   12.13    0.55 
   2   4   9   12.48    0.57 
   2   4   9   11.84    0.55 
   2   4   9   12.66    0.55 
   2   4   9   12.22    0.56 
   2   4   9   12.04    0.56 
   2   4   9   12.22    0.58 
   2   4   9   12.58    0.57 
   3   4   9    0.14    0.06 
   3   4   9    0.15    0.07 
   3   4   9    0.12    0.04 
   3   4   9    0.09    0.03 
   3   4   9    0.08    0.07 
   3   4   9    0.09    0.03 
   3   4   9    0.08    0.08 
   4   4   9    0.08    0.05 
   4   4   9    0.11    0.04 
   4   4   9    0.11    0.03 
   4   4   9    0.09    0.04 
   4   4   9    0.09    0.07 
   2  -5  -9    0.02    0.03 
   2  -5  -9    0.01    0.03 
  -2   5   9    0.03    0.04 
  -2   5   9    0.07    0.05 
   1  -5  -9    6.24    0.30 
   1  -5  -9    6.66    0.30 
  -1   5   9    6.73    0.31 
  -1   5   9    6.75    0.31 
   0  -5  -9    0.22    0.04 
   0  -5  -9    0.26    0.04 
   0   5   9    0.22    0.06 
   0   5   9    0.27    0.06 
  -1  -5  -9    0.04    0.03 
   1   5   9    0.06    0.06 
   1   5   9    0.04    0.04 
   1   5   9    0.02    0.05 
  -2  -5  -9    0.01    0.03 
   2   5   9   -0.01    0.07 
   2   5   9    0.02    0.06 
   2   5   9    0.01    0.06 
   2   5   9   -0.04    0.03 
   2   5   9    0.01    0.04 
  -3  -5  -9    2.64    0.12 
   3   5   9    2.61    0.15 
   3   5   9    2.59    0.14 
   3   5   9    2.67    0.16 
   3   5   9    2.50    0.13 
   3   5   9    2.55    0.14 
   3   5   9    2.69    0.13 
   0  -6  -9    0.80    0.05 
   0   6   9    0.85    0.07 
  -1  -6  -9    0.36    0.03 
   1   6   9    0.36    0.05 
   3   5 -10    2.08    0.12 
   3   5 -10    1.86    0.11 
   3   5 -10    1.97    0.10 
   3   5 -10    2.03    0.12 
  -3  -5  10    1.88    0.12 
   2   5 -10    1.22    0.09 
   2   5 -10    1.17    0.09 
   2   5 -10    1.28    0.11 
   2   5 -10    1.31    0.10 
   2   5 -10    1.20    0.09 
  -2  -5  10    1.14    0.08 
   1   5 -10    0.69    0.07 
   1   5 -10    0.59    0.07 
   1   5 -10    0.65    0.06 
   1   5 -10    0.56    0.07 
  -1  -5  10    0.80    0.06 
   0   5 -10    7.27    0.35 
   0   5 -10    7.01    0.34 
   0  -5  10    7.50    0.34 
  -1   5 -10   -0.01    0.05 
   1  -5  10    0.00    0.08 
   4   4 -10    7.04    0.32 
   3   4 -10    0.12    0.05 
   3   4 -10    0.09    0.05 
   3   4 -10    0.07    0.06 
   3   4 -10    0.06    0.05 
   2   4 -10   12.14    0.57 
   2   4 -10   12.23    0.58 
   2   4 -10   12.29    0.57 
   2   4 -10   12.17    0.58 
   2   4 -10   12.90    0.57 
   2   4 -10   12.68    0.57 
   1   4 -10    0.37    0.07 
   1   4 -10    0.24    0.06 
   1   4 -10    0.27    0.06 
   1   4 -10    0.41    0.07 
   1   4 -10    0.18    0.05 
   0   4 -10    2.81    0.16 
   0   4 -10    2.67    0.16 
   0  -4  10    2.73    0.16 
  -1   4 -10    2.54    0.15 
   1  -4  10    2.42    0.17 
   1  -4  10    2.56    0.15 
  -2   4 -10   -0.01    0.05 
   2  -4  10    0.01    0.04 
   2  -4  10    0.05    0.07 
   4   3 -10    2.21    0.13 
   4   3 -10    2.21    0.13 
   3   3 -10    0.00    0.07 
   3   3 -10    0.03    0.07 
   3   3 -10    0.04    0.05 
   3   3 -10    0.01    0.06 
   3   3 -10    0.02    0.05 
   2   3 -10    5.79    0.29 
   2   3 -10    5.39    0.28 
   2   3 -10    5.88    0.28 
   2   3 -10    5.75    0.29 
   2   3 -10    5.75    0.29 
   1   3 -10    0.66    0.07 
   1   3 -10    0.94    0.09 
   1   3 -10    0.67    0.08 
   1   3 -10    0.82    0.10 
   0   3 -10    0.15    0.05 
   0   3 -10    0.11    0.07 
  -1   3 -10  114.87    5.98 
  -1   3 -10  138.48    5.97 
  -1   3 -10  141.39    5.97 
   1  -3  10  140.49    5.97 
   1  -3  10  138.91    5.98 
  -2   3 -10    0.74    0.07 
  -2   3 -10    0.62    0.07 
   2  -3  10    0.77    0.11 
   2  -3  10    0.59    0.08 
   2  -3  10    0.71    0.07 
  -3   3 -10    1.87    0.10 
   3  -3  10    1.76    0.10 
   3  -3  10    1.87    0.15 
   3  -3  10    1.84    0.12 
   4  -3  10    1.71    0.10 
   4   2 -10   11.01    0.51 
   4   2 -10   11.41    0.53 
   4   2 -10   11.21    0.51 
   3   2 -10   22.29    1.03 
   3   2 -10   23.41    1.03 
   3   2 -10   22.94    1.04 
   2   2 -10    1.92    0.14 
   2   2 -10    2.09    0.13 
   1   2 -10    3.43    0.18 
  -1  -2  10    3.34    0.16 
   0   2 -10   18.55    0.85 
   0   2 -10   18.42    0.84 
   0  -2  10   18.88    0.83 
  -1   2 -10   12.47    0.58 
   1  -2  10   12.68    0.57 
   1  -2  10   12.68    0.60 
  -2   2 -10    1.08    0.11 
   2  -2  10    1.33    0.12 
   2  -2  10    1.26    0.10 
  -3   2 -10    0.19    0.04 
   3  -2  10    0.15    0.04 
   3  -2  10    0.17    0.06 
   3  -2  10    0.12    0.09 
  -4   2 -10    0.51    0.05 
   4  -2  10    0.48    0.06 
   4  -2  10    0.42    0.04 
   4  -2  10    0.51    0.04 
   4  -2  10    0.35    0.08 
   5   1 -10    0.16    0.04 
   4   1 -10    3.64    0.18 
   4   1 -10    3.46    0.20 
   4   1 -10    3.33    0.18 
   4   1 -10    3.51    0.19 
   3   1 -10   46.42    2.08 
   3   1 -10   45.78    2.09 
   3   1 -10   44.62    2.08 
   3   1 -10   46.97    2.08 
  -3  -1  10   50.11    2.08 
   2   1 -10    1.38    0.10 
  -2  -1  10    1.38    0.08 
   1   1 -10    0.18    0.04 
  -1  -1  10    0.21    0.02 
   0   1 -10    0.40    0.06 
   0   1 -10    0.35    0.05 
   0  -1  10    0.43    0.04 
  -1   1 -10   40.88    1.80 
   1  -1  10   39.52    1.79 
  -2   1 -10    1.36    0.11 
   2  -1  10    1.41    0.11 
   2  -1  10    1.44    0.10 
   3  -1  10    1.36    0.08 
   3  -1  10    1.12    0.08 
   3  -1  10    1.16    0.11 
   3  -1  10    1.04    0.09 
   3  -1  10    1.14    0.13 
  -4   1 -10    0.34    0.05 
   4  -1  10    0.21    0.06 
   4  -1  10    0.31    0.03 
   4  -1  10    0.29    0.04 
   4  -1  10    0.28    0.04 
   4  -1  10    0.21    0.09 
   4  -1  10    0.32    0.04 
   5   0 -10    0.22    0.04 
   4   0 -10    4.56    0.23 
   4   0 -10    4.87    0.23 
   4   0 -10    4.35    0.24 
   3   0 -10    0.09    0.07 
   3   0 -10    0.04    0.05 
   3   0 -10    0.13    0.06 
   3   0 -10    0.09    0.07 
  -3   0  10    0.08    0.03 
   2   0 -10    0.52    0.07 
  -2   0  10    0.73    0.05 
   1   0 -10   31.54    1.43 
  -1   0  10   32.35    1.42 
   0   0 -10   19.87    0.86 
   0   0  10   18.60    0.86 
  -1   0 -10   18.38    0.81 
  -1   0 -10   17.93    0.80 
   1   0  10   17.35    0.80 
  -2   0 -10    9.58    0.45 
   2   0  10    9.61    0.44 
   2   0  10    9.56    0.44 
  -3   0 -10   14.13    0.75 
   3   0  10   16.10    0.74 
   3   0  10   17.62    0.74 
   3   0  10   16.51    0.74 
   3   0  10   16.54    0.75 
   3   0  10   15.17    0.74 
   3   0  10   17.49    0.73 
  -4   0 -10    3.16    0.20 
   4   0  10    3.94    0.20 
   4   0  10    3.70    0.22 
   4   0  10    3.93    0.19 
   4   0  10    4.07    0.19 
   4   0  10    4.16    0.18 
   5   0  10    2.39    0.11 
   5   0  10    2.39    0.11 
   5   0  10    2.33    0.13 
   5   0  10    2.47    0.12 
   4  -1 -10    5.73    0.28 
   4  -1 -10    5.91    0.28 
   4  -1 -10    5.34    0.28 
   4  -1 -10    6.06    0.29 
  -4   1  10    5.86    0.28 
   3  -1 -10    0.67    0.07 
   3  -1 -10    0.59    0.08 
   3  -1 -10    0.60    0.07 
   3  -1 -10    0.53    0.07 
   3  -1 -10    0.67    0.07 
  -2   1  10    3.10    0.15 
   1  -1 -10   21.20    0.98 
  -1   1  10   22.57    0.97 
   0  -1 -10    1.20    0.08 
   0   1  10    1.15    0.06 
   0   1  10    1.27    0.07 
  -1  -1 -10   11.27    0.52 
  -1  -1 -10   11.85    0.53 
   1   1  10   11.81    0.52 
   1   1  10   11.06    0.52 
  -2  -1 -10    4.25    0.23 
   2   1  10    4.55    0.22 
  -3  -1 -10    4.52    0.26 
   3   1  10    4.64    0.25 
   3   1  10    5.39    0.25 
   3   1  10    3.98    0.24 
   3   1  10    5.01    0.29 
   3   1  10    5.27    0.26 
   3   1  10    5.56    0.25 
   3   1  10    4.76    0.23 
   4   1  10    5.07    0.23 
   4   1  10    4.97    0.23 
   4   1  10    4.61    0.26 
   4   1  10    5.13    0.30 
   4   1  10    5.00    0.23 
   4   1  10    5.00    0.24 
   5   1  10    4.37    0.20 
   5   1  10    4.23    0.19 
   5   1  10    4.28    0.20 
   5   1  10    4.19    0.20 
   4  -2 -10    0.07    0.04 
   4  -2 -10    0.06    0.05 
   4  -2 -10    0.05    0.04 
   4  -2 -10    0.10    0.04 
  -4   2  10    0.10    0.06 
   3  -2 -10    0.72    0.07 
   3  -2 -10    0.69    0.06 
   3  -2 -10    0.86    0.07 
   3  -2 -10    0.61    0.07 
   3  -2 -10    0.75    0.09 
  -3   2  10    0.80    0.08 
  -3   2  10    0.65    0.08 
   2  -2 -10   11.41    0.51 
  -2   2  10   11.22    0.51 
  -2   2  10   10.99    0.51 
   1  -2 -10    6.97    0.33 
  -1   2  10    6.90    0.32 
   0  -2 -10    3.58    0.18 
   0   2  10    3.63    0.18 
  -1  -2 -10    5.82    0.28 
   1   2  10    5.89    0.28 
  -2  -2 -10    2.58    0.15 
  -2  -2 -10    2.76    0.17 
   2   2  10    2.88    0.16 
   2   2  10    2.55    0.16 
   2   2  10    2.95    0.15 
   3   2  10   44.04    1.95 
   3   2  10   43.37    1.94 
   3   2  10   46.17    1.94 
   3   2  10   42.26    1.95 
   3   2  10   45.27    1.94 
   3   2  10   43.66    1.97 
   3   2  10   41.92    1.96 
   4   2  10    3.26    0.15 
   4   2  10    3.05    0.15 
   4   2  10    3.26    0.15 
   4   2  10    3.04    0.17 
   4   2  10    3.03    0.19 
   4   2  10    3.09    0.19 
   5   2  10    0.05    0.02 
   5   2  10    0.02    0.04 
   5   2  10    0.04    0.03 
   5   2  10    0.05    0.02 
   4  -3 -10    6.11    0.29 
   4  -3 -10    6.43    0.28 
   3  -3 -10    0.03    0.05 
   3  -3 -10   -0.01    0.04 
  -3   3  10    0.05    0.06 
   2  -3 -10    0.06    0.05 
   2  -3 -10    0.16    0.04 
  -2   3  10    0.07    0.06 
  -2   3  10    0.07    0.06 
  -1   3  10    0.00    0.04 
  -1   3  10    0.08    0.06 
   0  -3 -10   12.25    0.55 
   0   3  10   11.53    0.54 
  -1  -3 -10    9.11    0.40 
   1   3  10    7.91    0.41 
   1   3  10    8.58    0.40 
  -2  -3 -10   13.25    0.66 
  -2  -3 -10   13.20    0.64 
   2   3  10   14.75    0.63 
   2   3  10   12.87    0.65 
   2   3  10   13.95    0.64 
   2   3  10   13.55    0.65 
   2   3  10   15.54    0.62 
   2   3  10   13.40    0.64 
   2   3  10   14.43    0.64 
   2   3  10   13.20    0.64 
   2   3  10   15.08    0.62 
   3   3  10    6.25    0.28 
   3   3  10    6.26    0.28 
   3   3  10    6.08    0.31 
   3   3  10    6.12    0.29 
   3   3  10    5.81    0.30 
   3   3  10    6.13    0.30 
   3   3  10    5.88    0.33 
   4   3  10    0.18    0.04 
   4   3  10    0.11    0.17 
   4   3  10    0.26    0.03 
   4   3  10    0.24    0.06 
   4   3  10    0.21    0.06 
   4   3  10    0.28    0.03 
   3  -4 -10    0.12    0.03 
  -3   4  10    0.17    0.05 
   2  -4 -10    1.48    0.08 
  -2   4  10    1.40    0.10 
  -2   4  10    1.48    0.11 
   1  -4 -10   22.39    0.97 
   1  -4 -10   21.46    0.97 
  -1   4  10   21.49    0.98 
  -1   4  10   21.79    0.98 
   0  -4 -10   18.59    0.76 
   0  -4 -10   17.35    0.76 
   0   4  10   16.09    0.76 
   0   4  10   17.06    0.77 
   0   4  10   15.87    0.79 
  -1  -4 -10    2.59    0.12 
   1   4  10    2.25    0.16 
   1   4  10    2.19    0.12 
   1   4  10    2.31    0.16 
   1   4  10    2.34    0.12 
  -2  -4 -10    1.57    0.08 
   2   4  10    1.53    0.16 
   2   4  10    1.46    0.14 
   2   4  10    1.50    0.10 
   2   4  10    1.46    0.09 
   2   4  10    1.54    0.09 
   2   4  10    1.48    0.12 
   2   4  10    1.39    0.12 
   3   4  10    9.90    0.46 
   3   4  10    9.43    0.44 
   3   4  10    9.96    0.44 
   3   4  10   10.04    0.46 
   3   4  10   10.10    0.48 
   3   4  10    9.94    0.46 
   3   4  10    9.98    0.45 
   4   4  10    1.58    0.08 
   4   4  10    1.49    0.10 
   4   4  10    1.51    0.12 
   4   4  10    1.64    0.09 
   2  -5 -10    0.12    0.03 
   2  -5 -10    0.09    0.03 
  -2   5  10    0.12    0.05 
   1  -5 -10   12.58    0.53 
   1  -5 -10   11.66    0.53 
  -1   5  10   12.03    0.54 
  -1   5  10   11.44    0.54 
   0  -5 -10    6.14    0.27 
   0  -5 -10    5.81    0.27 
   0   5  10    5.85    0.29 
   0   5  10    5.78    0.28 
  -1  -5 -10    3.51    0.16 
  -1  -5 -10    3.24    0.16 
   1   5  10    3.28    0.18 
   1   5  10    3.27    0.16 
  -2  -5 -10    1.57    0.08 
  -2  -5 -10    1.54    0.14 
   2   5  10    1.53    0.12 
   2   5  10    1.49    0.09 
   2   5  10    1.50    0.13 
   2   5  10    1.58    0.12 
   2   5  10    1.58    0.10 
  -3  -5 -10    0.69    0.05 
   3   5  10    0.74    0.09 
   3   5  10    0.68    0.06 
   3   5  10    0.78    0.07 
   3   5  10    0.68    0.07 
   3   5  10    0.69    0.05 
  -1  -6 -10    0.01    0.03 
   3   5 -11    0.05    0.06 
   3   5 -11    0.01    0.03 
   2   5 -11    0.67    0.07 
   2   5 -11    0.60    0.06 
   2   5 -11    0.66    0.07 
   2   5 -11    0.56    0.06 
   2   5 -11    0.69    0.07 
  -2  -5  11    0.67    0.06 
   1   5 -11    1.79    0.13 
   1   5 -11    1.86    0.11 
   1   5 -11    2.04    0.13 
   1   5 -11    1.93    0.13 
  -1  -5  11    1.89    0.11 
   0   5 -11    1.61    0.12 
   0  -5  11    1.59    0.10 
  -1   5 -11    2.86    0.16 
   4   4 -11    0.98    0.07 
   3   4 -11    0.13    0.07 
   3   4 -11    0.17    0.05 
   3   4 -11    0.13    0.05 
   3   4 -11    0.13    0.05 
   3   4 -11    0.14    0.06 
   2   4 -11    0.01    0.05 
   2   4 -11    0.05    0.04 
   2   4 -11    0.07    0.07 
   2   4 -11    0.05    0.06 
   2   4 -11    0.09    0.06 
   2   4 -11    0.07    0.05 
   1   4 -11    0.33    0.07 
   1   4 -11    0.29    0.05 
   1   4 -11    0.26    0.06 
   1   4 -11    0.37    0.07 
   1   4 -11    0.27    0.07 
  -1  -4  11    0.33    0.06 
   0   4 -11    1.37    0.11 
   0   4 -11    1.36    0.12 
   0  -4  11    1.33    0.11 
  -1   4 -11    7.66    0.36 
   1  -4  11    7.92    0.36 
   1  -4  11    7.26    0.37 
  -2   4 -11    0.01    0.05 
   2  -4  11    0.05    0.07 
   2  -4  11    0.03    0.04 
   4   3 -11    5.29    0.26 
   4   3 -11    5.26    0.25 
   4   3 -11    5.48    0.27 
   3   3 -11    0.08    0.05 
   3   3 -11    0.14    0.05 
   3   3 -11    0.11    0.06 
   3   3 -11    0.14    0.07 
   3   3 -11    0.14    0.08 
   2   3 -11    6.53    0.33 
   2   3 -11    6.70    0.31 
   2   3 -11    6.50    0.32 
   2   3 -11    6.58    0.32 
   2   3 -11    6.38    0.33 
   1   3 -11    0.21    0.07 
   1   3 -11    0.26    0.06 
   1   3 -11    0.18    0.05 
   1   3 -11    0.16    0.06 
   1   3 -11    0.20    0.06 
   1   3 -11    0.12    0.06 
   0   3 -11   33.07    1.49 
   0   3 -11   33.48    1.49 
   0  -3  11   33.48    1.49 
  -1   3 -11    2.57    0.14 
  -1   3 -11    2.37    0.14 
   1  -3  11    2.42    0.16 
   1  -3  11    2.51    0.15 
  -2   3 -11   13.57    0.57 
  -2   3 -11   12.33    0.58 
   2  -3  11   13.02    0.60 
   2  -3  11   11.79    0.58 
  -3   3 -11    0.68    0.05 
   3  -3  11    0.55    0.09 
   3  -3  11    0.43    0.06 
   4   2 -11    5.14    0.25 
   4   2 -11    4.95    0.25 
   4   2 -11    5.33    0.27 
   3   2 -11   14.47    0.65 
   3   2 -11   14.54    0.64 
   3   2 -11   14.95    0.64 
   3   2 -11   12.06    0.64 
   2   2 -11    3.92    0.21 
   2   2 -11    3.96    0.20 
   2   2 -11    3.98    0.21 
   2   2 -11    3.78    0.21 
   1   2 -11    1.19    0.10 
  -1  -2  11    1.37    0.08 
   0   2 -11    0.17    0.07 
   0   2 -11    0.17    0.06 
   0  -2  11    0.21    0.04 
  -1   2 -11    0.20    0.06 
   1  -2  11    0.31    0.05 
  -2   2 -11    0.10    0.04 
   2  -2  11    0.01    0.06 
   2  -2  11    0.07    0.04 
   2  -2  11    0.01    0.08 
   2  -2  11    0.23    0.08 
  -3   2 -11    2.03    0.11 
   3  -2  11    2.06    0.16 
   3  -2  11    2.09    0.11 
   3  -2  11    1.90    0.13 
  -4   2 -11    0.03    0.03 
   4  -2  11   -0.02    0.04 
   4  -2  11    0.01    0.03 
   4  -2  11    0.03    0.06 
   4   1 -11    1.69    0.14 
   4   1 -11    1.63    0.12 
   4   1 -11    1.78    0.12 
   4   1 -11    1.72    0.11 
   3   1 -11   51.69    2.21 
   3   1 -11   45.67    2.21 
   3   1 -11   50.45    2.22 
   3   1 -11   50.83    2.21 
   2   1 -11   35.68    1.65 
  -2  -1  11   38.01    1.64 
   1   1 -11   14.63    0.66 
  -1  -1  11   14.45    0.65 
   0   1 -11    7.11    0.33 
   0  -1  11    7.07    0.32 
  -1   1 -11    9.50    0.45 
   1  -1  11    9.76    0.44 
  -2   1 -11    3.38    0.20 
   2  -1  11    3.66    0.19 
   2  -1  11    3.74    0.20 
  -3   1 -11    1.04    0.08 
   3  -1  11    1.04    0.07 
   3  -1  11    1.01    0.13 
   3  -1  11    0.68    0.07 
   3  -1  11    1.01    0.10 
  -4   1 -11    0.55    0.05 
   4  -1  11    0.55    0.05 
   4  -1  11    0.53    0.05 
   4  -1  11    0.42    0.09 
   4  -1  11    0.41    0.06 
   4  -1  11    0.54    0.05 
   5   0 -11    2.01    0.11 
   4   0 -11    3.77    0.19 
   4   0 -11    3.51    0.20 
   4   0 -11    3.87    0.21 
   4   0 -11    3.32    0.19 
   3   0 -11   24.56    1.08 
   3   0 -11   24.47    1.09 
   3   0 -11   22.87    1.08 
   3   0 -11   24.72    1.08 
   2   0 -11   10.50    0.47 
  -2   0  11    9.41    0.45 
   1   0 -11    3.35    0.18 
  -1   0  11    3.42    0.16 
   0   0 -11    0.05    0.03 
   0   0  11    0.06    0.02 
  -1   0 -11    0.01    0.04 
  -1   0 -11    0.02    0.05 
   1   0  11    0.01    0.03 
  -2   0 -11    2.16    0.14 
   2   0  11    2.11    0.12 
   2   0  11    2.08    0.14 
  -3   0 -11    3.71    0.18 
   3   0  11    3.65    0.20 
   3   0  11    3.65    0.18 
   3   0  11    3.89    0.18 
   3   0  11    3.81    0.17 
   3   0  11    3.82    0.22 
   3   0  11    3.65    0.18 
   3   0  11    3.63    0.21 
   4   0  11    0.15    0.08 
   4   0  11    0.16    0.06 
   4   0  11    0.19    0.04 
   4   0  11    0.20    0.03 
   4   0  11    0.16    0.03 
   5   0  11    3.05    0.14 
   5   0  11    2.80    0.14 
   5   0  11    3.01    0.15 
   5   0  11    3.08    0.14 
   4  -1 -11    0.04    0.05 
   4  -1 -11   -0.01    0.05 
   4  -1 -11    0.03    0.06 
   4  -1 -11    0.04    0.05 
  -4   1  11    0.01    0.06 
   3  -1 -11    3.98    0.20 
   3  -1 -11    3.74    0.20 
   3  -1 -11    3.61    0.20 
   3  -1 -11    3.93    0.20 
   3  -1 -11    4.05    0.22 
  -2   1  11    0.12    0.03 
   1  -1 -11   10.52    0.49 
  -1   1  11   10.45    0.47 
   0  -1 -11    2.97    0.15 
   0   1  11    2.69    0.14 
   0   1  11    3.10    0.14 
  -1  -1 -11    1.33    0.11 
  -1  -1 -11    1.34    0.09 
   1   1  11    1.33    0.08 
   1   1  11    1.33    0.08 
  -2  -1 -11    0.88    0.10 
   2   1  11    0.90    0.10 
   2   1  11    0.79    0.08 
   3   1  11    8.25    0.40 
   3   1  11    8.55    0.37 
   3   1  11    8.15    0.39 
   3   1  11    8.69    0.38 
   3   1  11    7.73    0.39 
   3   1  11    8.16    0.37 
   4   1  11   22.59    0.98 
   4   1  11   21.78    0.98 
   4   1  11   21.94    0.99 
   4   1  11   22.83    0.98 
   4   1  11   20.70    1.00 
   4   1  11   22.18    0.99 
   5   1  11    4.66    0.21 
   5   1  11    4.73    0.21 
   5   1  11    4.67    0.21 
   5   1  11    4.64    0.22 
   4  -2 -11    1.77    0.11 
   4  -2 -11    2.08    0.11 
   4  -2 -11    1.99    0.13 
  -4   2  11    2.04    0.12 
   3  -2 -11    3.29    0.16 
   3  -2 -11    3.17    0.18 
   3  -2 -11    3.33    0.17 
   3  -2 -11    3.24    0.18 
   3  -2 -11    3.17    0.19 
  -3   2  11    3.21    0.18 
  -3   2  11    3.09    0.18 
   2  -2 -11    2.90    0.16 
   2  -2 -11    2.94    0.17 
   2  -2 -11    2.75    0.17 
   2  -2 -11    3.24    0.16 
  -2   2  11    2.84    0.16 
  -2   2  11    2.91    0.16 
   1  -2 -11   12.76    0.59 
  -1   2  11   12.59    0.57 
   0  -2 -11   16.56    0.75 
   0   2  11   16.62    0.75 
  -1  -2 -11    6.07    0.30 
   1   2  11    6.35    0.29 
  -2  -2 -11    9.12    0.44 
  -2  -2 -11    9.41    0.46 
   2   2  11    9.92    0.45 
   2   2  11   10.11    0.45 
   2   2  11    9.13    0.44 
   3   2  11   41.27    1.79 
   3   2  11   38.80    1.81 
   3   2  11   39.79    1.80 
   3   2  11   42.23    1.80 
   3   2  11   38.45    1.80 
   3   2  11   42.64    1.79 
   3   2  11   39.72    1.82 
   4   2  11    3.86    0.17 
   4   2  11    3.53    0.21 
   4   2  11    3.82    0.19 
   4   2  11    3.79    0.18 
   4   2  11    3.74    0.17 
   4   2  11    3.59    0.21 
   5   2  11    0.05    0.03 
   5   2  11    0.04    0.02 
   5   2  11    0.05    0.02 
   3  -3 -11    0.46    0.06 
   3  -3 -11    0.41    0.04 
  -3   3  11    0.35    0.06 
  -3   3  11    0.49    0.07 
   2  -3 -11    0.80    0.06 
   2  -3 -11    0.69    0.07 
  -2   3  11    0.51    0.07 
  -2   3  11    0.75    0.07 
   1  -3 -11    2.12    0.14 
   1  -3 -11    2.29    0.12 
  -1   3  11    2.50    0.17 
  -1   3  11    2.12    0.14 
   0  -3 -11    7.36    0.34 
   0   3  11    6.87    0.33 
  -1  -3 -11    0.00    0.06 
   1   3  11    0.05    0.07 
   1   3  11    0.01    0.05 
   2   3  11    1.47    0.13 
   2   3  11    0.89    0.09 
   2   3  11    1.06    0.09 
   2   3  11    1.13    0.07 
   2   3  11    1.33    0.10 
   2   3  11    1.13    0.07 
   2   3  11    1.15    0.11 
   3   3  11    4.54    0.24 
   3   3  11    4.55    0.21 
   3   3  11    4.52    0.22 
   3   3  11    4.71    0.21 
   3   3  11    4.60    0.25 
   3   3  11    4.60    0.27 
   3   3  11    4.59    0.24 
   4   3  11    2.67    0.13 
   4   3  11    2.65    0.15 
   4   3  11    2.69    0.25 
   4   3  11    2.70    0.16 
   4   3  11    2.81    0.13 
   4   3  11    2.76    0.14 
   3  -4 -11    1.84    0.09 
   2  -4 -11    0.93    0.07 
  -2   4  11    1.04    0.09 
  -2   4  11    0.99    0.09 
   1  -4 -11   42.07    1.89 
   1  -4 -11   43.48    1.89 
  -1   4  11   42.06    1.89 
  -1   4  11   42.48    1.89 
   0  -4 -11    1.34    0.08 
   0  -4 -11    1.47    0.09 
   0   4  11    1.32    0.09 
   0   4  11    1.22    0.12 
  -1  -4 -11    4.37    0.20 
   1   4  11    4.30    0.20 
   1   4  11    4.19    0.23 
   1   4  11    4.24    0.20 
  -2  -4 -11    4.52    0.20 
   2   4  11    4.38    0.20 
   2   4  11    4.39    0.25 
   2   4  11    4.47    0.22 
   2   4  11    4.29    0.23 
   2   4  11    4.32    0.24 
   2   4  11    4.36    0.24 
   2   4  11    4.52    0.21 
  -3  -4 -11    3.08    0.14 
   3   4  11    2.97    0.18 
   3   4  11    3.14    0.17 
   3   4  11    3.13    0.16 
   3   4  11    3.04    0.17 
   3   4  11    3.09    0.15 
   3   4  11    3.07    0.19 
   3   4  11    3.05    0.14 
   4   4  11    4.77    0.22 
   4   4  11    4.92    0.24 
   4   4  11    4.79    0.22 
   4   4  11    4.39    0.21 
   4   4  11    4.98    0.22 
   1  -5 -11    0.35    0.04 
   1  -5 -11    0.24    0.03 
  -1   5  11    0.33    0.05 
  -1   5  11    0.31    0.05 
   0  -5 -11    0.07    0.03 
   0  -5 -11    0.09    0.03 
   0   5  11    0.08    0.06 
  -1  -5 -11    2.12    0.11 
  -1  -5 -11    2.11    0.11 
   1   5  11    2.04    0.11 
   1   5  11    2.14    0.13 
  -2  -5 -11    3.40    0.16 
  -2  -5 -11    3.25    0.16 
   2   5  11    3.50    0.18 
   2   5  11    3.44    0.16 
   2   5  11    3.34    0.19 
   2   5  11    3.28    0.17 
  -3  -5 -11    0.58    0.04 
   3   5  11    0.57    0.06 
   3   5  11    0.72    0.07 
   3   5  11    0.68    0.07 
   3   5  11    0.67    0.04 
   3   5  11    0.66    0.06 
   2   5 -12    0.20    0.04 
   2   5 -12    0.38    0.06 
   2   5 -12    0.36    0.04 
   2   5 -12    0.28    0.04 
   2   5 -12    0.41    0.05 
  -2  -5  12    0.34    0.04 
   1   5 -12    2.90    0.17 
   1   5 -12    2.91    0.15 
   1   5 -12    2.92    0.16 
  -1  -5  12    3.05    0.16 
  -1  -5  12    2.89    0.15 
   0   5 -12    0.02    0.05 
   0  -5  12    0.04    0.04 
   3   4 -12    9.22    0.43 
   3   4 -12    9.47    0.44 
   3   4 -12    9.07    0.43 
   3   4 -12    9.31    0.43 
   3   4 -12    9.59    0.43 
   2   4 -12    2.61    0.16 
   2   4 -12    2.45    0.14 
   2   4 -12    2.53    0.15 
   2   4 -12    2.37    0.15 
   2   4 -12    2.39    0.15 
   2   4 -12    2.46    0.14 
  -2  -4  12    2.25    0.14 
   1   4 -12   -0.01    0.04 
   1   4 -12    0.01    0.05 
   1   4 -12    0.02    0.06 
   1   4 -12    0.03    0.06 
  -1  -4  12   -0.01    0.05 
   0   4 -12    0.03    0.06 
   0   4 -12    0.03    0.05 
   0  -4  12    0.04    0.05 
  -1   4 -12   17.74    0.83 
   1  -4  12   18.96    0.83 
  -2   4 -12    0.10    0.05 
   2  -4  12    0.07    0.07 
   4   3 -12    0.57    0.07 
   4   3 -12    0.47    0.05 
   4   3 -12    0.42    0.05 
   3   3 -12    0.40    0.05 
   3   3 -12    0.57    0.07 
   3   3 -12    0.57    0.08 
   3   3 -12    0.44    0.06 
   3   3 -12    0.40    0.07 
   2   3 -12    3.31    0.19 
   2   3 -12    3.20    0.18 
   2   3 -12    3.44    0.18 
   2   3 -12    3.29    0.20 
   2   3 -12    3.25    0.20 
   1   3 -12    2.17    0.14 
   1   3 -12    2.15    0.13 
   1   3 -12    1.99    0.14 
  -1  -3  12    1.90    0.12 
   0   3 -12    6.28    0.32 
   0   3 -12    6.87    0.31 
   0   3 -12    6.16    0.31 
   0  -3  12    6.17    0.30 
  -1   3 -12    3.20    0.17 
  -1   3 -12    3.22    0.18 
   1  -3  12    3.18    0.18 
  -2   3 -12    0.40    0.07 
  -2   3 -12    0.47    0.05 
   2  -3  12    0.36    0.09 
   2  -3  12    0.38    0.08 
  -3   3 -12    2.20    0.11 
   3  -3  12    2.05    0.12 
   4   2 -12    0.15    0.05 
   4   2 -12    0.12    0.05 
   4   2 -12    0.25    0.07 
   3   2 -12   16.95    0.80 
   3   2 -12   18.66    0.82 
   3   2 -12   18.63    0.81 
   3   2 -12   17.82    0.80 
   3   2 -12   16.81    0.80 
   2   2 -12    6.34    0.30 
   2   2 -12    6.01    0.30 
   2   2 -12    5.59    0.29 
   2   2 -12    5.96    0.29 
   2   2 -12    6.00    0.30 
   2   2 -12    5.93    0.31 
   2   2 -12    6.18    0.30 
   1   2 -12    4.41    0.23 
   1   2 -12    4.53    0.24 
  -1  -2  12    4.80    0.22 
   0  -2  12    3.63    0.18 
  -1   2 -12   19.36    0.92 
   1  -2  12   20.74    0.91 
  -2   2 -12   25.52    1.10 
   2  -2  12   23.66    1.12 
   2  -2  12   24.74    1.10 
  -3   2 -12   12.18    0.53 
   3  -2  12   11.19    0.53 
   3  -2  12   11.52    0.53 
   3  -2  12   11.70    0.55 
  -4   2 -12    0.05    0.03 
   4  -2  12    0.06    0.03 
   4   1 -12    2.52    0.15 
   4   1 -12    2.63    0.14 
   4   1 -12    2.55    0.15 
   4   1 -12    2.68    0.17 
   3   1 -12   25.02    1.10 
   3   1 -12   24.45    1.10 
   3   1 -12   23.52    1.11 
   3   1 -12   25.46    1.12 
   2   1 -12   15.50    0.72 
   2   1 -12   14.96    0.71 
   2   1 -12   13.93    0.72 
   2   1 -12   17.01    0.73 
  -2  -1  12   17.10    0.71 
   1   1 -12    4.44    0.23 
  -1  -1  12    4.46    0.21 
   0   1 -12    4.03    0.21 
   0  -1  12    4.19    0.20 
  -1   1 -12   27.49    1.29 
   1  -1  12   29.67    1.28 
  -2   1 -12    4.26    0.24 
   2  -1  12    4.83    0.24 
   2  -1  12    4.55    0.23 
  -3   1 -12    0.56    0.05 
   3  -1  12    0.60    0.08 
   3  -1  12    0.53    0.07 
   3  -1  12    0.49    0.05 
   3  -1  12    0.46    0.09 
  -4   1 -12    0.67    0.06 
   4  -1  12    0.43    0.06 
   4  -1  12    0.68    0.06 
   4  -1  12    0.49    0.08 
   4  -1  12    0.70    0.06 
   4  -1  12    0.73    0.05 
   4   0 -12    4.20    0.21 
   4   0 -12    4.35    0.22 
   4   0 -12    3.97    0.21 
   4   0 -12    4.02    0.21 
   3   0 -12    0.33    0.06 
   3   0 -12    0.27    0.08 
   3   0 -12    0.26    0.06 
   3   0 -12    0.25    0.06 
   2   0 -12    0.13    0.05 
   2   0 -12    0.27    0.08 
   2   0 -12    0.19    0.07 
  -2   0  12    0.28    0.04 
   1   0 -12    6.33    0.31 
  -1   0  12    6.39    0.29 
   0   0 -12   13.53    0.62 
   0   0  12   13.70    0.61 
  -1   0 -12   10.98    0.51 
  -1   0 -12   11.33    0.52 
   1   0  12   11.33    0.51 
  -2   0 -12    2.96    0.17 
   2   0  12    2.91    0.16 
   2   0  12    2.84    0.18 
  -3   0 -12    1.50    0.11 
   3   0  12    1.69    0.12 
   3   0  12    1.62    0.14 
   3   0  12    1.75    0.14 
   3   0  12    1.77    0.09 
   3   0  12    1.56    0.10 
   3   0  12    1.73    0.10 
   4   0  12    1.73    0.14 
   4   0  12    1.82    0.10 
   4   0  12    1.94    0.10 
   4   0  12    1.82    0.12 
   4   0  12    1.93    0.09 
   4  -1 -12    0.04    0.05 
   4  -1 -12    0.03    0.06 
   4  -1 -12    0.04    0.05 
   4  -1 -12    0.03    0.04 
  -4   1  12    0.01    0.06 
   3  -1 -12    2.35    0.15 
   3  -1 -12    2.54    0.17 
   3  -1 -12    2.64    0.15 
   3  -1 -12    2.66    0.15 
   3  -1 -12    2.49    0.14 
   2  -1 -12    0.23    0.05 
  -2   1  12    0.21    0.04 
   1  -1 -12    5.65    0.28 
  -1   1  12    5.45    0.26 
   0  -1 -12    0.17    0.05 
   0   1  12    0.12    0.02 
  -1  -1 -12    5.29    0.26 
   1   1  12    5.59    0.26 
   1   1  12    5.25    0.25 
  -2  -1 -12    1.31    0.12 
   2   1  12    1.33    0.10 
   3   1  12    1.35    0.13 
   3   1  12    1.50    0.09 
   3   1  12    1.40    0.13 
   3   1  12    1.49    0.09 
   3   1  12    1.45    0.08 
   3   1  12    1.29    0.11 
   4   1  12    7.88    0.37 
   4   1  12    7.93    0.36 
   4   1  12    8.00    0.36 
   4   1  12    8.21    0.35 
   4   1  12    7.46    0.38 
   4   1  12    7.93    0.38 
   4  -2 -12    2.46    0.16 
   4  -2 -12    3.19    0.15 
   4  -2 -12    2.87    0.14 
  -4   2  12    3.13    0.16 
   3  -2 -12    0.12    0.06 
   3  -2 -12    0.06    0.05 
   3  -2 -12    0.00    0.09 
   3  -2 -12    0.07    0.05 
  -3   2  12    0.04    0.06 
  -3   2  12    0.09    0.06 
   2  -2 -12    5.41    0.26 
   2  -2 -12    5.44    0.25 
   2  -2 -12    5.39    0.26 
   2  -2 -12    5.35    0.26 
  -2   2  12    5.29    0.26 
  -2   2  12    5.16    0.26 
   1  -2 -12    0.82    0.09 
   1  -2 -12    0.76    0.09 
  -1   2  12    0.82    0.10 
  -1   2  12    0.79    0.08 
   0  -2 -12    8.46    0.39 
   0   2  12    7.85    0.38 
  -1  -2 -12    8.90    0.42 
   1   2  12    9.26    0.42 
  -2  -2 -12    0.20    0.09 
  -2  -2 -12    0.17    0.06 
   2   2  12    0.24    0.07 
   2   2  12    0.20    0.08 
   3   2  12    0.84    0.06 
   3   2  12    0.78    0.07 
   3   2  12    0.90    0.06 
   3   2  12    0.89    0.10 
   3   2  12    0.91    0.07 
   3   2  12    0.75    0.13 
   3   2  12    0.95    0.09 
   4   2  12    2.74    0.12 
   4   2  12    2.57    0.14 
   4   2  12    2.50    0.16 
   4   2  12    2.69    0.13 
   4   2  12    2.70    0.13 
   4   2  12    2.49    0.16 
   3  -3 -12    0.93    0.07 
   3  -3 -12    0.98    0.08 
  -3   3  12    1.03    0.09 
  -3   3  12    0.97    0.09 
   2  -3 -12    0.22    0.04 
   2  -3 -12    0.18    0.05 
  -2   3  12    0.19    0.06 
  -2   3  12    0.22    0.06 
   1  -3 -12   12.28    0.53 
   1  -3 -12   11.31    0.54 
  -1   3  12   11.71    0.54 
  -1   3  12   11.61    0.54 
   0  -3 -12    4.64    0.23 
   0  -3 -12    4.96    0.25 
   0  -3 -12    5.07    0.22 
   0   3  12    4.71    0.25 
   0   3  12    4.27    0.23 
   0   3  12    4.70    0.26 
  -1  -3 -12   25.36    1.02 
  -1  -3 -12   25.62    1.05 
  -1  -3 -12   22.36    1.02 
   1   3  12   21.93    1.02 
   1   3  12   22.88    1.02 
   1   3  12   22.12    1.03 
   1   3  12   21.11    1.04 
   1   3  12   21.44    1.04 
  -2  -3 -12    0.07    0.04 
   2   3  12    0.10    0.04 
   2   3  12    0.09    0.03 
   2   3  12    0.05    0.07 
   2   3  12    0.13    0.07 
   2   3  12    0.11    0.09 
   2   3  12    0.09    0.03 
  -3  -3 -12    2.87    0.15 
   3   3  12    2.90    0.19 
   3   3  12    2.87    0.15 
   3   3  12    3.02    0.14 
   3   3  12    2.86    0.18 
   3   3  12    3.03    0.14 
   3   3  12    2.94    0.15 
   3   3  12    2.85    0.17 
   3   3  12    2.98    0.21 
   4   3  12    0.36    0.03 
   4   3  12    0.43    0.03 
   4   3  12    0.29    0.04 
   4   3  12    0.25    0.06 
   4   3  12    0.28    0.05 
   4   3  12    0.39    0.12 
   3  -4 -12    0.90    0.06 
   2  -4 -12    5.01    0.24 
   2  -4 -12    5.08    0.25 
  -2   4  12    5.54    0.25 
  -2   4  12    5.34    0.25 
   1  -4 -12    3.76    0.18 
  -1   4  12    3.76    0.20 
  -1   4  12    3.96    0.20 
   0  -4 -12   20.81    0.92 
   0  -4 -12   21.56    0.92 
   0   4  12   19.78    0.93 
  -1  -4 -12    1.09    0.07 
  -1  -4 -12    1.03    0.08 
   1   4  12    1.23    0.10 
   1   4  12    1.14    0.08 
  -2  -4 -12    0.15    0.03 
   2   4  12    0.14    0.03 
   2   4  12    0.12    0.04 
   2   4  12    0.15    0.06 
   2   4  12    0.13    0.05 
   2   4  12    0.10    0.08 
  -3  -4 -12    0.02    0.02 
   3   4  12    0.00    0.04 
   3   4  12    0.00    0.03 
   3   4  12    0.00    0.06 
   3   4  12    0.05    0.05 
   3   4  12   -0.03    0.06 
   3   4  12    0.01    0.07 
   3   4  12    0.01    0.03 
   4   4  12   10.80    0.49 
   4   4  12   10.55    0.48 
   4   4  12   11.15    0.49 
   1  -5 -12    1.12    0.07 
   1  -5 -12    1.09    0.07 
  -1   5  12    1.13    0.08 
  -1   5  12    1.29    0.09 
   0  -5 -12    0.02    0.03 
   0  -5 -12    0.02    0.03 
   0   5  12    0.04    0.05 
  -1  -5 -12    0.11    0.03 
  -1  -5 -12    0.14    0.03 
   1   5  12    0.14    0.06 
  -2  -5 -12    0.65    0.05 
  -2  -5 -12    0.78    0.05 
   2   5  12    0.75    0.05 
   2   5  12    0.86    0.08 
   2   5  12    0.85    0.07 
  -3  -5 -12    7.58    0.33 
   3   5  12    7.34    0.33 
   3   5  12    7.12    0.35 
   2   5 -13    0.09    0.04 
  -2  -5  13    0.07    0.03 
  -2  -5  13    0.09    0.05 
   1   5 -13    3.05    0.18 
   1   5 -13    2.23    0.14 
  -1  -5  13    2.43    0.13 
  -1  -5  13    2.49    0.14 
   0   5 -13    2.81    0.17 
   0  -5  13    2.28    0.13 
   3   4 -13   -0.04    0.03 
   3   4 -13    0.01    0.04 
   3   4 -13   -0.02    0.05 
   3   4 -13   -0.01    0.06 
   3   4 -13    0.00    0.05 
   2   4 -13    0.27    0.04 
   2   4 -13    0.23    0.05 
   2   4 -13    0.21    0.05 
   2   4 -13    0.18    0.06 
   2   4 -13    0.35    0.07 
   2   4 -13    0.29    0.07 
  -2  -4  13    0.30    0.05 
   1   4 -13    0.28    0.05 
   1   4 -13    0.25    0.04 
   1   4 -13    0.38    0.07 
   1   4 -13    0.37    0.07 
  -1  -4  13    0.41    0.05 
   0   4 -13    1.00    0.11 
   0  -4  13    1.01    0.10 
  -1   4 -13    0.49    0.07 
   1  -4  13    0.50    0.06 
  -2   4 -13    0.92    0.09 
   4   3 -13    1.01    0.07 
   4   3 -13    0.96    0.08 
   3   3 -13    3.62    0.18 
   3   3 -13    3.55    0.18 
   3   3 -13    3.57    0.21 
   3   3 -13    3.51    0.18 
   3   3 -13    3.08    0.19 
   2   3 -13    0.03    0.06 
   2   3 -13    0.01    0.05 
   2   3 -13    0.02    0.06 
   2   3 -13    0.05    0.07 
   2   3 -13    0.03    0.06 
   1   3 -13    3.96    0.21 
   1   3 -13    3.73    0.20 
   1   3 -13    3.79    0.21 
   1   3 -13    4.24    0.21 
  -1  -3  13    3.67    0.20 
   0   3 -13    2.56    0.16 
   0   3 -13    2.47    0.16 
   0   3 -13    2.66    0.16 
   0  -3  13    2.58    0.17 
   0  -3  13    2.45    0.15 
  -1   3 -13    0.02    0.06 
  -1   3 -13    0.06    0.05 
   1  -3  13    0.05    0.06 
  -2   3 -13    4.01    0.19 
   2  -3  13    4.10    0.21 
   2  -3  13    3.86    0.23 
  -3   3 -13    0.03    0.03 
   3  -3  13    0.02    0.04 
   4   2 -13    0.01    0.04 
   4   2 -13    0.02    0.04 
   4   2 -13   -0.01    0.06 
   3   2 -13    9.33    0.45 
   3   2 -13    9.59    0.46 
   3   2 -13    9.47    0.45 
   3   2 -13    9.85    0.45 
   3   2 -13   10.25    0.45 
   2   2 -13    4.54    0.25 
   2   2 -13    5.06    0.26 
   2   2 -13    5.09    0.24 
   2   2 -13    4.94    0.25 
   2   2 -13    5.16    0.25 
   2   2 -13    4.71    0.26 
   1   2 -13    0.01    0.06 
   1   2 -13    0.00    0.05 
   1   2 -13    0.01    0.05 
  -1  -2  13    0.01    0.04 
   0   2 -13    2.41    0.16 
   0   2 -13    2.79    0.15 
   0  -2  13    2.63    0.14 
   0  -2  13    2.65    0.16 
  -1   2 -13    5.36    0.31 
  -1   2 -13    7.18    0.29 
   1  -2  13    6.46    0.30 
   1  -2  13    6.02    0.30 
  -2   2 -13   57.34    2.38 
   2  -2  13   53.09    2.39 
   2  -2  13   50.43    2.39 
  -3   2 -13    1.23    0.08 
   3  -2  13    1.05    0.09 
   3  -2  13    1.19    0.13 
  -4   2 -13    0.02    0.03 
   4  -2  13    0.01    0.03 
   4   1 -13    3.61    0.19 
   4   1 -13    3.87    0.19 
   4   1 -13    3.82    0.19 
   4   1 -13    3.60    0.20 
   3   1 -13    0.50    0.07 
   3   1 -13    0.56    0.07 
   3   1 -13    0.31    0.06 
   3   1 -13    0.47    0.08 
   2   1 -13   10.15    0.51 
   2   1 -13   10.56    0.50 
   2   1 -13   10.90    0.50 
   2   1 -13   10.17    0.51 
   2   1 -13   11.13    0.51 
  -2  -1  13   11.73    0.49 
   1   1 -13   12.28    0.58 
  -1  -1  13   12.76    0.57 
   0   1 -13    0.46    0.06 
   0  -1  13    0.60    0.06 
  -1   1 -13    6.25    0.31 
   1  -1  13    6.40    0.30 
  -2   1 -13    1.47    0.10 
   2  -1  13    1.32    0.12 
   2  -1  13    1.22    0.13 
  -3   1 -13    7.52    0.34 
   3  -1  13    7.52    0.37 
   3  -1  13    7.10    0.35 
   3  -1  13    7.77    0.36 
   3  -1  13    7.08    0.34 
  -4   1 -13    2.26    0.11 
   4  -1  13    2.20    0.12 
   4  -1  13    2.23    0.15 
   4   0 -13    0.10    0.05 
   4   0 -13    0.11    0.05 
   4   0 -13    0.08    0.05 
   4   0 -13    0.04    0.06 
   3   0 -13    5.29    0.25 
   3   0 -13    5.05    0.26 
   3   0 -13    5.22    0.25 
   3   0 -13    5.12    0.27 
   2   0 -13   32.47    1.58 
   2   0 -13   34.82    1.58 
  -2   0  13   38.70    1.57 
   1   0 -13   22.29    1.03 
  -1   0  13   23.12    1.01 
   0   0 -13    1.85    0.12 
   0   0  13    1.97    0.10 
   1   0  13    2.43    0.13 
  -2   0 -13   23.43    1.08 
   2   0  13   23.92    1.07 
   3   0  13    3.27    0.16 
   3   0  13    3.27    0.19 
   3   0  13    3.22    0.17 
   3   0  13    3.15    0.20 
   4   0  13    1.06    0.06 
   4   0  13    1.07    0.07 
   4   0  13    1.11    0.12 
   4   0  13    1.00    0.09 
   4   0  13    1.09    0.07 
   4  -1 -13    0.14    0.04 
   4  -1 -13    0.08    0.06 
   4  -1 -13    0.08    0.05 
   4  -1 -13    0.08    0.04 
   4  -1 -13    0.15    0.05 
  -4   1  13    0.15    0.06 
  -4   1  13    0.14    0.06 
   3  -1 -13   25.14    1.12 
   3  -1 -13   26.02    1.12 
   3  -1 -13   24.17    1.12 
   3  -1 -13   25.35    1.12 
   3  -1 -13   24.37    1.13 
   2  -1 -13    2.08    0.14 
   2  -1 -13    2.20    0.14 
   2  -1 -13    1.85    0.13 
   2  -1 -13    2.06    0.13 
  -2   1  13    2.23    0.12 
   1  -1 -13    2.47    0.15 
  -1   1  13    2.43    0.12 
   0  -1 -13    5.21    0.25 
   0   1  13    4.80    0.23 
  -1  -1 -13    1.96    0.12 
   1   1  13    1.74    0.11 
  -2  -1 -13    0.23    0.09 
   2   1  13    0.19    0.09 
   2   1  13    0.25    0.12 
   3   1  13    7.67    0.37 
   3   1  13    7.98    0.35 
   3   1  13    7.81    0.36 
   3   1  13    7.83    0.37 
   3   1  13    7.50    0.38 
   3   1  13    7.95    0.35 
   4   1  13    9.12    0.40 
   4   1  13    9.27    0.39 
   4   1  13    8.89    0.39 
   4   1  13    7.96    0.42 
   4   1  13    8.77    0.41 
   4   1  13    8.71    0.40 
   4  -2 -13    2.43    0.13 
   3  -2 -13    0.30    0.05 
   3  -2 -13    0.20    0.05 
   3  -2 -13    0.21    0.06 
  -3   2  13    0.23    0.06 
  -3   2  13    0.19    0.06 
   2  -2 -13    1.26    0.11 
   2  -2 -13    1.27    0.11 
   2  -2 -13    1.16    0.10 
  -2   2  13    1.21    0.11 
  -2   2  13    1.16    0.11 
   1  -2 -13    0.15    0.08 
   1  -2 -13    0.00    0.08 
  -1   2  13    0.08    0.09 
   0  -2 -13    2.12    0.13 
   0   2  13    1.89    0.12 
   0   2  13    2.02    0.14 
  -1  -2 -13    8.55    0.42 
   1   2  13    9.08    0.42 
   1   2  13    9.01    0.41 
   2   2  13    4.62    0.21 
   2   2  13    4.21    0.26 
   2   2  13    4.13    0.23 
   2   2  13    4.28    0.24 
   2   2  13    4.63    0.20 
   3   2  13    2.53    0.21 
   3   2  13    2.52    0.17 
   3   2  13    2.57    0.14 
   3   2  13    2.74    0.13 
   3   2  13    2.64    0.13 
   3   2  13    2.68    0.13 
   3   2  13    2.61    0.17 
   4   2  13   14.08    0.64 
   4   2  13   14.48    0.65 
   4   2  13   14.91    0.64 
   4   2  13   13.84    0.66 
   4   2  13   14.67    0.64 
   4   2  13   14.29    0.65 
   3  -3 -13    0.15    0.04 
   3  -3 -13    0.20    0.04 
  -3   3  13    0.21    0.05 
  -3   3  13    0.17    0.05 
   2  -3 -13    0.00    0.05 
   2  -3 -13   -0.01    0.04 
  -2   3  13    0.00    0.06 
  -2   3  13   -0.01    0.06 
   1  -3 -13    0.78    0.07 
   1  -3 -13    0.63    0.05 
  -1   3  13    0.75    0.08 
  -1   3  13    0.72    0.08 
   0  -3 -13    9.36    0.44 
   0  -3 -13   10.04    0.43 
   0   3  13    9.31    0.45 
   0   3  13    9.85    0.46 
  -1  -3 -13    0.23    0.03 
  -1  -3 -13    0.27    0.05 
   1   3  13    0.20    0.09 
   1   3  13    0.29    0.08 
   1   3  13    0.27    0.04 
  -2  -3 -13    0.74    0.06 
   2   3  13    0.85    0.09 
   2   3  13    0.54    0.10 
   2   3  13    0.55    0.05 
   2   3  13    0.71    0.06 
   2   3  13    0.75    0.05 
   2   3  13    0.65    0.08 
  -3  -3 -13    6.92    0.31 
   3   3  13    6.63    0.33 
   3   3  13    6.72    0.31 
   3   3  13    7.11    0.33 
   3   3  13    6.96    0.35 
   3   3  13    6.79    0.31 
   3   3  13    7.00    0.31 
   3   3  13    6.62    0.34 
   3   3  13    6.84    0.32 
   4   3  13   30.98    1.37 
   4   3  13   28.92    1.39 
   4   3  13   31.73    1.38 
   4   3  13   31.15    1.37 
   4   3  13   31.75    1.37 
   2  -4 -13    0.68    0.05 
   2  -4 -13    0.60    0.06 
  -2   4  13    0.64    0.06 
  -2   4  13    0.57    0.06 
   1  -4 -13    1.76    0.13 
   1  -4 -13    2.24    0.11 
  -1   4  13    2.18    0.13 
  -1   4  13    2.21    0.13 
   0  -4 -13    0.46    0.05 
   0  -4 -13    0.48    0.04 
   0   4  13    0.65    0.07 
  -1  -4 -13    0.55    0.04 
  -1  -4 -13    0.58    0.05 
   1   4  13    0.62    0.05 
   1   4  13    0.67    0.08 
  -2  -4 -13    0.47    0.04 
   2   4  13    0.45    0.04 
   2   4  13    0.49    0.04 
   2   4  13    0.43    0.07 
   2   4  13    0.45    0.09 
  -3  -4 -13    3.02    0.14 
   3   4  13    3.06    0.18 
   3   4  13    2.99    0.17 
   3   4  13    2.83    0.14 
   3   4  13    3.01    0.14 
   3   4  13    2.97    0.16 
   3   4  13    2.93    0.15 
   1  -5 -13   -0.02    0.02 
  -1   5  13    0.03    0.04 
   0  -5 -13    7.71    0.35 
   0  -5 -13    7.79    0.36 
   0   5  13    8.18    0.37 
  -1  -5 -13    5.83    0.27 
  -1  -5 -13    5.96    0.27 
  -2  -5 -13    0.78    0.05 
  -2  -5 -13    0.73    0.05 
   2   5  13    0.70    0.05 
   2   5  13    0.78    0.06 
   2   5  13    0.83    0.09 
  -1  -5  14    3.74    0.18 
   0  -5  14    0.00    0.04 
   3   4 -14    0.37    0.05 
   3   4 -14    0.39    0.06 
   3   4 -14    0.22    0.04 
  -3  -4  14    0.47    0.06 
  -3  -4  14    0.40    0.06 
   2   4 -14    0.61    0.08 
   2   4 -14    0.47    0.06 
   2   4 -14    0.64    0.07 
   2   4 -14    0.36    0.06 
   2   4 -14    0.48    0.06 
   2   4 -14    0.53    0.05 
  -2  -4  14    0.54    0.05 
   1   4 -14    5.20    0.25 
   1   4 -14    5.27    0.26 
   1   4 -14    5.43    0.26 
   1   4 -14    4.79    0.24 
  -1  -4  14    5.00    0.25 
   0   4 -14    1.04    0.11 
   0  -4  14    1.00    0.09 
  -1   4 -14    0.78    0.08 
   1  -4  14    0.90    0.09 
   4   3 -14    2.65    0.14 
   3   3 -14    0.10    0.05 
   3   3 -14    0.10    0.04 
   3   3 -14    0.10    0.07 
   3   3 -14    0.11    0.07 
   3   3 -14    0.06    0.04 
   2   3 -14    7.63    0.35 
   2   3 -14    7.64    0.35 
   2   3 -14    7.34    0.36 
   2   3 -14    6.69    0.35 
   2   3 -14    7.41    0.36 
   1   3 -14    1.14    0.13 
   1   3 -14    1.36    0.10 
   1   3 -14    1.12    0.12 
   1   3 -14    1.27    0.11 
  -1  -3  14    1.19    0.10 
   0   3 -14    6.16    0.31 
   0   3 -14    5.78    0.31 
   0   3 -14    6.25    0.29 
   0  -3  14    6.18    0.30 
   0  -3  14    6.42    0.31 
  -1   3 -14    3.48    0.17 
  -1   3 -14    3.16    0.19 
   1  -3  14    3.58    0.19 
  -2   3 -14   34.59    1.57 
   2  -3  14   36.32    1.58 
  -3   3 -14    0.04    0.03 
   4   2 -14    0.85    0.10 
   4   2 -14    0.83    0.07 
   4   2 -14    0.90    0.07 
   3   2 -14    0.40    0.07 
   3   2 -14    0.21    0.05 
   3   2 -14    0.28    0.06 
   3   2 -14    0.28    0.06 
   3   2 -14    0.31    0.07 
  -3  -2  14    0.34    0.06 
   2   2 -14    2.35    0.15 
   2   2 -14    2.45    0.15 
   2   2 -14    2.39    0.14 
   2   2 -14    2.39    0.17 
   2   2 -14    2.28    0.15 
   2   2 -14    2.35    0.16 
   1   2 -14    2.16    0.15 
   1   2 -14    2.18    0.14 
   1   2 -14    2.08    0.15 
   1   2 -14    2.15    0.13 
   0   2 -14    0.31    0.06 
   0   2 -14    0.27    0.06 
   0   2 -14    0.21    0.06 
   0   2 -14    0.26    0.07 
   0  -2  14    0.32    0.06 
   0  -2  14    0.39    0.07 
   0  -2  14    0.32    0.08 
   0  -2  14    0.24    0.05 
  -1   2 -14   15.66    0.69 
   1  -2  14   14.90    0.70 
  -2   2 -14    1.36    0.09 
   2  -2  14    1.30    0.12 
  -3   2 -14   11.94    0.52 
   3  -2  14   11.23    0.54 
   4   1 -14    0.03    0.04 
   4   1 -14    0.01    0.04 
   4   1 -14   -0.02    0.05 
   4   1 -14    0.00    0.04 
   3   1 -14    2.24    0.17 
   3   1 -14    2.35    0.14 
   3   1 -14    2.31    0.14 
   3   1 -14    2.19    0.14 
   2   1 -14   18.28    0.80 
   2   1 -14   17.93    0.80 
   2   1 -14   17.86    0.80 
   2   1 -14   16.41    0.81 
   2   1 -14   18.31    0.81 
  -2  -1  14   17.95    0.80 
   1   1 -14    0.02    0.06 
   1   1 -14    0.02    0.06 
   1   1 -14   -0.03    0.05 
  -1  -1  14    0.03    0.06 
  -1  -1  14    0.04    0.03 
   0   1 -14    8.39    0.37 
   0   1 -14    6.97    0.37 
   0  -1  14    6.91    0.36 
   0  -1  14    8.26    0.36 
   1  -1  14    2.33    0.13 
  -2   1 -14    0.36    0.05 
   2  -1  14    0.24    0.07 
  -3   1 -14    0.02    0.04 
   3  -1  14    0.00    0.09 
   3  -1  14    0.01    0.07 
  -4   1 -14    0.68    0.06 
   4   0 -14    0.29    0.05 
   4   0 -14    0.34    0.05 
   4   0 -14    0.21    0.05 
   4   0 -14    0.27    0.06 
   3   0 -14    8.19    0.38 
   3   0 -14    8.29    0.38 
   3   0 -14    7.84    0.39 
   3   0 -14    8.02    0.38 
   2   0 -14   17.12    0.79 
   2   0 -14   17.57    0.79 
   2   0 -14   18.09    0.79 
   2   0 -14   17.11    0.80 
   1   0 -14   38.29    1.73 
   1   0 -14   35.46    1.72 
  -1   0  14   41.68    1.71 
  -1   0  14   38.25    1.71 
   0   0 -14    0.92    0.09 
   0   0  14    0.90    0.07 
   1   0  14   21.34    0.96 
  -2   0 -14    0.35    0.05 
   2   0  14    0.29    0.10 
   2   0  14    0.34    0.04 
   2   0  14    0.26    0.07 
   3   0  14    2.42    0.16 
   3   0  14    2.51    0.13 
   3   0  14    2.38    0.17 
   4   0  14   -0.01    0.07 
   4   0  14    0.02    0.03 
   4   0  14    0.02    0.10 
   4   0  14   -0.02    0.04 
   4  -1 -14    2.38    0.14 
   4  -1 -14    2.57    0.13 
   4  -1 -14    2.46    0.13 
   4  -1 -14    2.61    0.13 
   4  -1 -14    2.50    0.13 
  -4   1  14    2.64    0.14 
  -4   1  14    2.66    0.14 
   3  -1 -14    0.11    0.05 
   3  -1 -14    0.09    0.07 
   3  -1 -14    0.13    0.05 
   3  -1 -14    0.11    0.06 
   3  -1 -14    0.16    0.06 
   2  -1 -14   12.50    0.57 
   2  -1 -14   11.65    0.57 
   2  -1 -14   12.60    0.57 
   2  -1 -14   12.99    0.57 
   1  -1 -14   20.89    0.90 
  -1   1  14   18.06    0.88 
  -1   1  14   19.96    0.88 
   0  -1 -14   13.64    0.59 
   0   1  14   11.88    0.57 
  -1  -1 -14    0.00    0.05 
   1   1  14   -0.02    0.06 
   2   1  14    0.21    0.04 
   2   1  14    0.16    0.05 
   2   1  14    0.24    0.08 
   2   1  14    0.30    0.10 
   2   1  14    0.24    0.08 
   3   1  14    5.11    0.23 
   3   1  14    4.86    0.27 
   3   1  14    5.28    0.27 
   3   1  14    5.18    0.24 
   3   1  14    5.00    0.26 
   4   1  14    0.04    0.03 
   4   1  14    0.04    0.06 
   4   1  14    0.05    0.04 
   4   1  14    0.07    0.03 
   4   1  14    0.06    0.02 
   4   1  14    0.05    0.07 
   3  -2 -14    0.69    0.07 
   3  -2 -14    0.73    0.07 
   3  -2 -14    0.60    0.06 
  -3   2  14    0.62    0.07 
  -3   2  14    0.78    0.07 
   2  -2 -14    7.06    0.34 
   2  -2 -14    7.27    0.34 
   2  -2 -14    7.45    0.34 
  -2   2  14    7.04    0.34 
  -2   2  14    7.00    0.34 
   1  -2 -14    3.34    0.18 
   1  -2 -14    3.15    0.18 
  -1   2  14    3.28    0.18 
   0  -2 -14    0.02    0.07 
   0   2  14    0.00    0.07 
  -1  -2 -14    8.99    0.46 
  -1  -2 -14   10.53    0.44 
   1   2  14    8.97    0.45 
   1   2  14    9.89    0.45 
   1   2  14   10.23    0.44 
   1   2  14    9.62    0.44 
   1   2  14    9.42    0.47 
  -2  -2 -14    8.33    0.35 
   2   2  14    7.29    0.38 
   2   2  14    7.85    0.35 
   2   2  14    7.68    0.35 
   2   2  14    7.38    0.37 
   2   2  14    7.22    0.37 
   3   2  14    1.81    0.10 
   3   2  14    1.69    0.14 
   3   2  14    1.80    0.09 
   3   2  14    1.88    0.14 
   3   2  14    1.68    0.11 
   3   2  14    1.68    0.18 
   3   2  14    1.79    0.09 
  -4  -2 -14    0.83    0.06 
   4   2  14    0.77    0.05 
   4   2  14    0.59    0.09 
   4   2  14    0.75    0.06 
   4   2  14    0.77    0.05 
   4   2  14    0.77    0.07 
   4   2  14    0.83    0.07 
   3  -3 -14    0.45    0.04 
   3  -3 -14    0.56    0.05 
  -3   3  14    0.61    0.06 
  -3   3  14    0.67    0.06 
   2  -3 -14    0.04    0.04 
   2  -3 -14    0.02    0.05 
  -2   3  14   -0.03    0.05 
  -2   3  14   -0.01    0.06 
   1  -3 -14    6.75    0.31 
   1  -3 -14    6.85    0.32 
  -1   3  14    6.83    0.33 
  -1   3  14    6.80    0.35 
   0  -3 -14    4.81    0.21 
   0  -3 -14    4.54    0.22 
   0   3  14    4.49    0.24 
   0   3  14    4.48    0.24 
  -1  -3 -14    0.56    0.04 
  -1  -3 -14    0.44    0.05 
   1   3  14    0.59    0.05 
   1   3  14    0.46    0.10 
   1   3  14    0.44    0.08 
  -2  -3 -14    0.07    0.04 
   2   3  14    0.05    0.04 
   2   3  14    0.03    0.04 
   2   3  14    0.07    0.03 
   2   3  14    0.06    0.09 
   2   3  14   -0.01    0.06 
   2   3  14    0.02    0.07 
  -3  -3 -14    5.90    0.28 
   3   3  14    5.68    0.28 
   3   3  14    6.42    0.29 
   3   3  14    6.03    0.28 
   3   3  14    5.85    0.30 
   3   3  14    6.15    0.27 
   3   3  14    6.16    0.27 
   3   3  14    6.25    0.31 
   3   3  14    5.58    0.33 
   4   3  14   24.71    1.15 
   4   3  14   26.93    1.15 
   4   3  14   25.98    1.14 
   4   3  14   25.61    1.14 
   2  -4 -14    0.54    0.05 
   2  -4 -14    0.59    0.04 
  -2   4  14    0.63    0.06 
  -2   4  14    0.51    0.06 
   1  -4 -14    0.45    0.05 
   1  -4 -14    0.51    0.04 
  -1   4  14    0.44    0.06 
  -1   4  14    0.44    0.09 
   0  -4 -14   13.25    0.59 
   0   4  14   13.31    0.60 
  -1  -4 -14    0.84    0.06 
  -1  -4 -14    0.80    0.06 
   1   4  14    0.95    0.09 
   1   4  14    0.84    0.07 
  -2  -4 -14    0.11    0.03 
   2   4  14    0.08    0.06 
   2   4  14    0.10    0.03 
   2   4  14    0.08    0.07 
   2   4  14    0.09    0.03 
  -3  -4 -14    1.55    0.08 
   3   4  14    1.68    0.12 
   3   4  14    1.57    0.08 
   3   4  14    1.29    0.10 
   3   4  14    1.50    0.08 
   3   4  14    1.59    0.11 
   3   4  14    1.62    0.10 
  -1   5  14    0.02    0.06 
   0  -5 -14   33.84    1.60 
   0  -5 -14   38.25    1.61 
   0   5  14   36.49    1.61 
  -1  -5 -14    1.79    0.09 
  -1  -5 -14    1.85    0.09 
  -2  -5 -14    0.02    0.02 
  -2  -5 -14    0.01    0.02 
   2   5  14   -0.01    0.03 
   2   4 -15    1.45    0.12 
   2   4 -15    1.50    0.11 
   2   4 -15    1.47    0.09 
   2   4 -15    1.37    0.11 
  -2  -4  15    1.49    0.11 
  -2  -4  15    1.46    0.10 
   1   4 -15    0.02    0.06 
   1   4 -15    0.00    0.04 
   1   4 -15    0.01    0.06 
  -1  -4  15    0.01    0.06 
  -1  -4  15    0.01    0.04 
  -1  -4  15   -0.02    0.05 
   0   4 -15   -0.01    0.06 
   0  -4  15   -0.03    0.05 
  -1   4 -15    0.38    0.06 
   1  -4  15    0.42    0.05 
   3   3 -15    1.93    0.11 
   3   3 -15    1.93    0.11 
   3   3 -15    1.90    0.11 
   3   3 -15    1.80    0.13 
  -3  -3  15    1.78    0.11 
  -3  -3  15    1.47    0.16 
   2   3 -15    0.53    0.08 
   2   3 -15    0.55    0.06 
   2   3 -15    0.52    0.07 
   2   3 -15    0.50    0.07 
   2   3 -15    0.48    0.06 
   1   3 -15    4.63    0.25 
   1   3 -15    4.45    0.23 
   1   3 -15    4.96    0.25 
  -1  -3  15    4.65    0.24 
  -1  -3  15    4.66    0.23 
  -1  -3  15    4.36    0.23 
   0   3 -15    0.55    0.08 
   0   3 -15    0.34    0.07 
   0   3 -15    0.55    0.06 
   0  -3  15    0.51    0.07 
   0  -3  15    0.48    0.09 
  -1   3 -15    0.72    0.06 
  -1   3 -15    0.55    0.08 
   1  -3  15    0.62    0.07 
  -2   3 -15    5.38    0.25 
   2  -3  15    5.59    0.27 
   4   2 -15    3.73    0.18 
   3   2 -15    1.01    0.12 
   3   2 -15    1.16    0.10 
   3   2 -15    1.01    0.10 
   3   2 -15    1.09    0.09 
   3   2 -15    1.01    0.10 
  -3  -2  15    1.07    0.10 
   2   2 -15    1.85    0.13 
   2   2 -15    2.00    0.13 
   2   2 -15    1.84    0.15 
   2   2 -15    1.82    0.15 
   2   2 -15    1.94    0.13 
   2   2 -15    2.06    0.13 
  -2  -2  15    1.89    0.12 
  -2  -2  15    1.83    0.14 
   1   2 -15    0.42    0.08 
   1   2 -15    0.69    0.07 
   1   2 -15    0.83    0.07 
   1   2 -15    0.68    0.09 
  -1  -2  15    0.82    0.07 
  -1  -2  15    0.47    0.08 
   0   2 -15    6.83    0.33 
   0   2 -15    7.12    0.33 
   0   2 -15    6.92    0.35 
   0  -2  15    7.16    0.33 
   0  -2  15    6.94    0.34 
   0  -2  15    6.78    0.33 
  -1   2 -15    9.08    0.41 
   1  -2  15    9.03    0.44 
   1  -2  15    8.85    0.42 
  -2   2 -15    2.30    0.13 
   2  -2  15    2.32    0.15 
  -3   2 -15    0.50    0.04 
   3  -2  15    0.42    0.08 
   3  -2  15    0.44    0.09 
   4   1 -15    4.28    0.21 
   4   1 -15    4.21    0.20 
   4   1 -15    4.38    0.20 
   4   1 -15    4.10    0.20 
   3   1 -15    0.15    0.05 
   3   1 -15    0.17    0.06 
   3   1 -15    0.14    0.07 
   3   1 -15    0.08    0.05 
   2   1 -15   60.38    2.71 
   2   1 -15   62.11    2.71 
   2   1 -15   57.41    2.72 
   2   1 -15   62.07    2.71 
   2   1 -15   62.81    2.71 
  -2  -1  15   61.07    2.71 
   1   1 -15    3.91    0.21 
   1   1 -15    4.53    0.24 
   1   1 -15    3.98    0.23 
   1   1 -15    3.74    0.20 
  -1  -1  15    4.61    0.22 
  -1  -1  15    3.90    0.21 
  -1  -1  15    3.67    0.22 
   0   1 -15    0.57    0.12 
   0   1 -15    0.45    0.07 
   0   1 -15    0.38    0.07 
   0  -1  15    0.73    0.14 
   0  -1  15    0.55    0.07 
   0  -1  15    0.54    0.06 
  -1   1 -15    1.32    0.10 
   1  -1  15    1.28    0.14 
   1  -1  15    1.25    0.12 
  -2   1 -15    0.68    0.06 
   2  -1  15    0.65    0.08 
  -3   1 -15    9.03    0.41 
   3  -1  15    9.08    0.42 
   3  -1  15    8.68    0.43 
  -4   1 -15    1.67    0.09 
   4   0 -15    0.86    0.07 
   4   0 -15    0.95    0.07 
   4   0 -15    0.90    0.08 
   4   0 -15    0.98    0.09 
  -4   0  15    0.96    0.08 
   3   0 -15    0.05    0.05 
   3   0 -15    0.07    0.07 
   3   0 -15    0.04    0.05 
   3   0 -15    0.00    0.05 
   2   0 -15    5.61    0.27 
   2   0 -15    5.50    0.27 
   2   0 -15    5.63    0.27 
   1   0 -15   11.16    0.52 
  -1   0  15   11.43    0.50 
  -1   0  15   10.09    0.50 
   0   0 -15    8.10    0.40 
   0   0  15    8.14    0.39 
   0   0  15    8.50    0.38 
   1   0  15    3.78    0.25 
   1   0  15    3.16    0.18 
   1   0  15    3.24    0.18 
  -2   0 -15    5.74    0.26 
   2   0  15    5.66    0.26 
   2   0  15    5.32    0.28 
   2   0  15    5.41    0.30 
   3   0  15    0.25    0.09 
   3   0  15    0.33    0.07 
   3   0  15    0.27    0.04 
   4   0  15    1.93    0.10 
   4   0  15    1.73    0.10 
   4   0  15    1.96    0.12 
   4  -1 -15    0.02    0.03 
   4  -1 -15    0.01    0.04 
  -4   1  15    0.03    0.05 
   3  -1 -15    6.12    0.29 
   3  -1 -15    5.95    0.29 
   3  -1 -15    6.41    0.29 
  -3   1  15    6.20    0.30 
   2  -1 -15    0.65    0.07 
   2  -1 -15    0.67    0.07 
   2  -1 -15    0.64    0.07 
   2  -1 -15    0.69    0.07 
   1  -1 -15    0.91    0.07 
   1  -1 -15    0.65    0.08 
  -1   1  15    0.92    0.09 
  -1   1  15    0.76    0.08 
   0  -1 -15    1.89    0.13 
   0   1  15    1.62    0.10 
   0   1  15    1.79    0.13 
  -1  -1 -15    0.02    0.05 
  -1  -1 -15    0.02    0.04 
   1   1  15    0.01    0.06 
   1   1  15    0.01    0.04 
   1   1  15    0.07    0.08 
   2   1  15   10.32    0.45 
   2   1  15    9.78    0.48 
   2   1  15   10.00    0.47 
   2   1  15    9.45    0.46 
   3   1  15    1.34    0.15 
   3   1  15    1.29    0.08 
   3   1  15    1.43    0.07 
   3   1  15    1.49    0.13 
   4   1  15    7.13    0.33 
   4   1  15    7.56    0.34 
   4   1  15    7.28    0.32 
   4   1  15    6.97    0.33 
   3  -2 -15    2.92    0.15 
   3  -2 -15    2.85    0.15 
   3  -2 -15    2.81    0.15 
  -3   2  15    2.77    0.15 
  -3   2  15    2.87    0.15 
   2  -2 -15    1.05    0.10 
   2  -2 -15    1.15    0.11 
   2  -2 -15    1.14    0.10 
  -2   2  15    1.15    0.11 
  -2   2  15    1.17    0.11 
   1  -2 -15    0.20    0.07 
   1  -2 -15    0.23    0.05 
  -1   2  15    0.24    0.07 
   0  -2 -15   -0.01    0.04 
   0   2  15    0.02    0.06 
  -1  -2 -15    1.67    0.09 
  -1  -2 -15    1.67    0.10 
   1   2  15    1.49    0.15 
   1   2  15    1.48    0.13 
   1   2  15    1.59    0.09 
  -2  -2 -15    0.15    0.04 
   2   2  15    0.23    0.09 
   2   2  15    0.12    0.07 
   2   2  15    0.16    0.04 
   2   2  15    0.21    0.08 
   2   2  15    0.17    0.03 
  -3  -2 -15    0.48    0.05 
   3   2  15    0.39    0.10 
   3   2  15    0.40    0.04 
   3   2  15    0.46    0.05 
   3   2  15    0.47    0.04 
   3   2  15    0.44    0.07 
  -4  -2 -15    0.35    0.03 
   4   2  15    0.32    0.05 
   4   2  15    0.34    0.03 
   4   2  15    0.35    0.03 
   4   2  15    0.24    0.04 
   4   2  15    0.36    0.03 
   3  -3 -15    0.99    0.07 
  -3   3  15    1.10    0.08 
   2  -3 -15    0.13    0.04 
   2  -3 -15    0.09    0.04 
  -2   3  15    0.13    0.06 
  -2   3  15    0.11    0.05 
   1  -3 -15    4.26    0.20 
   1  -3 -15    4.33    0.22 
  -1   3  15    4.49    0.23 
   0  -3 -15    1.34    0.10 
   0  -3 -15    1.38    0.08 
   0   3  15    1.36    0.13 
  -1  -3 -15    3.80    0.19 
  -1  -3 -15    4.08    0.18 
   1   3  15    3.75    0.23 
   1   3  15    3.67    0.18 
   1   3  15    3.98    0.21 
  -2  -3 -15    4.49    0.22 
  -2  -3 -15    4.73    0.21 
   2   3  15    4.68    0.26 
   2   3  15    4.52    0.24 
   2   3  15    4.56    0.21 
   2   3  15    4.65    0.26 
  -3  -3 -15    1.21    0.08 
   3   3  15    1.31    0.07 
   3   3  15    1.16    0.08 
   3   3  15    1.31    0.11 
   3   3  15    1.26    0.07 
   3   3  15    1.29    0.13 
   3   3  15    1.40    0.10 
   2  -4 -15    4.31    0.20 
   2  -4 -15    3.73    0.19 
  -2   4  15    4.23    0.20 
   1  -4 -15    0.32    0.05 
   1  -4 -15    0.37    0.04 
  -1   4  15    0.41    0.06 
   0  -4 -15    3.40    0.18 
   0  -4 -15    3.56    0.17 
   0   4  15    3.70    0.19 
  -1  -4 -15    0.51    0.04 
   1   4  15    0.64    0.07 
  -2  -4 -15    1.45    0.08 
  -2  -4 -15    1.54    0.08 
   2   4  15    1.42    0.08 
   2   4  15    1.62    0.13 
   2   4  15    1.62    0.11 
   2   4  15    1.39    0.08 
  -3  -4 -15    0.22    0.02 
   3   4  15    0.22    0.04 
   3   4  15    0.20    0.03 
   3   4  15    0.23    0.06 
   3   4  15    0.18    0.02 
   0  -5 -15    3.14    0.14 
  -1  -5 -15   10.07    0.45 
   2   4 -16    0.31    0.04 
   2   4 -16    0.45    0.06 
  -2  -4  16    0.48    0.06 
  -2  -4  16    0.40    0.05 
   1   4 -16    0.03    0.05 
   1   4 -16    0.00    0.05 
   1   4 -16    0.02    0.03 
  -1  -4  16    0.05    0.05 
  -1  -4  16    0.00    0.04 
  -1  -4  16   -0.05    0.07 
   0   4 -16    1.84    0.13 
   0  -4  16    2.05    0.12 
   1  -4  16    0.99    0.08 
   3   3 -16   10.74    0.47 
   3   3 -16   10.35    0.47 
   3   3 -16   10.32    0.47 
   3   3 -16    9.48    0.46 
  -3  -3  16   10.48    0.47 
   2   3 -16    0.13    0.04 
   2   3 -16    0.08    0.06 
   2   3 -16    0.05    0.05 
   2   3 -16    0.13    0.07 
   2   3 -16    0.11    0.06 
  -2  -3  16    0.14    0.05 
  -2  -3  16    0.09    0.06 
   1   3 -16    1.19    0.12 
   1   3 -16    1.14    0.12 
   1   3 -16    0.97    0.12 
   1   3 -16    0.95    0.09 
  -1  -3  16    1.05    0.11 
  -1  -3  16    1.01    0.09 
  -1  -3  16    0.94    0.10 
   0   3 -16    3.99    0.20 
   0   3 -16    3.84    0.22 
   0   3 -16    4.20    0.23 
   0  -3  16    4.23    0.23 
   0  -3  16    4.15    0.21 
  -1   3 -16    0.22    0.05 
   1  -3  16    0.15    0.06 
  -2   3 -16    0.08    0.03 
   2  -3  16    0.02    0.05 
   3   2 -16    0.16    0.06 
   3   2 -16    0.12    0.06 
   3   2 -16    0.16    0.05 
   3   2 -16    0.19    0.05 
   3   2 -16    0.15    0.05 
  -3  -2  16    0.17    0.06 
   2   2 -16    0.02    0.05 
   2   2 -16    0.00    0.05 
   2   2 -16    0.04    0.05 
   2   2 -16    0.00    0.07 
   2   2 -16   -0.02    0.06 
   2   2 -16    0.00    0.07 
  -2  -2  16   -0.01    0.05 
  -2  -2  16    0.02    0.07 
   1   2 -16    0.10    0.05 
   1   2 -16    0.20    0.08 
   1   2 -16    0.17    0.06 
   1   2 -16    0.19    0.07 
  -1  -2  16    0.14    0.06 
  -1  -2  16    0.21    0.07 
   0   2 -16   22.13    1.01 
   0   2 -16   21.41    1.00 
   0   2 -16   22.42    0.99 
   0  -2  16   21.79    0.99 
   0  -2  16   22.69    1.00 
   0  -2  16   22.39    1.00 
  -1   2 -16    0.51    0.06 
   1  -2  16    0.49    0.07 
   1  -2  16    0.37    0.10 
  -2   2 -16    6.66    0.31 
   2  -2  16    6.90    0.33 
  -3   2 -16    9.20    0.42 
   3  -2  16    9.29    0.42 
   4   1 -16    0.02    0.03 
   4   1 -16    0.01    0.03 
   3   1 -16    1.34    0.10 
   3   1 -16    1.22    0.13 
   3   1 -16    1.36    0.10 
   3   1 -16    1.37    0.10 
   2   1 -16    0.07    0.06 
   2   1 -16    0.09    0.06 
   2   1 -16    0.02    0.08 
   2   1 -16    0.09    0.06 
   2   1 -16    0.02    0.06 
  -2  -1  16    0.10    0.06 
   1   1 -16    8.56    0.39 
   1   1 -16    7.95    0.38 
   1   1 -16    8.26    0.40 
  -1  -1  16    7.99    0.39 
  -1  -1  16    8.06    0.38 
   0   1 -16    3.02    0.16 
   0  -1  16    3.00    0.17 
   0  -1  16    2.69    0.20 
   0  -1  16    2.95    0.19 
  -1   1 -16    5.76    0.26 
   1  -1  16    5.37    0.29 
   1  -1  16    5.40    0.28 
  -2   1 -16    0.00    0.04 
   2  -1  16    0.03    0.06 
  -3   1 -16   34.18    1.56 
   3  -1  16   36.02    1.57 
   4   0 -16    0.01    0.03 
   4   0 -16    0.05    0.03 
  -4   0  16    0.04    0.04 
   3   0 -16    5.53    0.26 
   3   0 -16    5.27    0.26 
   3   0 -16    5.13    0.27 
   3   0 -16    5.35    0.26 
   2   0 -16    0.00    0.06 
   2   0 -16    0.01    0.05 
   2   0 -16    0.01    0.05 
   1   0 -16    7.65    0.36 
  -1   0  16    7.66    0.40 
  -1   0  16    7.75    0.36 
   0   0 -16    0.07    0.08 
   0   0 -16    0.16    0.06 
   0   0  16    0.12    0.06 
   0   0  16    0.15    0.08 
  -1   0 -16    6.61    0.31 
   1   0  16    6.58    0.32 
   1   0  16    6.60    0.32 
   1   0  16    6.70    0.33 
  -2   0 -16    3.80    0.18 
  -2   0 -16    3.74    0.18 
   2   0  16    3.49    0.18 
   2   0  16    3.48    0.22 
   2   0  16    3.51    0.20 
   3   0  16    0.32    0.07 
   3   0  16    0.26    0.04 
  -4   0 -16    0.41    0.04 
   4   0  16    0.42    0.07 
   4   0  16    0.49    0.05 
   3  -1 -16    0.01    0.04 
   3  -1 -16    0.02    0.05 
   3  -1 -16    0.04    0.05 
   3  -1 -16    0.07    0.05 
  -3   1  16    0.07    0.06 
  -3   1  16    0.07    0.05 
   2  -1 -16   -0.01    0.05 
   2  -1 -16    0.00    0.05 
   2  -1 -16    0.05    0.05 
   2  -1 -16   -0.03    0.06 
   1  -1 -16   14.65    0.65 
   1  -1 -16   14.19    0.65 
  -1   1  16   13.94    0.65 
   0  -1 -16    1.22    0.10 
   0   1  16    0.90    0.10 
   0   1  16    1.07    0.09 
  -1  -1 -16    0.00    0.04 
   1   1  16   -0.01    0.06 
   1   1  16    0.01    0.08 
   1   1  16    0.01    0.04 
  -2  -1 -16    1.01    0.08 
   2   1  16    0.91    0.08 
   2   1  16    0.87    0.09 
   2   1  16    0.82    0.09 
   2   1  16    0.91    0.11 
  -3  -1 -16    5.27    0.24 
   3   1  16    5.37    0.33 
   3   1  16    5.00    0.24 
   3   1  16    5.38    0.26 
   3   1  16    4.90    0.24 
  -4  -1 -16    0.42    0.04 
   4   1  16    0.45    0.04 
   4   1  16    0.49    0.03 
   4   1  16    0.40    0.06 
   3  -2 -16    0.04    0.04 
   3  -2 -16   -0.02    0.04 
  -3   2  16    0.03    0.05 
  -3   2  16    0.00    0.05 
   2  -2 -16    8.74    0.40 
   2  -2 -16    8.50    0.40 
   2  -2 -16    8.94    0.41 
  -2   2  16    8.53    0.40 
  -2   2  16    8.79    0.41 
   1  -2 -16    0.77    0.08 
   1  -2 -16    0.89    0.07 
  -1   2  16    0.66    0.07 
   0  -2 -16    9.39    0.42 
   0   2  16    8.77    0.43 
  -1  -2 -16    0.23    0.04 
  -1  -2 -16    0.18    0.05 
   1   2  16    0.18    0.08 
   1   2  16    0.21    0.04 
   1   2  16    0.15    0.07 
  -2  -2 -16    0.12    0.04 
   2   2  16    0.06    0.07 
   2   2  16    0.13    0.09 
   2   2  16    0.09    0.03 
   2   2  16    0.05    0.07 
   2   2  16    0.09    0.04 
  -3  -2 -16    0.68    0.06 
   3   2  16    0.71    0.10 
   3   2  16    0.62    0.06 
   3   2  16    0.60    0.07 
   3   2  16    0.58    0.05 
  -4  -2 -16   12.21    0.54 
   4   2  16   11.66    0.54 
   4   2  16   13.06    0.55 
   4   2  16   11.90    0.54 
   2  -3 -16    0.19    0.04 
   2  -3 -16    0.16    0.04 
  -2   3  16    0.18    0.05 
  -2   3  16    0.19    0.05 
   1  -3 -16    0.58    0.06 
   1  -3 -16    0.59    0.05 
  -1   3  16    0.50    0.07 
   0  -3 -16    3.02    0.14 
   0  -3 -16    2.86    0.16 
   0   3  16    3.05    0.18 
  -1  -3 -16    6.73    0.29 
  -1  -3 -16    6.26    0.30 
   1   3  16    6.04    0.29 
   1   3  16    6.47    0.33 
   1   3  16    6.34    0.31 
  -2  -3 -16   12.10    0.52 
  -2  -3 -16   11.22    0.52 
   2   3  16   10.98    0.52 
   2   3  16   11.99    0.55 
   2   3  16   11.79    0.54 
  -3  -3 -16    1.06    0.07 
  -3  -3 -16    1.06    0.06 
   3   3  16    1.07    0.11 
   3   3  16    1.07    0.09 
   3   3  16    1.01    0.06 
   3   3  16    1.09    0.10 
   3   3  16    0.97    0.06 
   1  -4 -16    0.03    0.04 
   1  -4 -16    0.00    0.02 
  -1   4  16    0.01    0.04 
   0  -4 -16    1.36    0.07 
   0  -4 -16    1.26    0.09 
   0   4  16    1.45    0.13 
  -1  -4 -16    2.08    0.10 
   1   4  16    2.15    0.13 
  -2  -4 -16    0.43    0.03 
   2   4  16    0.49    0.04 
   2   4  16    0.48    0.07 
   2   4  16    0.51    0.06 
   1   4 -17    1.72    0.11 
  -1  -4  17    1.70    0.11 
  -1  -4  17    1.66    0.09 
   0  -4  17    9.31    0.42 
   3   3 -17    4.26    0.20 
   2   3 -17    3.51    0.20 
   2   3 -17    3.46    0.19 
   2   3 -17    3.63    0.18 
  -2  -3  17    3.62    0.19 
  -2  -3  17    3.74    0.18 
   1   3 -17    2.66    0.14 
   1   3 -17    2.70    0.16 
   1   3 -17    2.39    0.14 
   1   3 -17    2.71    0.17 
  -1  -3  17    2.71    0.15 
  -1  -3  17    2.72    0.16 
  -1  -3  17    2.53    0.14 
   0   3 -17    0.79    0.08 
   0   3 -17    0.67    0.09 
   0  -3  17    0.97    0.08 
   0  -3  17    0.94    0.09 
  -1   3 -17    0.02    0.04 
   1  -3  17    0.09    0.05 
  -2   3 -17    1.44    0.08 
   2  -3  17    1.56    0.10 
   3   2 -17    1.87    0.11 
   3   2 -17    1.79    0.13 
   3   2 -17    1.82    0.11 
   3   2 -17    2.37    0.16 
   3   2 -17    1.80    0.11 
  -3  -2  17    1.93    0.12 
   2   2 -17    7.79    0.39 
   2   2 -17    8.09    0.38 
   2   2 -17    8.21    0.38 
   2   2 -17    8.18    0.37 
   2   2 -17    7.93    0.39 
  -2  -2  17    8.17    0.37 
  -2  -2  17    8.07    0.38 
   1   2 -17    5.50    0.26 
   1   2 -17    4.91    0.28 
   1   2 -17    5.27    0.26 
   1   2 -17    5.48    0.28 
  -1  -2  17    5.25    0.26 
  -1  -2  17    5.24    0.27 
   0   2 -17    1.71    0.11 
   0  -2  17    1.65    0.14 
   0  -2  17    1.61    0.12 
   0  -2  17    1.78    0.13 
  -1   2 -17    7.96    0.38 
   1  -2  17    8.37    0.40 
   1  -2  17    8.22    0.39 
  -2   2 -17    0.03    0.04 
   2  -2  17    0.00    0.06 
  -3   2 -17   20.85    0.95 
   3  -2  17   21.73    0.96 
   3   1 -17    0.17    0.05 
   3   1 -17    0.15    0.05 
   3   1 -17    0.16    0.05 
   3   1 -17    0.12    0.06 
   2   1 -17    0.62    0.09 
   2   1 -17    0.99    0.10 
   2   1 -17    1.07    0.10 
   2   1 -17    0.99    0.09 
   2   1 -17    1.11    0.11 
  -2  -1  17    0.95    0.10 
   1   1 -17    1.91    0.12 
   1   1 -17    1.89    0.13 
  -1  -1  17    1.79    0.13 
  -1  -1  17    1.75    0.14 
   0   1 -17    8.01    0.37 
   0  -1  17    7.86    0.39 
   0  -1  17    7.99    0.37 
  -1   1 -17    3.46    0.17 
   1  -1  17    3.32    0.19 
   1  -1  17    3.27    0.21 
  -2   1 -17    4.71    0.23 
   2  -1  17    4.84    0.24 
  -3   1 -17    1.85    0.10 
   3  -1  17    1.96    0.12 
   3   0 -17    0.46    0.05 
   3   0 -17    0.58    0.06 
   3   0 -17    0.40    0.05 
   3   0 -17    0.56    0.08 
   2   0 -17    0.70    0.07 
   2   0 -17    0.92    0.09 
   2   0 -17    0.88    0.09 
   1   0 -17   31.98    1.43 
  -1   0  17   31.79    1.43 
  -1   0  17   32.28    1.44 
   0   0 -17    3.94    0.20 
   0   0  17    3.81    0.22 
   0   0  17    4.00    0.21 
  -1   0 -17    3.42    0.18 
   1   0  17    3.41    0.20 
   1   0  17    3.33    0.19 
   1   0  17    3.37    0.19 
  -2   0 -17    0.54    0.05 
  -2   0 -17    0.39    0.07 
   2   0  17    0.43    0.10 
   2   0  17    0.37    0.05 
   2   0  17    0.39    0.07 
  -3   0 -17    7.68    0.33 
   3   0  17    6.64    0.33 
   3   0  17    7.68    0.35 
   3  -1 -17    1.79    0.11 
   3  -1 -17    1.42    0.13 
   3  -1 -17    1.77    0.11 
   3  -1 -17    1.75    0.10 
  -3   1  17    1.76    0.11 
  -3   1  17    1.86    0.11 
   2  -1 -17    0.02    0.05 
   2  -1 -17    0.06    0.05 
   2  -1 -17   -0.01    0.05 
   2  -1 -17    0.06    0.05 
  -2   1  17    0.04    0.05 
  -2   1  17    0.00    0.06 
   1  -1 -17   14.91    0.70 
   1  -1 -17   14.79    0.67 
  -1   1  17   14.68    0.67 
   0  -1 -17   25.20    1.06 
   0   1  17   22.44    1.07 
   0   1  17   23.40    1.06 
  -1  -1 -17    2.93    0.15 
   1   1  17    2.61    0.16 
   1   1  17    2.53    0.18 
  -2  -1 -17    5.57    0.24 
   2   1  17    5.08    0.26 
   2   1  17    4.99    0.27 
   2   1  17    4.94    0.24 
   2   1  17    5.01    0.28 
  -3  -1 -17    0.00    0.03 
   3   1  17    0.06    0.06 
   3   1  17    0.09    0.12 
   3   1  17    0.02    0.03 
   3  -2 -17    5.58    0.27 
  -3   2  17    6.03    0.27 
   2  -2 -17    0.09    0.05 
   2  -2 -17    0.13    0.05 
   2  -2 -17    0.16    0.05 
  -2   2  17    0.16    0.06 
  -2   2  17    0.13    0.05 
   1  -2 -17    7.57    0.36 
  -1   2  17    7.70    0.36 
   0  -2 -17    1.81    0.12 
   0   2  17    1.69    0.13 
  -1  -2 -17    0.76    0.08 
   1   2  17    0.94    0.10 
   1   2  17    0.50    0.07 
  -2  -2 -17    0.33    0.03 
  -2  -2 -17    0.31    0.05 
   2   2  17    0.22    0.09 
   2   2  17    0.24    0.03 
   2   2  17    0.27    0.07 
   2   2  17    0.18    0.04 
   2   2  17    0.24    0.07 
  -3  -2 -17    0.35    0.04 
   3   2  17    0.27    0.04 
   3   2  17    0.37    0.06 
   3   2  17    0.39    0.08 
   3   2  17    0.33    0.03 
   2  -3 -17    0.42    0.05 
  -2   3  17    0.37    0.05 
  -2   3  17    0.43    0.07 
   1  -3 -17    1.23    0.08 
   1  -3 -17    1.25    0.09 
  -1   3  17    1.31    0.10 
   0  -3 -17    0.62    0.04 
   0  -3 -17    0.50    0.06 
   0   3  17    0.61    0.08 
  -1  -3 -17    0.41    0.04 
  -1  -3 -17    0.39    0.05 
   1   3  17    0.30    0.06 
   1   3  17    0.33    0.08 
  -2  -3 -17    2.32    0.11 
  -2  -3 -17    2.22    0.12 
   2   3  17    2.13    0.14 
   2   3  17    2.29    0.16 
   2   3  17    2.07    0.11 
  -3  -3 -17    0.25    0.03 
  -3  -3 -17    0.21    0.02 
   3   3  17    0.24    0.05 
   3   3  17    0.24    0.07 
   3   3  17    0.27    0.03 
   1  -4 -17   -0.02    0.02 
   1  -4 -17    0.00    0.03 
  -1   4  17   -0.02    0.04 
   0  -4 -17    7.85    0.37 
   0  -4 -17    8.55    0.37 
  -1  -4 -17    0.03    0.02 
  -1  -4 -17    0.01    0.04 
   1   4  17    0.08    0.05 
  -2  -4 -17    0.09    0.02 
   2   4  17    0.14    0.05 
   2   4  17    0.15    0.06 
   2   3 -18    0.19    0.04 
   2   3 -18    0.23    0.06 
  -2  -3  18    0.29    0.06 
  -2  -3  18    0.21    0.04 
   1   3 -18    0.47    0.05 
   1   3 -18    0.62    0.08 
   1   3 -18    0.79    0.06 
  -1  -3  18    0.63    0.07 
  -1  -3  18    0.69    0.06 
   0   3 -18   -0.01    0.04 
   0  -3  18    0.02    0.06 
   0  -3  18   -0.02    0.05 
  -1   3 -18    0.28    0.04 
   1  -3  18    0.24    0.05 
   3   2 -18    2.59    0.13 
   3   2 -18    2.68    0.13 
   2   2 -18    2.33    0.16 
   2   2 -18    2.37    0.13 
   2   2 -18    2.24    0.13 
   2   2 -18    1.76    0.14 
  -2  -2  18    2.21    0.14 
  -2  -2  18    2.29    0.13 
   1   2 -18    0.14    0.13 
   1   2 -18    0.17    0.05 
   1   2 -18    0.35    0.05 
  -1  -2  18    0.18    0.05 
  -1  -2  18    0.34    0.07 
   0   2 -18   14.21    0.65 
   0  -2  18   14.21    0.66 
   0  -2  18   14.49    0.66 
   0  -2  18   15.03    0.67 
  -1   2 -18    2.07    0.12 
   1  -2  18    2.25    0.14 
   1  -2  18    2.24    0.16 
  -2   2 -18    2.85    0.14 
   2  -2  18    3.00    0.16 
   3   1 -18    0.84    0.10 
   3   1 -18    0.91    0.08 
   3   1 -18    0.93    0.08 
   3   1 -18    0.85    0.08 
   2   1 -18    3.41    0.18 
   2   1 -18    3.41    0.18 
  -2  -1  18    3.54    0.18 
   1   1 -18    0.96    0.09 
  -1  -1  18    0.91    0.09 
  -1  -1  18    0.90    0.09 
   0   1 -18    4.44    0.22 
   0  -1  18    4.33    0.22 
   0  -1  18    4.41    0.24 
  -1   1 -18    1.35    0.10 
   1  -1  18    1.36    0.12 
   1  -1  18    1.31    0.14 
  -2   1 -18    1.23    0.09 
   2  -1  18    1.44    0.11 
  -3   1 -18    6.19    0.30 
   3  -1  18    7.21    0.31 
   3   0 -18    5.29    0.25 
   3   0 -18    5.57    0.26 
   3   0 -18    5.38    0.25 
   2   0 -18    2.38    0.14 
   2   0 -18    2.42    0.14 
   1   0 -18   36.61    1.66 
  -1   0  18   36.84    1.68 
  -1   0  18   38.58    1.66 
   0   0 -18    1.67    0.11 
   0   0  18    1.78    0.14 
   0   0  18    1.79    0.13 
  -1   0 -18    7.87    0.37 
   1   0  18    8.20    0.38 
   1   0  18    7.88    0.38 
   1   0  18    8.17    0.39 
   2   0  18    4.32    0.24 
   2   0  18    4.16    0.22 
  -3   0 -18    1.76    0.09 
   3   0  18    1.61    0.09 
   3   0  18    1.75    0.12 
   3  -1 -18    0.20    0.04 
   3  -1 -18    0.26    0.04 
   3  -1 -18    0.28    0.04 
  -3   1  18    0.33    0.06 
  -3   1  18    0.27    0.05 
   2  -1 -18    0.01    0.05 
   2  -1 -18    0.02    0.05 
   2  -1 -18    0.03    0.05 
  -2   1  18    0.00    0.05 
   1  -1 -18    0.73    0.07 
  -1   1  18    0.78    0.08 
   0  -1 -18    0.02    0.05 
   0   1  18   -0.03    0.07 
   0   1  18   -0.01    0.05 
  -1  -1 -18    0.43    0.06 
   1   1  18    0.47    0.09 
   1   1  18    0.41    0.07 
  -2  -1 -18    0.69    0.07 
   2   1  18    0.69    0.09 
   2   1  18    0.72    0.08 
   2   1  18    0.82    0.10 
   2   1  18    0.60    0.06 
  -3  -1 -18    0.53    0.05 
   3   1  18    0.45    0.04 
   3   1  18    0.51    0.12 
   3   1  18    0.49    0.06 
   2  -2 -18    1.33    0.09 
  -2   2  18    1.41    0.10 
   1  -2 -18    8.69    0.40 
  -1   2  18    8.61    0.40 
   0  -2 -18    0.07    0.05 
   0   2  18    0.05    0.06 
  -1  -2 -18    0.42    0.05 
   1   2  18    0.22    0.06 
   1   2  18    0.40    0.09 
  -2  -2 -18    0.78    0.05 
  -2  -2 -18    0.65    0.07 
   2   2  18    0.65    0.09 
   2   2  18    0.80    0.08 
   2   2  18    0.62    0.07 
   2   2  18    0.76    0.05 
  -3  -2 -18    0.22    0.03 
  -3  -2 -18    0.17    0.02 
   3   2  18    0.19    0.07 
   3   2  18    0.17    0.05 
   3   2  18    0.21    0.03 
   2  -3 -18    0.38    0.04 
  -2   3  18    0.36    0.05 
   1  -3 -18    0.25    0.04 
  -1   3  18    0.22    0.05 
   0  -3 -18    0.04    0.03 
   0  -3 -18    0.00    0.04 
   0   3  18    0.01    0.06 
  -1  -3 -18    5.05    0.25 
  -1  -3 -18    5.28    0.24 
   1   3  18    5.34    0.26 
   1   3  18    5.35    0.27 
  -2  -3 -18    0.90    0.07 
  -2  -3 -18    0.90    0.05 
   2   3  18    0.81    0.05 
   2   3  18    0.98    0.09 
   2   3  18    0.76    0.09 
   3   3  18    0.30    0.08 
   0  -4 -18    0.13    0.02 
   0  -4 -18    0.12    0.03 
  -1  -4 -18    0.52    0.03 
   1   3 -19    0.03    0.04 
  -1  -3  19    0.03    0.04 
  -1  -3  19    0.01    0.05 
   0   3 -19    0.12    0.04 
   0  -3  19    0.11    0.04 
   0  -3  19    0.15    0.06 
  -1   3 -19    1.07    0.07 
   1  -3  19    1.24    0.08 
   2   2 -19    4.45    0.23 
   2   2 -19    4.40    0.21 
  -2  -2  19    4.45    0.21 
  -2  -2  19    4.32    0.22 
   1   2 -19    2.28    0.13 
  -1  -2  19    2.29    0.13 
  -1  -2  19    2.38    0.14 
   0   2 -19    0.75    0.08 
   0  -2  19    0.70    0.08 
   0  -2  19    0.77    0.07 
   0  -2  19    0.77    0.07 
  -1   2 -19    0.01    0.04 
   1  -2  19    0.04    0.05 
   1  -2  19    0.03    0.07 
  -2   2 -19   -0.01    0.03 
   2  -2  19   -0.01    0.05 
   3   1 -19    0.04    0.03 
   3   1 -19    0.06    0.04 
   2   1 -19    1.12    0.09 
   2   1 -19    1.00    0.09 
  -2  -1  19    1.16    0.09 
   1   1 -19    5.43    0.26 
  -1  -1  19    5.50    0.27 
  -1  -1  19    5.66    0.28 
   0   1 -19    1.67    0.11 
   0  -1  19    1.59    0.13 
   0  -1  19    1.70    0.12 
  -1   1 -19   25.94    1.18 
   1  -1  19   27.09    1.19 
   1  -1  19   26.17    1.18 
  -2   1 -19    0.01    0.04 
   2  -1  19    0.00    0.05 
   3   0 -19    2.65    0.13 
   3   0 -19    2.57    0.13 
  -3   0  19    2.83    0.14 
   2   0 -19    2.17    0.12 
   2   0 -19    2.03    0.12 
   1   0 -19    0.35    0.06 
  -1   0  19    0.35    0.08 
  -1   0  19    0.35    0.06 
   0   0 -19   18.66    0.87 
   0   0  19   19.34    0.88 
   0   0  19   19.95    0.87 
  -1   0 -19    0.86    0.07 
   1   0  19    0.98    0.10 
   1   0  19    0.71    0.08 
   1   0  19    0.83    0.08 
   2   0  19    0.99    0.10 
   2   0  19    0.88    0.08 
   3   0  19    0.50    0.06 
   3  -1 -19    0.25    0.04 
  -3   1  19    0.40    0.05 
   2  -1 -19    1.71    0.11 
  -2   1  19    1.86    0.11 
   1  -1 -19    2.36    0.13 
  -1   1  19    2.41    0.14 
   0  -1 -19    2.84    0.15 
   0   1  19    2.70    0.18 
   0   1  19    2.60    0.15 
  -1  -1 -19    0.01    0.04 
   1   1  19    0.01    0.06 
   1   1  19   -0.01    0.08 
  -2  -1 -19    1.59    0.10 
   2   1  19    1.76    0.17 
   2   1  19    1.72    0.15 
   2   1  19    1.59    0.12 
  -3  -1 -19    9.87    0.46 
   3   1  19   10.74    0.47 
   2  -2 -19    0.59    0.05 
  -2   2  19    0.69    0.07 
   1  -2 -19    1.88    0.11 
   0  -2 -19    8.13    0.37 
   0   2  19    8.09    0.38 
  -1  -2 -19    2.22    0.13 
   1   2  19    2.39    0.16 
   1   2  19    2.20    0.14 
  -2  -2 -19    0.18    0.04 
   2   2  19    0.19    0.08 
   2   2  19    0.17    0.06 
  -3  -2 -19   -0.01    0.02 
   3   2  19    0.01    0.08 
   3   2  19    0.01    0.04 
   1  -3 -19    2.49    0.13 
  -1   3  19    2.40    0.13 
   0  -3 -19    1.87    0.11 
   0   3  19    1.99    0.12 
  -1  -3 -19    0.11    0.04 
  -1  -3 -19    0.18    0.03 
   1   3  19    0.16    0.06 
   1   3  19    0.14    0.07 
  -2  -3 -19    0.45    0.04 
  -2  -3 -19    0.48    0.03 
   2   3  19    0.41    0.06 
   2   3  19    0.41    0.07 
  -1  -3  20    0.00    0.05 
   2   2 -20    2.86    0.16 
  -2  -2  20    3.63    0.17 
   1   2 -20    0.02    0.04 
  -1  -2  20    0.03    0.04 
  -1  -2  20    0.04    0.06 
   0   2 -20    0.70    0.06 
   0  -2  20    0.40    0.06 
   0  -2  20    0.53    0.07 
   0  -2  20    0.52    0.07 
  -1   2 -20    0.62    0.05 
   1  -2  20    0.48    0.05 
   1  -2  20    0.59    0.08 
   2   1 -20    0.35    0.05 
  -2  -1  20    0.22    0.05 
   1   1 -20    4.95    0.23 
  -1  -1  20    4.83    0.24 
  -1  -1  20    4.85    0.25 
   0   1 -20    6.22    0.30 
   0  -1  20    6.42    0.30 
   0  -1  20    6.43    0.31 
  -1   1 -20    1.23    0.08 
   1  -1  20    1.32    0.13 
   1  -1  20    1.23    0.10 
  -2   1 -20    0.25    0.04 
   2  -1  20    0.25    0.05 
   2   0 -20    1.01    0.08 
   2   0 -20    0.97    0.08 
  -2   0  20    0.99    0.09 
   1   0 -20    0.02    0.05 
  -1   0  20    0.08    0.05 
  -1   0  20    0.06    0.10 
   0   0 -20    0.43    0.06 
   0   0  20    0.36    0.06 
   0   0  20    0.43    0.08 
  -1   0 -20    4.02    0.20 
   1   0  20    4.28    0.23 
   1   0  20    4.26    0.21 
   2   0  20    0.89    0.09 
   2   0  20    0.77    0.09 
   2  -1 -20    0.80    0.07 
  -2   1  20    0.52    0.05 
   1  -1 -20    0.21    0.05 
  -1   1  20    0.28    0.06 
   0  -1 -20   18.99    0.85 
   0   1  20   19.33    0.86 
   0   1  20   18.70    0.86 
  -1  -1 -20   10.21    0.47 
   1   1  20   10.71    0.49 
   1   1  20   10.44    0.48 
  -2  -1 -20    0.70    0.06 
   2   1  20    0.56    0.06 
   2   1  20    0.93    0.11 
   1  -2 -20    0.39    0.05 
   0  -2 -20    5.62    0.27 
   0   2  20    5.76    0.28 
  -1  -2 -20    0.95    0.08 
   1   2  20    1.01    0.10 
   1   2  20    0.99    0.11 
  -2  -2 -20    0.47    0.04 
   2   2  20    0.48    0.07 
   2   2  20    0.52    0.08 
   1  -3 -20    2.89    0.15 
   0  -3 -20    6.08    0.28 
  -1  -3 -20    1.10    0.07 
   1   3  20    1.14    0.09 
   1   2 -21    0.10    0.04 
  -1  -2  21    0.14    0.07 
  -1  -2  21    0.14    0.05 
   0   2 -21    0.82    0.07 
   0  -2  21    0.91    0.09 
  -1   2 -21    2.76    0.14 
   1  -2  21    3.06    0.15 
   2   1 -21    0.65    0.06 
   1   1 -21    0.97    0.08 
  -1  -1  21    1.02    0.08 
  -1  -1  21    0.91    0.09 
   0   1 -21    1.60    0.10 
   0  -1  21    1.42    0.11 
   0  -1  21    1.65    0.11 
  -1   1 -21    3.57    0.18 
   1  -1  21    3.63    0.19 
   1  -1  21    4.13    0.20 
   2  -1  21    0.18    0.05 
   2   0 -21    0.02    0.04 
   1   0 -21    0.13    0.04 
  -1   0  21    0.04    0.05 
   0   0 -21    9.56    0.46 
   0   0  21   10.41    0.46 
   0   0  21   10.32    0.47 
   1   0  21    5.40    0.27 
   1   0  21    5.23    0.26 
   2   0  21    0.11    0.05 
   2   0  21    0.18    0.07 
  -1   1  21    1.32    0.10 
   0  -1 -21   27.44    1.24 
   0   1  21   27.84    1.25 
   0   1  21   28.40    1.25 
  -1  -1 -21    7.50    0.35 
   1   1  21    7.94    0.36 
   1   1  21    7.81    0.37 
  -2  -1 -21    0.96    0.07 
   2   1  21    1.21    0.11 
   2   1  21    1.02    0.09 
   1  -2 -21    0.62    0.06 
   0  -2 -21    0.64    0.06 
   0   2  21    0.73    0.07 
  -1  -2 -21    0.10    0.03 
   1   2  21    0.07    0.05 
   1   2  21    0.09    0.06 
  -2  -2 -21    0.56    0.05 
   2   2  21    0.55    0.07 
   1   1 -22    5.72    0.26 
  -1  -1  22    5.36    0.27 
   0   1 -22    0.13    0.04 
   0  -1  22    0.15    0.06 
   0  -1  22    0.11    0.05 
  -1   1 -22    0.36    0.05 
   1  -1  22    0.42    0.07 
   1   0 -22   -0.01    0.04 
  -1   0  22    0.00    0.04 
   0   0 -22    5.55    0.27 
   0   0  22    6.07    0.28 
   0   0  22    6.14    0.29 
   1   0  22    0.07    0.06 
   0   1  22    0.76    0.08 
   0   1  22    0.74    0.08 
   1   1  22   15.44    0.69 
   1   1  22   15.09    0.69 
   0   0   0    0.00    0.00 
;
_shelx_hkl_checksum              94032
loop_
_space_group_symop_operation_xyz
'x, y, z'
'-x, -y, -z'
loop_
_atom_site_label
_atom_site_type_symbol
_atom_site_fract_x
_atom_site_fract_y
_atom_site_fract_z
_atom_site_U_iso_or_equiv
_atom_site_adp_type
_atom_site_occupancy
_atom_site_site_symmetry_order
_atom_site_calc_flag
_atom_site_refinement_flags_posn
_atom_site_refinement_flags_adp
O1 O 0.60195(18) 0.31267(17) 0.80496(5) 0.0252(3) Uani 1 1 d . .
N1 N 0.1502(2) 0.44891(18) 0.77164(5) 0.0177(3) Uani 1 1 d . .
H1N H -0.027(4) 0.433(3) 0.7803(8) 0.021 Uiso 1 1 d . U
C1 C 0.8940(2) 0.5392(2) 0.52306(6) 0.0188(3) Uani 1 1 d . .
C2 C 0.7070(3) 0.6100(2) 0.56394(6) 0.0191(3) Uani 1 1 d . .
C3 C 0.4854(2) 0.6920(2) 0.61222(6) 0.0179(3) Uani 1 1 d . .
C4 C 0.3232(3) 0.9263(2) 0.60346(6) 0.0203(3) Uani 1 1 d . .
H4 H 0.3621 1.0352 0.5658 0.024 Uiso 1 1 calc R U
C5 C 0.1058(3) 0.9980(2) 0.65007(6) 0.0210(3) Uani 1 1 d . .
H5 H -0.0061 1.1562 0.6438 0.025 Uiso 1 1 calc R U
C6 C 0.0482(3) 0.8422(2) 0.70606(6) 0.0190(3) Uani 1 1 d . .
H6 H -0.1018 0.8934 0.7377 0.023 Uiso 1 1 calc R U
C7 C 0.2126(3) 0.6110(2) 0.71517(6) 0.0169(3) Uani 1 1 d . .
C8 C 0.4285(3) 0.5342(2) 0.66834(6) 0.0179(3) Uani 1 1 d . .
H8 H 0.5377 0.3747 0.6743 0.022 Uiso 1 1 calc R U
C9 C 0.3472(3) 0.3078(2) 0.81185(6) 0.0176(3) Uani 1 1 d . .
C10 C 0.2313(3) 0.1461(2) 0.86876(6) 0.0199(3) Uani 1 1 d . .
H10 H 0.0633 0.0811 0.8497 0.024 Uiso 1 1 calc R U
C11 C 0.4507(3) -0.0740(2) 0.88983(7) 0.0283(3) Uani 1 1 d . .
H11A H 0.6165 -0.0132 0.9089 0.042 Uiso 1 1 calc R U
H11B H 0.5062 -0.1733 0.8485 0.042 Uiso 1 1 calc R U
H11C H 0.3707 -0.1774 0.9256 0.042 Uiso 1 1 calc R U
C12 C 0.1366(3) 0.3067(2) 0.93172(7) 0.0289(3) Uani 1 1 d . .
H12A H 0.0559 0.2053 0.9679 0.043 Uiso 1 1 calc R U
H12B H -0.0060 0.4454 0.9166 0.043 Uiso 1 1 calc R U
H12C H 0.2991 0.3721 0.9510 0.043 Uiso 1 1 calc R U
loop_
_atom_site_aniso_label
_atom_site_aniso_U_11
_atom_site_aniso_U_22
_atom_site_aniso_U_33
_atom_site_aniso_U_23
_atom_site_aniso_U_13
_atom_site_aniso_U_12
O1 0.0153(5) 0.0328(5) 0.0278(5) 0.0077(4) -0.0013(3) -0.0057(4)
N1 0.0131(6) 0.0212(5) 0.0193(5) 0.0019(4) 0.0010(4) -0.0049(4)
C1 0.0181(7) 0.0195(6) 0.0193(6) 0.0021(5) -0.0022(5) -0.0042(5)
C2 0.0192(6) 0.0193(6) 0.0193(6) 0.0014(4) -0.0028(5) -0.0049(5)
C3 0.0152(6) 0.0209(6) 0.0186(6) -0.0019(4) -0.0016(4) -0.0053(5)
C4 0.0211(7) 0.0198(6) 0.0205(6) 0.0021(4) -0.0014(5) -0.0055(5)
C5 0.0202(7) 0.0173(6) 0.0251(6) -0.0007(5) -0.0022(5) -0.0011(5)
C6 0.0160(6) 0.0212(6) 0.0200(6) -0.0030(4) -0.0003(4) -0.0031(5)
C7 0.0147(6) 0.0198(6) 0.0176(6) -0.0005(4) -0.0026(4) -0.0065(4)
C8 0.0162(6) 0.0171(6) 0.0207(6) -0.0004(4) -0.0022(5) -0.0028(4)
C9 0.0156(6) 0.0197(6) 0.0186(6) -0.0013(4) 0.0000(4) -0.0056(4)
C10 0.0185(6) 0.0217(6) 0.0208(6) 0.0021(5) -0.0006(5) -0.0076(5)
C11 0.0255(7) 0.0254(7) 0.0338(7) 0.0086(5) 0.0000(5) -0.0053(5)
C12 0.0364(8) 0.0276(7) 0.0233(7) 0.0013(5) 0.0059(5) -0.0069(6)
loop_
_atom_type_symbol
_atom_type_description
_atom_type_scat_dispersion_real
_atom_type_scat_dispersion_imag
_atom_type_scat_source
C C 0.0181 0.0091 'International Tables Vol C Tables 4.2.6.8 and 6.1.1.4'
H H 0.0000 0.0000 'International Tables Vol C Tables 4.2.6.8 and 6.1.1.4'
O O 0.0492 0.0322 'International Tables Vol C Tables 4.2.6.8 and 6.1.1.4'
N N 0.0311 0.0180 'International Tables Vol C Tables 4.2.6.8 and 6.1.1.4'
loop_
_geom_angle_atom_site_label_1
_geom_angle_atom_site_label_2
_geom_angle_atom_site_label_3
_geom_angle
_geom_angle_site_symmetry_3
C9 N1 C7 124.43(11) .
C9 N1 H1N 116.9(10) .
C7 N1 H1N 118.7(10) .
C2 C1 C1 179.60(17) 2_766
C1 C2 C3 179.61(13) .
C4 C3 C8 119.82(11) .
C4 C3 C2 120.77(11) .
C8 C3 C2 119.40(10) .
C5 C4 C3 119.44(11) .
C5 C4 H4 120.3 .
C3 C4 H4 120.3 .
C4 C5 C6 121.05(11) .
C4 C5 H5 119.5 .
C6 C5 H5 119.5 .
C7 C6 C5 119.32(11) .
C7 C6 H6 120.3 .
C5 C6 H6 120.3 .
C8 C7 C6 120.45(11) .
C8 C7 N1 120.10(10) .
C6 C7 N1 119.40(11) .
C7 C8 C3 119.90(10) .
C7 C8 H8 120.0 .
C3 C8 H8 120.0 .
O1 C9 N1 123.16(11) .
O1 C9 C10 121.54(11) .
N1 C9 C10 115.27(10) .
C11 C10 C9 110.79(10) .
C11 C10 C12 111.45(11) .
C9 C10 C12 109.00(10) .
C11 C10 H10 108.5 .
C9 C10 H10 108.5 .
C12 C10 H10 108.5 .
C10 C11 H11A 109.5 .
C10 C11 H11B 109.5 .
H11A C11 H11B 109.5 .
C10 C11 H11C 109.5 .
H11A C11 H11C 109.5 .
H11B C11 H11C 109.5 .
C10 C12 H12A 109.5 .
C10 C12 H12B 109.5 .
H12A C12 H12B 109.5 .
C10 C12 H12C 109.5 .
H12A C12 H12C 109.5 .
H12B C12 H12C 109.5 .
loop_
_geom_bond_atom_site_label_1
_geom_bond_atom_site_label_2
_geom_bond_distance
_geom_bond_site_symmetry_2
O1 C9 1.2307(15) .
N1 C9 1.3546(16) .
N1 C7 1.4262(15) .
N1 H1N 0.881(17) .
C1 C2 1.2095(18) .
C1 C1 1.367(2) 2_766
C2 C3 1.4291(17) .
C3 C4 1.3989(17) .
C3 C8 1.3995(17) .
C4 C5 1.3831(18) .
C4 H4 0.9500 .
C5 C6 1.3917(17) .
C5 H5 0.9500 .
C6 C7 1.3906(17) .
C6 H6 0.9500 .
C7 C8 1.3862(17) .
C8 H8 0.9500 .
C9 C10 1.5253(16) .
C10 C11 1.5212(17) .
C10 C12 1.5307(18) .
C10 H10 1.0000 .
C11 H11A 0.9800 .
C11 H11B 0.9800 .
C11 H11C 0.9800 .
C12 H12A 0.9800 .
C12 H12B 0.9800 .
C12 H12C 0.9800 .
