#------------------------------------------------------------------------------
#$Date: 2019-11-25 20:11:17 +0200 (Mon, 25 Nov 2019) $
#$Revision: 241708 $
#$URL: file:///home/coder/svn-repositories/cod/cif/4/13/15/4131518.cif $
#------------------------------------------------------------------------------
#
# This file is available in the Crystallography Open Database (COD),
# http://www.crystallography.net/
#
# All data on this site have been placed in the public domain by the
# contributors.
#
data_4131518
loop_
_publ_author_name
'Gong, Yanjun'
'Zhang, Yifan'
'Xiong, Wei'
'Zhang, Ke'
'Che, Yanke'
'Zhao, Jincai'
_publ_section_title
;
 Molecular Interactions Control Quantum Chain Reactions toward Distinct
 Photoresponsive Properties of Molecular Crystals.
;
_journal_issue                   31
_journal_name_full               'Journal of the American Chemical Society'
_journal_page_first              10649
_journal_page_last               10652
_journal_paper_doi               10.1021/jacs.7b06261
_journal_volume                  139
_journal_year                    2017
_chemical_absolute_configuration unk
_chemical_formula_moiety         'C15 H10 O3, 2(H2 O)'
_chemical_formula_sum            'C15 H14 O5'
_chemical_formula_weight         274.26
_space_group_crystal_system      monoclinic
_space_group_IT_number           4
_space_group_name_Hall           'P 2yb'
_space_group_name_H-M_alt        'P 1 21 1'
_atom_sites_solution_hydrogens   mixed
_atom_sites_solution_primary     dual
_audit_creation_date             2016-10-28
_audit_creation_method
;
Olex2 1.2
(compiled 2016.09.09 svn.r3337 for OlexSys, GUI svn.r5227)
;
_cell_angle_alpha                90
_cell_angle_beta                 91.184(8)
_cell_angle_gamma                90
_cell_formula_units_Z            2
_cell_length_a                   4.252(2)
_cell_length_b                   10.804(5)
_cell_length_c                   14.788(7)
_cell_measurement_reflns_used    1835
_cell_measurement_temperature    173.1500
_cell_measurement_theta_max      27.4700
_cell_measurement_theta_min      1.3773
_cell_volume                     679.2(6)
_computing_cell_refinement       'CrystalClear (Rigaku Inc., 2007)'
_computing_data_collection       'CrystalClear (Rigaku Inc., 2007)'
_computing_data_reduction        'CrystalClear (Rigaku Inc., 2007)'
_computing_molecular_graphics    'Olex2 (Dolomanov et al., 2009)'
_computing_publication_material  'CIFTAB (Sheldrick, 2013)'
_computing_structure_refinement  'SHELXL (Sheldrick, 2014)'
_computing_structure_solution
;
'SHELXT (Sheldrick, 2014)'
;
_diffrn_ambient_temperature      173.1500
_diffrn_detector_area_resol_mean 28.5714
_diffrn_measured_fraction_theta_full 0.996
_diffrn_measured_fraction_theta_max 0.996
_diffrn_measurement_details
;
scan:
	Number of images: 330
	           Slice: -110.0000 - 55.0000
	     Image width: 0.5000
	        Exp time: 10.0000
	   Rotation axis: Omega
	           Omega: 0.0000
	             Chi: 45.0000
	             Phi: 0.0000
	             XTD: 44.9867
	          2theta: -19.9989
scan:
	Number of images: 300
	           Slice: -110.0000 - 40.0000
	     Image width: 0.5000
	        Exp time: 10.0000
	   Rotation axis: Omega
	           Omega: 0.0000
	             Chi: 45.0000
	             Phi: 270.0000
	             XTD: 44.9867
	          2theta: -19.9989
;
_diffrn_measurement_device
;
Saturn724+ (2x2 bin mode)
;
_diffrn_measurement_device_details
;
AFC10: Fixed Chi 2 circle
;
_diffrn_measurement_device_type  'MM007-HF CCD(Saturn 724+)'
_diffrn_measurement_method       '\w scans at fixed \c = 45\%'
_diffrn_orient_matrix_type       d*Trek
_diffrn_orient_matrix_UB_11      -0.0479
_diffrn_orient_matrix_UB_12      0.2296
_diffrn_orient_matrix_UB_13      -0.0177
_diffrn_orient_matrix_UB_21      0.0857
_diffrn_orient_matrix_UB_22      0.0201
_diffrn_orient_matrix_UB_23      0.0287
_diffrn_orient_matrix_UB_31      0.0213
_diffrn_orient_matrix_UB_32      0.0009
_diffrn_orient_matrix_UB_33      -0.0642
_diffrn_radiation_detector       CCD
_diffrn_radiation_monochromator  Confocal
_diffrn_radiation_type           MoK\a
_diffrn_radiation_wavelength     0.71073
_diffrn_reflns_av_R_equivalents  0.0294
_diffrn_reflns_av_unetI/netI     0.0423
_diffrn_reflns_Laue_measured_fraction_full 0.996
_diffrn_reflns_Laue_measured_fraction_max 0.996
_diffrn_reflns_limit_h_max       5
_diffrn_reflns_limit_h_min       -5
_diffrn_reflns_limit_k_max       13
_diffrn_reflns_limit_k_min       -14
_diffrn_reflns_limit_l_max       19
_diffrn_reflns_limit_l_min       -17
_diffrn_reflns_number            4690
_diffrn_reflns_point_group_measured_fraction_full 0.924
_diffrn_reflns_point_group_measured_fraction_max 0.916
_diffrn_reflns_theta_full        26.000
_diffrn_reflns_theta_max         27.469
_diffrn_reflns_theta_min         2.335
_diffrn_source                   'Rotating Anode'
_diffrn_source_current           24.0000
_diffrn_source_power             1.2000
_diffrn_source_voltage           50.0000
_exptl_absorpt_coefficient_mu    0.101
_exptl_absorpt_correction_T_max  1.00000
_exptl_absorpt_correction_T_min  0.87224
_exptl_absorpt_correction_type   multi-scan
_exptl_absorpt_process_details   'CrystalClear (Rigaku Inc., 2007)'
_exptl_crystal_colour            Colorless
_exptl_crystal_density_diffrn    1.341
_exptl_crystal_description       Plate
_exptl_crystal_F_000             288
_exptl_crystal_size_max          0.214
_exptl_crystal_size_mid          0.175
_exptl_crystal_size_min          0.063
_refine_diff_density_max         0.547
_refine_diff_density_min         -0.314
_refine_diff_density_rms         0.052
_refine_ls_abs_structure_details
;
 Flack x determined using 814 quotients [(I+)-(I-)]/[(I+)+(I-)]
 (Parsons, Flack and Wagner, Acta Cryst. B69 (2013) 249-259).
;
_refine_ls_abs_structure_Flack   -0.2(10)
_refine_ls_extinction_method     none
_refine_ls_goodness_of_fit_ref   1.083
_refine_ls_hydrogen_treatment    constr
_refine_ls_matrix_type           full
_refine_ls_number_parameters     183
_refine_ls_number_reflns         2854
_refine_ls_number_restraints     1
_refine_ls_restrained_S_all      1.083
_refine_ls_R_factor_all          0.0718
_refine_ls_R_factor_gt           0.0646
_refine_ls_shift/su_max          0.000
_refine_ls_shift/su_mean         0.000
_refine_ls_structure_factor_coef Fsqd
_refine_ls_weighting_details
'w=1/[\s^2^(Fo^2^)+(0.0599P)^2^+0.4256P] where P=(Fo^2^+2Fc^2^)/3'
_refine_ls_weighting_scheme      calc
_refine_ls_wR_factor_gt          0.1418
_refine_ls_wR_factor_ref         0.1485
_reflns_Friedel_coverage         0.746
_reflns_Friedel_fraction_full    0.842
_reflns_Friedel_fraction_max     0.826
_reflns_number_gt                2552
_reflns_number_total             2854
_reflns_threshold_expression     'I > 2\s(I)'
_cod_data_source_file            ja7b06261_si_008.cif
_cod_data_source_block           mx5245a
_cod_original_cell_volume        679.3(6)
_cod_database_code               4131518
_shelx_space_group_comment
;
The symmetry employed for this shelxl refinement is uniquely defined
by the following loop, which should always be used as a source of
symmetry information in preference to the above space-group names.
They are only intended as comments.
;
_diffrn_number_total             1642
_olex2_refinement_description
;
1. Fixed Uiso
 At 1.2 times of:
  All C(H) groups
 At 1.5 times of:
  All O(H) groups, All O(H,H) groups
2.a Riding coordinates:
 O5(H5A,H5B), O4(H4A,H4B)
2.b Aromatic/amide H refined with riding coordinates:
 C5(H5), C6(H6), C8(H8), C9(H9), C11(H11), C12(H12), C14(H14), C15(H15)
2.c Idealised tetrahedral OH refined as rotating group:
 O2(H2), O3(H3)
;
_shelx_res_file
;
    mx5245a.res created by SHELXL-2014/7

TITL mx5245a_a.res in P2(1)
CELL 0.71073 4.2524 10.8037 14.7883 90 91.184 90
ZERR 2 0.0021 0.0054 0.0068 0 0.008 0
LATT -1
SYMM -X,0.5+Y,-Z
SFAC C H O
UNIT 30 28 10
EQIV $1 1-X,0.5+Y,2-Z
EQIV $2 1+X,+Y,+Z
EQIV $3 2-X,0.5+Y,1-Z
EQIV $4 1-X,-0.5+Y,1-Z

L.S. 5
PLAN  20
HTAB O2 O1_$1
HTAB O3 O5
HTAB O5 O4
HTAB O5 O4_$2
HTAB O4 O1_$3
HTAB O4 O2_$4
BOND $H
list 4
MORE -1
CONF
HTAB
fmap 2
acta 52
REM <olex2.extras>
REM <HklSrc "%.\\mx5245a.hkl">
REM </olex2.extras>

WGHT    0.059900    0.425600
FVAR       1.18444
O1    3    1.120931    0.343095    0.896365    11.00000    0.05064    0.02924 =
         0.02711    0.00332    0.00162    0.00367
O2    3    0.037762    0.892219    0.932905    11.00000    0.04432    0.03185 =
         0.02932    0.00173    0.00639    0.00175
AFIX 147
H2    2   -0.016345    0.878537    0.984859    11.00000   -1.50000
AFIX   0
O3    3    1.367207    0.392280    0.390544    11.00000    0.07469    0.06400 =
         0.02959   -0.00555    0.01239    0.00569
AFIX 147
H3    2    1.328260    0.453118    0.359106    11.00000   -1.50000
AFIX   0

O5    3    1.285923    0.582382    0.285069    11.00000    0.07925    0.08449 =
         0.05515   -0.00730    0.00473    0.00029
AFIX   3
H5A   2    1.154162    0.561342    0.243889    11.00000   -1.50000
H5B   2    1.430172    0.571002    0.247009    11.00000   -1.50000
AFIX   0

C1    1    1.009086    0.413683    0.836702    11.00000    0.03674    0.02893 =
         0.02755   -0.00184    0.00060   -0.00385
C2    1    0.820727    0.514439    0.812191    11.00000    0.03408    0.02882 =
         0.02421   -0.00188   -0.00007   -0.00697
C3    1    0.989669    0.453050    0.746215    11.00000    0.03465    0.03010 =
         0.03085    0.00102    0.00167   -0.00731
C4    1    0.614269    0.611096    0.839834    11.00000    0.03014    0.02893 =
         0.02773   -0.00071    0.00114   -0.00416
C5    1    0.526324    0.614490    0.931228    11.00000    0.03228    0.03220 =
         0.02609    0.00346   -0.00054   -0.00309
AFIX  43
H5    2    0.600910    0.553639    0.970644    11.00000   -1.20000
AFIX   0
C6    1    0.334424    0.704952    0.963132    11.00000    0.03411    0.03901 =
         0.02222    0.00246    0.00121   -0.00059
AFIX  43
H6    2    0.275897    0.704772    1.023379    11.00000   -1.20000
AFIX   0
C7    1    0.225976    0.798286    0.904374    11.00000    0.03258    0.02995 =
         0.03123   -0.00233    0.00256   -0.00556
C8    1    0.306260    0.795402    0.813306    11.00000    0.04010    0.03236 =
         0.02902    0.00413   -0.00065    0.00126
AFIX  43
H8    2    0.229294    0.855817    0.773898    11.00000   -1.20000
AFIX   0
C9    1    0.498795    0.703469    0.781766    11.00000    0.03866    0.03289 =
         0.02317    0.00289    0.00098   -0.00627
AFIX  43
H9    2    0.552871    0.702680    0.721154    11.00000   -1.20000
AFIX   0
C10   1    1.085008    0.442072    0.654188    11.00000    0.03444    0.03340 =
         0.02445   -0.00142    0.00078   -0.00297
C11   1    1.264209    0.339744    0.628736    11.00000    0.04411    0.03293 =
         0.03007   -0.00189    0.00131   -0.00114
AFIX  43
H11   2    1.321953    0.280588    0.671641    11.00000   -1.20000
AFIX   0
C12   1    1.356036    0.326042    0.540094    11.00000    0.04654    0.03919 =
         0.03737   -0.00578    0.00369    0.00395
AFIX  43
H12   2    1.475198    0.257832    0.523538    11.00000   -1.20000
AFIX   0
C13   1    1.270949    0.413410    0.476419    11.00000    0.04414    0.04794 =
         0.02715   -0.00464    0.00339   -0.00627
C14   1    1.094826    0.515681    0.500178    11.00000    0.04904    0.04122 =
         0.02804    0.00638    0.00205    0.00154
AFIX  43
H14   2    1.039544    0.574728    0.456937    11.00000   -1.20000
AFIX   0
C15   1    1.001864    0.529421    0.588434    11.00000    0.04052    0.03447 =
         0.03235    0.00218    0.00277    0.00453
AFIX  43
H15   2    0.882197    0.597807    0.604315    11.00000   -1.20000
AFIX   0

O4    3    0.770774    0.609303    0.166030    11.00000    0.07204    0.03824 =
         0.03561    0.00277    0.00820   -0.00656
AFIX   3
H4A   2    0.823064    0.680293    0.139000    11.00000   -1.50000
H4B   2    0.806054    0.552843    0.123130    11.00000   -1.50000
AFIX   0
HKLF 4

REM  mx5245a_a.res in P2(1)
REM R1 =  0.0646 for    2552 Fo > 4sig(Fo)  and  0.0718 for all    2854 data
REM    183 parameters refined using      1 restraints

END

WGHT      0.0599      0.4268

REM Instructions for potential hydrogen bonds
HTAB O2 O1_$1
HTAB O3 O5
HTAB O5 O4
HTAB O5 O4_$2
HTAB C6 O1_$1
HTAB O4 O1_$3
HTAB O4 O2_$4

REM Highest difference peak  0.547,  deepest hole -0.314,  1-sigma level  0.052
Q1    1   1.2492  0.4979  0.3266  11.00000  0.05    0.55
Q2    1   1.0893  0.4637  0.7030  11.00000  0.05    0.18
Q3    1   1.0607  0.4610  0.2002  11.00000  0.05    0.17
Q4    1   0.1364  0.8985  0.8347  11.00000  0.05    0.17
Q5    1   0.5980  0.6345  0.8842  11.00000  0.05    0.17
Q6    1   0.9583  0.4234  0.7009  11.00000  0.05    0.17
Q7    1   0.0400  0.7677  0.9815  11.00000  0.05    0.17
Q8    1   0.5913  0.6541  0.2059  11.00000  0.05    0.16
Q9    1   0.2314  0.7781  0.6836  11.00000  0.05    0.16
Q10   1   1.4074  0.2962  0.4597  11.00000  0.05    0.16
Q11   1   0.6414  0.5234  1.0051  11.00000  0.05    0.16
Q12   1   0.6074  0.6774  0.6656  11.00000  0.05    0.16
Q13   1   0.8040  0.6946  0.9394  11.00000  0.05    0.15
Q14   1   0.7058  0.5675  0.8323  11.00000  0.05    0.15
Q15   1   0.7653  0.6203  0.6648  11.00000  0.05    0.15
Q16   1   1.0699  0.4070  0.6394  11.00000  0.05    0.15
Q17   1   1.4015  0.3604  0.5935  11.00000  0.05    0.15
Q18   1   1.6322  0.2373  0.6882  11.00000  0.05    0.15
Q19   1   0.8563  0.4940  0.7668  11.00000  0.05    0.15
Q20   1   0.9315  0.4849  0.5449  11.00000  0.05    0.14
;
_shelx_res_checksum              89377
_shelx_hkl_file
;
   0   0   2   12.02    0.70
   0   0  -2   12.31    0.71
   0   0   2   11.82    0.78
   0   0   3 2116.73   20.39
   0   0   4  486.74    5.06
   0   0  -4  477.03    4.97
   0   0   4  468.34    5.81
   0   0  -4  484.35    5.85
   0   0   5   11.22    0.72
   0   0  -5   11.55    1.52
   0   0   5   10.59    1.48
   0   0  -6   17.48    2.23
   0   0   6   14.81    1.62
   0   0  -6   13.21    1.33
   0   0  -7  645.79    9.87
   0   0   7  672.27   11.44
   0   0  -8   40.39    2.69
   0   0   8   46.30    2.57
   0   0  -9 1054.56   20.97
   0   0   9 1128.28   23.58
   0   0 -10   14.00    0.90
   0   0  10   12.93    1.81
   0   0 -11  128.77    2.82
   0   0 -11  156.10    3.33
   0   0  11  142.23    5.11
   0   0 -12   68.15    3.08
   0   0 -12   81.73    3.75
   0   0  12   85.87    5.29
   0   0 -13    6.05    0.85
   0   0  13   10.52    3.21
   0   0  14   40.95    3.99
   0   0  15   11.20    3.21
   0   0  16   34.86    3.72
   0   0  17    7.93    3.40
   0   0  18   12.16    3.69
   0   0  19    0.48    2.02
   0  -1   0    0.53    0.29
   0   1   0    0.98    0.34
   0   1   0    1.04    0.41
   0  -1   1  699.24    6.90
   0   1   1  724.82    6.85
   0  -1   1  718.85    7.09
   0   1  -1  699.37    6.90
   0  -1   2  945.35    9.37
   0   1  -2  917.31    9.22
   0   1   2  962.26    9.41
   0  -1   3  225.67    3.32
   0   1  -3  235.13    3.91
   0   1   3  222.42    3.39
   0  -1  -3  218.39    3.18
   0  -1  -4  242.90    2.40
   0   1  -4  225.92    3.11
   0  -1  -4  233.81    2.33
   0  -1   4  232.02    4.06
   0   1  -4  237.49    3.77
   0   1   4  236.13    3.53
   0  -1   5  856.80    8.90
   0   1  -5  837.27    8.69
   0  -1  -5  832.30    7.88
   0  -1  -5  838.36    9.15
   0  -1   6 1666.03   16.43
   0  -1  -6 1704.60   15.92
   0   1  -6 1659.73   16.34
   0  -1   6 1729.27   18.18
   0   1   6 1727.99   17.80
   0  -1  -6 1661.83   16.97
   0  -1   7   12.96    1.32
   0   1  -7   14.38    1.71
   0  -1  -7   12.23    0.58
   0  -1   7   13.72    1.87
   0   1   7   15.13    1.82
   0  -1   8   43.93    1.74
   0   1  -8   38.87    2.94
   0  -1  -8   39.62    1.03
   0  -1  -8   42.55    1.11
   0  -1   8   39.22    2.53
   0   1  -9  210.13    4.91
   0  -1  -9  228.96    4.81
   0  -1  -9  240.23    5.02
   0  -1   9  241.96    6.55
   0   1   9  245.12    6.55
   0   1 -10   95.72    2.50
   0  -1 -10  105.50    2.12
   0  -1 -10  111.25    2.24
   0  -1  10  102.52    3.76
   0   1  10  118.95    4.28
   0  -1 -11  117.45    2.38
   0  -1 -11  116.59    4.75
   0  -1  11  124.30    4.70
   0   1  11  119.52    4.43
   0  -1 -12  224.48    6.18
   0  -1 -12  225.95    6.16
   0  -1  12  240.89    8.35
   0   1  12  249.19    8.68
   0  -1 -13   18.18    0.86
   0  -1  13   17.21    3.19
   0   1  13   20.17    3.11
   0   1 -14   28.86    3.26
   0  -1  14   25.61    4.61
   0   1  14   31.25    4.46
   0   1 -15    2.64    0.94
   0  -1  15    2.40    2.12
   0   1  15    7.91    3.07
   0  -1  16   27.28    3.60
   0   1  16   27.30    3.49
   0  -1  17    3.56    2.37
   0   1  17    4.63    2.28
   0   1  18    2.40    1.86
   0  -1  18    6.82    3.13
   0  -1  19   24.56    6.00
   0   1  19   51.27   10.42
   0   2   0 2207.47   20.92
   0   2   0 2119.39   19.86
   0   2  -1 2213.33   21.06
   0   2  -1 2196.77   20.77
   0  -2   2 1112.63   11.39
   0  -2  -2 1131.76   10.83
   0   2   2 1138.30   10.88
   0  -2   2 1084.91   11.09
   0   2  -2 1146.27   11.64
   0  -2   3  109.30    2.36
   0   2  -3  118.42    3.29
   0  -2  -3  109.96    1.58
   0   2   3  112.43    1.43
   0  -2   3  107.36    2.41
   0   2  -3  109.66    2.35
   0  -2   4  811.12    8.77
   0  -2  -4  823.20    7.71
   0   2  -4  799.83    8.69
   0   2   4  807.28    7.56
   0   2  -4  793.74    8.87
   0   2   4  816.15    8.67
   0  -2   5  132.49    2.70
   0   2  -5  133.41    2.94
   0  -2   5  136.18    3.22
   0   2  -5  129.31    2.88
   0   2   5  131.54    3.00
   0  -2   6  430.22    5.69
   0   2  -6  427.28    5.76
   0  -2   6  440.80    6.73
   0   2   6  447.97    6.22
   0   2  -7  830.68   13.07
   0   2   7  869.65   14.12
   0  -2   8  301.11    5.74
   0   2  -8  271.11    5.14
   0  -2   8  305.18    6.73
   0   2   8  301.63    6.15
   0  -2   9  599.96   12.79
   0  -2   9  592.34   13.60
   0   2   9  557.50   12.49
   0  -2  10   37.30    2.12
   0  -2  10   34.50    2.59
   0   2  10   33.87    2.57
   0  -2  11  140.53    6.97
   0   2  11  142.65    6.86
   0  -2  12  267.17    9.12
   0   2  12  273.10    9.06
   0  -2  13   28.14    3.45
   0   2  13   36.92    3.59
   0  -2  14  123.95    7.87
   0   2  14  139.06    8.28
   0  -2  15   47.52    4.10
   0   2  15   36.64    3.48
   0  -2  16   29.32    3.80
   0   2  16   24.53    3.24
   0  -2  17   23.30    4.50
   0   2  17   21.45    4.23
   0   2  18    8.22    2.96
   0  -2  18    6.48    2.29
   0  -3   0    1.68    0.89
   0   3   0    0.70    0.74
   0  -3   0    0.90    0.60
   0   3   0   -0.22    0.55
   0  -3   1 1260.07   12.84
   0  -3  -1 1287.98   12.76
   0   3  -1 1262.62   12.77
   0  -3  -1 1302.50   12.78
   0   3   1 1302.75   12.64
   0  -3   1 1312.02   12.99
   0   3  -1 1256.72   12.46
   0  -3  -2  359.29    4.16
   0   3   2  366.81    4.22
   0   3   2  358.60    4.28
   0  -3   2  365.60    4.60
   0   3  -2  372.24    4.65
   0  -3   3 2709.31   26.28
   0   3  -3 2653.55   25.78
   0   3   3 2633.50   24.94
   0  -3   3 2669.95   25.86
   0  -3  -4  342.22    3.95
   0  -3   4  319.36    4.66
   0   3   4  333.48    3.64
   0   3   4  339.51    4.33
   0  -3  -5  316.69    3.33
   0  -3   5  304.01    4.66
   0   3  -5  311.32    4.59
   0   3   5  300.46    3.15
   0   3   5  320.01    4.54
   0  -3   6  254.28    5.17
   0  -3   6  280.45    5.99
   0   3   6  256.34    5.05
   0  -3   7   40.18    4.45
   0  -3   7   28.39    2.06
   0   3   7   34.18    2.20
   0  -3   8  214.68    5.60
   0   3   8  206.36    5.44
   0  -3   9  234.84    6.03
   0  -3   9  223.75    6.65
   0   3   9  230.48    6.37
   0  -3  10   84.40    2.95
   0  -3  10   80.17    3.90
   0   3  10   80.48    3.44
   0  -3  11   79.05    4.13
   0  -3  11   77.98    4.83
   0   3  11   87.26    4.94
   0  -3  12  395.14   12.48
   0   3  12  413.13   12.59
   0  -3  13   75.60    4.22
   0   3  13   83.30    4.56
   0  -3  14   79.11    4.68
   0   3  14  111.53    5.18
   0  -3  15    4.79    2.73
   0   3  15    4.81    2.43
   0  -3  16   39.76    4.10
   0   3  16   36.53    3.99
   0  -3  17   95.37   14.07
   0   3  17   93.92   13.79
   0  -3  18   37.56    6.73
   0   3  18   37.83    6.72
   0  -4   0 1981.64   19.16
   0   4   0 1967.63   19.03
   0  -4  -1  452.05    5.57
   0  -4   1  456.58    5.87
   0   4  -1  431.23    5.45
   0   4   1  435.15    5.27
   0  -4  -1  457.78    5.25
   0   4   1  442.37    5.08
   0  -4   1  439.18    5.32
   0   4  -1  441.86    5.27
   0  -4  -2   66.51    1.67
   0   4  -2   72.18    3.34
   0   4   2   66.43    1.61
   0   4   2   71.04    1.75
   0  -4   2   73.48    2.05
   0   4  -2   67.81    1.81
   0  -4   3  440.75    6.24
   0  -4  -3  426.16    5.24
   0   4   3  431.24    5.01
   0   4   3  425.14    5.03
   0  -4   3  428.05    5.83
   0   4  -3  419.97    5.59
   0  -4  -4 1384.76   13.59
   0  -4   4 1338.76   14.34
   0   4   4 1374.84   13.45
   0   4   4 1347.30   13.55
   0  -4   4 1349.72   14.42
   0   4  -4 1343.15   14.33
   0  -4   5  198.43    4.48
   0  -4  -5  199.04    3.62
   0   4   5  205.50    3.55
   0  -4   5  201.72    4.75
   0   4   5  205.90    4.11
   0  -4  -6   77.17    1.60
   0   4   6   73.90    1.49
   0  -4   6   60.62    2.62
   0   4   6   72.32    2.44
   0  -4   7  130.95    5.23
   0   4   7  135.56    2.77
   0  -4   7  135.07    4.50
   0   4   7  138.16    4.05
   0  -4   8   43.42    2.49
   0  -4   8   40.27    2.73
   0   4   8   36.98    2.47
   0  -4   9  306.45    6.77
   0  -4   9  320.47    7.60
   0   4   9  316.42    6.88
   0  -4  10  386.18   15.88
   0  -4  10  413.20   17.39
   0   4  10  383.35   15.87
   0  -4  11  314.36    9.70
   0  -4  11  282.77    9.45
   0   4  11  283.21    9.18
   0  -4  12    9.09    2.12
   0  -4  12    2.03    1.76
   0   4  12    4.93    1.73
   0   4  13  358.83   18.41
   0  -4  14   11.55    3.52
   0   4  14    7.73    3.12
   0  -4  15   15.59    4.75
   0   4  15   13.12    3.82
   0  -4  16   15.19    3.51
   0   4  16   20.67    3.66
   0  -4  17    7.34    2.39
   0   4  17   17.93    3.90
   0  -4  18   44.29    9.21
   0   4  18   45.06    9.18
   0  -5   0    2.03    0.76
   0   5   0    2.67    0.76
   0  -5   0    1.22    0.80
   0   5   0    3.99    0.94
   0  -5  -1  533.08    9.02
   0   5   1  511.45    8.48
   0  -5  -1  530.13    8.76
   0  -5   1  514.39    8.46
   0   5   1  517.54    8.27
   0   5  -1  512.06    8.36
   0  -5  -2  323.67    5.96
   0   5   2  314.53    5.54
   0  -5  -2  329.12    5.62
   0   5   2  314.55    5.36
   0  -5   2  329.69    6.08
   0   5  -2  322.95    5.87
   0  -5  -3  526.07    8.65
   0   5   3  505.78    8.18
   0   5   3  513.80    8.23
   0  -5   3  538.43    9.14
   0   5  -3  501.84    8.63
   0  -5   4  229.55    5.00
   0  -5  -4  231.68    4.73
   0   5   4  225.79    4.24
   0   5   4  223.03    4.33
   0  -5   4  236.15    4.96
   0  -5  -5  519.72    8.76
   0  -5   5  532.59    9.65
   0   5   5  522.77    8.25
   0   5   5  504.39    8.24
   0  -5   5  534.78    9.60
   0  -5   6   64.95    3.54
   0  -5  -6   65.92    1.92
   0   5   6   67.47    1.91
   0   5   6   60.05    1.95
   0  -5   6   71.46    3.15
   0   5   6   64.94    2.51
   0  -5  -7    9.45    0.65
   0  -5   7   10.23    1.82
   0   5   7    7.11    0.47
   0  -5   7    3.00    1.21
   0   5   7    6.68    1.09
   0  -5   8   64.36    7.81
   0   5   8   62.64    1.22
   0  -5   8   66.19    3.20
   0   5   8   66.31    2.85
   0  -5   9   36.22    2.70
   0  -5   9   31.27    2.99
   0   5   9   35.13    2.91
   0  -5  10    9.59    1.99
   0  -5  10    9.75    2.70
   0   5  10    8.87    1.92
   0  -5  11  384.76   12.05
   0  -5  11  368.46   12.14
   0   5  11  380.30   11.74
   0  -5  12   54.96    3.27
   0  -5  12   54.96    4.23
   0   5  12   48.17    3.18
   0  -5  13   27.08    3.58
   0   5  13   20.68    4.18
   0  -5  14   15.50    4.00
   0   5  14   23.03    3.20
   0  -5  15    8.30    3.17
   0   5  15    9.16    2.84
   0  -5  16   11.64    3.28
   0   5  16   15.15    3.19
   0   5  17    6.58    2.59
   0  -6   0   76.30    2.82
   0  -6   0   81.28    3.43
   0   6   0   77.02    2.16
   0  -6   1   70.56    3.93
   0  -6  -1   70.36    5.59
   0  -6  -1   73.38    4.15
   0  -6   1   66.00    3.01
   0   6   1   58.43    1.82
   0   6  -1   58.61    1.95
   0  -6  -2  482.83    9.08
   0  -6   2  476.38    9.22
   0  -6  -2  489.50    8.05
   0   6   2  467.77    7.71
   0  -6   2  477.65    8.28
   0   6  -2  461.22    7.96
   0  -6  -3  168.22    4.89
   0  -6   3  169.58    5.10
   0   6   3  146.74    3.75
   0   6   3  158.60    3.81
   0  -6   3  172.97    4.60
   0  -6  -4   66.11    3.32
   0  -6   4   61.04    8.99
   0   6   4   66.80    2.19
   0   6   4   60.16    4.24
   0  -6   4   63.81    2.69
   0  -6   5   91.03    8.76
   0  -6  -5   70.08    2.25
   0   6   5   69.27    2.14
   0   6   5   58.77    1.89
   0  -6   5   63.79    2.81
   0  -6  -6  164.85    3.60
   0  -6   6  148.17    4.43
   0   6   6  160.42    3.38
   0  -6   6  172.35    4.98
   0   6   6  157.09    3.79
   0  -6  -7   94.39    2.31
   0  -6   7   85.04    4.10
   0   6   7   86.84    2.07
   0  -6   7   87.69    3.52
   0   6   7   88.31    3.05
   0  -6   8   48.62    3.12
   0   6   8   51.44    2.26
   0  -6   8   58.66    3.75
   0   6   8   56.20    3.17
   0  -6   9  262.04    8.64
   0  -6   9  274.69    9.24
   0   6   9  275.27    8.48
   0  -6  10  273.34    9.23
   0  -6  10  268.29    9.29
   0   6  10  275.90    8.70
   0  -6  11  229.50    8.19
   0  -6  11  219.44    8.20
   0   6  11  233.61    7.96
   0  -6  12  140.71    8.26
   0  -6  12  154.44    9.43
   0   6  12  136.44    7.82
   0  -6  13   93.69    7.97
   0  -6  13   76.47    7.29
   0   6  13   94.04    8.21
   0  -6  14   23.00    3.10
   0   6  14   31.27    3.43
   0  -6  15   19.48    3.67
   0   6  15   17.76    3.39
   0  -6  16   28.19    5.54
   0   6  16   28.07    5.23
   0  -6  17   22.79    5.42
   0   6  17   15.26    4.05
   0  -7   0    1.32    0.95
   0  -7   0    0.86    0.43
   0   7   0   -0.22    0.44
   0  -7  -1   61.70    7.58
   0  -7   1   57.59    5.68
   0  -7  -1   53.67    2.68
   0  -7   1   59.46    3.18
   0   7   1   44.58    1.76
   0   7  -1   50.68    2.00
   0  -7   2   80.13    8.12
   0  -7  -2   79.36    5.80
   0  -7  -2   83.81    2.76
   0  -7   2   85.63    2.92
   0   7   2   79.81    2.40
   0  -7  -3  486.27    9.09
   0   7   3  460.57    8.26
   0  -7   3  486.00    9.23
   0  -7  -4  239.73    5.16
   0  -7   4  235.69    7.34
   0   7   4  213.54    4.42
   0  -7   4  237.60    5.52
   0  -7  -5   90.52    5.20
   0  -7   5   82.56    5.54
   0   7   5   63.72    4.67
   0  -7   5   87.04    3.31
   0  -7  -6   90.16    4.16
   0  -7   6   92.85    6.62
   0   7   6   82.43    3.73
   0  -7   6   77.34    4.23
   0   7   6   94.34    4.42
   0  -7  -7  107.14    4.71
   0  -7   7  120.08   12.43
   0   7   7   93.82    4.11
   0  -7   7   97.72    5.18
   0   7   7  100.15    4.83
   0  -7   8  139.30    5.81
   0   7   8  117.82    3.54
   0  -7   8  153.86    6.31
   0   7   8  146.38    5.18
   0  -7   9  159.61    6.25
   0  -7   9  172.85    6.66
   0   7   9  159.35    5.58
   0  -7  10  200.46   10.99
   0  -7  10  205.73   11.18
   0   7  10  208.24   11.01
   0  -7  11   96.75    4.31
   0  -7  11  102.08    4.84
   0   7  11   97.40    3.79
   0  -7  12  104.06    8.84
   0  -7  12   89.02    7.86
   0   7  12   99.69    8.29
   0  -7  13   33.30    3.98
   0  -7  13   20.72    3.06
   0   7  13   15.43    4.16
   0  -7  14   -0.73    1.92
   0   7  14   -1.07    1.48
   0  -7  15   21.20    4.43
   0   7  15   24.46    4.45
   0  -7  16   41.54    8.80
   0   7  16   34.07    7.14
   0  -8   0   26.00    3.72
   0  -8   0   22.61    4.08
   0  -8  -1   90.85    6.65
   0  -8   1   91.94    7.99
   0  -8  -1   83.22    6.33
   0  -8   1   81.65    4.49
   0  -8   2  134.41   12.36
   0  -8  -2  116.49    6.31
   0  -8  -2  129.93    5.81
   0  -8   2  130.22    7.06
   0   8   2  101.72    4.52
   0  -8  -3   74.76    7.57
   0  -8   3   79.79    8.06
   0  -8   3   92.30    4.74
   0   8   3   64.24    3.08
   0  -8   4   43.43    5.96
   0  -8  -4   28.91    4.78
   0  -8   4   28.51    2.21
   0  -8   5   22.86    3.06
   0  -8  -5   25.06    1.73
   0  -8   5   23.56    2.45
   0  -8  -6   17.05    1.54
   0  -8   6   22.20    4.23
   0  -8   6   20.42    2.32
   0  -8  -7   18.05    1.66
   0  -8   7   15.46    2.29
   0  -8   7   18.85    2.36
   0  -8   8   68.47    3.94
   0  -8   8   71.79    3.84
   0   8   8   77.83    3.36
   0  -8   9  207.08   11.48
   0  -8   9  195.78   10.90
   0   8   9  200.66   10.56
   0  -8  10   78.00    4.30
   0  -8  10   78.05    4.13
   0   8  10   86.45    3.73
   0  -8  11   18.21    3.65
   0  -8  11   35.56    4.19
   0   8  11   36.79    4.17
   0  -8  12   71.16    5.32
   0  -8  12   81.01    6.15
   0   8  12   76.39    5.46
   0  -8  13   33.26    4.74
   0  -8  13   15.24    3.21
   0   8  13   27.55    3.99
   0  -8  14   11.53    3.10
   0   8  14    9.81    2.46
   0  -8  15   31.15    5.68
   0  -9   0    4.67    1.85
   0  -9   0    1.11    0.59
   0  -9   1  122.17    7.96
   0  -9  -1  134.55   11.10
   0  -9  -1  125.10    4.41
   0  -9   1  110.18    8.24
   0  -9   2   64.23    9.43
   0  -9  -2   60.62    7.93
   0  -9  -2   66.12    2.93
   0  -9   2   61.08    7.38
   0  -9   3  100.95    7.70
   0  -9  -3  110.67    9.39
   0  -9   3  104.37    7.41
   0  -9   4   40.72    5.45
   0  -9  -4   43.62    2.47
   0  -9   4   38.15    2.50
   0  -9  -5   27.07    2.10
   0  -9   5   24.34    4.84
   0  -9   5   28.18    2.30
   0  -9  -6   10.45    1.28
   0  -9   6    6.71    1.84
   0  -9   6   17.48    2.47
   0  -9  -7   43.63    2.74
   0  -9   7   51.25    4.44
   0  -9   7   60.36    4.49
   0   9   7   61.77    4.00
   0  -9   8  129.70    5.41
   0  -9   8  144.53    5.03
   0   9   8  134.00    4.07
   0  -9   9   27.34    3.33
   0  -9   9   13.64    3.25
   0   9   9    7.96    1.85
   0  -9  10   28.75    3.70
   0  -9  10   30.97    3.85
   0   9  10   28.03    3.07
   0  -9  11   33.27    3.77
   0  -9  11   33.49    3.74
   0   9  11   33.61    3.11
   0  -9  12    4.47    1.95
   0  -9  12    5.01    2.71
   0  -9  13   34.83    6.42
   0  -9  13   27.47    5.07
   0  -9  14    0.22    1.86
   0 -10   0  635.74   18.82
   0 -10   0  616.77   17.93
   0 -10   1  116.72    8.62
   0 -10  -1  106.36    4.70
   0 -10  -1  124.57    4.55
   0 -10   1  100.43    4.86
   0 -10  -2   18.65    2.76
   0 -10   2   16.36    3.08
   0 -10   2   21.56    4.57
   0 -10  -3  235.48   12.38
   0 -10   3  246.83   13.29
   0 -10   3  234.79   12.19
   0 -10   4   12.44    2.33
   0 -10  -4   16.62    2.66
   0 -10   4   14.44    2.55
   0 -10  -5   26.88    1.96
   0 -10   5   26.12    2.83
   0 -10  -6   91.43    3.13
   0 -10   6   76.95    3.93
   0 -10   6   90.99    4.09
   0 -10  -7    7.33    1.60
   0 -10   7    5.70    1.90
   0 -10   7   10.35    2.35
   0  10   7   11.45    2.17
   0 -10   8  134.04   11.30
   0 -10   9  113.52    7.56
   0 -10   9  124.11    7.92
   0 -10  10    4.21    2.08
   0 -10  10    2.46    1.77
   0 -10  11    6.46    2.44
   0 -10  11    4.23    1.97
   0 -10  12    7.91    3.37
   0 -10  12   12.55    3.13
   0 -10  13   19.59    5.01
   0 -11   0    2.31    1.66
   0 -11   0    2.87    1.11
   0 -11  -1  333.80    7.99
   0 -11   1  333.74    8.19
   0 -11  -1  338.39    6.71
   0 -11   1  330.03    6.94
   0 -11  -2   48.36    3.25
   0 -11   2   73.47    3.91
   0 -11   2   36.84    7.94
   0 -11  -3  148.93   11.87
   0 -11   3  141.17   11.58
   0 -11   3  126.50   13.52
   0 -11  -4   35.23    3.64
   0 -11   4   35.71    4.25
   0 -11   4   33.04    7.06
   0 -11  -5   20.99    2.57
   0 -11   5   19.80    4.34
   0 -11   5   15.52    3.51
   0 -11  -6   56.73    3.95
   0 -11   6   52.20    4.33
   0 -11   6   59.83    4.56
   0 -11   7   19.90    3.04
   0 -11   7   11.84    3.51
   0 -11   8   14.12    3.26
   0 -11   8   13.66    3.20
   0 -11   9   31.62    5.53
   0 -11   9   22.25    4.07
   0 -11  10    7.57    2.80
   0 -11  10   17.56    3.51
   0 -11  11   -0.71    1.69
   0 -11  11    2.47    1.78
   0 -12   0   88.83    6.17
   0 -12   1   35.43    3.66
   0 -12  -1   48.42    4.20
   0 -12   2   15.63    4.37
   0 -12  -2   21.29    2.72
   0 -12   3    7.11    2.41
   0 -12  -3   11.62    3.51
   0 -12   3    9.98    3.28
   0 -12   4    2.85    2.28
   0 -12  -4    6.75    2.28
   0 -12   4    6.41    2.30
   0 -12  -5   25.25    3.56
   0 -12   5   17.86    3.08
   0 -12   5   11.96    4.29
   0 -12   6   59.11    9.11
   0 -12   6   25.38    7.01
   0 -12   7    8.72    2.70
   0 -12   7    7.22    2.09
   0 -12   8    3.93    1.96
   0 -12   8    7.06    2.10
   0 -12   9    5.43    2.26
   0 -12   9    3.32    1.67
   0 -13   0    5.55    1.82
   0 -13   1    2.73    1.61
   0 -13   2   27.17    4.99
   0 -13  -2   30.23    5.26
   0 -13  -3   12.17    2.77
   0 -13   3   16.80    3.56
   0 -13  -4    1.88    1.21
   0 -13   4    2.62    1.74
   0 -13   5   54.23    8.64
   0 -13   6    9.30    3.74
   0 -13   7    6.60    3.08
   0 -14   1    2.43    1.81
   0 -14  -1    6.22    2.78
  -1   0  18    8.68    3.19
  -1   0  17   54.98    7.07
  -1   0  16   62.63    5.22
  -1   0  15    2.55    2.18
  -1   0  14   55.48    4.81
  -1   0  13  156.04    4.87
  -1   0  13  142.46    6.37
  -1   0  12   45.41    4.88
   1   0 -12   44.64    1.80
  -1   0  12   47.47    3.55
  -1   0  11   72.10    5.17
   1   0 -11   67.43    3.08
  -1   0  11   79.96    4.78
  -1   0  10   26.53    2.85
   1   0 -10   23.76    1.13
  -1   0  10   24.38    2.39
  -1   0   9    1.09    0.46
   1   0  -9    2.65    0.55
  -1   0   9    1.69    1.35
  -1   0   8  439.59    9.24
   1   0  -8  435.79    9.07
  -1   0   8  404.49    9.69
  -1   0   7   29.64    1.27
   1   0  -7   28.66    1.19
  -1   0   7   31.17    2.16
  -1   0   6  113.68    2.62
   1   0  -6  104.34    2.27
  -1   0   5   57.07    1.65
   1   0  -5   56.95    1.47
  -1   0   5   56.64    2.43
  -1   0   4  395.43    4.82
   1   0  -4  396.29    4.68
  -1   0   4  411.80    5.60
   1   0  -3 1492.16   14.62
  -1   0   2 1058.44   10.77
  -1   0   1  126.80    2.54
   1   0  -1  120.65    2.48
  -1   0   1  115.17    2.17
  -1   0   0  580.67    6.54
   1   0   0  577.43    6.47
   1   0   1  317.95    4.04
   1   0   1  320.48    4.15
   1   0   2 1479.42   14.61
   1   0   2 1476.68   14.67
  -1   0  -2 1467.91   14.53
   1   0   3  619.22    7.05
  -1   0  -3  605.49    6.83
  -1   0  -4   35.24    1.40
   1   0   4   35.61    1.27
  -1   0  -4   33.22    1.40
  -1   0  -5  867.59    9.23
   1   0   5  846.64    8.96
  -1   0  -5  853.65    9.62
  -1   0  -6   12.20    1.28
   1   0   6   12.15    1.80
  -1   0  -6   14.92    1.40
  -1   0  -7    1.87    1.19
   1   0   7    1.16    1.18
  -1   0  -8  105.60    3.08
   1   0   8  110.57    4.07
  -1   0  -9    2.57    0.71
  -1   0  -9    1.73    1.05
   1   0   9    5.02    2.01
  -1   0 -10   12.14    1.00
  -1   0 -10   18.50    1.42
   1   0  10   22.86    2.40
  -1   0 -11   14.89    1.60
   1   0  11   16.69    2.30
  -1   0 -12  871.38   23.42
   1   0  12  907.07   26.19
  -1   0 -13   78.25    3.16
   1   0  13   80.17    4.63
  -1   0 -14   32.57    5.59
   1   0  14   40.71    3.92
   1   0  15   34.71    4.65
   1   0  16    1.44    1.72
   1   0  17    6.15    3.04
   1   0  18   16.05    4.09
  -1  -1  18    6.41    3.03
  -1   1  18    4.48    2.20
  -1  -1  17   17.32    3.89
  -1   1  17   25.04    5.31
  -1  -1  16   40.48    4.22
  -1   1  16   48.25    4.67
  -1  -1  15    4.09    2.66
  -1   1  15    8.15    3.30
  -1  -1  14    7.89    1.51
  -1  -1  14    9.02    3.35
  -1   1  14   10.00    3.72
  -1  -1  13  262.29    8.05
  -1  -1  13  245.04    9.06
  -1   1  13  263.74    9.43
  -1   1  12    5.87    0.68
  -1  -1  12    4.51    1.63
   1  -1 -12    4.10    0.53
  -1  -1  12   12.56    2.82
  -1   1  12    6.39    2.73
  -1   1  11   21.69    3.16
  -1  -1  11   31.04    4.42
   1  -1 -11   28.32    1.40
  -1  -1  11   20.23    2.54
  -1   1  11   22.97    2.76
  -1   1  10   81.29    2.54
  -1  -1  10   84.89    4.88
   1   1 -10   79.75    2.33
   1  -1 -10   82.08    1.87
  -1  -1  10   67.09    3.28
  -1   1  10   83.29    3.54
  -1   1   9   13.50    1.84
  -1  -1   9   17.98    2.59
   1   1  -9   12.66    1.13
   1  -1  -9   13.77    0.79
  -1  -1   9   15.92    2.35
  -1   1   9   12.74    2.11
  -1  -1   8  890.70   18.23
  -1   1   8  857.53   17.10
   1   1  -8  867.95   17.66
   1  -1  -8  879.14   17.46
  -1  -1   8  908.15   19.28
  -1   1   8  915.67   19.38
  -1  -1   7  519.36    8.59
  -1   1   7  528.26    8.22
   1   1  -7  505.78    8.32
   1  -1  -7  514.97    8.00
  -1   1   7  540.29    9.79
  -1  -1   6  457.01    7.63
  -1   1   6  473.32    7.47
   1   1  -6  471.11    7.75
   1  -1  -6  463.93    7.26
  -1  -1   6  487.18    8.80
  -1   1   6  469.30    8.47
  -1  -1   5 1614.72   16.22
  -1   1   5 1702.53   16.51
   1   1  -5 1663.23   16.54
   1  -1  -5 1617.15   15.61
  -1  -1   5 1661.37   17.28
  -1  -1   4 1081.88   11.31
   1   1  -4 1110.29   11.44
  -1   1   4 1153.04   11.47
   1  -1  -4 1122.49   11.10
  -1  -1   3  701.14    7.80
   1   1  -3  691.68    7.56
  -1   1   3  721.36    7.60
   1  -1  -3  695.84    7.25
  -1  -1   2  773.82    8.42
   1   1  -2  735.33    7.89
   1  -1  -2  743.92    7.75
  -1  -1   1  493.02    5.81
   1   1  -1  468.14    5.44
  -1   1   1  489.60    5.70
  -1  -1   1  487.01    5.35
   1  -1  -1  488.35    5.88
   1   1   0  750.02    7.99
  -1   1   0  737.24    7.90
   1  -1   0  750.03    7.94
  -1  -1   0  765.33    7.72
   1  -1   0  768.10    8.43
  -1   1   0  756.69    8.22
   1  -1   1 9999.00  143.80
   1   1   2 3000.34   28.39
  -1   1  -2 3020.28   28.81
   1  -1   2 2840.07   27.02
   1   1   2 3004.27   28.22
   1  -1   2 2984.17   28.64
  -1  -1  -2 3017.23   28.30
  -1  -1  -3 1606.38   15.80
   1   1   3 1590.46   15.59
  -1   1  -3 1589.53   15.85
   1  -1   3 1566.84   15.55
   1  -1   3 1575.50   16.10
   1   1   3 1608.17   15.72
  -1   1  -3 1557.40   15.75
  -1  -1  -3 1591.51   15.55
  -1  -1  -4 1143.19   11.63
   1   1   4 1117.11   11.34
  -1   1  -4 1155.42   12.05
   1  -1   4 1108.79   12.06
   1   1   4 1140.91   11.72
  -1  -1  -4 1137.12   11.68
  -1  -1  -5  188.72    2.97
   1   1   5  195.14    2.94
  -1   1  -5  191.41    3.34
   1  -1   5  197.25    4.03
   1   1   5  189.70    3.28
  -1  -1  -5  201.35    3.42
  -1  -1  -6   26.35    1.24
  -1   1  -6   26.42    1.41
   1   1   6   31.33    1.39
   1  -1   6   21.66    1.87
   1   1   6   30.56    2.05
  -1  -1  -6   28.03    1.55
  -1   1  -7  114.86    2.90
  -1  -1  -7  121.96    2.85
  -1   1  -7  112.92    2.85
   1  -1   7  114.35    3.58
   1   1   7  116.97    3.44
  -1  -1  -8  227.32    5.27
  -1   1  -8  230.08    5.72
   1  -1   8  223.33    6.17
   1   1   8  224.13    5.99
  -1  -1  -9    6.72    1.02
  -1   1  -9    3.85    1.39
   1  -1   9   15.71    2.44
   1   1   9    7.03    1.94
  -1  -1 -10   43.28    1.56
  -1  -1 -10   56.72    1.98
  -1   1 -10   49.37    2.39
   1  -1  10   66.38    3.63
   1   1  10   56.27    2.71
  -1  -1 -11   17.74    3.63
  -1  -1 -11   37.76    2.06
  -1   1 -11   40.62    2.44
   1  -1  11   37.56    3.30
   1   1  11   38.50    3.12
  -1  -1 -12  257.60    7.40
  -1   1 -12  273.17    8.11
   1   1  12  254.74    8.58
   1  -1  12  265.95    9.15
  -1  -1 -13  187.92    5.75
  -1   1 -13  190.07    6.16
   1  -1  13  187.76    7.38
   1   1  13  204.20    7.51
  -1  -1 -14   38.03    1.65
  -1   1 -14   39.22    2.16
   1  -1  14   40.62    3.47
   1   1  14   52.44    3.69
  -1   1 -15    1.79    0.99
   1   1  15    5.25    1.85
   1  -1  15    5.75    2.14
   1   1  16    8.42    3.78
   1  -1  16    4.21    2.12
   1   1  17   52.23    8.28
   1  -1  17   50.57    7.94
   1  -1  18   38.30    6.89
   1   1  18   40.46    6.85
  -1  -2  18   24.22    5.70
  -1   2  18    3.16    2.19
  -1  -2  17   11.51    3.38
  -1   2  17   10.24    3.26
  -1  -2  16   10.96    4.01
  -1  -2  15   21.54    2.40
  -1  -2  15   23.93    3.68
  -1   2  15   24.10    3.78
  -1  -2  14   12.56    2.66
  -1  -2  14   23.09    4.68
  -1   2  14   22.56    5.01
  -1  -2  13   55.90    4.92
  -1  -2  13   64.94    4.21
  -1   2  13   72.28    4.73
  -1  -2  12  146.48    5.87
  -1  -2  12  131.15    5.43
  -1   2  12  155.51    6.19
  -1  -2  11   34.31    5.17
  -1   2  11   39.18    3.50
  -1   2  10  172.41    2.95
  -1  -2  10  170.19    4.40
  -1  -2  10  196.04    5.67
  -1   2  10  183.71    5.32
  -1  -2   9   78.45    4.52
  -1   2   9   74.61    2.08
  -1  -2   9   91.47    3.94
  -1   2   9   71.24    3.08
  -1  -2   8   35.49    3.46
  -1   2   8   26.23    0.92
   1  -2  -8   30.43    1.00
  -1  -2   8   33.46    2.58
  -1   2   8   28.78    2.20
  -1  -2   7   36.43    4.62
   1   2  -7   26.15    1.40
  -1   2   7   30.00    1.00
   1  -2  -7   26.38    0.88
  -1  -2   7   30.19    2.15
  -1  -2   6   36.71    1.71
   1   2  -6   45.08    1.76
  -1   2   6   43.76    1.28
   1  -2  -6   43.15    1.16
  -1  -2   6   43.96    2.50
  -1  -2   5  829.50    9.49
   1   2  -5  827.85    9.28
  -1   2   5  830.12    8.44
   1  -2  -5  829.53    8.38
  -1  -2   5  835.76    9.82
   1   2  -5  804.22    9.28
  -1  -2   4  605.73    7.25
   1   2  -4  597.71    7.10
  -1   2   4  615.71    6.54
   1  -2  -4  605.09    6.41
  -1  -2   4  598.49    7.35
   1   2  -4  580.47    6.92
  -1  -2   3    7.96    1.21
   1   2  -3    8.06    0.93
  -1   2   3    8.87    0.76
   1  -2  -3    8.35    0.75
  -1   2   3    5.89    0.86
  -1  -2   3    9.55    1.24
  -1  -2   2  232.04    3.69
  -1   2   2  232.08    3.21
   1  -2  -2  225.26    3.07
   1  -2  -2  250.01    3.97
  -1   2   2  234.40    3.76
  -1  -2   2  221.14    3.21
  -1   2   0 5135.54   74.24
  -1   2   0 5084.45   47.84
  -1  -2  -2  296.16    3.97
   1   2   2  313.67    3.49
   1  -2   2  299.87    4.70
  -1   2  -2  311.97    4.53
  -1  -2  -2  303.14    3.40
  -1  -2  -3  507.91    5.88
   1   2   3  503.75    5.78
   1  -2   3  507.46    6.64
   1   2   3  509.55    5.47
  -1  -2  -3  507.64    5.49
  -1  -2  -4  695.45    7.55
   1   2   4  671.18    7.27
   1  -2   4  676.20    8.43
  -1   2  -4  672.95    8.16
   1   2   4  702.20    7.56
  -1  -2  -4  705.87    7.58
  -1   2  -5  285.30    4.36
  -1  -2  -5  295.01    4.13
   1   2   5  292.12    3.85
  -1   2  -5  298.33    4.56
   1  -2   5  295.76    5.01
   1   2   5  293.87    4.30
  -1  -2  -5  299.31    4.21
  -1  -2  -6  221.01    4.08
   1   2   6  219.60    3.99
  -1   2  -6  229.43    4.77
   1  -2   6  224.76    5.11
   1   2   6  219.06    4.38
  -1  -2  -6  244.82    4.72
  -1  -2  -7  612.71    9.62
   1   2   7  608.52    9.55
  -1   2  -7  621.48   10.34
   1  -2   7  605.35   10.81
   1   2   7  601.40   10.20
  -1  -2  -7  562.30    9.40
  -1  -2  -8  452.61    9.47
   1   2   8  435.22    9.07
  -1   2  -8  446.28    9.86
   1  -2   8  471.34   11.01
   1   2   8  459.35   10.30
  -1  -2  -9   85.76    2.24
  -1   2  -9   85.99    2.81
   1  -2   9   92.35    3.99
   1   2   9   86.07    3.27
  -1  -2 -10  219.68    4.32
  -1   2 -10  211.02    5.08
   1  -2  10  223.77    6.15
   1   2  10  207.70    5.31
  -1  -2 -11  210.42    8.51
  -1  -2 -11  236.24    9.57
  -1   2 -11  247.37   10.45
   1  -2  11  228.94   10.52
   1   2  11  238.85   10.43
  -1  -2 -12  333.63    9.20
  -1   2 -12  344.88   10.39
   1  -2  12  344.73   11.35
   1   2  12  344.09   10.75
  -1  -2 -13   87.63    2.94
  -1   2 -13  106.56    4.47
   1  -2  13   99.12    5.34
   1   2  13  100.78    4.84
  -1   2 -14   78.45    3.17
   1  -2  14   73.41    4.52
   1   2  14   69.23    3.51
  -1   2 -15   21.89    2.38
   1  -2  15   20.31    5.62
   1   2  15   20.77    5.62
   1  -2  16    3.68    2.73
   1   2  16    3.86    2.02
   1  -2  17    4.05    2.40
   1   2  17    3.74    1.93
   1  -2  18   16.61    4.18
   1   2  18   18.92    4.58
  -1  -3  18   24.35    5.85
  -1   3  18   37.88    7.96
  -1  -3  17    6.14    3.01
  -1   3  17    8.18    2.91
  -1   3  16   14.44    3.26
  -1  -3  15   23.81    2.66
  -1  -3  15   34.82    4.63
  -1   3  15   27.21    3.98
  -1  -3  14   37.16    2.75
  -1  -3  14   37.92    3.39
  -1   3  14   44.25    4.04
  -1  -3  13   90.50    6.03
  -1  -3  13  103.84    6.71
  -1   3  13  100.91    6.64
  -1  -3  12   73.37    8.00
  -1  -3  12   77.41    4.35
  -1   3  12   80.83    4.51
  -1  -3  11  163.62    7.33
  -1  -3  11  165.55    6.30
  -1   3  11  183.69    6.97
  -1  -3  10   64.24    6.48
  -1  -3  10   60.02    4.10
  -1   3  10   71.83    4.28
  -1  -3   9   26.58    4.08
  -1  -3   9   18.20    2.35
  -1   3   9   22.37    2.15
  -1   3   8   27.29    0.82
  -1  -3   8   32.01    4.76
  -1   3   8   24.51    0.77
  -1  -3   8   22.16    2.05
  -1   3   8   27.67    2.19
  -1  -3   7  150.45    4.74
  -1   3   7  141.98    3.10
  -1  -3   7  154.28    4.69
  -1   3   7  155.83    4.72
  -1  -3   6  447.19    8.04
  -1   3   6  439.00    6.82
  -1  -3   6  438.11    8.28
  -1   3   5   78.63    1.78
  -1  -3   5   74.51    2.67
   1   3  -5   79.52    2.41
  -1   3   4  827.47    8.54
  -1  -3   4  840.66    9.62
   1   3  -4  792.91    8.95
  -1  -3   3  440.86    5.97
  -1   3   3  446.74    5.23
  -1   3   3  422.97    5.62
  -1  -3   3  427.54    5.44
   1   3  -3  423.92    5.22
  -1  -3   2  286.83    4.44
  -1   3   2  280.93    3.82
   1  -3  -2  293.07    4.48
  -1   3   2  273.87    4.14
  -1  -3   2  279.27    3.80
   1   3  -2  269.91    3.53
   1   3  -1 1567.41   15.96
   1  -3  -1 1624.59   16.71
  -1   3   1 1558.47   15.91
  -1  -3   1 1559.01   15.01
   1   3   0 1794.25   17.90
  -1   3   0 1868.67   18.55
  -1   3   0 1854.09   18.71
  -1   3  -1  322.16    4.61
  -1   3  -1  312.95    4.62
  -1   3  -2  205.10    3.52
  -1  -3  -2  216.74    3.68
   1   3   2  204.95    3.12
   1  -3   2  219.35    3.94
  -1   3  -2  209.21    3.78
  -1  -3  -3  764.42    8.46
   1   3   3  729.91    7.96
   1  -3   3  778.92    9.37
  -1   3  -3  705.83    8.46
   1   3   3  748.95    7.40
  -1  -3  -3  752.09    7.43
  -1  -3  -4  237.09    3.75
   1   3   4  221.99    3.22
   1   3   4  233.48    3.10
  -1  -3  -4  230.06    2.98
  -1  -3  -5 1917.78   37.79
   1   3   5 1889.05   27.82
   1   3   5 1862.35   27.46
  -1  -3  -5 1911.42   37.58
   1   3   6  482.89    7.76
  -1  -3  -7  127.55    3.19
   1   3   7  119.96    3.01
   1  -3   7  111.13    4.06
   1   3   7  127.67    3.68
  -1  -3  -7  123.38    3.52
  -1  -3  -8   42.94    1.65
   1   3   8   45.58    1.56
   1  -3   8   47.35    2.91
   1   3   8   51.68    2.42
  -1  -3  -9  285.24    5.21
   1   3   9  292.57    5.27
   1  -3   9  311.81    7.46
   1   3   9  285.67    6.23
  -1  -3 -10   48.46    2.34
  -1   3 -10   49.00    2.97
   1  -3  10   52.11    3.68
   1   3  10   49.43    3.21
  -1  -3 -11  154.48    4.53
  -1   3 -11  164.39    5.76
   1  -3  11  162.11    6.65
   1   3  11  158.94    5.90
  -1  -3 -12  298.78    8.39
  -1   3 -12  316.92    9.83
   1  -3  12  299.08   10.46
   1   3  12  288.13    9.56
  -1   3 -13   43.88    3.39
   1  -3  13   37.31    3.99
   1   3  13   48.96    3.93
  -1   3 -14  232.03    5.63
   1  -3  14  234.21    7.46
   1   3  14  236.57    6.69
  -1   3 -15   14.89    3.94
   1  -3  15   20.17    3.24
   1   3  15   11.09    3.47
  -1   3 -16   21.13    3.23
   1  -3  16   17.52    3.30
   1   3  16   16.19    3.38
   1  -3  17    1.61    1.97
   1   3  17    3.13    1.67
   1  -3  18    1.04    1.96
   1   3  18    4.04    1.99
  -1  -4  18   17.95    4.63
  -1   4  18   14.30    4.51
  -1  -4  17   25.85    5.07
  -1   4  17   21.20    4.57
  -1  -4  16    9.69    2.65
  -1  -4  16   14.06    3.27
  -1   4  16    8.99    3.82
  -1  -4  15   -0.54    1.11
  -1  -4  15    3.60    2.15
  -1   4  15    4.90    2.99
  -1  -4  14   17.76    4.57
  -1  -4  14   21.75    3.57
  -1   4  14   32.20    4.03
  -1  -4  13   77.30    8.32
  -1  -4  13   93.62    6.48
  -1   4  13  101.20    6.59
  -1  -4  12  124.33    5.93
  -1  -4  12  121.29    5.73
  -1   4  12  130.39    6.11
  -1  -4  11  296.71    9.15
  -1  -4  11  305.38   10.24
  -1   4  11  300.05    9.97
  -1  -4  10  625.85   25.16
  -1  -4  10  640.96   18.54
  -1   4  10  598.76   24.36
  -1  -4   9  135.12    4.01
  -1  -4   9  137.89    4.63
  -1   4   9  136.55    4.26
  -1  -4   8  407.09    8.23
  -1   4   8  383.13    6.23
  -1  -4   8  414.82    8.83
  -1   4   8  401.82    8.47
  -1   4   7   62.11    1.96
  -1  -4   7   72.57    7.96
  -1   4   7   65.62    1.72
  -1  -4   7   68.70    3.25
  -1   4   6   32.76    1.81
  -1  -4   6   49.83    7.35
  -1   4   6   27.25    1.08
  -1  -4   6   31.92    2.23
  -1   4   5  116.04    2.48
  -1  -4   5  111.82    4.69
  -1   4   5  110.66    2.36
  -1  -4   5  115.67    3.35
  -1   4   4  246.31    4.38
  -1  -4   4  249.20    5.25
  -1   4   4  253.33    4.53
  -1  -4   4  244.91    5.03
   1   4  -4  248.19    4.82
  -1   4   3  536.29    8.61
  -1  -4   3  554.16    9.59
  -1   4   3  527.92    8.48
   1  -4  -3  539.10    9.25
  -1  -4   3  551.06    9.08
   1   4  -3  513.57    8.34
  -1   4   2  220.13    3.45
  -1   4   2  229.19    3.60
   1  -4  -2  235.65    4.22
  -1   4   2  222.94    3.76
  -1  -4   2  235.02    3.44
   1   4  -2  217.01    3.10
  -1   4   1  504.66    6.23
   1  -4  -1  522.14    7.48
  -1   4   1  507.54    6.58
  -1  -4   1  516.90    5.61
   1   4  -1  495.32    5.33
  -1   4   0   89.33    2.24
  -1  -4   0   92.26    2.65
   1   4   0   81.99    2.16
   1  -4   0  101.38    3.49
  -1  -4   0   93.08    1.30
  -1  -4  -1  896.87   10.05
   1   4   1  871.84    9.71
  -1  -4  -2  391.39    6.88
   1   4   2  378.02    6.52
   1  -4   2  400.72    7.50
  -1  -4  -3  249.27    4.77
   1   4   3  243.92    4.52
   1   4   3  250.81    3.78
   1  -4   3  239.52    5.21
   1   4   3  251.36    3.81
  -1  -4  -4  330.33    5.85
   1   4   4  339.36    5.40
  -1  -4  -5  180.11    3.61
   1   4   5  177.17    3.48
   1   4   5  189.23    3.53
  -1  -4  -6  202.77    4.84
   1   4   6  202.30    4.65
   1  -4   6  204.62    5.99
   1   4   6  196.60    4.80
  -1  -4  -7   48.94    1.82
   1   4   7   52.53    1.72
   1  -4   7   61.36    3.33
   1   4   7   49.49    2.15
  -1  -4  -7   55.52    2.05
  -1  -4  -8  190.38    3.85
   1   4   8  189.85    3.72
   1  -4   8  188.64    5.39
   1   4   8  196.25    4.54
  -1  -4  -9   77.87    3.49
   1   4   9   75.83    3.34
   1  -4   9   64.13    4.16
   1   4   9   71.30    3.92
  -1  -4 -10   80.39    3.51
   1   4  10   76.05    3.32
   1  -4  10   72.98    4.29
   1   4  10   75.29    3.93
  -1  -4 -11    5.97    0.64
   1  -4  11    6.29    2.97
   1   4  11    5.56    1.52
  -1   4 -12   34.66    2.90
   1  -4  12   35.02    3.66
   1   4  12   28.45    2.25
  -1   4 -13   13.66    2.85
   1  -4  13   12.81    3.67
   1   4  13   12.70    2.99
  -1   4 -14    5.15    1.88
   1  -4  14    3.32    1.97
   1   4  14   16.10    3.44
  -1   4 -15   70.92    4.92
   1  -4  15   97.36    7.10
   1   4  15   83.14    5.81
  -1   4 -16   28.46    3.73
   1  -4  16   22.98    3.88
   1   4  16   33.60    4.57
   1  -4  17    4.05    2.80
   1   4  17   13.83    3.49
  -1  -5  17   31.68    5.87
  -1   5  17   42.28    7.31
  -1  -5  16    4.39    1.55
  -1  -5  16    7.08    3.79
  -1   5  16    5.09    2.22
  -1  -5  15   69.82    7.63
  -1  -5  15   75.42    8.66
  -1   5  15   63.48    7.74
  -1  -5  14    3.11    1.51
  -1  -5  14    8.92    3.15
  -1   5  14   11.28    3.67
  -1  -5  13   17.47    5.17
  -1  -5  13   17.90    4.07
  -1   5  13   15.99    3.44
  -1  -5  12   14.00    3.74
  -1  -5  12   23.09    3.75
  -1   5  12   23.02    3.81
  -1  -5  11  460.57   13.99
  -1  -5  11  448.50   14.07
  -1   5  11  460.48   14.22
  -1  -5  10  494.29   14.43
  -1  -5  10  523.63   15.60
  -1   5  10  494.00   14.55
  -1  -5   9  331.58   13.93
  -1  -5   9  337.59   14.32
  -1   5   9  337.94   14.21
  -1  -5   8   62.25    7.47
  -1   5   8   55.80    1.41
  -1   5   8   63.82    1.46
  -1  -5   8   67.25    3.27
  -1   5   8   65.63    3.17
  -1  -5   7   41.53    5.90
  -1   5   7   42.29    1.75
  -1   5   7   43.28    1.34
  -1  -5   7   48.05    2.92
  -1   5   6  150.56    3.56
  -1  -5   6  152.19    4.67
  -1   5   6  154.57    3.64
  -1  -5   6  164.64    4.96
  -1   5   5   69.11    2.33
  -1  -5   5   69.61    6.07
  -1   5   5   70.33    2.15
  -1  -5   5   68.52    2.83
  -1   5   4  129.86    3.70
  -1  -5   4  131.77    5.32
  -1   5   4  139.59    3.55
  -1  -5   4  131.67    3.84
   1   5  -4  125.06    3.45
  -1   5   3  226.25    4.31
   1  -5  -3  239.40    5.11
  -1  -5   3  246.17    4.79
   1   5  -3  229.63    4.44
  -1   5   2  782.70   12.37
  -1  -5   2  858.35   14.12
   1  -5  -2  874.11   14.16
  -1  -5   2  878.16   13.45
   1   5  -2  848.61   13.01
  -1  -5   1   61.38    2.38
   1  -5  -1   75.45    2.63
  -1  -5   1   76.49    1.81
   1   5  -1   68.90    1.65
  -1  -5   0  355.29    6.85
   1  -5   0  352.33    6.86
  -1  -5   0  353.28    5.40
   1   5   0  329.93    5.07
  -1  -5  -1  126.61    3.28
   1  -5   1  126.71    4.02
  -1  -5  -2   44.35    2.02
   1  -5   2   48.28    3.92
  -1  -5  -3  353.62    6.46
   1  -5   3  368.92    7.20
  -1  -5  -4  105.23    3.24
   1   5   4   94.06    2.71
   1   5   4   96.86    2.42
   1  -5   4  103.57    3.73
   1   5   4  100.75    2.30
  -1  -5  -5   10.35    1.22
   1   5   5   11.64    1.03
   1  -5   5   14.71    2.10
   1   5   5   12.77    0.91
  -1  -5  -6   60.34    2.15
   1   5   6   58.32    1.95
   1  -5   6   58.82    3.13
   1   5   6   60.04    1.99
  -1  -5  -7   82.11    2.42
   1   5   7   67.27    1.99
   1  -5   7   73.47    3.43
   1   5   7   73.39    2.36
  -1  -5  -8    6.52    1.04
   1   5   8    6.01    0.77
   1  -5   8    9.07    2.02
   1   5   8    9.33    1.53
  -1  -5  -9   95.83    4.23
   1   5   9   98.61    4.21
   1   5   9   98.71    4.72
  -1  -5 -10   55.53    2.04
   1  -5  10   47.76    3.22
   1   5  10   49.16    2.72
  -1  -5 -11    6.57    0.57
   1  -5  11   12.52    2.55
   1   5  11   11.54    1.61
   1  -5  12   13.56    3.20
   1   5  12   16.77    2.82
   1  -5  13   15.31    3.91
   1   5  13   16.19    3.49
  -1   5 -14   40.67    3.80
   1  -5  14   44.43    4.08
   1   5  14   47.91    3.83
  -1   5 -15   50.08    5.98
   1  -5  15   37.26    5.19
   1   5  15   45.14    5.62
  -1   5 -16    3.83    1.80
   1  -5  16    3.24    2.04
   1   5  16   10.10    2.80
  -1   5 -17   86.00   16.30
   1  -5  17   79.47   15.40
   1   5  17   81.20   15.41
  -1  -6  17   10.51    2.61
  -1  -6  17   17.06    4.72
  -1   6  17   15.27    4.25
  -1  -6  16   30.92    5.14
  -1  -6  16   33.05    6.05
  -1   6  16   24.86    4.52
  -1  -6  15    4.76    1.78
  -1  -6  15    4.16    2.09
  -1   6  15   10.43    2.86
  -1  -6  14   14.13    5.78
  -1  -6  14   25.02    3.61
  -1   6  14   35.58    4.30
  -1  -6  13   47.73   10.28
  -1  -6  13   71.46    6.94
  -1   6  13   68.60    6.51
  -1  -6  12   76.72    6.79
  -1  -6  12   94.30    4.75
  -1   6  12   89.50    4.63
  -1  -6  11  143.15    8.73
  -1  -6  11  158.47    9.04
  -1   6  11  159.17    9.02
  -1  -6  10  347.71   11.24
  -1  -6  10  349.02   11.36
  -1   6  10  361.92   11.72
  -1  -6   9  284.29    9.22
  -1   6   9  265.15    7.09
  -1  -6   9  281.17    9.24
  -1   6   9  280.67    9.44
  -1  -6   8  299.29   12.88
  -1   6   8  274.78   10.90
  -1   6   8  294.49   11.68
  -1  -6   8  310.30   13.19
  -1  -6   7   73.47    9.40
  -1   6   7   51.61    3.19
  -1   6   7   60.26    2.76
  -1  -6   7   61.43    3.87
  -1  -6   6   22.30    3.04
  -1   6   6   15.71    2.34
  -1   6   6   19.04    1.08
  -1  -6   6   14.56    1.66
  -1   6   5  336.59    6.26
  -1  -6   5  363.05    7.84
  -1   6   5  362.96    6.80
  -1  -6   5  360.47    7.40
  -1  -6   4  426.32   10.04
  -1   6   4  415.53    9.06
  -1  -6   4  417.66    9.28
   1   6  -4  372.64    8.30
  -1  -6   3  274.13    9.48
   1  -6  -3  275.75    6.79
  -1  -6   3  284.84    6.56
   1   6  -3  282.06    6.41
   1  -6  -2  406.81    9.36
  -1  -6   2  469.78    9.84
   1   6  -2  441.65    9.29
  -1  -6   1  493.70   11.75
   1  -6  -1  457.82   10.39
  -1  -6   1  512.94   10.51
   1   6  -1  479.72    9.84
  -1  -6   0   41.89    2.17
   1  -6   0   41.71    3.78
  -1  -6   0   41.32    1.47
   1   6   0   38.13    1.17
  -1  -6  -1   33.34    1.94
   1  -6   1   51.29    7.41
   1   6   1   34.64    0.80
  -1  -6  -2  234.37    5.92
   1  -6   2  232.57    7.28
  -1  -6  -3  139.28    3.97
   1  -6   3  149.90    4.67
  -1  -6  -4    8.19    1.36
   1   6   4    6.53    0.40
   1  -6   4    7.42    1.61
   1   6   4    7.71    0.48
  -1  -6  -5   10.13    1.55
   1   6   5    6.66    0.98
   1  -6   5    8.13    1.63
   1   6   5    6.32    0.60
  -1  -6  -6  173.27    4.12
   1   6   6  159.90    3.18
   1  -6   6  161.86    5.01
   1   6   6  160.68    3.34
  -1  -6  -7   66.83    3.35
   1   6   7   54.65    2.65
   1  -6   7   61.04    4.01
   1   6   7   73.86    3.43
  -1  -6  -8   80.61    2.87
   1   6   8   78.70    2.75
   1  -6   8   76.85    4.18
   1   6   8   83.02    3.17
  -1  -6  -9   29.69    2.06
   1  -6   9   28.78    2.82
   1   6   9   31.45    1.94
  -1  -6 -10  100.99    3.77
   1  -6  10   99.00    4.81
   1   6  10  117.70    4.40
   1  -6  11   53.69    4.41
   1   6  11   50.45    3.54
   1  -6  12    4.33    2.64
   1   6  12    5.85    2.27
   1  -6  13   20.66    5.72
   1   6  13   31.09    3.68
   1   6  14   29.04    3.59
  -1   6 -15   10.62    2.66
   1  -6  15    8.15    2.84
   1   6  15   17.86    3.42
  -1   6 -16    7.90    2.54
   1  -6  16    6.56    3.29
  -1  -7  16    7.50    2.75
  -1  -7  16    7.53    4.06
  -1   7  16   25.10    6.07
  -1  -7  15    7.09    2.24
  -1  -7  15    7.62    2.20
  -1   7  15    7.00    2.50
  -1  -7  14    2.23    1.39
  -1  -7  14    0.84    1.93
  -1   7  14    4.06    2.62
  -1  -7  13   21.00    6.99
  -1  -7  13   34.11    3.65
  -1   7  13   26.50    3.43
  -1  -7  12   19.44    5.89
  -1  -7  12   28.79    3.92
  -1   7  12   25.13    3.00
  -1  -7  11  112.23    9.63
  -1  -7  11  131.16    5.32
  -1   7  11  124.44    4.63
  -1  -7  10  196.85   11.50
  -1  -7  10  189.83   10.43
  -1   7  10  189.56   10.28
  -1  -7   9  142.00    8.32
  -1   7   9  130.74    3.89
  -1  -7   9  144.23    5.83
  -1   7   9  144.39    5.56
  -1  -7   8   84.02    9.32
  -1   7   8   79.49    2.68
  -1  -7   8   81.50    4.13
  -1  -7   7  117.37    7.19
  -1   7   7  104.73    3.39
  -1   7   7  125.92    4.05
  -1  -7   7  124.12    4.94
  -1  -7   6   45.47    5.97
  -1   7   6   42.10    2.36
  -1  -7   6   39.74    2.92
  -1  -7   5   10.78    3.78
  -1   7   5   11.89    1.36
  -1  -7   5   11.76    1.63
  -1  -7   4  431.45    8.97
  -1  -7   4  473.83    8.89
  -1  -7   3   11.46    1.94
   1  -7  -3    9.49    1.73
  -1  -7   3    7.27    1.11
   1   7  -3    4.29    0.76
  -1  -7   2   64.38    8.69
   1  -7  -2   64.41    2.88
  -1  -7   2   62.71    2.11
   1   7  -2   57.42    1.82
  -1  -7   1   14.41    2.63
   1  -7  -1   12.05    2.17
  -1  -7   1    8.84    0.80
   1   7  -1    8.89    0.76
  -1  -7   0   45.53    6.42
   1  -7   0   44.31    6.54
  -1  -7   0   41.92    1.90
   1   7   0   36.54    1.13
  -1  -7  -1   27.24    4.33
   1  -7   1   21.55    3.88
   1   7   1   24.14    0.74
  -1  -7  -2   29.13    4.52
   1  -7   2   26.87    4.89
  -1  -7  -3  352.58    8.28
   1  -7   3  375.62    9.58
  -1  -7  -4  256.65    5.83
   1  -7   4  254.81    6.39
   1   7   4  251.24    4.09
  -1  -7  -5  210.06    9.72
   1   7   5  185.67    7.36
   1  -7   5  199.65    8.87
   1   7   5  189.30    7.52
  -1  -7  -6  107.17    5.00
   1   7   6   93.43    3.96
   1  -7   6  116.43    5.92
   1   7   6  103.04    4.36
  -1  -7  -7    3.89    1.18
   1   7   7    1.11    0.50
   1  -7   7    7.52    2.25
   1   7   7    0.27    0.47
  -1  -7  -8  122.49    4.56
   1  -7   8  121.19    5.85
   1   7   8  118.40    4.00
  -1  -7  -9   63.52    2.61
   1  -7   9   70.46    4.38
   1   7   9   76.50    3.08
   1  -7  10   26.27    4.23
   1   7  10   21.37    2.73
   1  -7  11   35.17    4.13
   1   7  11   40.34    2.59
   1  -7  12  133.49   11.58
   1   7  12  119.21    9.52
   1  -7  13    0.64    1.93
   1   7  13    1.07    0.96
   1  -7  14   24.05    4.67
  -1   7 -15   32.78    5.76
   1  -7  15   25.78    4.89
  -1   7 -16    5.81    2.52
   1  -7  16   19.51    5.11
  -1  -8  15   22.83    5.25
  -1  -8  15   17.84    4.57
  -1   8  15   21.76    5.25
  -1  -8  14   49.39    7.64
  -1  -8  14   53.85    8.44
  -1   8  14   71.92   10.82
  -1  -8  13   18.46    5.67
  -1  -8  13   34.96    4.88
  -1   8  13   25.30    3.87
  -1  -8  12    5.06    2.25
  -1  -8  12   14.26    4.36
  -1   8  12    6.39    2.57
  -1  -8  11    2.32    1.53
  -1  -8  11    2.37    1.68
  -1   8  11    3.86    2.16
  -1  -8  10   27.65    6.33
  -1  -8  10   45.40    3.72
  -1   8  10   46.89    2.79
  -1  -8   9    3.36    1.52
  -1  -8   9    2.67    1.49
  -1   8   9    2.03    1.20
  -1  -8   8  154.54   12.71
  -1   8   8  153.18    7.77
  -1  -8   8  169.38    9.40
  -1  -8   7    3.38    1.19
  -1   8   7    4.32    0.77
  -1  -8   7    1.90    1.21
  -1  -8   6   51.43    9.34
  -1   8   6   44.94    2.26
  -1  -8   6   43.86    2.71
  -1  -8   5    4.01    1.37
  -1  -8   5    1.95    1.35
  -1  -8   4   38.96    6.11
  -1  -8   4   40.08    2.38
  -1  -8   3   21.42    4.10
   1  -8  -3   25.99    2.30
  -1  -8   3   22.67    1.66
   1   8  -3   23.28    1.70
  -1  -8   2   25.90    4.35
   1  -8  -2   34.11    2.63
  -1  -8   2   32.39    1.92
   1   8  -2   24.67    1.63
  -1  -8   1   71.86    6.60
   1  -8  -1   75.00    6.64
  -1  -8   1   78.66    4.19
   1   8  -1   65.10    2.99
  -1  -8   0  111.45    6.75
   1  -8   0  109.43    8.45
  -1  -8   0  115.63    4.85
   1   8   0   98.27    4.12
  -1  -8  -1   33.61    5.27
   1  -8   1   31.09    5.69
   1   8   1   27.27    1.29
  -1  -8  -2   67.80    7.34
   1  -8   2   70.71    5.97
  -1  -8  -3  253.37   11.09
   1  -8   3  233.58   10.26
  -1  -8  -4  128.36    5.33
   1  -8   4  137.98    6.66
  -1  -8  -5   42.42    6.28
   1  -8   5   42.62    2.86
   1   8   5   29.77    1.01
   1   8   5   34.81    1.21
  -1  -8  -6   16.25    3.23
   1  -8   6   11.68    2.04
   1   8   6   10.64    0.79
  -1  -8  -7   27.79    5.17
   1  -8   7   28.62    2.58
   1   8   7   27.77    1.39
  -1  -8  -8   23.55    4.49
   1  -8   8   28.15    3.84
   1   8   8   30.79    3.35
  -1  -8  -9  166.53    3.75
   1  -8   9  187.58    6.13
   1  -8  10   18.66    4.03
   1  -8  11  100.14    6.77
   1  -8  12   76.72    9.01
   1  -8  14   32.74    5.92
   1  -8  15   10.21    3.58
  -1  -9  14    6.26    2.75
  -1  -9  14    8.12    3.76
  -1   9  14    4.67    2.41
  -1  -9  13   21.81    6.63
  -1  -9  13   36.23    5.98
  -1   9  13   35.57    6.18
  -1  -9  12    1.96    1.19
  -1  -9  12   10.14    2.82
  -1   9  12    7.63    2.40
  -1  -9  11   16.50    3.81
  -1  -9  11   24.20    3.71
  -1   9  11   22.61    3.67
  -1  -9  10   17.91    4.04
  -1  -9  10   19.47    2.62
  -1   9  10   23.14    2.63
  -1  -9   9    6.33    2.27
  -1  -9   9    2.02    1.44
  -1   9   9    2.45    1.16
  -1  -9   8  107.18    9.54
  -1  -9   8  114.31    4.26
  -1  -9   7   20.18    3.83
  -1   9   7   26.55    3.13
  -1  -9   7   30.04    4.00
  -1  -9   6   85.55   13.08
  -1   9   6  109.54    6.03
  -1  -9   6  109.61    6.32
  -1  -9   5   37.88    7.42
  -1  -9   5   38.86    2.52
  -1  -9   4   30.16    2.24
  -1  -9   3   20.10    4.22
   1  -9  -3   22.35    2.19
  -1  -9   3   21.10    1.68
  -1  -9   2   39.69    5.93
   1  -9  -2   45.45    2.95
  -1  -9   2   34.53    4.69
  -1  -9   1  238.51   10.04
   1  -9  -1  241.76    8.12
  -1  -9   1  247.78    7.21
  -1  -9   0  260.61    8.61
  -1  -9   0  241.89    6.81
   1  -9   0  254.55    8.81
  -1  -9  -1  266.89   11.78
   1  -9   1  256.72    9.09
  -1  -9  -2  211.98    8.17
   1  -9   2  204.68    7.14
  -1  -9  -3  140.45    8.17
   1  -9   3  146.05    6.68
  -1  -9  -4  534.47   16.06
   1  -9   4  485.06   15.13
  -1  -9  -5    9.37    2.47
   1  -9   5    7.67    2.24
  -1  -9  -6    5.06    1.60
   1  -9   6    4.86    2.36
  -1  -9  -7   11.91    3.25
   1  -9   7   20.08    4.08
  -1  -9  -8    0.86    0.82
   1  -9   8    0.94    1.60
   1  -9   9    5.49    2.92
   1  -9  10   41.89    4.00
   1  -9  11  292.23   30.19
   1  -9  12   20.69    4.25
   1  -9  13    6.97    2.24
   1  -9  14    7.39    3.37
  -1 -10  13   10.56    3.00
  -1 -10  13   15.52    4.14
  -1 -10  12    2.40    2.00
  -1 -10  12    6.39    2.81
  -1  10  12    6.85    2.40
  -1 -10  11    9.81    3.04
  -1 -10  11   12.97    2.85
  -1  10  11   19.28    3.70
  -1 -10  10   21.05    6.10
  -1 -10  10   22.17    3.38
  -1  10  10   21.22    3.53
  -1 -10   9   13.28    4.11
  -1 -10   9    9.82    2.99
  -1  10   9    9.71    2.80
  -1 -10   8   34.28    8.39
  -1 -10   8   54.79    4.36
  -1 -10   7   21.30    4.60
  -1  10   7   28.08    2.72
  -1 -10   7   33.09    3.56
  -1 -10   6   22.41    5.61
  -1  10   6   26.53    2.98
  -1 -10   6   19.92    5.11
  -1 -10   5   16.95    4.25
  -1 -10   5   19.64    3.73
  -1 -10   4   22.05    6.00
  -1 -10   4   32.58    2.20
  -1 -10   3   19.13    4.40
  -1 -10   3   13.71    2.87
  -1 -10   2   13.63    2.98
   1 -10  -2   13.21    2.48
  -1 -10   2    6.99    2.58
  -1 -10   1   49.61   10.04
   1 -10  -1   61.64    4.47
  -1 -10   1   47.82    5.05
  -1 -10   0   68.54   10.75
   1 -10   0   74.27    8.30
  -1 -10  -1   10.83    3.43
  -1 -10  -2  191.86   10.30
   1 -10   2  203.18   11.28
  -1 -10  -3    6.02    1.68
   1 -10   3    7.90    1.74
  -1 -10  -4    1.14    0.82
   1 -10   4    1.39    1.27
  -1 -10  -5    5.14    1.93
   1 -10   5    5.23    2.73
  -1 -10  -6   22.44    4.34
   1 -10   6   35.17    4.22
  -1 -10  -7   15.51    4.48
   1 -10   7   15.25    3.14
   1 -10   8   12.26    3.75
   1 -10   9   62.10    7.23
   1 -10  10   24.71    4.66
   1 -10  11   10.64    3.56
   1 -10  12   15.76    3.88
  -1 -11  11    8.82    3.84
  -1 -11  11    1.90    1.53
  -1 -11  10    5.45    3.09
  -1 -11  10    9.56    2.86
  -1 -11   9    3.61    1.93
  -1 -11   9    8.72    2.22
  -1  11   9    4.15    1.22
  -1 -11   8   21.02    6.24
  -1 -11   8   25.79    4.49
  -1 -11   7   67.83   15.43
  -1 -11   7   94.10    9.95
  -1 -11   6   24.35    5.66
  -1  11   6   35.15    3.01
  -1 -11   6   31.52    2.79
  -1 -11   5   68.08   14.05
  -1 -11   4    6.45    2.68
  -1 -11   3   42.20    9.35
  -1 -11   2   44.53    8.40
   1 -11  -2   50.93    4.71
  -1 -11   1   36.63    9.18
   1 -11  -1   56.64    5.35
  -1 -11   0   23.80    5.44
   1 -11   0   17.31    5.58
  -1 -11  -1   11.78    3.99
   1 -11   1    8.36    3.34
  -1 -11  -2   38.46    6.65
   1 -11   2   32.37    8.34
   1 -11   3    1.51    1.12
  -1 -11  -4   40.01    7.47
   1 -11   4   37.55    9.68
  -1 -11  -5   10.50    3.86
   1 -11   5    7.25    3.03
  -1 -11  -6    1.34    1.22
   1 -11   6    3.95    2.16
  -1 -11  -7    7.62    3.83
   1 -11   7   12.36    4.25
   1 -11   8   23.46    4.29
   1 -11   9   40.90    6.64
   1 -11  10    3.60    3.09
   1 -11  11   17.79    4.42
  -1 -12   9   10.27    3.78
  -1 -12   8    7.94    2.90
  -1 -12   7    9.38    3.55
  -1 -12   5   14.76    4.23
  -1 -12   4    3.80    2.17
  -1 -12   3   27.37    8.46
  -1 -12   2   11.05    3.77
   1 -12  -2   14.88    2.60
  -1 -12   1  103.96   18.24
   1 -12  -1  128.57   13.65
  -1 -12   0   18.71    4.84
   1 -12   0   11.88    3.20
  -1 -12  -1   38.28    9.23
   1 -12   1   26.22    8.09
  -1 -12  -2   19.13    5.59
   1 -12   2   20.60    5.68
  -1 -12  -3    8.71    3.18
   1 -12   3    5.78    2.14
  -1 -12  -4    4.40    1.93
   1 -12   4    4.81    2.30
  -1 -12  -5    0.49    0.87
   1 -12   5    1.40    1.31
  -1 -12  -6    5.12    3.00
   1 -12   6   10.15    3.12
   1 -12   7   12.83    5.28
   1 -12   8    7.77    4.03
   1 -12   9   25.19    5.60
  -1 -13   6    7.53    3.56
  -1 -13   5    7.63    3.12
  -1 -13   4    5.32    1.63
  -1 -13   3    3.10    1.95
  -1 -13   2   20.70    9.25
  -1 -13   1   19.60    6.75
  -1 -13   0   56.45   17.40
  -1 -13  -1   23.27    6.65
   1 -13   1   32.70    5.41
  -1 -13  -2   39.55   13.01
   1 -13   2   38.06   12.81
  -1 -13  -3   30.24   10.65
   1 -13   3   24.47   10.83
  -1 -13  -4   10.83    5.24
   1 -13   4    8.93    5.35
   1 -13   5   21.31    7.35
   1 -13   6    4.56    2.32
  -2   0  18   11.09    3.89
  -2   0  17   72.86   11.31
  -2   0  16    9.94    3.88
  -2   0  15    1.11    1.83
  -2   0  14   35.04    4.52
  -2   0  13    1.20    0.59
  -2   0  13    4.73    2.34
  -2   0  12  216.43    7.31
  -2   0  12  266.73    9.69
  -2   0  11   97.90    3.61
  -2   0  11  101.15    4.63
  -2   0  10    8.94    1.33
  -2   0   9   22.53    1.86
  -2   0   9   26.67    2.74
  -2   0   8    7.43    1.24
  -2   0   8    8.44    1.72
  -2   0   7   98.50    3.28
  -2   0   7   91.33    3.81
  -2   0   6  260.39    6.35
  -2   0   5  202.51    4.37
  -2   0   4   93.82    2.81
  -2   0   3  194.08    4.30
  -2   0   2    4.14    1.04
  -2   0   1  165.20    3.95
   2   0  -1  165.97    4.03
  -2   0   1  150.37    3.46
  -2   0   0    5.74    1.67
   2   0   0    8.27    1.84
  -2   0   0    3.39    0.85
   2   0   1  584.08    9.78
  -2   0  -1  572.34    9.49
   2   0   2  113.66    4.72
  -2   0  -2  113.25    2.92
   2   0   3  591.61   10.16
  -2   0  -3  562.96    9.50
  -2   0  -4  396.09    7.35
   2   0   4  442.89    8.09
  -2   0  -5  143.32    4.21
   2   0   5  134.48    4.03
  -2   0  -6  640.10   13.79
   2   0   6  625.94   13.69
  -2   0  -7  525.27    9.88
   2   0   7  529.50   10.28
  -2   0  -8    6.17    1.35
   2   0   8    9.66    2.04
  -2   0  -9    4.68    1.78
   2   0   9   -0.33    1.12
  -2   0 -10  162.68    5.73
   2   0  10  166.34    6.08
  -2   0 -11  318.76    9.73
   2   0  11  301.54   10.09
  -2   0 -12   45.08    3.26
   2   0  12   36.00    3.40
  -2   0 -13   43.73    2.47
   2   0  13   36.99    3.46
  -2   0 -14  132.70   10.42
   2   0  14  149.17   12.15
   2   0  15  133.41   14.36
   2   0  16    5.06    2.42
   2   0  17   12.81    3.08
  -2  -1  17   27.09    5.52
  -2   1  17   28.70    5.29
  -2   1  16   34.78    6.26
  -2   1  15   65.40    5.56
  -2  -1  14   22.90    5.91
  -2  -1  14   41.11    5.17
  -2   1  14   48.59    5.35
  -2  -1  13    5.55    2.34
  -2  -1  13   19.71    4.39
  -2   1  13   13.46    4.24
  -2  -1  12   49.55    4.55
  -2   1  12   49.79    3.73
  -2  -1  12   67.43    4.18
  -2   1  12   61.69    4.57
  -2  -1  11   64.88    2.94
  -2   1  11   59.50    2.49
  -2  -1  11   71.02    4.26
  -2   1  11   70.35    4.19
  -2   1  10   64.82    2.79
  -2  -1  10   48.48    2.45
  -2  -1  10   49.14    3.29
  -2   1  10   68.62    3.96
  -2  -1   9  136.87    6.23
  -2   1   9  123.74    5.50
  -2  -1   9  137.02    7.00
  -2   1   9  136.69    6.82
  -2  -1   8  167.63    4.37
  -2   1   8  174.00    4.08
  -2  -1   8  169.89    5.21
  -2   1   8  165.26    5.07
  -2  -1   7   17.26    1.61
  -2   1   7   18.07    1.51
  -2  -1   7   16.27    1.88
  -2  -1   6   18.65    1.85
  -2   1   6   20.96    1.52
  -2  -1   6   17.74    1.80
  -2  -1   5  189.04    5.07
  -2   1   5  171.65    4.47
  -2  -1   5  163.60    4.83
  -2  -1   4  122.81    3.49
  -2   1   4  125.18    3.37
  -2  -1   3   99.52    3.02
  -2   1   3  107.97    3.15
  -2  -1   2   14.98    1.65
   2  -1  -2   15.69    1.68
  -2  -1   2   14.98    1.28
  -2  -1   1 1079.48   17.03
  -2   1   1 1111.49   17.41
   2  -1  -1 1107.53   17.48
  -2  -1   1  991.83   15.37
  -2  -1   0    8.16    1.48
  -2   1   0   16.50    1.52
   2   1   0   16.78    1.35
   2  -1   0   11.67    1.82
  -2  -1   0   14.25    2.17
  -2  -1  -1 1162.21   18.22
  -2   1  -1 1147.93   17.97
   2   1   1 1147.08   17.56
  -2  -1  -1 1141.49   17.42
  -2  -1  -2  110.85    3.19
   2  -1   2  100.84    3.63
   2   1   2  105.75    3.26
  -2  -1  -2  110.71    2.66
  -2  -1  -3   13.15    1.54
   2  -1   3   16.35    2.35
   2   1   3   13.87    2.01
  -2  -1  -3   14.08    1.20
  -2  -1  -4   57.98    2.44
  -2   1  -4   55.09    2.40
   2  -1   4   60.91    2.47
   2   1   4   51.37    2.10
  -2  -1  -4   52.89    2.04
  -2  -1  -5  146.01    4.27
  -2   1  -5  167.75    4.71
   2   1   5  152.62    4.19
   2  -1   5  152.63    4.65
  -2  -1  -6  480.68   10.64
  -2   1  -6  454.54   10.27
   2  -1   6  475.45   11.01
   2   1   6  457.08   10.20
  -2  -1  -7   12.07    1.53
  -2   1  -7    9.80    1.44
   2   1   7   11.31    1.42
   2  -1   7    9.92    1.76
  -2  -1  -8    5.36    1.00
  -2   1  -8    6.22    1.20
   2   1   8    6.33    1.46
   2  -1   8    7.10    1.52
  -2  -1  -9   31.10    2.48
  -2   1  -9   14.63    1.83
   2  -1   9   24.97    2.35
   2   1   9   22.03    2.21
  -2  -1 -10    7.57    1.35
  -2   1 -10   11.25    1.72
   2   1  10   10.74    1.78
   2  -1  10    7.41    2.03
  -2  -1 -11   14.64    1.72
  -2   1 -11   17.16    1.86
   2  -1  11   13.48    2.05
   2   1  11   19.88    2.32
  -2  -1 -12  166.22    8.84
  -2   1 -12  164.73    8.83
   2   1  12  159.30    8.91
   2  -1  12  166.87    9.40
  -2  -1 -13  532.85    9.34
  -2   1 -13  535.30    9.84
   2  -1  13  553.43   86.43
   2   1  13  531.65   10.72
  -2  -1 -14   30.38    3.05
  -2   1 -14   31.06    3.36
   2   1  14   28.69    3.74
   2  -1  14   31.25    4.04
  -2   1 -15   88.91    9.32
   2   1  15  100.98   10.90
   2  -1  15   91.12   10.01
   2   1  16    0.56    1.52
   2  -1  16    6.30    2.40
   2   1  17    6.25    2.45
   2  -1  17    8.05    2.67
  -2  -2  17   13.24    3.67
  -2   2  17    7.54    3.14
  -2  -2  16    7.50    3.07
  -2   2  16   10.70    3.18
  -2  -2  15    6.64    3.51
  -2   2  15    7.50    3.17
  -2  -2  14    9.49    3.17
  -2  -2  14   14.83    3.58
  -2   2  14   14.60    3.79
  -2  -2  13   14.36    4.39
  -2  -2  13   18.66    4.49
  -2   2  13   20.49    4.76
  -2  -2  12  112.42   11.15
  -2   2  12  116.05    6.01
  -2  -2  12  134.49    8.35
  -2   2  12  116.19    7.36
  -2  -2  11   27.66    2.76
  -2   2  11   25.76    1.46
  -2  -2  11   32.00    3.31
  -2   2  11   36.31    3.84
  -2  -2  10  152.27    5.39
  -2   2  10  156.25    4.90
   2  -2 -10  133.58    4.19
  -2  -2  10  157.92    6.45
  -2   2  10  160.70    6.43
  -2  -2   9  162.59    7.26
  -2   2   9  156.54    6.71
   2  -2  -9  138.62    5.88
  -2  -2   9  153.58    7.40
  -2   2   9  156.78    7.59
  -2  -2   8    2.18    1.48
  -2   2   8    0.01    0.56
   2  -2  -8    6.54    0.92
  -2  -2   8    4.10    1.92
  -2  -2   7  910.88   36.05
  -2   2   7  915.08   35.93
   2  -2  -7  826.13   13.93
  -2  -2   7  903.28   16.28
  -2  -2   6  163.38    4.88
  -2   2   6  148.78    4.00
  -2  -2   6  144.31    4.58
  -2  -2   5   15.24    2.01
  -2   2   5   10.23    1.22
  -2  -2   5    6.50    1.31
  -2  -2   4  287.38    6.03
  -2   2   4  309.06    5.85
  -2  -2   4  288.06    5.72
  -2   2   3  282.00    5.60
  -2  -2   3  260.35    5.08
  -2  -2   2  405.57    7.69
  -2   2   2  454.68    8.16
   2  -2  -2  416.76    7.96
  -2  -2   2  419.43    7.14
  -2  -2   1  202.34    4.65
  -2   2   1  213.13    4.65
   2  -2  -1  233.03    5.26
  -2  -2   1  212.06    4.31
  -2   2   0  324.85    6.32
   2  -2   0  338.67    7.39
  -2  -2   0  306.78    5.42
  -2   2  -1  431.35    7.87
   2   2   1  463.97    7.69
   2  -2   1  456.19    9.40
  -2  -2  -1  460.23    7.56
   2  -2   2  241.64    5.92
  -2  -2  -3  441.99    8.09
  -2   2  -3  438.23    8.09
   2   2   3  441.43    7.46
   2  -2   3  440.92    8.63
  -2  -2  -3  431.83    7.17
  -2  -2  -4  226.58    4.92
  -2   2  -4  243.97    5.35
   2  -2   4  255.71    5.81
   2   2   4  241.53    4.70
  -2  -2  -4  234.06    4.45
  -2  -2  -5    5.29    1.10
  -2   2  -5    9.55    1.81
   2   2   5    6.21    1.13
   2  -2   5    7.97    2.17
  -2  -2  -5    5.27    0.87
  -2  -2  -6  239.19    6.00
  -2   2  -6  232.03    6.09
   2  -2   6  230.27    6.47
   2   2   6  233.91    5.71
  -2  -2  -6  218.50    5.42
  -2  -2  -7   80.37    2.93
  -2   2  -7   72.87    2.95
   2   2   7   82.28    2.85
   2  -2   7   76.79    3.31
  -2  -2  -8  170.70    4.45
  -2   2  -8  170.17    4.69
   2  -2   8  172.55    5.21
   2   2   8  185.05    4.81
  -2  -2  -9  118.07    5.43
  -2   2  -9  122.61    5.86
   2  -2   9  129.58    6.61
   2   2   9  133.74    6.24
  -2  -2 -10   30.67    2.17
  -2   2 -10   26.71    2.37
   2  -2  10   30.46    3.32
   2   2  10   23.24    2.33
  -2  -2 -11   44.45    2.30
  -2   2 -11   46.17    3.16
   2   2  11   32.95    2.55
   2  -2  11   42.08    3.78
  -2  -2 -12   82.54    4.73
  -2   2 -12   88.03    5.50
   2   2  12   67.84    4.38
   2  -2  12   83.89    5.60
  -2  -2 -13   25.82    1.85
  -2   2 -13   32.21    2.54
   2  -2  13   33.82    3.97
   2   2  13   22.69    4.37
  -2   2 -14   28.89    2.97
   2  -2  14   31.00    3.36
   2   2  14   25.63    2.79
  -2   2 -15   15.15    2.88
   2  -2  15    4.55    2.10
   2   2  15    5.85    2.40
   2  -2  16    9.32    2.62
   2   2  16    7.76    2.57
   2   2  17    7.71    2.85
   2  -2  17    3.56    1.87
  -2  -3  17    2.60    2.19
  -2   3  17    8.87    3.12
  -2  -3  16    5.15    2.42
  -2   3  16   17.10    4.07
  -2  -3  15    3.20    1.08
  -2  -3  15    7.25    3.62
  -2   3  15    7.21    3.35
  -2  -3  14    2.49    1.58
  -2  -3  14    3.17    2.21
  -2   3  14    8.01    2.77
  -2  -3  13    4.25    1.76
  -2  -3  13    9.77    3.64
  -2   3  13    3.41    2.03
  -2  -3  12   12.87    2.48
  -2  -3  12   12.29    2.90
  -2   3  12   15.51    3.14
  -2  -3  11  140.96    9.49
  -2   3  11  140.03    4.32
  -2  -3  11  157.81    6.61
  -2   3  11  138.79    6.12
  -2  -3  10   39.58    2.55
  -2  -3  10   41.42    3.42
  -2   3  10   33.83    3.53
  -2  -3   9  622.13   25.11
  -2   3   9  631.00   24.87
   2  -3  -9  594.62   23.40
  -2  -3   9  652.63   18.78
  -2   3   9  660.78   19.01
  -2  -3   8  146.72    6.81
  -2   3   8  146.27    6.21
   2  -3  -8  131.80    5.58
  -2  -3   8  141.19    6.74
  -2  -3   7  119.12    3.81
  -2   3   7  107.20    2.81
   2  -3  -7   95.93    2.63
  -2  -3   7  124.86    4.11
  -2  -3   6   17.01    2.18
  -2   3   6    9.37    1.08
   2  -3  -6   10.14    0.91
  -2  -3   6    9.14    1.62
  -2  -3   5  172.69    5.14
  -2   3   5  168.70    4.40
  -2  -3   5  176.86    4.95
  -2  -3   4  608.34   13.38
  -2   3   4  621.29   13.18
  -2  -3   4  569.61   12.29
  -2  -3   3  504.92    9.39
  -2   3   3  476.30    8.30
   2  -3  -3  456.53    8.77
  -2  -3   3  475.38    8.20
  -2  -3   2  625.93   11.03
  -2   3   2  600.14   10.22
  -2  -3   2  587.15    9.45
  -2  -3   2  601.59    9.81
  -2  -3   1  680.00   11.71
  -2   3   1  616.12   10.44
   2  -3  -1  680.42   11.89
  -2  -3   1  618.39    9.76
  -2  -3   0  154.15    4.16
  -2   3   0  142.59    3.75
   2  -3   0  149.35    6.05
  -2  -3   0  142.59    3.18
  -2  -3  -1  167.65    4.24
  -2   3  -1  177.52    4.52
   2  -3   1  187.78    6.62
  -2  -3  -1  172.35    3.30
  -2  -3  -2 1641.56   25.19
  -2   3  -2 1634.35   25.20
   2   3   2 1665.85   24.57
   2  -3   2 1690.44   26.35
  -2  -3  -2 1627.73   23.99
  -2  -3  -3  405.11    9.24
  -2   3  -3  419.05    9.83
   2   3   3  383.47    8.17
   2  -3   3  405.28    9.63
  -2  -3  -3  394.14    8.26
  -2  -3  -4  195.98    5.29
  -2   3  -4  189.88    5.66
   2   3   4  198.63    4.98
   2  -3   4  189.01    5.61
  -2  -3  -4  196.77    4.58
  -2  -3  -5   47.71    2.43
  -2   3  -5   45.87    2.56
   2  -3   5   48.14    2.71
   2   3   5   44.31    1.86
  -2  -3  -5   44.56    1.75
  -2  -3  -6   25.63    1.89
  -2   3  -6   25.01    2.13
   2   3   6   25.62    1.61
   2  -3   6   20.52    2.08
  -2  -3  -6   20.20    1.29
  -2  -3  -7    6.74    1.36
  -2   3  -7   10.60    1.60
   2  -3   7    4.23    1.35
   2   3   7    9.34    1.26
  -2  -3  -7    4.79    0.83
  -2  -3  -8   69.24    3.72
  -2   3  -8   72.57    4.06
   2  -3   8   53.47    3.65
   2   3   8   70.16    3.73
  -2  -3  -9  164.12    5.33
  -2   3  -9  176.15    6.31
   2  -3   9  162.85    6.62
   2   3   9  157.01    5.54
  -2  -3 -10   67.59    2.91
  -2   3 -10   78.15    3.67
   2  -3  10   85.45    4.99
   2   3  10   73.48    3.43
  -2  -3 -11   21.04    1.73
  -2   3 -11   17.91    2.10
   2  -3  11   14.52    2.57
   2   3  11   20.73    2.05
  -2  -3 -12    2.69    0.99
  -2   3 -12    2.56    1.27
   2  -3  12    3.50    1.94
   2   3  12    3.41    1.44
  -2  -3 -13   51.51    4.36
  -2   3 -13   56.02    5.18
   2  -3  13   59.67    6.12
   2   3  13   57.48    5.21
  -2   3 -14   23.28    2.75
   2  -3  14   20.17    3.30
   2   3  14   19.48    2.48
  -2   3 -15    1.78    1.65
   2  -3  15    4.26    2.66
   2   3  15    5.09    2.37
  -2   3 -16    2.45    1.48
   2  -3  16    9.10    2.52
   2   3  16    9.04    2.76
   2   3  17   16.33    3.70
   2  -3  17   26.82    6.09
  -2  -4  17   17.62    4.87
  -2   4  17   27.72    7.10
  -2  -4  16   36.15    6.23
  -2   4  16   36.29    6.96
  -2  -4  15   17.17    5.98
  -2  -4  15   31.58    5.13
  -2   4  15   41.52    5.95
  -2  -4  14   11.21    4.26
  -2  -4  14   25.98    4.27
  -2   4  14   15.22    4.29
  -2  -4  13   15.76    5.86
  -2  -4  13   20.39    5.63
  -2   4  13   16.08    4.03
  -2  -4  12   17.72    4.58
  -2  -4  12   21.63    4.62
  -2   4  12   29.37    3.76
  -2  -4  11  131.86    9.67
  -2  -4  11  124.51    7.53
  -2   4  11  142.86    8.42
  -2  -4  10   26.01    4.17
  -2   4  10   27.09    1.39
  -2  -4  10   32.14    3.49
  -2   4  10   21.23    2.64
  -2  -4   9   28.10    2.46
  -2   4   9   23.97    1.40
  -2  -4   9   25.19    2.63
  -2  -4   8  316.57   13.49
  -2   4   8  332.67   13.37
  -2  -4   8  333.67   14.13
  -2  -4   7  167.87    7.67
  -2   4   7  173.83    7.35
  -2  -4   7  161.18    7.38
  -2  -4   6  107.42    3.67
  -2   4   6  116.38    3.14
  -2  -4   6  120.43    3.80
  -2  -4   5   40.37    2.70
  -2   4   5   39.22    1.84
  -2  -4   5   44.02    2.44
  -2  -4   4   37.55    2.33
  -2   4   4   32.33    1.67
  -2  -4   4   38.66    2.15
  -2  -4   3   43.88    2.43
  -2   4   3   44.40    2.10
   2  -4  -3   50.26    2.68
  -2  -4   3   49.90    2.15
  -2   4   2  114.26    3.61
  -2  -4   2  106.32    2.83
   2  -4  -2  117.05    4.33
  -2  -4   2  117.88    3.25
  -2  -4   1   57.19    3.05
  -2   4   1   60.64    2.81
  -2  -4   1   65.61    3.31
   2  -4  -1   73.78    7.03
  -2  -4   1   58.63    1.90
  -2  -4   0  690.51   14.99
  -2   4   0  688.45   14.81
   2  -4   0  693.64   15.37
  -2  -4   0  683.28   13.86
  -2  -4   0  665.48   13.39
  -2  -4  -1 1943.65   39.13
  -2   4  -1 2007.20   40.34
   2  -4   1 1999.36   40.41
  -2  -4  -1 1916.06   37.44
  -2  -4  -2 2060.08   33.87
  -2   4  -2 2022.89   33.31
   2  -4   2 1979.76   40.12
  -2  -4  -2 2015.94   39.33
  -2  -4  -3  179.16    5.08
  -2   4  -3  181.97    5.28
   2   4   3  171.06    3.73
   2  -4   3  159.14    5.05
  -2  -4  -3  168.78    3.70
  -2  -4  -4  205.59    5.59
  -2   4  -4  204.58    5.85
   2   4   4  198.07    4.49
   2  -4   4  195.81    5.77
  -2  -4  -4  194.62    4.30
  -2  -4  -5   66.77    2.72
   2  -4   5   54.39    2.76
   2   4   5   54.06    2.68
  -2  -4  -5   56.28    1.68
  -2  -4  -6   23.22    1.76
  -2   4  -6   18.72    2.31
   2   4   6   21.05    1.21
   2  -4   6   19.41    2.39
  -2  -4  -6   14.67    1.06
  -2  -4  -7   40.87    2.86
  -2   4  -7   40.97    3.22
   2  -4   7   34.04    2.90
   2   4   7   38.07    2.25
  -2  -4  -7   34.84    2.16
  -2  -4  -8  115.63    4.20
  -2   4  -8  102.51    4.70
   2  -4   8   97.65    4.52
   2   4   8  107.49    3.85
  -2  -4  -9   27.07    2.07
  -2   4  -9   22.52    2.26
   2  -4   9   21.46    2.80
   2   4   9   24.95    1.83
  -2  -4 -10   91.08    3.58
  -2   4 -10  100.91    4.48
   2  -4  10   88.79    4.86
   2   4  10   96.80    3.93
  -2  -4 -11   55.58    3.42
  -2   4 -11   56.56    4.28
   2  -4  11   55.97    4.91
   2   4  11   65.16    4.33
  -2  -4 -12    4.30    1.21
  -2   4 -12    4.06    1.85
   2  -4  12    3.18    2.83
   2   4  12    8.60    2.54
  -2   4 -13   23.53    3.06
   2  -4  13   21.87    3.47
   2   4  13   21.66    2.76
  -2   4 -14    9.72    3.26
   2  -4  14    4.11    2.20
   2   4  14   11.02    3.27
  -2   4 -15   20.99    3.95
   2  -4  15   13.56    4.17
   2   4  15   26.50    4.66
  -2   4 -16   15.08    3.02
   2  -4  16   16.13    4.06
   2   4  16   14.92    2.97
  -2  -5  16   22.88    9.24
  -2  -5  16   54.00   10.68
  -2   5  16   48.55    9.85
  -2  -5  15    2.85    1.33
  -2  -5  15    3.98    2.09
  -2   5  15    7.16    2.61
  -2  -5  14    4.62    3.00
  -2  -5  14   11.40    3.53
  -2   5  14   10.30    3.45
  -2  -5  13    6.96    2.70
  -2  -5  13    8.40    3.35
  -2   5  13   10.87    3.57
  -2  -5  12    2.22    1.27
  -2  -5  12    3.06    2.58
  -2   5  12    4.43    2.03
  -2  -5  11    6.88    2.76
  -2  -5  11   14.28    4.10
  -2   5  11   20.11    4.41
  -2  -5  10  637.42  105.19
  -2   5  10  565.30   27.46
  -2  -5  10  598.00   30.01
  -2   5  10  622.44  102.75
  -2  -5   9  238.60   15.10
  -2   5   9  232.10    6.88
  -2  -5   9  230.07    7.99
  -2  -5   8  109.34    4.91
  -2   5   8  104.81    3.62
  -2  -5   8  109.00    4.66
  -2  -5   7  252.57   11.10
  -2   5   7  271.11   11.11
  -2  -5   7  265.73   11.50
  -2  -5   6   95.00    5.19
  -2   5   6   91.14    4.25
  -2  -5   6   89.54    4.59
  -2  -5   5   69.40    3.19
  -2   5   5   65.91    2.37
  -2  -5   5   68.10    2.77
  -2  -5   4   22.23    2.04
  -2   5   4   23.11    1.58
  -2  -5   4   17.64    1.50
  -2  -5   3   39.96    2.38
  -2   5   3   45.00    2.12
   2  -5  -3   35.77    2.59
  -2  -5   3   46.89    2.03
  -2  -5   2    7.11    1.91
  -2   5   2    4.45    1.33
   2  -5  -2    6.59    1.95
  -2  -5   2    2.47    1.03
  -2   5   1  174.70    5.03
   2  -5  -1  189.88   10.93
  -2  -5   1  176.24    5.86
  -2  -5   1  172.71    3.99
  -2  -5   0   18.91    2.16
  -2   5   0   18.25    2.02
   2  -5   0   26.74    3.62
  -2  -5   0   18.53    1.70
  -2  -5   0   20.08    0.88
  -2  -5  -1  304.53    7.68
  -2   5  -1  306.36    7.71
  -2  -5  -2   63.21    2.78
  -2   5  -2   50.37    2.77
   2  -5   2   62.86    5.34
  -2  -5  -3    3.71    1.84
  -2   5  -3    2.47    1.22
   2  -5   3    9.70    2.01
  -2  -5  -4   26.48    1.99
  -2   5  -4   20.88    2.31
   2  -5   4   33.98    5.02
  -2  -5  -5  171.06    4.47
  -2   5  -5  200.11    5.49
   2   5   5  164.54    2.94
   2  -5   5  180.24    5.34
  -2  -5  -6   70.26    3.88
  -2   5  -6   78.13    4.45
   2  -5   6   84.54    4.88
   2   5   6   76.78    3.32
  -2  -5  -6   74.97    3.24
  -2  -5  -7   84.26    3.81
  -2   5  -7   83.56    4.35
   2  -5   7   62.85    3.78
   2   5   7   75.63    2.63
  -2  -5  -7   66.30    2.38
  -2  -5  -8  221.72    6.97
  -2   5  -8  214.09    7.53
   2  -5   8  209.77    7.71
   2   5   8  227.39    6.79
  -2  -5  -8  177.57    5.33
  -2  -5  -9  102.29    4.01
  -2   5  -9   91.69    4.42
   2  -5   9   85.71    4.47
   2   5   9  104.60    3.82
  -2  -5 -10    2.38    1.01
  -2   5 -10    6.27    2.19
   2  -5  10    1.96    1.78
   2   5  10    5.71    1.52
  -2  -5 -11   51.46    2.40
  -2   5 -11   41.88    3.34
   2  -5  11   42.50    3.47
   2   5  11   56.59    3.02
   2  -5  12    9.46    3.01
   2   5  12    8.10    1.92
  -2   5 -13    4.87    2.43
   2  -5  13    2.42    1.87
   2   5  13    3.06    1.57
  -2   5 -14   13.99    3.16
   2  -5  14    3.79    2.24
  -2   5 -15   45.74    7.28
   2  -5  15   39.69    6.69
  -2   5 -16    1.89    1.31
   2  -5  16    4.17    2.70
  -2  -6  16   19.20   10.66
  -2  -6  16   37.09    7.93
  -2   6  16   51.28   10.43
  -2  -6  15    2.03    1.82
  -2  -6  15    1.67    1.78
  -2   6  15    3.34    1.97
  -2  -6  14   11.10    3.88
  -2  -6  14    3.06    2.06
  -2   6  14    7.13    2.71
  -2  -6  13    9.79    3.77
  -2  -6  13   10.58    3.48
  -2   6  13   20.14    3.79
  -2  -6  12   22.85    8.08
  -2  -6  12   32.39    3.41
  -2   6  12   28.56    3.68
  -2  -6  11   51.74    7.67
  -2  -6  11   52.65    5.34
  -2   6  11   77.88    7.16
  -2  -6  10   83.00   10.87
  -2  -6  10   98.57    4.21
  -2  -6   9   35.88    7.37
  -2   6   9   31.30    3.36
  -2  -6   9   35.41    3.83
  -2  -6   8   77.20    9.87
  -2   6   8   61.43    2.46
  -2  -6   8   71.14    3.92
  -2  -6   7  286.65    9.33
  -2   6   7  320.58    9.25
  -2  -6   7  316.96    9.87
  -2  -6   6   20.37    2.49
  -2   6   6   23.29    1.61
  -2  -6   6   17.34    2.02
  -2  -6   5   18.69    2.54
  -2   6   5   27.75    1.99
  -2  -6   5   20.29    1.87
  -2  -6   4    3.27    1.37
  -2   6   4   12.08    1.51
  -2  -6   4    8.61    1.29
  -2  -6   3  146.96    7.02
  -2   6   3  137.18    6.24
   2  -6  -3  130.23    6.50
  -2  -6   3  150.10    6.42
  -2  -6   2   32.02    2.48
  -2   6   2   31.79    1.98
   2  -6  -2   35.70    2.57
  -2  -6   2   35.76    1.54
  -2  -6   1   18.41    2.15
  -2   6   1   18.88    1.89
  -2  -6   1   15.15    1.03
   2  -6  -1   21.30    3.63
  -2  -6   1   14.57    0.84
  -2  -6   0   95.88    3.83
  -2   6   0  100.58    3.57
   2  -6   0  115.57   10.76
  -2  -6  -1  245.59    5.92
  -2   6  -1  279.24    6.75
   2  -6   1  276.71    6.84
  -2  -6  -2   41.62    2.61
  -2   6  -2   46.48    2.78
   2  -6   2   43.36    6.94
  -2  -6  -3   69.16    3.81
  -2   6  -3   81.04    4.47
   2  -6   3   80.74    8.44
  -2  -6  -4  247.30   10.61
  -2   6  -4  257.23   11.24
   2  -6   4  264.18   17.12
  -2  -6  -5   68.05    3.74
  -2   6  -5   65.48    4.01
  -2  -6  -6   25.82    1.99
  -2   6  -6   28.49    2.44
  -2  -6  -7   65.60    3.09
  -2   6  -7   55.40    3.43
   2   6   7   53.79    1.83
   2  -6   7   59.80    3.60
  -2  -6  -8   65.24    3.10
  -2   6  -8   53.91    3.80
   2   6   8   56.33    2.14
   2  -6   8   60.87    4.13
  -2  -6  -9    8.95    1.79
  -2   6  -9    5.82    2.19
   2  -6   9    4.29    1.88
   2   6   9   11.98    1.66
  -2  -6 -10  152.76    4.00
  -2   6 -10  150.85    5.20
   2  -6  10  161.84    6.17
  -2  -6 -11   13.89    2.60
  -2   6 -11   10.41    2.81
   2  -6  11   14.99    3.33
  -2   6 -12    2.03    1.60
   2  -6  12    0.39    1.73
  -2   6 -13    4.01    1.78
   2  -6  13    7.87    3.29
  -2   6 -14    4.56    1.68
   2  -6  14   12.02    3.74
  -2   6 -15   27.06    4.96
   2  -6  15   31.30    6.07
  -2  -7  15   15.25    8.07
  -2  -7  15   50.15   10.08
  -2   7  15   58.44   11.64
  -2  -7  14    2.65    1.41
  -2  -7  14    5.83    2.70
  -2   7  14    9.25    2.94
  -2  -7  13    4.58    2.06
  -2  -7  13    0.36    1.76
  -2   7  13    4.10    2.27
  -2  -7  12   19.23    5.03
  -2  -7  12   29.49    4.32
  -2   7  12   32.33    4.58
  -2  -7  11   83.47   11.92
  -2  -7  11   84.80    5.76
  -2   7  11   94.18    6.18
  -2  -7  10   96.09   15.70
  -2  -7  10  115.06    9.59
  -2  -7   9   59.04    3.30
  -2  -7   8   98.90   11.98
  -2   7   8   81.82    4.51
  -2  -7   8   82.84    5.27
  -2  -7   7    1.57    1.18
  -2   7   7    1.03    0.61
  -2  -7   7    3.61    1.46
  -2  -7   6   28.40    4.51
  -2   7   6   15.44    1.53
  -2  -7   6   19.48    1.94
  -2  -7   5   78.70    4.04
  -2   7   5   80.04    3.26
  -2  -7   5   84.52    3.47
  -2  -7   4   22.41    2.40
  -2   7   4   35.13    2.12
  -2  -7   4   33.36    2.05
  -2  -7   3   15.46    2.15
  -2   7   3   19.40    1.79
   2  -7  -3   20.86    2.38
  -2  -7   3   14.13    1.28
  -2  -7   2  183.87    8.45
  -2   7   2  195.60    8.65
   2  -7  -2  183.53    8.39
  -2  -7   2  185.02    7.55
  -2  -7   1  324.27   13.76
  -2   7   1  341.76   14.40
   2  -7  -1  337.95   15.53
  -2  -7   1  320.94   12.56
  -2  -7   0   75.56    4.54
  -2   7   0   90.09    4.86
   2  -7   0  100.11    9.07
  -2  -7  -1  322.32   13.66
  -2   7  -1  327.61   13.87
   2  -7   1  340.87   16.06
  -2  -7  -2  324.41   10.07
  -2   7  -2  322.45   10.30
   2  -7   2  325.39   10.45
  -2  -7  -3   18.52    2.02
  -2   7  -3   15.50    2.41
   2  -7   3   17.35    3.76
  -2  -7  -4  362.34   11.03
  -2   7  -4  380.21   11.83
   2  -7   4  348.04   12.64
  -2  -7  -5  112.49    4.58
  -2   7  -5  115.49    5.24
   2  -7   5   98.09    9.16
  -2  -7  -6   23.07    1.96
  -2   7  -6   22.19    2.62
   2  -7   6   19.44    2.73
  -2  -7  -7   30.25    3.69
   2  -7   7   28.64    4.15
  -2  -7  -8    7.71    1.93
  -2   7  -8    3.24    1.48
   2  -7   8    7.68    2.25
  -2  -7  -9    2.43    1.38
  -2   7  -9    1.30    1.64
   2  -7   9    7.75    3.00
  -2  -7 -10   44.62    3.86
  -2   7 -10   45.82    4.77
  -2   7 -11   38.29    3.86
  -2   7 -12    7.37    3.11
   2  -7  12    1.89    1.99
  -2   7 -13    3.09    2.45
   2  -7  13    5.32    2.89
  -2   7 -14    1.98    1.56
   2  -7  14    2.63    2.18
  -2  -8  14    6.59    2.59
  -2  -8  14    4.09    2.52
  -2   8  14    8.44    3.31
  -2  -8  13    7.03    3.14
  -2  -8  13    9.69    2.87
  -2   8  13    7.55    2.64
  -2  -8  12   21.51    6.77
  -2  -8  12   40.87    6.40
  -2   8  12   35.57    6.09
  -2  -8  11    5.83    3.58
  -2  -8  11   11.70    3.32
  -2   8  11   10.81    3.40
  -2  -8  10   28.46    6.42
  -2  -8  10   32.21    3.23
  -2  -8   9  190.74   16.38
  -2  -8   9  212.10   49.85
  -2  -8   8   57.06   10.17
  -2   8   8   61.13    2.23
  -2  -8   8   78.29    3.47
  -2  -8   7   57.36   10.71
  -2   8   7   60.55    2.51
  -2  -8   7   67.78    3.16
  -2  -8   6   23.30    5.51
  -2   8   6   29.07    3.39
  -2  -8   6   32.22    3.82
  -2  -8   5  114.91   10.94
  -2   8   5  115.62    6.38
  -2  -8   5  107.96    5.92
  -2  -8   4   55.29    9.85
  -2   8   4   54.22    2.95
  -2  -8   4   64.40    2.77
  -2   8   3    9.82    1.91
   2  -8  -3    8.44    2.49
  -2  -8   3    2.28    0.62
  -2  -8   2  189.03    7.13
  -2   8   2  197.42    6.90
   2  -8  -2  195.94    7.10
  -2  -8   2  187.93    5.49
  -2  -8   1   14.19    2.43
  -2   8   1   21.13    2.55
   2  -8  -1   12.72    2.01
  -2  -8   0   18.91    2.58
  -2   8   0   14.20    2.08
   2  -8   0   17.81    3.81
  -2  -8  -1   53.53    3.08
  -2   8  -1   53.64    3.55
   2  -8   1   46.24    8.46
  -2  -8  -2  199.59    7.21
  -2   8  -2  226.44    8.02
   2  -8   2  192.18    8.67
  -2  -8  -3   93.70    4.32
  -2   8  -3   96.29    4.61
   2  -8   3   94.63   12.83
  -2  -8  -4   32.19    2.64
  -2   8  -4   44.93    3.58
   2  -8   4   30.86    6.18
  -2  -8  -5  115.50    6.81
  -2   8  -5  107.29    6.77
   2  -8   5   98.74   10.74
  -2  -8  -6   44.29    3.21
  -2   8  -6   46.96    4.44
   2  -8   6   35.34    7.69
  -2  -8  -7   34.77    2.42
  -2   8  -7   32.89    3.35
   2  -8   7   37.45    3.52
  -2  -8  -8    4.09    1.54
  -2   8  -8    6.10    2.60
   2  -8   8    4.24    2.07
  -2  -8  -9   11.59    2.25
  -2   8  -9   16.16    3.89
   2  -8   9   12.04    3.33
  -2   8 -10    5.44    2.40
   2  -8  10    4.13    2.11
  -2   8 -11    4.06    2.47
   2  -8  11    5.23    2.20
  -2   8 -12   32.20    5.52
   2  -8  12   35.67    6.31
  -2   8 -13    0.50    1.45
   2  -8  13    4.62    2.68
  -2   8 -14   31.69    6.59
  -2  -9  13    9.06    4.05
  -2  -9  13   16.18    4.03
  -2   9  13   15.29    4.21
  -2  -9  12    2.74    1.30
  -2  -9  12    5.61    2.31
  -2   9  12    4.84    1.85
  -2  -9  11   13.09    5.62
  -2  -9  11   13.14    3.33
  -2   9  11   14.68    3.28
  -2  -9  10   32.12   10.80
  -2  -9  10   46.22    5.55
  -2  -9   9   25.31    8.57
  -2  -9   9   36.65    4.67
  -2  -9   8    8.39    3.11
  -2  -9   8    9.29    3.04
  -2  -9   7   20.51    6.91
  -2   9   7   36.13    3.32
  -2  -9   7   30.17    3.11
  -2  -9   6   15.69    4.33
  -2   9   6   25.50    2.87
  -2  -9   6   18.36    3.28
  -2  -9   5   33.92    5.28
  -2   9   5   43.79    2.59
  -2  -9   5   34.62    1.99
  -2  -9   4    3.88    1.51
  -2   9   4    2.29    1.60
  -2  -9   4    2.05    0.92
  -2  -9   3  127.64    7.71
  -2   9   3  136.29    7.67
   2  -9  -3  129.53    7.83
  -2  -9   2    6.84    2.83
  -2   9   2    6.44    1.93
   2  -9  -2    4.29    1.58
  -2  -9   1    2.31    1.26
  -2   9   1    1.98    2.24
   2  -9  -1    1.92    1.50
  -2  -9   0   25.98    4.53
  -2   9   0   19.13    3.05
   2  -9   0   23.85    5.44
  -2  -9  -1   33.43    3.53
  -2   9  -1   33.78    3.41
   2  -9   1   29.82    8.01
  -2  -9  -2    6.53    1.84
  -2   9  -2    1.75    1.47
   2  -9   2   16.62    3.74
  -2  -9  -3  122.18    7.04
  -2   9  -3  137.12    8.06
   2  -9   3  102.68   11.47
  -2  -9  -4  113.79    4.05
  -2   9  -4  109.36    4.86
   2  -9   4   85.71    8.73
  -2  -9  -5   43.13    2.86
  -2   9  -5   41.66    3.83
   2  -9   5   31.63    6.52
  -2  -9  -6   27.16    2.98
  -2   9  -6   12.53    2.83
   2  -9   6   13.60    3.50
  -2  -9  -7    7.32    1.96
  -2   9  -7   11.57    3.11
   2  -9   7    5.97    2.59
  -2  -9  -8    4.97    2.17
  -2   9  -8    4.49    2.58
   2  -9   8    4.13    1.97
  -2   9  -9    8.28    3.07
   2  -9   9   13.64    2.97
  -2   9 -10    1.90    1.65
   2  -9  10    2.77    1.89
  -2   9 -11    9.95    3.17
   2  -9  11   10.97    3.13
  -2   9 -12   10.96    3.90
   2  -9  12    7.74    3.42
  -2 -10  11    4.67    2.47
  -2  10  11    1.47    1.58
  -2 -10  10    7.54    3.91
  -2 -10   9    2.55    1.67
  -2 -10   8   13.57    3.77
  -2 -10   7   15.05    4.88
  -2 -10   6    2.25    1.27
  -2  10   6    8.18    2.71
  -2 -10   5   10.48    3.53
  -2  10   5    6.09    1.97
  -2 -10   4    3.11    1.25
  -2  10   4   10.54    2.38
  -2 -10   3    2.14    2.18
  -2  10   3    1.02    1.00
   2 -10  -3    0.89    1.51
  -2 -10   2   24.58    6.37
  -2  10   2   23.83    3.05
   2 -10  -2   23.04    3.12
  -2 -10   1    4.64    2.30
  -2  10   1    5.82    1.98
   2 -10  -1    7.29    2.22
  -2 -10   0   19.40    5.31
  -2  10   0   13.42    3.03
   2 -10   0   11.17    3.73
  -2 -10  -1    0.23    1.47
  -2  10  -1    7.17    2.66
   2 -10   1    3.39    1.65
  -2 -10  -2    6.43    1.79
  -2  10  -2    9.89    3.08
   2 -10   2    1.62    1.81
  -2 -10  -3    4.20    1.92
  -2  10  -3    4.55    2.14
   2 -10   3    3.27    2.53
  -2  10  -4    6.59    3.04
   2 -10   4    5.29    3.28
  -2 -10  -5    8.62    3.64
  -2  10  -5   10.63    3.32
   2 -10   5    9.21    3.46
  -2 -10  -6   11.01    4.44
  -2  10  -6   16.24    4.50
   2 -10   6   17.46    5.94
  -2 -10  -7   17.75    6.04
  -2  10  -7   27.04    4.13
   2 -10   7   18.31    6.01
  -2 -10  -8    5.67    2.28
  -2  10  -8    7.64    2.38
   2 -10   8    7.11    2.96
   2 -10   9    2.19    1.71
  -2  10 -10   26.18    4.68
   2 -10  10   32.14    5.95
  -2  10 -11   64.38   12.49
   2 -10  11   70.49   13.75
  -2 -11   9    2.54    1.57
  -2 -11   8   13.98    5.51
  -2 -11   7    8.25    3.83
  -2 -11   6    7.34    3.21
  -2  11   5   18.17    2.79
  -2 -11   4   18.51    5.08
  -2  11   4   28.66    3.68
  -2 -11   3    1.49    1.82
  -2  11   3    7.65    2.75
   2 -11  -3    2.41    1.45
  -2 -11   2   14.91    4.57
  -2  11   2   15.74    2.84
   2 -11  -2   14.74    3.09
  -2 -11   1    2.34    1.64
  -2  11   1    4.60    2.08
   2 -11  -1    6.46    2.61
  -2 -11   0   32.92    7.39
  -2  11   0   38.82    4.00
   2 -11   0   41.43    4.16
  -2 -11  -1    3.04    2.07
  -2  11  -1    2.85    1.68
   2 -11   1    1.85    1.20
  -2 -11  -2    7.87    3.75
  -2  11  -2    5.80    2.41
   2 -11   2    9.05    3.75
  -2 -11  -3    3.04    1.96
  -2  11  -3    4.53    2.40
   2 -11   3    3.12    1.62
  -2 -11  -4   22.73    3.80
  -2  11  -4   22.93    3.84
   2 -11   4   12.47    5.21
  -2 -11  -5   86.75   13.37
  -2  11  -5   87.57   12.86
   2 -11   5   71.16   16.34
  -2 -11  -6   12.21    3.53
  -2  11  -6   13.94    3.15
   2 -11   6    9.99    3.91
  -2 -11  -7    3.75    2.29
  -2  11  -7    7.27    3.26
   2 -11   7    2.14    1.38
  -2  11  -8   11.28    3.52
   2 -11   8    3.95    1.42
  -2  11  -9    2.60    2.85
   2 -11   9    2.57    2.23
  -2 -12   7   10.50    3.94
  -2 -12   6    8.13    5.82
  -2 -12   5    2.51    0.88
  -2 -12   4   16.64    6.14
  -2  12   4   24.14    4.37
  -2 -12   3    4.41    2.18
  -2  12   3    6.05    1.80
  -2 -12   2    4.96    2.17
  -2  12   2    4.43    1.70
   2 -12  -2    3.42    1.44
  -2 -12   1   23.33    8.17
  -2  12   1   43.07    6.99
   2 -12  -1   36.32    5.94
  -2 -12   0    8.99    3.69
  -2  12   0    5.79    1.66
   2 -12   0    6.77    2.31
  -2 -12  -1   11.25    4.64
  -2  12  -1    9.82    2.54
   2 -12   1    9.35    3.72
  -2 -12  -2    8.40    2.75
  -2  12  -2    9.33    2.52
   2 -12   2    3.94    2.06
  -2 -12  -3   11.89    3.75
  -2  12  -3    7.77    2.30
   2 -12   3    9.32    4.48
  -2 -12  -4    2.14    1.39
  -2  12  -4    2.35    1.61
   2 -12   4    2.03    1.11
  -2 -12  -5    6.54    3.57
  -2  12  -5   10.40    2.79
   2 -12   5   10.02    4.01
  -2  12  -6   57.11   11.35
   2 -12   6   14.40    8.84
  -2 -13   2    3.28    2.04
  -2  13   2    6.01    2.26
  -2 -13   1    4.32    3.08
  -2  13   1    5.21    1.98
   2 -13  -1    7.88    2.95
  -2 -13   0    6.95    3.45
  -2  13   0   12.75    3.31
   2 -13   0   25.23    5.64
  -2 -13  -1   15.65    7.01
  -2  13  -1   40.86    8.28
  -3   0  16    9.81    3.67
  -3   0  15    5.09    3.02
  -3   0  14    5.81    2.50
  -3   0  13   13.69    3.59
  -3   0  13   21.25    4.09
  -3   0  12    0.71    1.06
  -3   0  12    9.76    3.75
  -3   0  11    8.24    2.08
  -3   0  11   14.22    3.90
  -3   0  10  141.11    7.73
  -3   0  10  142.56    9.03
  -3   0   9  199.60    7.06
  -3   0   9  183.64    7.42
  -3   0   8   90.75    4.14
  -3   0   8   89.57    4.68
  -3   0   7   24.64    2.59
  -3   0   6   82.61    4.48
  -3   0   5    3.54    1.34
  -3   0   4   57.33    3.55
  -3   0   3   55.29    2.82
  -3   0   2  100.81    3.88
  -3   0   1   23.50    2.22
   3   0  -1   18.36    1.75
  -3   0   0  297.88    6.88
   3   0   0  285.76    6.59
  -3   0  -1  127.18    4.10
   3   0   1  151.77    4.45
  -3   0  -2    3.99    1.76
   3   0   2    2.72    0.76
  -3   0  -3   22.94    2.14
   3   0   3   23.16    2.98
  -3   0  -4  125.14    6.20
   3   0   4  117.70    7.26
  -3   0  -5  216.85    9.77
   3   0   5  193.04    8.56
  -3   0  -6   23.17    2.16
   3   0   6   27.94    4.33
  -3   0  -7  215.10    7.33
   3   0   7  190.55    7.57
  -3   0  -8   68.84    3.58
   3   0   8   59.66    3.39
  -3   0  -9  109.61    6.61
   3   0   9  100.57    6.11
  -3   0 -10   21.10    4.06
   3   0  10   24.78    2.99
  -3   0 -11    6.61    2.17
   3   0  11    0.17    1.32
  -3   0 -12    5.39    2.52
   3   0  12    1.44    1.32
  -3   0 -13    1.10    1.19
   3   0  13    3.67    2.09
  -3   0 -14  129.63   15.31
   3   0  14   97.42   14.00
   3   0  15    9.70    2.52
  -3   1  16   11.52    4.12
  -3  -1  16   23.42    6.21
  -3  -1  15    5.23    2.47
  -3   1  15   11.11    3.72
  -3  -1  14    5.37    2.84
  -3  -1  13   26.65    2.64
  -3  -1  13   28.82    3.59
  -3   1  13   21.90    3.72
  -3  -1  12   12.79    2.72
  -3  -1  12   19.79    4.79
  -3   1  12   11.21    3.32
  -3  -1  11   44.87    2.68
  -3   1  11   53.46    2.87
  -3  -1  11   47.91    3.71
  -3   1  11   62.46    3.96
  -3  -1  10   95.11    5.68
  -3   1  10   93.62    5.53
  -3  -1  10   82.25    5.59
  -3   1  10   96.41    6.33
  -3  -1   9  155.74    5.98
  -3   1   9  167.13    5.97
  -3  -1   9  154.34    6.46
  -3   1   9  158.07    6.78
  -3  -1   8  197.11    7.12
  -3   1   8  193.39    6.64
  -3  -1   8  193.24    7.28
  -3  -1   7   16.44    2.63
  -3   1   7    8.31    1.51
  -3  -1   7   11.65    2.00
  -3  -1   6   79.62    4.70
  -3   1   6   73.90    4.11
  -3  -1   5    2.56    1.85
  -3   1   5    1.58    1.21
  -3  -1   4  195.25    8.69
  -3   1   4  219.97    9.56
  -3  -1   3  163.79    4.83
  -3   1   3  159.61    4.68
  -3  -1   2   35.36    2.64
  -3   1   2   36.75    2.38
  -3  -1   1   53.68    2.79
  -3   1   1   59.30    2.81
   3  -1  -1   69.35    3.23
  -3  -1   0   71.51    3.10
  -3   1   0   73.65    3.30
   3   1   0   77.73    2.95
   3  -1   0   65.58    3.01
  -3  -1  -1   29.37    2.27
  -3   1  -1   30.24    2.13
   3  -1   1   23.80    3.51
   3   1   1   26.85    2.12
  -3   1  -2   17.96    2.11
   3   1   2   13.23    2.32
   3  -1   2   16.79    2.67
  -3  -1  -3   31.85    2.52
  -3   1  -3   27.22    2.36
   3   1   3   36.39    4.73
   3  -1   3   26.69    4.34
  -3  -1  -4   11.28    2.14
  -3   1  -4   18.51    2.47
   3  -1   4   13.65    2.98
   3   1   4   15.25    2.57
  -3  -1  -5   64.00    3.93
  -3   1  -5   70.04    4.41
   3   1   5   60.11    7.33
   3  -1   5   73.92   10.17
  -3  -1  -6  108.01    4.70
  -3   1  -6  103.51    4.72
   3  -1   6  104.48    8.33
   3   1   6   82.08    7.03
  -3  -1  -7   21.34    1.98
  -3   1  -7   15.63    1.93
   3  -1   7   18.95    2.60
   3   1   7   19.01    3.50
  -3  -1  -8   42.19    2.86
  -3   1  -8   42.18    2.68
   3  -1   8   42.00    3.36
   3   1   8   49.47    3.23
  -3  -1  -9   24.15    3.18
  -3   1  -9   22.43    3.29
   3  -1   9   27.54    4.06
   3   1   9   25.28    3.38
  -3  -1 -10   19.98    4.20
  -3   1 -10   16.68    3.42
   3   1  10   16.02    3.43
   3  -1  10   15.08    3.52
  -3  -1 -11   57.96    5.14
  -3   1 -11   67.50    6.11
   3   1  11   52.50    5.06
   3  -1  11   47.51    4.86
  -3  -1 -12   31.49    3.05
  -3   1 -12   27.75    3.00
   3   1  12   25.70    2.79
   3  -1  12   30.34    3.25
  -3  -1 -13   99.32   10.54
  -3   1 -13  119.14   12.66
   3   1  13   95.61   10.43
   3  -1  13  108.54   11.71
  -3  -1 -14   52.73    7.88
  -3   1 -14   44.49    6.77
   3   1  14   41.64    6.90
   3  -1  14   42.44    6.79
  -3   1 -15   21.39    4.09
   3   1  15   17.19    3.55
  -3  -2  16   66.79   13.04
  -3   2  16   63.51   13.12
  -3  -2  15    7.28    2.31
  -3   2  15   10.20    3.59
  -3  -2  14   15.71    4.69
  -3  -2  14   24.49    5.04
  -3   2  14   23.54    4.90
  -3  -2  13   26.25    3.42
  -3  -2  13   27.82    4.79
  -3   2  13   33.10    5.23
  -3  -2  12   29.82    2.59
  -3  -2  12   36.85    4.15
  -3   2  12   22.30    3.22
  -3  -2  11   99.48    3.74
  -3   2  11  113.02    3.62
  -3  -2  11  117.83    5.22
  -3   2  11  125.82    5.58
  -3  -2  10   22.78    4.44
  -3   2  10   12.47    2.58
  -3  -2  10   17.46    3.94
  -3   2  10    9.02    3.17
  -3  -2   9   82.28    5.30
  -3   2   9   89.01    5.29
  -3  -2   9  101.57    6.37
  -3  -2   8  111.46    5.11
  -3   2   8  118.04    4.58
  -3  -2   8  120.55    5.49
  -3  -2   7  290.91    9.49
  -3   2   7  301.98    9.21
  -3  -2   7  292.87    9.59
  -3  -2   6  172.56    6.58
  -3   2   6  157.79    5.56
  -3  -2   6  160.20    5.97
  -3  -2   5   34.07    2.80
  -3   2   5   35.67    2.47
  -3  -2   5   35.29    2.69
  -3  -2   4   25.79    2.50
  -3   2   4   30.75    2.50
  -3  -2   3  177.93    8.25
  -3   2   3  156.53    7.21
  -3  -2   2  177.37    5.16
  -3   2   2  168.87    4.76
   3  -2  -2  165.93    5.17
  -3  -2   1  129.18    4.26
  -3   2   1  133.76    4.16
   3  -2  -1  106.25    3.99
  -3  -2   0  230.32    5.93
  -3   2   0  223.20    5.68
   3  -2   0  247.74    6.40
  -3  -2  -1   28.97    2.59
  -3   2  -1   19.80    2.19
   3   2   1   22.46    1.89
   3  -2   1   26.46    4.00
  -3  -2  -2  178.16    4.93
  -3   2  -2  191.18    5.27
   3   2   2  177.61    4.46
   3  -2   2  190.25    9.84
  -3  -2  -3    8.35    2.04
  -3   2  -3   10.17    1.80
   3   2   3   10.88    2.21
   3  -2   3    7.95    1.58
  -3  -2  -4    6.29    2.10
   3   2   4    2.45    1.16
   3  -2   4    2.74    1.63
  -3  -2  -5   57.54    3.42
  -3   2  -5   51.74    3.38
   3   2   5   47.11    6.52
   3  -2   5   53.61    6.62
  -3  -2  -6  106.66    4.49
  -3   2  -6  111.92    4.87
   3  -2   6  100.13    8.37
   3   2   6   96.89    6.54
  -3  -2  -7   28.68    2.88
  -3   2  -7   27.45    3.18
   3   2   7   18.88    4.17
   3  -2   7   23.40    3.44
  -3  -2  -8   44.83    2.94
  -3   2  -8   45.01    2.91
   3  -2   8   47.62    3.59
   3   2   8   44.64    3.06
  -3  -2  -9   17.05    2.72
  -3   2  -9   10.05    1.87
   3  -2   9   12.75    2.85
   3   2   9   12.75    2.10
  -3  -2 -10   46.77    2.93
  -3   2 -10   44.65    2.92
   3  -2  10   47.18    3.58
   3   2  10   51.61    3.05
  -3  -2 -11   26.73    2.92
  -3   2 -11   30.49    3.54
   3   2  11   32.77    3.66
   3  -2  11   30.37    3.84
  -3  -2 -12   45.08    3.62
  -3   2 -12   41.10    3.62
   3   2  12   43.81    3.64
   3  -2  12   58.30    4.76
  -3  -2 -13   81.13    8.68
  -3   2 -13   95.30   10.23
   3   2  13   80.21    8.94
   3  -2  13   94.87   10.32
   3   2  14    3.68    1.40
   3  -2  14    5.21    2.24
  -3   2 -15   56.41   10.85
   3  -2  15   39.50    8.18
   3   2  15   48.04    9.52
  -3  -3  15    5.74    2.17
  -3   3  15    7.20    3.65
  -3  -3  14    8.59    3.16
  -3  -3  14   18.57    4.50
  -3   3  14   26.86    5.09
  -3  -3  13    1.22    1.12
  -3  -3  13   -1.00    1.67
  -3   3  13    4.57    3.07
  -3  -3  12   24.09    2.58
  -3  -3  12   24.08    3.47
  -3   3  12   33.60    3.66
  -3  -3  11   35.89    3.83
  -3   3  11   25.55    2.63
  -3  -3  11   34.75    4.72
  -3   3  11   42.93    4.95
  -3  -3  10    2.76    1.47
  -3   3  10    9.53    2.32
  -3  -3  10    9.47    3.40
  -3   3  10   16.47    4.03
  -3  -3   9  153.22    8.77
  -3   3   9  134.54    7.37
  -3  -3   9  139.21    8.37
  -3  -3   8   40.01    3.22
  -3   3   8   39.79    2.42
  -3  -3   8   31.93    2.76
  -3  -3   7  344.97   11.25
  -3   3   7  335.18   10.32
  -3  -3   7  338.22   10.81
  -3  -3   6   70.31    3.81
  -3   3   6   69.07    3.24
  -3  -3   6   73.68    3.80
  -3  -3   5   58.96    3.56
  -3   3   5   58.35    3.00
  -3  -3   5   46.41    2.84
  -3  -3   4   22.56    2.69
  -3   3   4   23.34    2.25
  -3  -3   4   22.02    2.13
  -3  -3   3   25.48    2.59
  -3   3   3   21.44    2.07
  -3  -3   2    9.20    1.84
  -3   3   2    8.46    1.87
   3  -3  -2   14.76    2.26
  -3  -3   1    7.42    1.90
  -3   3   1    3.63    1.13
   3  -3  -1    3.01    1.29
  -3  -3   0    2.34    1.28
  -3   3   0    5.71    1.81
   3  -3   0    2.73    1.41
  -3  -3  -1  130.35    6.43
  -3   3  -1  139.01    6.62
   3  -3   1  154.95   12.70
  -3  -3  -2   91.63    5.12
  -3   3  -2   93.57    5.00
   3   3   2  100.38    4.67
   3  -3   2   81.65    9.18
  -3  -3  -2   83.26    3.96
  -3  -3  -3  278.30   12.05
  -3   3  -3  237.33   10.38
   3   3   3  253.30   10.48
   3  -3   3  278.09   17.55
  -3  -3  -4   58.06    3.97
  -3   3  -4   43.65    3.00
   3   3   4   47.47    6.89
   3  -3   4   47.63    8.05
  -3  -3  -5    4.54    1.91
  -3   3  -5   10.15    2.38
   3   3   5    2.78    1.17
   3  -3   5    6.43    1.86
  -3  -3  -6   13.19    2.02
  -3   3  -6   12.05    2.27
   3   3   6   14.90    2.51
   3  -3   6   19.17    3.24
  -3  -3  -7   24.33    2.14
  -3   3  -7   17.80    2.51
   3   3   7   11.77    2.96
   3  -3   7   14.53    3.04
  -3  -3  -8   26.42    3.65
  -3   3  -8   22.88    3.47
   3  -3   8   25.72    3.75
   3   3   8   16.75    4.25
  -3  -3  -9    4.69    1.31
  -3   3  -9    1.83    1.35
   3  -3   9    9.46    2.94
   3   3   9    3.65    1.52
  -3  -3 -10   25.42    2.63
  -3   3 -10   18.92    4.01
   3   3  10   21.37    4.21
   3  -3  10   19.76    4.36
  -3  -3 -11    1.54    1.05
  -3   3 -11    1.16    1.22
   3  -3  11    1.65    1.55
  -3  -3 -12   37.18    3.11
  -3   3 -12   33.74    3.36
   3   3  12   33.58    3.23
   3  -3  12   40.70    4.00
  -3  -3 -13    3.33    1.20
  -3   3 -13    2.27    1.33
   3   3  13    2.97    1.38
   3  -3  13    3.13    2.38
  -3   3 -14   68.56   10.04
   3  -3  14   65.50   10.00
  -3   3 -15   16.60    3.94
   3  -3  15   17.24    4.52
  -3  -4  15   11.42    5.27
  -3  -4  15   14.10    4.07
  -3   4  15   40.33    8.89
  -3  -4  14   23.35    7.04
  -3  -4  14   40.27    6.91
  -3   4  14   25.77    4.82
  -3  -4  13   15.44    4.38
  -3  -4  13   22.30    4.76
  -3   4  13   18.82    4.52
  -3  -4  12   23.05    3.65
  -3  -4  12   29.92    4.43
  -3   4  12   28.79    4.46
  -3  -4  11   18.02    2.54
  -3  -4  11   22.88    3.19
  -3   4  11   15.04    4.35
  -3  -4  10    3.14    1.54
  -3   4  10    0.34    0.69
  -3  -4  10    4.84    2.96
  -3  -4   9   55.22    3.27
  -3   4   9   58.40    2.61
  -3  -4   9   54.67    3.52
  -3  -4   8   95.22    6.08
  -3   4   8   92.64    5.38
  -3  -4   8   98.59    6.28
  -3  -4   7   43.15    3.13
  -3   4   7   40.35    2.40
  -3  -4   7   27.84    2.66
  -3  -4   6  174.65    6.79
  -3   4   6  170.12    6.07
  -3  -4   6  176.97    6.48
  -3  -4   5   32.51    3.22
  -3   4   5   43.66    2.63
  -3  -4   5   30.58    2.22
  -3  -4   4   52.61    3.60
  -3   4   4   51.13    3.05
  -3  -4   4   46.89    2.72
  -3  -4   3   55.98    3.59
  -3   4   3   46.74    2.88
   3  -4  -3   50.14    3.60
  -3  -4   3   49.11    2.50
  -3  -4   2   37.02    3.04
  -3   4   2   19.62    2.08
   3  -4  -2   29.95    2.73
  -3  -4   2   21.65    1.81
  -3  -4   1   22.43    2.70
  -3   4   1   30.67    2.65
   3  -4  -1   23.15    2.62
  -3   4   0   45.32    3.31
   3  -4   0   40.69    7.30
  -3  -4   0   34.94    2.80
  -3  -4  -1  265.68   11.66
  -3   4  -1  256.11   11.18
   3  -4   1  240.01   13.41
  -3  -4  -1  235.93    9.65
  -3  -4  -2   22.78    2.84
  -3   4  -2   25.76    2.64
   3  -4   2   19.40    4.14
  -3  -4  -2   18.31    1.41
  -3  -4  -3   62.60    3.63
  -3   4  -3   63.71    3.69
   3  -4   3   62.34   10.69
  -3  -4  -3   55.99    2.37
  -3  -4  -4   40.02    2.70
  -3   4  -4   25.47    2.51
   3   4   4   41.21    2.04
   3  -4   4   31.63    4.95
  -3  -4  -4   31.72    1.73
  -3  -4  -5  214.39    7.54
  -3   4  -5  208.14    7.44
   3   4   5  193.28    5.88
   3  -4   5  204.14   14.92
  -3  -4  -6   12.18    1.83
  -3   4  -6    8.03    1.67
   3   4   6    8.98    1.86
   3  -4   6   10.48    1.79
  -3  -4  -7   15.55    1.78
  -3   4  -7   24.10    2.73
   3   4   7   11.79    2.52
   3  -4   7   21.17    4.38
  -3  -4  -8   36.88    3.23
  -3   4  -8   42.42    3.91
   3   4   8   21.40    4.50
   3  -4   8   42.20    4.05
  -3  -4  -9   29.89    2.60
  -3   4  -9   26.48    2.39
   3  -4   9   26.84    3.25
   3   4   9   15.61    4.94
  -3  -4 -10   47.61    4.57
  -3   4 -10   43.20    4.72
   3  -4  10   41.46    5.09
   3   4  10   48.39    4.29
  -3  -4 -11   32.71    3.10
  -3   4 -11   35.50    3.91
   3  -4  11   30.27    3.41
  -3  -4 -12   13.48    3.59
  -3   4 -12   14.41    2.78
   3  -4  12   13.45    4.08
  -3   4 -13   12.66    2.79
   3  -4  13   20.60    4.31
  -3   4 -14   14.34    3.27
   3  -4  14    8.19    3.42
  -3  -5  14    7.17    4.45
  -3  -5  14   13.98    4.12
  -3   5  14   11.22    3.50
  -3  -5  13    6.81    2.55
  -3  -5  13    8.92    2.79
  -3   5  13    6.16    2.11
  -3  -5  12    7.28    2.59
  -3  -5  12    7.77    2.97
  -3   5  12   12.88    4.06
  -3  -5  11    6.06    2.16
  -3  -5  11   10.42    3.92
  -3   5  11    8.07    3.21
  -3  -5  10   36.55    3.98
  -3  -5  10   27.16    3.43
  -3  -5   9    0.68    1.57
  -3   5   9    2.42    1.56
  -3  -5   9   -0.96    1.45
  -3  -5   8    9.77    2.99
  -3   5   8    9.02    2.11
  -3  -5   8    9.20    2.42
  -3  -5   7  121.94    7.27
  -3   5   7  116.00    6.50
  -3  -5   7  119.50    6.97
  -3  -5   6   17.64    2.50
  -3   5   6   11.67    1.70
  -3  -5   6   16.04    2.14
  -3  -5   5   16.16    2.59
  -3   5   5   10.47    1.65
  -3  -5   5   19.25    2.11
  -3  -5   4  371.68   12.06
  -3   5   4  361.47   11.18
  -3  -5   4  371.91   11.15
  -3  -5   3   88.73    4.38
  -3   5   3  106.08    4.58
   3  -5  -3   94.46    4.81
  -3  -5   3   92.24    3.63
  -3  -5   2   15.19    2.48
  -3   5   2    6.60    1.51
   3  -5  -2   11.27    2.26
  -3  -5   2    7.85    1.14
  -3  -5   1   12.34    2.19
  -3   5   1   11.44    2.13
   3  -5  -1   13.09    2.67
  -3  -5   1    4.69    0.95
  -3  -5   1   10.62    1.19
  -3  -5   0  119.53    5.14
  -3   5   0  110.80    4.96
   3  -5   0   94.56    8.25
  -3  -5   0   92.16    3.11
  -3  -5   0  100.06    3.30
  -3  -5  -1  118.12    5.33
  -3   5  -1  112.50    4.87
   3  -5   1  105.65   11.10
  -3  -5  -1  111.95    3.52
  -3  -5  -2  319.25   10.42
  -3   5  -2  322.71   10.41
   3  -5   2  308.45   10.22
  -3  -5  -3  654.04   18.80
  -3   5  -3  629.25   18.24
   3  -5   3  621.05   18.48
  -3  -5  -4  180.37    6.76
  -3   5  -4  174.06    7.07
   3  -5   4  160.44    8.54
  -3  -5  -5  526.68   16.09
  -3   5  -5  515.97   15.96
   3   5   5  460.89   12.79
   3  -5   5  487.86   15.69
  -3  -5  -6   27.68    3.89
   3  -5   6   18.61    3.96
  -3  -5  -7    6.80    2.31
  -3   5  -7    3.57    1.95
   3  -5   7    1.79    1.42
  -3  -5  -8    7.97    2.39
  -3   5  -8    2.00    1.66
   3  -5   8    5.09    2.12
  -3  -5  -9   15.56    3.11
  -3   5  -9   20.86    5.77
   3  -5   9   21.22    3.65
  -3  -5 -10   16.79    4.19
  -3   5 -10   10.98    3.30
   3  -5  10   14.66    4.35
  -3  -5 -11    3.21    1.45
  -3   5 -11    5.52    2.33
   3  -5  11    9.86    3.52
  -3   5 -12   30.47    5.46
   3  -5  12   25.00    4.83
  -3   5 -13   12.86    2.92
   3  -5  13   12.93    3.20
  -3   5 -14    7.89    2.84
   3  -5  14   12.11    3.80
  -3  -6  14    2.74    1.89
  -3  -6  14    6.07    3.03
  -3   6  14    5.59    3.00
  -3  -6  13    4.90    2.21
  -3  -6  13    4.47    2.51
  -3   6  13    3.70    1.87
  -3  -6  12    2.25    2.33
  -3  -6  12    1.88    1.63
  -3   6  12    9.40    3.16
  -3  -6  11    0.81    1.65
  -3  -6  11    7.65    2.44
  -3  -6  10   66.06    5.09
  -3  -6  10   47.97    4.22
  -3  -6   9   44.99    3.89
  -3   6   9   37.69    2.75
  -3  -6   9   33.35    3.40
  -3  -6   8   18.69    4.07
  -3   6   8   18.80    3.53
  -3  -6   8   21.75    3.05
  -3  -6   7    7.22    2.65
  -3   6   7    2.85    1.09
  -3  -6   7    6.22    2.28
  -3  -6   6    1.91    1.69
  -3   6   6    8.73    1.86
  -3  -6   6   11.51    2.79
  -3  -6   5   16.87    3.05
  -3   6   5   10.44    1.88
  -3  -6   5   15.07    2.25
  -3  -6   4   33.28    3.14
  -3   6   4   26.70    2.33
  -3  -6   4   23.08    1.87
  -3  -6   3   27.34    3.00
  -3   6   3   27.36    2.48
  -3  -6   3   32.01    1.87
  -3  -6   2    3.22    1.48
  -3   6   2    2.93    2.13
  -3  -6   2    2.69    0.92
  -3  -6   1   29.82    2.65
  -3   6   1   29.13    2.79
   3  -6  -1   28.42    2.84
  -3  -6   1   28.23    1.63
  -3  -6   0   71.74    4.11
  -3   6   0   68.37    3.66
   3  -6   0   63.34    9.03
  -3  -6   0   68.39    2.35
  -3  -6  -1  121.92    5.62
  -3   6  -1  111.40    5.09
   3  -6   1   99.25    8.17
  -3  -6  -2  847.49   83.93
  -3   6  -2  844.30   83.58
   3  -6   2  800.47   23.59
  -3  -6  -3  173.98    6.50
  -3   6  -3  175.16    7.03
   3  -6   3  184.00   13.78
  -3  -6  -4   51.74    3.95
  -3   6  -4   50.41    4.33
   3  -6   4   41.38    8.66
  -3  -6  -5   10.47    2.72
  -3   6  -5    2.10    1.52
   3  -6   5    2.47    1.87
  -3  -6  -6   54.35    3.35
  -3   6  -6   37.44    3.39
   3  -6   6   38.12    6.28
  -3  -6  -7    2.30    1.31
  -3   6  -7    4.97    2.81
   3  -6   7    5.16    1.88
  -3  -6  -8    7.51    2.08
  -3   6  -8    5.23    2.42
   3  -6   8    2.21    1.75
  -3  -6  -9   80.97    5.53
  -3   6  -9   76.58    5.64
   3  -6   9   57.40    6.73
  -3  -6 -10   23.87    3.46
  -3   6 -10   13.71    2.84
   3  -6  10   28.41    4.64
  -3  -6 -11   35.70    5.53
  -3   6 -11   33.67    6.09
   3  -6  11   40.42    6.64
  -3   6 -12    4.62    2.24
   3  -6  12    4.44    1.90
  -3   6 -13   13.12    3.38
  -3  -7  13   10.13    4.25
  -3  -7  13   15.24    4.24
  -3   7  13   26.91    6.35
  -3  -7  12    8.01    3.57
  -3  -7  12    9.45    2.76
  -3   7  12   14.95    3.70
  -3  -7  11    3.09    1.28
  -3  -7  11    3.68    1.57
  -3  -7  10   24.06    5.75
  -3  -7  10   25.50    3.74
  -3  -7   9   80.39    9.71
  -3  -7   9   81.12    8.76
  -3  -7   8   43.40    3.89
  -3   7   8   47.00    3.36
  -3  -7   8   40.77    3.57
  -3  -7   7    5.05    2.39
  -3   7   7    4.81    1.92
  -3  -7   7    5.72    2.11
  -3  -7   6    2.09    2.37
  -3   7   6    5.92    2.11
  -3  -7   6    3.26    1.58
  -3  -7   5   10.60    2.84
  -3   7   5   13.98    2.88
  -3  -7   5   15.02    3.00
  -3  -7   4   16.91    3.64
  -3   7   4   16.77    3.34
  -3  -7   4   21.14    3.93
  -3  -7   3   71.27    5.28
  -3   7   3   78.10    5.09
   3  -7  -3   75.83    5.22
  -3  -7   3   67.69    3.82
  -3   7   2    7.56    2.24
   3  -7  -2    7.73    1.97
  -3  -7   1   60.72    4.50
  -3   7   1   70.62    4.94
   3  -7  -1   54.83    4.09
  -3  -7   0    4.45    2.10
  -3   7   0    7.50    2.35
   3  -7   0    1.05    0.71
  -3  -7  -1    0.54    1.36
  -3   7  -1    2.40    1.39
   3  -7   1    3.11    1.29
  -3  -7  -2  102.09    6.33
  -3   7  -2   94.00    6.06
  -3  -7  -3    5.90    2.05
  -3   7  -3    4.55    1.70
   3  -7   3    4.80    1.56
  -3  -7  -4  100.80    4.26
  -3   7  -4  108.00    5.02
   3  -7   4   73.10   10.27
  -3  -7  -5   48.91    3.37
  -3   7  -5   39.68    3.72
   3  -7   5   29.11    7.44
  -3  -7  -6    5.13    2.11
  -3   7  -6    1.57    1.51
   3  -7   6    4.38    1.44
  -3  -7  -7    8.15    2.70
  -3   7  -7    6.59    2.51
   3  -7   7    6.78    2.85
  -3  -7  -8   18.99    2.41
  -3   7  -8   15.50    4.74
   3  -7   8   12.59    4.75
  -3  -7  -9    5.29    2.26
  -3   7  -9    3.26    1.72
   3  -7   9    2.46    2.08
  -3  -7 -10   17.30    3.26
  -3   7 -10   11.10    3.14
   3  -7  10    6.57    2.63
  -3   7 -11   16.35    3.75
   3  -7  11   19.71    4.50
  -3   7 -12    6.18    2.80
   3  -7  12    2.09    2.60
  -3  -8  12   21.73    9.58
  -3  -8  12   34.06    6.96
  -3   8  12   49.30   10.22
  -3  -8  11   19.82    7.35
  -3  -8  11   37.48    6.05
  -3  -8  10   40.79   12.05
  -3  -8  10   54.46    8.27
  -3  -8   9   39.91    9.85
  -3  -8   9   50.04    7.61
  -3  -8   8   44.27    9.38
  -3  -8   7   48.35    4.28
  -3   8   7   41.82    3.33
  -3  -8   6   44.37    3.99
  -3   8   6   33.16    2.77
  -3  -8   5   18.25    3.92
  -3   8   5   16.30    3.21
  -3  -8   4   40.34    4.50
  -3   8   4   28.70    3.12
  -3  -8   3   24.35    3.47
  -3   8   3   20.53    5.33
   3  -8  -3   19.04    4.21
  -3  -8   2    3.43    1.66
  -3   8   2    4.76    2.28
   3  -8  -2    7.21    2.86
  -3  -8   1    4.69    2.48
  -3   8   1    7.02    2.44
   3  -8  -1    4.94    2.82
  -3  -8   0   38.72    3.07
  -3   8   0   44.07    3.29
   3  -8   0   35.36    8.62
  -3  -8  -1   19.38    4.02
  -3   8  -1   15.17    3.89
   3  -8   1   11.76    3.28
  -3  -8  -2    4.17    1.89
  -3   8  -2    7.08    2.57
   3  -8   2    7.50    2.35
  -3  -8  -3   10.18    2.51
  -3   8  -3   19.46    4.35
   3  -8   3    8.54    4.03
  -3  -8  -4   62.87    5.93
  -3   8  -4   56.15    5.44
   3  -8   4   50.52    9.13
  -3  -8  -5    6.29    2.52
  -3   8  -5    3.78    2.31
   3  -8   5   11.13    4.10
  -3  -8  -6    3.68    1.60
  -3   8  -6    2.49    1.64
   3  -8   6    2.04    1.88
  -3  -8  -7   24.29    3.61
  -3   8  -7   21.83    3.83
  -3  -8  -8    2.98    1.78
   3  -8   8    4.72    2.42
  -3  -8  -9    5.58    1.65
  -3   8  -9    7.48    3.00
   3  -8   9    1.73    1.95
  -3   8 -10   13.02    3.69
   3  -8  10    5.53    2.92
  -3   8 -11   29.61    6.95
   3  -8  11    9.29    4.20
  -3  -9  10   34.45   14.00
  -3  -9   9   12.40    2.85
  -3  -9   8   32.06    9.68
  -3  -9   7   16.79    5.11
  -3   9   6   12.07    3.21
  -3  -9   5    6.99    3.02
  -3   9   5    5.44    1.94
  -3  -9   4   13.47    4.13
  -3   9   4    2.70    1.37
  -3  -9   3    2.22    1.84
  -3   9   3    8.93    2.77
   3  -9  -3    6.26    2.83
  -3  -9   2    3.67    2.46
  -3   9   2    5.16    2.22
   3  -9  -2   13.01    4.21
  -3  -9   1   61.70    4.86
  -3   9   1   50.78    4.14
   3  -9  -1   62.21    5.23
  -3  -9   0   16.54    4.40
  -3   9   0    8.83    2.83
   3  -9   0   20.09    3.24
  -3  -9  -1    4.07    1.85
  -3   9  -1    5.25    2.30
   3  -9   1    4.92    1.73
  -3  -9  -2    5.37    2.52
  -3   9  -2   13.13    3.95
   3  -9   2   10.35    3.42
  -3  -9  -3   10.99    3.80
  -3   9  -3    4.01    1.70
   3  -9   3    5.99    2.43
  -3  -9  -4    3.77    2.31
  -3   9  -4    3.88    2.61
   3  -9   4    3.92    1.36
  -3  -9  -5   80.21    8.90
  -3   9  -5   70.20    8.06
   3  -9   5   42.59   13.51
  -3  -9  -6   36.36    4.69
  -3   9  -6   46.02    6.15
   3  -9   6   22.21    8.57
  -3  -9  -7    8.37    2.16
  -3   9  -7   13.32    3.28
   3  -9   7   14.14    4.54
  -3  -9  -8   -0.09    1.12
  -3   9  -8    2.76    1.91
   3  -9   8    2.50    1.43
  -3   9  -9   14.01    3.34
   3  -9   9    7.13    2.86
  -3   9 -10    2.12    1.71
   3  -9  10    2.22    1.47
  -3 -10   8   16.87    8.24
  -3 -10   7   10.57    3.96
  -3 -10   6   11.11    3.85
  -3  10   6    8.92    2.14
  -3 -10   5   16.11    5.89
  -3  10   5   15.57    3.11
  -3  10   4    4.48    1.86
  -3 -10   3    3.41    2.32
  -3  10   3    3.72    1.32
   3 -10  -3    6.37    2.60
  -3 -10   2   72.00    8.20
  -3  10   2   82.65    9.06
   3 -10  -2   63.47    7.41
  -3 -10   1   36.93    4.96
  -3  10   1   37.37    4.83
   3 -10  -1   43.40    5.84
  -3 -10   0    2.63    1.84
  -3  10   0    0.25    1.28
   3 -10   0    1.38    1.83
  -3 -10  -1   17.62    3.27
  -3  10  -1   14.65    2.91
   3 -10   1    7.58    3.47
  -3 -10  -2    6.20    2.42
  -3  10  -2    0.81    1.43
   3 -10   2    4.41    1.21
  -3 -10  -3    3.80    1.61
  -3  10  -3    7.67    2.47
   3 -10   3    6.47    2.32
  -3  10  -4   11.97    3.42
   3 -10   4    6.88    2.67
  -3 -10  -5    8.01    2.73
  -3  10  -5   13.83    3.39
  -3 -10  -6   24.53    4.43
  -3  10  -6   22.83    4.76
   3 -10   6    8.67    3.91
  -3 -10  -7   22.95    4.92
  -3  10  -7   34.69    7.75
   3 -10   7    9.06    4.10
  -3  10  -8    5.33    3.19
   3 -10   8    1.22    1.73
  -3 -11   5    7.79    4.37
  -3  11   5    8.85    2.99
  -3 -11   4    3.10    1.81
  -3  11   4    3.17    1.41
  -3 -11   3    4.84    1.69
  -3  11   3    7.60    2.44
  -3 -11   2    4.63    2.56
  -3  11   2    7.03    2.01
   3 -11  -2    1.46    1.61
  -3 -11   1    1.29    1.72
  -3  11   1    1.30    1.40
   3 -11  -1    2.34    1.67
  -3 -11   0    2.32    1.45
  -3  11   0    1.68    1.55
   3 -11   0    1.13    1.54
  -3 -11  -1    4.88    2.34
  -3  11  -1    3.77    1.63
   3 -11   1    4.79    1.80
  -3 -11  -2    7.34    2.86
  -3  11  -2   12.00    3.20
   3 -11   2    7.47    2.28
  -3 -11  -3   12.14    4.40
  -3  11  -3   18.88    4.71
   3 -11   3   10.35    4.47
  -3 -11  -4    4.61    2.63
  -3  11  -4   20.28    4.90
   3 -11   4    4.54    2.59
  -3 -11  -5    4.56    3.32
  -3  11  -5   14.57    3.78
   3 -11   5    9.63    4.05
  -4   0  13   22.57    5.74
  -4   0  12    3.06    1.43
  -4   0  12    7.77    2.18
  -4   0  11   16.87    3.21
  -4   0  11    9.11    2.29
  -4   0  10    1.68    1.35
  -4   0  10    6.67    3.50
  -4   0   9    4.76    2.14
  -4   0   9    6.13    2.38
  -4   0   8    7.37    2.75
  -4   0   8    5.12    2.91
  -4   0   7  101.93    8.72
  -4   0   6  247.24    7.07
  -4   0   5    7.74    2.57
  -4   0   4    1.41    1.64
  -4   0   3   21.31    3.54
  -4   0   2   80.31    5.55
  -4   0   1   11.21    2.61
  -4   0   0   71.61    5.43
   4   0   0   62.45    4.75
  -4   0  -1   80.82    5.71
   4   0   1   67.72    4.83
  -4   0  -2    5.75    1.68
   4   0   2    2.08    1.18
   4   0   3   10.62    2.20
  -4   0  -4    3.49    1.89
   4   0   4    1.37    0.97
  -4   0  -5   -0.24    1.56
   4   0   5    0.91    0.90
  -4   0  -6    4.20    2.20
   4   0   6    3.46    1.71
  -4   0  -7   31.10    3.91
   4   0   7   15.42    3.93
  -4   0  -8    8.87    3.32
   4   0   8    6.53    2.48
  -4   0  -9   18.45    3.29
   4   0   9   12.53    5.23
  -4   0 -10    3.96    1.63
   4   0  10    7.84    2.91
  -4   0 -11    5.80    2.03
   4   0  11    2.06    1.49
  -4   0 -12   13.87    2.83
   4   0  12    4.90    3.37
  -4  -1  13    6.17    3.23
  -4   1  13   18.46    4.97
  -4  -1  12    5.02    1.73
  -4   1  12    2.33    2.03
  -4  -1  12    8.02    2.90
  -4  -1  11    2.85    1.78
  -4   1  11    2.02    1.25
  -4  -1  11    9.34    2.88
  -4   1  11    6.54    2.87
  -4  -1  10    7.03    2.40
  -4   1  10    7.48    2.66
  -4  -1  10    9.97    3.14
  -4   1  10    9.64    3.51
  -4  -1   9  102.44    6.77
  -4   1   9  108.18    6.84
  -4   1   9  102.67    7.25
  -4  -1   9  112.93    7.51
  -4  -1   8  295.95   16.19
  -4   1   8  292.99   15.94
  -4  -1   8  322.59   71.76
  -4  -1   7   93.02    8.11
  -4   1   7   81.91    7.13
  -4  -1   7  100.98    8.79
  -4  -1   6  136.31    5.34
  -4   1   6  128.55    4.81
  -4  -1   5  101.35    4.89
  -4   1   5   91.85    4.21
  -4  -1   4   36.23    3.48
  -4   1   4   25.59    3.69
  -4  -1   3   28.47    3.99
  -4   1   3   37.73    3.68
  -4  -1   2   44.62    3.75
  -4   1   2   45.72    3.94
  -4  -1   1   47.52    4.25
  -4   1   1   50.07    3.95
  -4  -1   0  109.86    6.84
  -4   1   0  104.88    6.58
   4  -1   0  106.98    6.72
  -4  -1  -1   36.28    4.12
  -4   1  -1   30.99    4.22
   4  -1   1   31.35    4.10
   4   1   1   32.61    5.89
  -4  -1  -2   31.90    4.28
  -4   1  -2   40.30    3.74
   4   1   2   41.41    3.35
   4  -1   2   33.53    3.51
  -4  -1  -3   10.23    2.51
  -4   1  -3   19.12    3.45
   4  -1   3    4.39    1.52
   4   1   3   10.25    2.03
  -4  -1  -4    1.04    1.49
  -4   1  -4    0.69    1.27
   4   1   4    3.35    1.60
   4  -1   4    1.15    1.54
  -4  -1  -5   21.23    4.52
  -4   1  -5   19.60    4.08
   4  -1   5   16.75    3.70
   4   1   5   14.41    5.03
  -4  -1  -6   11.14    3.10
  -4   1  -6   11.33    3.05
   4   1   6    4.81    1.58
   4  -1   6    4.49    2.07
  -4  -1  -7   34.95    4.11
  -4   1  -7   18.33    3.79
   4  -1   7   18.36    5.29
   4   1   7   12.24    4.21
  -4  -1  -8   45.39    4.04
  -4   1  -8   50.33    4.35
   4  -1   8   28.01    6.72
   4   1   8   26.61    6.93
  -4  -1  -9    2.90    1.63
  -4   1  -9    1.70    1.34
   4  -1   9    2.68    1.74
   4   1   9    1.71    1.08
  -4  -1 -10    9.16    2.44
  -4   1 -10    3.45    1.65
   4  -1  10    7.17    1.76
   4   1  10    2.37    1.66
  -4  -1 -11   27.81    4.64
  -4   1 -11   22.53    4.29
   4   1  11   10.06    6.42
  -4  -1 -12    3.67    2.01
  -4   1 -12    9.30    3.10
   4  -1  12    2.25    1.68
   4   1  12    2.72    2.17
  -4  -2  13   10.64    3.32
  -4   2  13    4.79    3.17
  -4  -2  12    1.03    1.13
  -4  -2  12    1.81    1.75
  -4   2  12    7.78    2.88
  -4  -2  11    5.25    1.93
  -4   2  11    6.64    1.68
  -4  -2  11    5.45    1.99
  -4   2  11   10.75    3.65
  -4  -2  10    9.63    2.84
  -4  -2  10   17.31    3.60
  -4   2  10   16.25    3.57
  -4  -2   9   12.75    3.61
  -4   2   9   19.13    2.91
  -4  -2   9   12.50    3.84
  -4  -2   8    6.75    2.70
  -4   2   8    3.09    1.31
  -4  -2   8   -0.19    1.66
  -4  -2   7   52.35    5.28
  -4   2   7   49.14    4.71
  -4  -2   7   47.46    4.89
  -4  -2   6   35.76    4.23
  -4   2   6   34.66    3.87
  -4  -2   6   36.80    4.19
  -4  -2   5   12.54    3.28
  -4   2   5   20.21    4.15
  -4  -2   4    3.00    2.31
  -4   2   4    3.55    1.74
  -4  -2   3    5.34    2.22
  -4   2   3    3.57    1.61
  -4  -2   2    5.22    1.81
  -4   2   2    5.17    1.97
  -4  -2   1    3.51    2.18
  -4   2   1    4.24    1.92
   4  -2  -1   -1.56    1.43
  -4  -2   0   12.52    3.08
  -4   2   0    5.25    2.20
   4  -2   0    1.41    1.51
  -4  -2  -1   20.94    3.37
  -4   2  -1   14.71    2.68
   4  -2   1   21.61    3.32
  -4  -2  -2   11.01    2.06
  -4   2  -2    6.69    2.18
   4   2   2    6.54    1.89
   4  -2   2    6.64    2.66
  -4  -2  -3   13.69    2.56
  -4   2  -3   19.84    3.65
   4   2   3   10.96    1.89
   4  -2   3    6.58    2.96
  -4  -2  -4    3.35    2.33
  -4   2  -4    3.66    1.76
   4  -2   4    7.23    2.75
  -4  -2  -5   16.79    3.76
  -4   2  -5   18.31    3.97
   4   2   5    8.38    2.25
   4  -2   5   10.17    3.58
  -4  -2  -6   26.12    3.26
  -4   2  -6   34.65    4.26
   4   2   6   13.38    3.44
   4  -2   6   27.32    5.36
  -4  -2  -7   21.49    3.00
  -4   2  -7   28.19    3.41
   4   2   7   12.49    5.72
   4  -2   7   22.06    5.06
  -4  -2  -8   16.73    4.42
  -4   2  -8   20.78    2.93
   4   2   8    5.68    2.33
   4  -2   8   13.81    5.23
  -4  -2  -9   45.37    5.57
  -4   2  -9   49.30    6.13
   4   2   9   14.83    5.54
   4  -2   9   24.09    6.43
  -4  -2 -10   29.11    4.89
  -4   2 -10   30.96    5.43
   4  -2  10   19.37    4.71
   4   2  10   19.38    6.22
  -4  -2 -11    8.43    2.47
  -4   2 -11    6.98    2.18
   4  -2  11    3.76    1.49
  -4  -2 -12   13.58    3.44
  -4   2 -12   14.31    3.65
   4  -2  12    3.42    2.30
  -4  -3  12   12.45    3.25
  -4  -3  12   11.41    3.23
  -4   3  12   27.30    6.62
  -4  -3  11    2.21    1.32
  -4  -3  11    4.43    1.90
  -4   3  11   -0.25    1.93
  -4  -3  10   22.77    4.12
  -4   3  10   16.55    3.16
  -4  -3  10    8.58    2.71
  -4  -3   9   11.55    3.50
  -4   3   9   18.82    3.04
  -4  -3   9    8.11    2.92
  -4  -3   8   55.30    4.90
  -4   3   8   45.05    3.48
  -4  -3   8   48.85    4.31
  -4  -3   7   18.21    2.80
  -4   3   7   16.29    4.33
  -4  -3   7    6.73    2.25
  -4  -3   6   18.34    3.97
  -4   3   6   23.73    2.88
  -4  -3   6   16.82    3.71
  -4  -3   5   30.57    3.26
  -4   3   5   30.77    2.82
  -4  -3   5   28.43    2.39
  -4  -3   4   42.27    3.69
  -4   3   4   38.79    2.74
  -4  -3   4   34.17    2.50
  -4  -3   3   26.65    3.50
  -4   3   3   26.27    2.97
  -4  -3   2   15.75    3.87
  -4   3   2   16.52    3.64
  -4  -3   1   18.35    3.59
  -4   3   1    6.03    1.68
   4  -3  -1   18.00    3.54
  -4  -3   0   11.02    2.63
  -4   3   0    2.67    1.52
   4  -3   0    2.41    1.65
  -4   3  -1  135.48    5.31
   4  -3   1  114.33    7.32
  -4  -3  -2   66.70    3.53
  -4   3  -2   74.88    4.07
   4  -3   2   59.75    9.77
  -4  -3  -3  108.61    4.85
  -4   3  -3  102.41    4.56
   4  -3   3   86.60   10.70
  -4  -3  -4   49.89    3.50
  -4   3  -4   44.30    3.32
   4   3   4   37.33    2.41
   4  -3   4   30.50    7.33
  -4  -3  -5   70.97    6.33
   4   3   5   64.25    5.44
   4  -3   5   37.71   11.81
  -4  -3  -6  121.37   10.07
  -4   3  -6  132.01   11.04
   4   3   6   80.43    9.38
   4  -3   6  100.98   13.46
  -4  -3  -7    3.49    1.66
  -4   3  -7   -0.79    1.52
   4   3   7    1.77    0.77
   4  -3   7   -0.09    1.41
  -4  -3  -8   23.50    3.62
  -4   3  -8   19.59    3.58
   4  -3   8    7.70    3.73
  -4  -3  -9    5.79    2.61
  -4   3  -9    1.36    1.84
   4  -3   9    2.24    1.48
  -4  -3 -10    7.40    1.98
  -4   3 -10    9.08    2.46
   4  -3  10    4.92    2.46
  -4  -3 -11    3.83    1.34
  -4   3 -11    2.49    2.00
   4  -3  11    0.19    1.13
  -4  -3 -12    2.08    1.28
  -4   3 -12    2.35    2.03
   4  -3  12    3.44    2.38
  -4  -4  12   13.41    3.28
  -4  -4  12    7.23    3.13
  -4   4  12    9.94    3.71
  -4  -4  11   24.05    4.47
  -4  -4  11   27.53    5.29
  -4   4  11   21.01    4.73
  -4  -4  10   21.11    4.05
  -4  -4  10   22.62    4.45
  -4  -4   9   20.59    3.22
  -4   4   9   28.85    3.91
  -4  -4   9   30.77    4.66
  -4  -4   8    2.22    1.60
  -4   4   8    4.17    1.45
  -4  -4   8    7.92    2.76
  -4  -4   7    6.23    2.65
  -4   4   7    3.03    1.77
  -4  -4   7    1.01    1.78
  -4  -4   6   29.60    3.33
  -4   4   6   11.22    3.21
  -4  -4   6   18.04    2.71
  -4  -4   5   13.06    3.34
  -4   4   5   16.04    3.38
  -4  -4   5   22.26    2.67
  -4  -4   4   -0.26    1.73
  -4  -4   4    6.23    2.18
  -4  -4   3  126.69    5.52
  -4   4   3  119.94    4.80
  -4  -4   3  117.15    4.12
  -4  -4   2   11.18    3.36
  -4   4   2    3.89    1.69
   4  -4  -2    8.32    3.44
  -4  -4   1    6.83    2.60
  -4   4   1    7.00    3.22
   4  -4  -1    7.93    2.81
  -4  -4   0    3.38    1.65
  -4   4   0    8.15    3.10
   4  -4   0    8.03    3.02
  -4  -4  -1    7.25    2.79
  -4   4  -1    1.01    1.59
   4  -4   1    2.69    2.61
  -4  -4  -2    5.73    1.98
  -4   4  -2   15.72    3.93
   4  -4   2   11.02    3.68
  -4  -4  -3   56.44    5.87
  -4   4  -3   43.65    4.56
   4  -4   3   38.60    8.71
  -4  -4  -4  217.73   51.28
  -4   4  -4  200.61   15.88
   4  -4   4  188.04   16.74
  -4  -4  -5    5.39    2.37
  -4   4  -5    2.04    1.44
   4  -4   5    7.72    2.37
  -4  -4  -6    7.71    2.76
  -4   4  -6    9.77    3.23
   4  -4   6    3.68    2.73
  -4  -4  -7   49.29    6.12
  -4   4  -7   43.31    5.49
   4  -4   7   39.69   10.17
  -4  -4  -8   14.47    2.62
  -4   4  -8   19.09    3.47
   4  -4   8    9.95    4.73
  -4  -4  -9   16.56    3.31
  -4   4  -9   25.11    4.76
   4  -4   9   12.19    3.99
  -4  -4 -10    3.14    1.83
  -4   4 -10    5.41    1.73
   4  -4  10    9.65    3.93
  -4  -4 -11    6.10    2.30
  -4   4 -11   18.25    4.46
  -4  -5  11    7.30    2.78
  -4  -5  11   13.28    3.91
  -4  -5  10    6.29    2.32
  -4  -5  10   10.20    3.10
  -4  -5   9   12.58    3.30
  -4   5   9    6.50    1.70
  -4  -5   9    8.00    2.33
  -4  -5   8    3.80    2.41
  -4   5   8    9.96    3.10
  -4  -5   8    6.16    2.35
  -4  -5   7   11.17    3.48
  -4   5   7    8.23    2.64
  -4  -5   7    8.11    2.58
  -4  -5   6    7.04    2.74
  -4   5   6    8.53    2.72
  -4  -5   6    8.23    2.90
  -4  -5   5   23.37    3.20
  -4   5   5   22.16    2.83
  -4  -5   5   14.28    3.81
  -4  -5   4    5.89    2.17
  -4   5   4    2.44    1.34
  -4  -5   4    2.36    1.70
  -4  -5   3    6.38    2.06
  -4   5   3    2.06    1.35
  -4  -5   3    1.41    0.91
  -4  -5   2   30.30    3.83
  -4   5   2   39.08    4.28
   4  -5  -2   38.28    4.54
  -4  -5   2   33.16    3.25
  -4  -5   1   15.25    3.35
  -4   5   1    7.15    1.99
   4  -5  -1   20.09    5.91
  -4  -5   0    0.75    1.59
  -4   5   0    5.87    2.26
   4  -5   0    3.23    2.36
  -4  -5  -1    1.81    1.68
  -4   5  -1    4.67    2.49
   4  -5   1   -0.20    1.51
  -4  -5  -2   48.10    5.42
  -4   5  -2   49.23    4.88
   4  -5   2   43.51   10.59
  -4  -5  -3   31.36    3.76
  -4   5  -3   32.06    4.01
   4  -5   3   22.44    5.86
  -4  -5  -4   52.61    5.26
  -4   5  -4   35.64    3.48
   4  -5   4   22.78    6.04
  -4  -5  -5   34.65    3.50
  -4   5  -5   35.04    3.73
   4  -5   5   19.23    3.38
  -4  -5  -6   26.22    3.76
  -4   5  -6   16.32    3.19
   4  -5   6   12.37    4.34
  -4  -5  -7   11.26    3.22
  -4   5  -7    9.15    2.90
   4  -5   7    6.15    3.17
  -4  -5  -8    5.08    2.09
  -4   5  -8    1.88    1.64
   4  -5   8    2.48    1.15
  -4  -5  -9    3.09    1.86
  -4   5  -9    3.58    1.78
   4  -5   9    5.77    2.56
  -4  -5 -10    1.40    1.30
  -4   5 -10    1.93    1.85
   4  -5  10    4.43    2.87
  -4  -5 -11    2.37    1.79
  -4   5 -11    0.41    1.63
   4  -5  11    2.63    1.89
  -4  -6  10    6.54    2.81
  -4  -6  10    3.22    1.69
  -4  -6   9    5.05    1.64
  -4  -6   9    1.49    1.85
  -4  -6   8   24.85    4.87
  -4   6   8    5.31    1.61
  -4  -6   8   13.73    2.94
  -4  -6   7   13.00    3.18
  -4   6   7    3.10    1.58
  -4  -6   6    2.69    2.59
  -4   6   6    3.53    1.71
  -4  -6   5   32.59    4.71
  -4   6   5   27.00    3.73
  -4  -6   4    9.23    3.33
  -4   6   4   11.45    3.32
  -4  -6   3   75.11    5.63
  -4   6   3   63.64    4.77
  -4  -6   2   11.06    3.43
  -4   6   2   17.36    4.47
   4  -6  -2   20.46    3.14
  -4   6   1   24.83    2.84
   4  -6  -1   24.17    3.40
  -4  -6   0   33.22    4.65
  -4   6   0   24.06    3.07
   4  -6   0   22.80    3.30
  -4  -6  -1   12.25    3.72
  -4   6  -1    6.65    2.63
   4  -6   1   15.46    4.62
  -4  -6  -2    7.23    2.43
  -4   6  -2    3.93    2.33
   4  -6   2    7.23    3.34
  -4  -6  -3   13.24    3.96
  -4   6  -3    5.99    2.67
   4  -6   3   11.44    4.40
  -4  -6  -4   46.69    6.12
  -4   6  -4   41.24    5.37
   4  -6   4   26.62    8.17
  -4  -6  -5   63.86    7.33
  -4   6  -5   61.61    7.36
   4  -6   5   35.88   12.49
  -4  -6  -6   14.08    3.19
  -4   6  -6    8.46    3.04
   4  -6   6    9.75    3.29
  -4  -6  -7    2.22    1.55
   4  -6   7    2.01    1.14
  -4  -6  -8    8.74    2.69
  -4   6  -8   10.86    2.90
   4  -6   8    5.93    2.45
  -4  -6  -9    0.02    1.38
  -4   6  -9   -0.48    1.65
   4  -6   9    5.99    3.11
  -4  -6 -10    1.79    1.75
  -4   6 -10    8.55    3.07
   4  -6  10    4.19    1.64
  -4  -7   9    2.46    1.75
  -4  -7   8   21.51    4.34
  -4  -7   7    5.35    2.44
  -4   7   7    5.61    2.44
  -4  -7   6    8.21    2.51
  -4   7   6    6.67    2.11
  -4  -7   5    8.74    2.54
  -4   7   5   12.38    2.81
  -4  -7   4   34.10    5.21
  -4   7   4   29.13    3.85
  -4  -7   3    3.47    1.91
  -4   7   3    3.27    1.46
  -4  -7   2   40.22    5.38
  -4   7   2   23.43    3.72
   4  -7  -2   27.82    4.39
  -4  -7   1   14.61    3.49
  -4   7   1    8.21    2.79
   4  -7  -1    0.66    1.86
  -4  -7   0    1.62    1.58
  -4   7   0    6.41    2.97
   4  -7   0   12.33    4.33
  -4  -7  -1   31.47    4.30
  -4   7  -1   40.57    5.42
   4  -7   1   26.79    4.42
  -4  -7  -2    8.56    3.22
  -4   7  -2    9.36    3.04
   4  -7   2    8.70    3.17
  -4  -7  -3   74.65    8.58
  -4   7  -3   90.97   10.18
  -4  -7  -4   95.02   13.80
  -4   7  -4   80.58   11.78
   4  -7   4   67.65   13.82
  -4  -7  -5   74.02   11.01
  -4   7  -5   70.58   10.69
   4  -7   5   25.75   11.45
  -4  -7  -6   27.11    5.47
  -4   7  -6   21.04    5.03
   4  -7   6   14.54    4.73
  -4  -7  -7    5.72    2.64
  -4   7  -7    9.07    2.92
   4  -7   7    2.94    1.80
  -4  -7  -8    7.09    3.32
  -4   7  -8    3.00    1.85
   4  -7   8   -0.52    1.59
  -4  -8   7    3.00    1.98
  -4  -8   6    0.60    1.63
  -4   8   6    2.05    1.26
  -4  -8   5    5.81    1.96
  -4   8   5    9.63    2.50
  -4  -8   4    6.33    3.10
  -4   8   4    2.96    1.58
  -4  -8   3    6.26    1.95
  -4   8   3    3.70    1.49
  -4  -8   2    2.83    2.20
  -4   8   2    2.87    1.48
   4  -8  -2    1.58    1.70
  -4  -8   1    5.51    2.01
  -4   8   1    2.61    1.46
  -4  -8   0    8.58    2.76
  -4   8   0   14.55    3.51
   4  -8   0   19.25    3.98
  -4  -8  -1   30.72    5.53
  -4   8  -1   26.35    4.58
   4  -8   1   16.46    4.15
  -4  -8  -2   65.74    9.88
   4  -8   2   40.96   12.70
  -4  -8  -3   42.91    6.89
  -4   8  -3   49.80    7.98
   4  -8   3   27.64    8.73
  -4  -8  -4   25.71    4.55
  -4   8  -4   28.64    5.19
   4  -8   4   16.92    5.72
  -4  -8  -5    7.71    2.43
  -4   8  -5    3.04    1.68
   4  -8   5    9.05    3.27
  -4  -8  -6    4.30    2.22
  -4   8  -6    2.82    1.86
   4  -8   6    4.22    2.76
  -4  -8  -7   24.79    5.52
  -4   8  -7   17.04    4.93
   4  -8   7    7.17    3.72
  -4  -9   5   12.41    3.55
  -4   9   5    8.65    2.96
  -4  -9   4    6.10    3.12
  -4   9   4    2.71    1.45
  -4   9   3    2.02    1.43
  -4  -9   2    3.46    1.79
  -4   9   2    9.21    3.16
   4  -9  -2    5.60    2.85
  -4  -9   1    3.27    1.74
  -4   9   1    1.07    1.45
   4  -9  -1    5.32    2.56
  -4  -9   0    4.77    1.94
  -4   9   0    0.71    1.48
   4  -9   0    1.69    1.70
  -4  -9  -1   17.92    4.54
  -4   9  -1   14.50    3.64
   4  -9   1    9.06    3.24
  -4  -9  -2    1.82    1.71
  -4   9  -2    2.06    1.76
   4  -9   2   10.24    3.75
  -4  -9  -3   36.37    7.58
  -4   9  -3   30.97    6.49
   4  -9   3   13.86    7.88
  -4  -9  -4    3.02    1.92
  -4   9  -4    3.50    2.53
  -5   0   8    1.09    1.59
  -5   0   8    5.50    2.31
  -5   0   7   75.42   14.50
  -5   0   6   17.22    3.34
  -5   0   5   78.61   11.79
  -5   0   4    5.38    2.58
  -5   0   3    7.00    1.93
  -5   0   2   12.11    3.42
  -5   0   1    5.21    1.85
  -5   0   0    4.03    2.32
  -5   0  -1   11.15    3.03
  -5   0  -2    3.76    1.65
   5   0   2    2.70    1.74
  -5   0  -3    5.27    2.28
   5   0   3    6.56    1.98
  -5   0  -4   12.54    3.24
   5   0   4   16.72    3.35
  -5   0  -5    9.33    2.97
   5   0   5    6.09    1.73
  -5   0  -6    5.56    1.96
   5   0   6    2.38    1.55
  -5   0  -7   15.39    4.21
   5   0   7    7.04    3.67
  -5  -1   8   28.44    6.16
  -5   1   8   29.13    6.38
  -5  -1   8   14.40    3.65
  -5  -1   7    9.54    3.32
  -5   1   7    4.65    1.94
  -5  -1   7   20.60    5.25
  -5  -1   6   32.76    5.77
  -5   1   6   28.31    5.34
  -5  -1   5   17.16    3.48
  -5   1   5   25.00    4.56
  -5  -1   4   35.47    6.27
  -5   1   4   44.43    7.30
  -5   1   3   20.41    4.07
  -5  -1   3   23.84    4.60
  -5  -1   2    1.02    1.64
  -5   1   2    7.81    2.34
  -5   1   1    5.82    2.42
  -5  -1   0    4.48    1.85
  -5   1   0    1.44    1.50
  -5  -1  -1   26.45    4.93
  -5   1  -1   31.75    5.80
   5  -1   1   21.39    4.09
  -5  -1  -2   12.41    3.49
  -5   1  -2    4.82    2.48
   5  -1   2   14.05    3.43
  -5   1  -3   23.87    4.82
  -5  -1  -3   22.61    4.31
   5  -1   3   10.91    2.97
   5   1   3   13.17    2.86
  -5  -1  -4   50.39    8.22
   5  -1   4   46.29    7.18
  -5  -1  -5    4.08    1.76
  -5   1  -5    6.24    2.44
   5  -1   5    3.86    1.42
   5   1   5    2.50    1.54
  -5  -1  -6   51.60    8.30
  -5   1  -6   32.15    5.65
   5  -1   6   15.05    6.97
   5   1   6   21.67    4.12
  -5  -1  -7    7.53    3.11
  -5   1  -7   16.01    4.14
   5  -1   7    5.18    2.99
  -5  -2   8    5.48    2.23
  -5   2   8    8.14    3.19
  -5  -2   8    2.95    1.81
  -5  -2   7    3.15    1.87
  -5   2   7    5.29    2.41
  -5  -2   7    5.73    2.24
  -5  -2   6  103.29   26.43
  -5   2   6   83.58   12.30
  -5  -2   6   79.72   11.82
  -5  -2   5   48.34    7.70
  -5   2   5   47.94    7.68
  -5  -2   4    7.66    2.58
  -5   2   4    4.37    2.25
  -5  -2   3    7.68    2.54
  -5   2   3   11.44    2.69
  -5  -2   2    9.27    2.63
  -5   2   2   18.00    3.93
  -5  -2   1    3.06    1.61
  -5   2   1    4.26    1.59
  -5  -2   0   12.06    3.01
  -5   2   0    7.36    1.88
  -5  -2  -1   18.04    3.81
  -5   2  -1   14.14    3.22
   5  -2   1    9.33    2.57
  -5   2  -2    8.00    1.96
   5  -2   2    5.53    1.77
  -5  -2  -3   16.16    3.48
  -5   2  -3   16.80    3.50
   5  -2   3   25.32    4.85
  -5  -2  -4   45.38    7.30
  -5   2  -4   62.48    9.58
   5  -2   4   55.26    8.64
  -5  -2  -5   38.84    6.55
  -5   2  -5   35.27    6.11
   5  -2   5   12.61    4.81
  -5  -2  -6    3.71    2.01
  -5   2  -6    4.11    2.41
   5  -2   6    1.89    1.79
  -5  -2  -7   10.47    3.13
  -5   2  -7   18.24    4.47
   5  -2   7    6.44    2.88
  -5  -3   7   26.47    6.04
  -5   3   7   21.89    4.77
  -5  -3   7   27.46    6.18
  -5  -3   6    4.88    2.70
  -5   3   6    4.94    1.91
  -5  -3   6    1.70    1.52
  -5  -3   5    0.36    1.61
  -5   3   5    6.03    2.11
  -5  -3   5    8.51    2.67
  -5  -3   4    4.24    1.84
  -5   3   4    6.70    2.54
  -5  -3   4    0.58    1.24
  -5  -3   3    3.65    1.74
  -5   3   3    1.57    1.50
  -5  -3   2   18.77    4.09
  -5   3   2   21.51    4.11
  -5  -3   1   41.74    6.94
  -5  -3   0   31.27    5.75
  -5   3   0   21.23    4.15
   5  -3   0   12.39    2.99
  -5  -3  -1    4.57    2.45
  -5   3  -1    0.14    1.60
   5  -3   1    2.21    1.59
  -5  -3  -2    2.89    2.30
  -5   3  -2    9.01    2.65
   5  -3   2    7.37    2.38
  -5  -3  -3    9.96    3.02
  -5   3  -3    9.61    3.04
   5  -3   3    8.28    2.61
  -5  -3  -4    9.33    2.92
  -5   3  -4    3.41    1.89
   5  -3   4    2.84    1.55
  -5  -3  -5   27.13    6.17
  -5   3  -5   24.22    5.57
   5  -3   5    8.48    4.21
  -5  -3  -6   20.83    4.89
  -5   3  -6   10.07    3.07
   5  -3   6    4.94    2.69
  -5  -4   6    5.58    3.54
  -5   4   6    3.70    1.77
  -5  -4   5    6.96    2.84
  -5   4   5   10.46    3.17
  -5  -4   4    6.49    2.66
  -5   4   4    2.55    1.54
  -5  -4   3   15.03    3.70
  -5   4   3    8.46    2.41
  -5  -4   2    9.02    3.55
  -5   4   2    5.06    2.07
  -5  -4   1    1.98    1.74
  -5   4   1    1.30    2.27
  -5  -4   0    3.20    1.96
  -5   4   0    4.53    2.78
   5  -4   0    4.05    2.83
  -5  -4  -1    2.02    1.70
  -5   4  -1    3.36    1.76
   5  -4   1    4.02    2.17
  -5  -4  -2    7.16    2.53
   5  -4   2    5.63    2.16
  -5  -4  -3   10.73    3.55
  -5   4  -3    4.12    1.67
   5  -4   3    2.33    2.14
  -5  -4  -4    6.52    3.47
  -5   4  -4    5.49    2.88
   5  -4   4    4.16    2.47
  -5  -4  -5    0.80    1.76
  -5   4  -5    7.23    3.14
   5  -4   5    3.39    1.51
  -5  -5   4    3.99    2.48
  -5   5   4    6.43    2.54
  -5  -5   3    6.49    2.96
  -5   5   3    1.69    2.44
  -5  -5   2   17.98    4.43
  -5   5   2   17.94    4.14
  -5  -5   1    5.33    2.44
  -5   5   1    1.51    1.48
  -5   5   0    3.21    2.45
   5  -5   0   -0.29    1.54
  -5  -5  -1   -0.33    1.65
  -5   5  -1    3.75    1.82
   5  -5   1    6.99    3.00
  -5  -5  -2    2.45    1.92
  -5   5  -2    3.44    2.60
   5  -5   2   -0.06    1.67
  -5  -5  -3    7.52    3.78
  -5   5  -3    7.39    3.32
   5  -5   3    1.21    2.42
  -5  -5  -4    5.58    2.91
  -5   5  -4    3.42    1.80

_computing_structure_solution     'SHELXT 2014/4 (Sheldrick, 2014)'
;
_shelx_hkl_checksum              852
_shelx_shelxl_version_number     2014/7
_olex2_submission_special_instructions 'No special instructions were received'
loop_
_space_group_symop_operation_xyz
'x, y, z'
'-x, y+1/2, -z'
loop_
_atom_site_label
_atom_site_type_symbol
_atom_site_fract_x
_atom_site_fract_y
_atom_site_fract_z
_atom_site_U_iso_or_equiv
_atom_site_adp_type
_atom_site_occupancy
_atom_site_site_symmetry_order
_atom_site_calc_flag
_atom_site_refinement_flags_posn
O1 O 1.1209(7) 0.3431(3) 0.89636(19) 0.0357(7) Uani 1 1 d .
O2 O 0.0378(7) 0.8922(3) 0.93291(19) 0.0351(7) Uani 1 1 d .
H2 H -0.0163 0.8785 0.9849 0.053 Uiso 1 1 calc GR
O3 O 1.3672(10) 0.3923(4) 0.3905(2) 0.0559(10) Uani 1 1 d .
H3 H 1.3283 0.4531 0.3591 0.084 Uiso 1 1 calc GR
O5 O 1.2859(10) 0.5824(5) 0.2851(3) 0.0729(13) Uani 1 1 d .
H5A H 1.1542 0.5613 0.2439 0.109 Uiso 1 1 d R
H5B H 1.4302 0.5710 0.2470 0.109 Uiso 1 1 d R
C1 C 1.0091(9) 0.4137(4) 0.8367(3) 0.0311(9) Uani 1 1 d .
C2 C 0.8207(9) 0.5144(4) 0.8122(2) 0.0290(8) Uani 1 1 d .
C3 C 0.9897(9) 0.4530(4) 0.7462(3) 0.0319(9) Uani 1 1 d .
C4 C 0.6143(9) 0.6111(4) 0.8398(3) 0.0289(8) Uani 1 1 d .
C5 C 0.5263(9) 0.6145(4) 0.9312(3) 0.0302(9) Uani 1 1 d .
H5 H 0.6009 0.5536 0.9706 0.036 Uiso 1 1 calc R
C6 C 0.3344(9) 0.7050(4) 0.9631(3) 0.0318(9) Uani 1 1 d .
H6 H 0.2759 0.7048 1.0234 0.038 Uiso 1 1 calc R
C7 C 0.2260(10) 0.7983(4) 0.9044(3) 0.0312(9) Uani 1 1 d .
C8 C 0.3063(10) 0.7954(4) 0.8133(3) 0.0338(9) Uani 1 1 d .
H8 H 0.2293 0.8558 0.7739 0.041 Uiso 1 1 calc R
C9 C 0.4988(10) 0.7035(4) 0.7818(3) 0.0316(9) Uani 1 1 d .
H9 H 0.5529 0.7027 0.7212 0.038 Uiso 1 1 calc R
C10 C 1.0850(9) 0.4421(4) 0.6542(3) 0.0308(9) Uani 1 1 d .
C11 C 1.2642(10) 0.3397(4) 0.6287(3) 0.0357(9) Uani 1 1 d .
H11 H 1.3220 0.2806 0.6716 0.043 Uiso 1 1 calc R
C12 C 1.3560(11) 0.3260(5) 0.5401(3) 0.0410(11) Uani 1 1 d .
H12 H 1.4752 0.2578 0.5235 0.049 Uiso 1 1 calc R
C13 C 1.2709(11) 0.4134(5) 0.4764(3) 0.0397(10) Uani 1 1 d .
C14 C 1.0948(11) 0.5157(5) 0.5002(3) 0.0394(10) Uani 1 1 d .
H14 H 1.0395 0.5747 0.4569 0.047 Uiso 1 1 calc R
C15 C 1.0019(10) 0.5294(4) 0.5884(3) 0.0358(10) Uani 1 1 d .
H15 H 0.8822 0.5978 0.6043 0.043 Uiso 1 1 calc R
O4 O 0.7708(9) 0.6093(3) 0.1660(2) 0.0485(9) Uani 1 1 d .
H4A H 0.8231 0.6803 0.1390 0.073 Uiso 1 1 d R
H4B H 0.8061 0.5528 0.1231 0.073 Uiso 1 1 d R
loop_
_atom_site_aniso_label
_atom_site_aniso_U_11
_atom_site_aniso_U_22
_atom_site_aniso_U_33
_atom_site_aniso_U_23
_atom_site_aniso_U_13
_atom_site_aniso_U_12
O1 0.0506(18) 0.0292(16) 0.0271(14) 0.0033(12) 0.0016(12) 0.0037(13)
O2 0.0443(16) 0.0319(16) 0.0293(14) 0.0017(13) 0.0064(12) 0.0017(13)
O3 0.075(2) 0.064(2) 0.0296(16) -0.0055(16) 0.0124(16) 0.006(2)
O5 0.079(3) 0.084(3) 0.055(2) -0.007(2) 0.005(2) 0.000(3)
C1 0.037(2) 0.029(2) 0.0276(19) -0.0018(16) 0.0006(15) -0.0038(17)
C2 0.034(2) 0.029(2) 0.0242(19) -0.0019(16) -0.0001(15) -0.0070(16)
C3 0.035(2) 0.030(2) 0.031(2) 0.0010(17) 0.0017(16) -0.0073(17)
C4 0.0301(19) 0.029(2) 0.028(2) -0.0007(16) 0.0011(15) -0.0042(17)
C5 0.0323(19) 0.032(2) 0.026(2) 0.0035(17) -0.0005(15) -0.0031(17)
C6 0.034(2) 0.039(2) 0.0222(18) 0.0025(18) 0.0012(15) -0.0006(18)
C7 0.0326(19) 0.030(2) 0.031(2) -0.0023(17) 0.0026(16) -0.0056(17)
C8 0.040(2) 0.032(2) 0.029(2) 0.0041(18) -0.0007(17) 0.0013(18)
C9 0.039(2) 0.033(2) 0.0232(18) 0.0029(17) 0.0010(15) -0.0063(18)
C10 0.034(2) 0.033(2) 0.0244(19) -0.0014(16) 0.0008(15) -0.0030(17)
C11 0.044(2) 0.033(2) 0.030(2) -0.0019(18) 0.0013(17) -0.0011(19)
C12 0.047(3) 0.039(3) 0.037(2) -0.006(2) 0.004(2) 0.004(2)
C13 0.044(2) 0.048(3) 0.027(2) -0.005(2) 0.0034(17) -0.006(2)
C14 0.049(2) 0.041(3) 0.028(2) 0.0064(18) 0.0020(17) 0.002(2)
C15 0.041(2) 0.034(2) 0.032(2) 0.0022(18) 0.0028(17) 0.0045(18)
O4 0.072(2) 0.0382(19) 0.0356(17) 0.0028(14) 0.0082(15) -0.0066(16)
loop_
_atom_type_symbol
_atom_type_description
_atom_type_scat_dispersion_real
_atom_type_scat_dispersion_imag
_atom_type_scat_source
C C 0.0033 0.0016 'International Tables Vol C Tables 4.2.6.8 and 6.1.1.4'
H H 0.0000 0.0000 'International Tables Vol C Tables 4.2.6.8 and 6.1.1.4'
O O 0.0106 0.0060 'International Tables Vol C Tables 4.2.6.8 and 6.1.1.4'
loop_
_geom_angle_atom_site_label_1
_geom_angle_atom_site_label_2
_geom_angle_atom_site_label_3
_geom_angle
C7 O2 H2 109.5
C13 O3 H3 109.5
H5A O5 H5B 87.8
O1 C1 C2 150.0(4)
O1 C1 C3 150.4(4)
C2 C1 C3 59.6(3)
C1 C2 C4 148.1(4)
C3 C2 C1 60.6(3)
C3 C2 C4 151.4(4)
C1 C3 C10 150.2(4)
C2 C3 C1 59.8(3)
C2 C3 C10 149.9(4)
C5 C4 C2 118.0(3)
C9 C4 C2 123.7(4)
C9 C4 C5 118.2(4)
C4 C5 H5 119.2
C6 C5 C4 121.5(4)
C6 C5 H5 119.2
C5 C6 H6 120.3
C5 C6 C7 119.5(4)
C7 C6 H6 120.3
O2 C7 C6 122.0(4)
O2 C7 C8 118.1(4)
C8 C7 C6 119.8(4)
C7 C8 H8 119.9
C9 C8 C7 120.2(4)
C9 C8 H8 119.9
C4 C9 H9 119.6
C8 C9 C4 120.7(4)
C8 C9 H9 119.6
C11 C10 C3 119.2(4)
C15 C10 C3 122.2(4)
C15 C10 C11 118.6(4)
C10 C11 H11 119.8
C12 C11 C10 120.4(4)
C12 C11 H11 119.8
C11 C12 H12 120.0
C13 C12 C11 120.0(4)
C13 C12 H12 120.0
O3 C13 C12 116.3(4)
O3 C13 C14 123.0(4)
C12 C13 C14 120.6(4)
C13 C14 H14 120.2
C15 C14 C13 119.5(4)
C15 C14 H14 120.2
C10 C15 H15 119.6
C14 C15 C10 120.9(4)
C14 C15 H15 119.6
H4A O4 H4B 102.7
loop_
_geom_bond_atom_site_label_1
_geom_bond_atom_site_label_2
_geom_bond_distance
O1 C1 1.253(5)
O2 H2 0.8200
O2 C7 1.365(5)
O3 H3 0.8200
O3 C13 1.362(5)
O5 H5A 0.8499
O5 H5B 0.8500
C1 C2 1.395(6)
C1 C3 1.405(5)
C2 C3 1.392(6)
C2 C4 1.429(6)
C3 C10 1.433(5)
C4 C5 1.410(5)
C4 C9 1.399(6)
C5 H5 0.9300
C5 C6 1.364(6)
C6 H6 0.9300
C6 C7 1.403(6)
C7 C8 1.397(6)
C8 H8 0.9300
C8 C9 1.375(6)
C9 H9 0.9300
C10 C11 1.399(6)
C10 C15 1.395(6)
C11 H11 0.9300
C11 C12 1.383(6)
C12 H12 0.9300
C12 C13 1.376(7)
C13 C14 1.384(7)
C14 H14 0.9300
C14 C15 1.380(6)
C15 H15 0.9300
O4 H4A 0.8951
O4 H4B 0.8950
loop_
_geom_hbond_atom_site_label_D
_geom_hbond_atom_site_label_H
_geom_hbond_atom_site_label_A
_geom_hbond_distance_DH
_geom_hbond_distance_HA
_geom_hbond_distance_DA
_geom_hbond_angle_DHA
_geom_hbond_site_symmetry_A
O2 H2 O1 0.82 1.86 2.680(4) 177.2 2_657
O3 H3 O5 0.82 1.78 2.598(6) 173.5 .
O5 H5A O4 0.85 2.04 2.797(6) 147.4 .
O5 H5B O4 0.85 1.94 2.754(5) 159.2 1_655
O4 H4A O1 0.90 1.85 2.731(5) 167.1 2_756
O4 H4B O2 0.89 2.04 2.890(5) 158.2 2_646
loop_
_geom_torsion_atom_site_label_1
_geom_torsion_atom_site_label_2
_geom_torsion_atom_site_label_3
_geom_torsion_atom_site_label_4
_geom_torsion
O1 C1 C2 C3 177.5(8)
O1 C1 C2 C4 -0.4(13)
O1 C1 C3 C2 -177.5(8)
O1 C1 C3 C10 -0.5(14)
O2 C7 C8 C9 179.1(4)
O3 C13 C14 C15 178.9(4)
C1 C2 C3 C10 -177.0(8)
C1 C2 C4 C5 -5.4(9)
C1 C2 C4 C9 173.6(6)
C1 C3 C10 C11 10.5(10)
C1 C3 C10 C15 -170.3(7)
C2 C1 C3 C10 177.0(8)
C2 C3 C10 C11 -174.7(6)
C2 C3 C10 C15 4.5(10)
C2 C4 C5 C6 178.9(4)
C2 C4 C9 C8 -178.6(4)
C3 C1 C2 C4 -177.9(7)
C3 C2 C4 C5 178.5(7)
C3 C2 C4 C9 -2.6(10)
C3 C10 C11 C12 179.2(4)
C3 C10 C15 C14 -179.4(4)
C4 C2 C3 C1 177.7(8)
C4 C2 C3 C10 0.7(14)
C4 C5 C6 C7 -1.2(6)
C5 C4 C9 C8 0.4(6)
C5 C6 C7 O2 -178.9(4)
C5 C6 C7 C8 2.2(6)
C6 C7 C8 C9 -1.9(6)
C7 C8 C9 C4 0.6(6)
C9 C4 C5 C6 -0.1(6)
C10 C11 C12 C13 0.0(7)
C11 C10 C15 C14 -0.2(6)
C11 C12 C13 O3 -179.2(4)
C11 C12 C13 C14 0.3(7)
C12 C13 C14 C15 -0.5(7)
C13 C14 C15 C10 0.5(7)
C15 C10 C11 C12 0.0(6)
