#------------------------------------------------------------------------------
#$Date: 2019-11-25 20:28:59 +0200 (Mon, 25 Nov 2019) $
#$Revision: 241741 $
#$URL: file:///home/coder/svn-repositories/cod/cif/4/13/15/4131561.cif $
#------------------------------------------------------------------------------
#
# This file is available in the Crystallography Open Database (COD),
# http://www.crystallography.net/
#
# All data on this site have been placed in the public domain by the
# contributors.
#
data_4131561
loop_
_publ_author_name
'Fang, Huaquan'
'Hou, Wenjun'
'Liu, Guixia'
'Huang, Zheng'
_publ_section_title
;
 Ruthenium-Catalyzed Site-Selective Intramolecular Silylation of Primary
 C-H Bonds for Synthesis of Sila-Heterocycles.
;
_journal_issue                   33
_journal_name_full               'Journal of the American Chemical Society'
_journal_page_first              11601
_journal_page_last               11609
_journal_paper_doi               10.1021/jacs.7b06798
_journal_volume                  139
_journal_year                    2017
_chemical_formula_moiety         'C12 H18 O2 Si2'
_chemical_formula_sum            'C12 H18 O2 Si2'
_chemical_formula_weight         250.44
_space_group_crystal_system      monoclinic
_space_group_IT_number           14
_space_group_name_Hall           '-P 2yn'
_space_group_name_H-M_alt        'P 1 21/n 1'
_atom_sites_solution_hydrogens   geom
_atom_sites_solution_primary     direct
_audit_creation_date             2016-06-07
_audit_creation_method
;
Olex2 1.2
(compiled 2016.02.19 svn.r3266 for OlexSys, GUI svn.r5155)
;
_cell_angle_alpha                90
_cell_angle_beta                 99.277(2)
_cell_angle_gamma                90
_cell_formula_units_Z            2
_cell_length_a                   6.6045(6)
_cell_length_b                   10.5502(10)
_cell_length_c                   9.9087(9)
_cell_measurement_reflns_used    4553
_cell_measurement_temperature    130
_cell_measurement_theta_max      30.61
_cell_measurement_theta_min      2.84
_cell_volume                     681.40(11)
_computing_cell_refinement       'SAINT v7.68A (Bruker, 2009)'
_computing_data_reduction        'SAINT v7.68A (Bruker, 2009)'
_computing_molecular_graphics    'Olex2 (Dolomanov et al., 2009)'
_computing_publication_material  'Olex2 (Dolomanov et al., 2009)'
_computing_structure_refinement  'ShelXL (Sheldrick, 2015)'
_computing_structure_solution    'ShelXS (Sheldrick, 2008)'
_diffrn_ambient_temperature      130
_diffrn_measured_fraction_theta_full 1.000
_diffrn_measured_fraction_theta_max 0.997
_diffrn_measurement_device_type  'Bruker APEX-II CCD'
_diffrn_measurement_method       '\f and \w scans'
_diffrn_radiation_monochromator  graphite
_diffrn_radiation_type           MoK\a
_diffrn_radiation_wavelength     0.71073
_diffrn_reflns_av_R_equivalents  0.0173
_diffrn_reflns_av_unetI/netI     0.0161
_diffrn_reflns_Laue_measured_fraction_full 1.000
_diffrn_reflns_Laue_measured_fraction_max 0.997
_diffrn_reflns_limit_h_max       9
_diffrn_reflns_limit_h_min       -9
_diffrn_reflns_limit_k_max       15
_diffrn_reflns_limit_k_min       -15
_diffrn_reflns_limit_l_max       12
_diffrn_reflns_limit_l_min       -14
_diffrn_reflns_number            6759
_diffrn_reflns_point_group_measured_fraction_full 1.000
_diffrn_reflns_point_group_measured_fraction_max 0.997
_diffrn_reflns_theta_full        25.242
_diffrn_reflns_theta_max         30.618
_diffrn_reflns_theta_min         2.840
_diffrn_standards_number         0
_exptl_absorpt_coefficient_mu    0.245
_exptl_absorpt_correction_T_max  0.7461
_exptl_absorpt_correction_T_min  0.7026
_exptl_absorpt_correction_type   multi-scan
_exptl_absorpt_process_details
;
SADABS-2008/1 (Bruker,2008) was used for absorption correction.
wR2(int) was 0.0746 before and 0.0277 after correction.
The Ratio of minimum to maximum transmission is 0.9417.
The \l/2 correction factor is 0.0015.
;
_exptl_crystal_colour            colourless
_exptl_crystal_density_diffrn    1.221
_exptl_crystal_density_method    'not measured'
_exptl_crystal_description       block
_exptl_crystal_F_000             268
_exptl_crystal_size_max          0.3
_exptl_crystal_size_mid          0.22
_exptl_crystal_size_min          0.2
_refine_diff_density_max         0.347
_refine_diff_density_min         -0.293
_refine_diff_density_rms         0.057
_refine_ls_extinction_method     none
_refine_ls_goodness_of_fit_ref   1.085
_refine_ls_hydrogen_treatment    constr
_refine_ls_matrix_type           full
_refine_ls_number_parameters     75
_refine_ls_number_reflns         2103
_refine_ls_number_restraints     0
_refine_ls_restrained_S_all      1.085
_refine_ls_R_factor_all          0.0299
_refine_ls_R_factor_gt           0.0276
_refine_ls_shift/su_max          0.012
_refine_ls_shift/su_mean         0.001
_refine_ls_structure_factor_coef Fsqd
_refine_ls_weighting_details
'w=1/[\s^2^(Fo^2^)+(0.0397P)^2^+0.1997P] where P=(Fo^2^+2Fc^2^)/3'
_refine_ls_weighting_scheme      calc
_refine_ls_wR_factor_gt          0.0770
_refine_ls_wR_factor_ref         0.0790
_reflns_Friedel_coverage         0.000
_reflns_number_gt                1938
_reflns_number_total             2103
_reflns_threshold_expression     'I > 2\s(I)'
_cod_data_source_file            ja7b06798_si_002.cif
_cod_data_source_block           mo_dm16359_0m
_cod_database_code               4131561
_shelx_space_group_comment
;
The symmetry employed for this shelxl refinement is uniquely defined
by the following loop, which should always be used as a source of
symmetry information in preference to the above space-group names.
They are only intended as comments.
;
_shelx_estimated_absorpt_t_max   0.953
_shelx_estimated_absorpt_t_min   0.930
_olex2_refinement_description
;
1. Fixed Uiso
 At 1.2 times of:
  All C(H) groups, All C(H,H) groups
 At 1.5 times of:
  All C(H,H,H) groups
2.a Secondary CH2 refined with riding coordinates:
 C4(H4A,H4B)
2.b Aromatic/amide H refined with riding coordinates:
 C1(H1)
2.c Idealised Me refined as rotating group:
 C5(H5A,H5B,H5C), C6(H6A,H6B,H6C)
;
_shelx_res_file
;
    mo_dm16359_0m.res created by SHELXL-2014/7

TITL mo_dm16359_0m in P2(1)/n
CELL 0.71073 6.6045 10.5502 9.9087 90 99.277 90
ZERR 2 0.0006 0.001 0.0009 0 0.002 0
LATT 1
SYMM 0.5-X,0.5+Y,0.5-Z
SFAC C H O Si
UNIT 24 36 4 4

L.S. 4
PLAN  -19 0 0
SIZE 0.2 0.22 0.3
TEMP -143.15
BOND $H
MORE -1
CONF
fmap 2
acta
REM <olex2.extras>
REM <HklSrc "%.\\mo_dm16359_0m.hkl">
REM </olex2.extras>

WGHT    0.039700    0.199700
FVAR       0.43011
SI1   4    0.997953    0.276322    0.774058    11.00000    0.01934    0.01685 =
         0.01700   -0.00333    0.00218    0.00082
O1    3    0.659144    0.382077    0.855029    11.00000    0.01608    0.02213 =
         0.02076   -0.00559    0.00155   -0.00110
C1    1    0.801435    0.535987    1.020318    11.00000    0.01547    0.01885 =
         0.01900   -0.00181    0.00369    0.00111
AFIX  43
H1    2    0.667114    0.559616    1.033305    11.00000   -1.20000
AFIX   0
C2    1    0.830234    0.441004    0.927423    11.00000    0.01566    0.01667 =
         0.01554    0.00029    0.00121   -0.00072
C3    1    1.026098    0.403882    0.905689    11.00000    0.01714    0.01607 =
         0.01626   -0.00124    0.00292    0.00082
C4    1    0.707801    0.285180    0.760468    11.00000    0.02194    0.03332 =
         0.02682   -0.01464    0.00500   -0.00460
AFIX  23
H4A   2    0.644891    0.307110    0.665818    11.00000   -1.20000
H4B   2    0.652919    0.202140    0.783926    11.00000   -1.20000
AFIX   0
C5    1    1.105251    0.120479    0.836691    11.00000    0.05000    0.02020 =
         0.03076   -0.00393   -0.00883    0.00557
AFIX 137
H5A   2    1.061065    0.055319    0.767728    11.00000   -1.50000
H5B   2    1.055902    0.098716    0.921893    11.00000   -1.50000
H5C   2    1.255406    0.125163    0.853504    11.00000   -1.50000
AFIX   0
C6    1    1.093405    0.322149    0.614469    11.00000    0.03065    0.03113 =
         0.02277   -0.00640    0.00914   -0.00571
AFIX 137
H6A   2    1.028943    0.401942    0.579871    11.00000   -1.50000
H6B   2    1.058986    0.255565    0.545631    11.00000   -1.50000
H6C   2    1.242624    0.333108    0.633741    11.00000   -1.50000
AFIX   0
HKLF 4

REM  mo_dm16359_0m in P2(1)/n
REM R1 =  0.0276 for    1938 Fo > 4sig(Fo)  and  0.0299 for all    2103 data
REM     75 parameters refined using      0 restraints

END

WGHT      0.0377      0.2125

REM Highest difference peak  0.347,  deepest hole -0.293,  1-sigma level  0.057
Q1    1   0.8904  0.5654  1.0567  11.00000  0.05    0.35
Q2    1   0.8164  0.4832  0.9797  11.00000  0.05    0.35
Q3    1   0.9317  0.4228  0.9208  11.00000  0.05    0.33
Q4    1   0.8324  0.2780  0.7650  11.00000  0.05    0.27
Q5    1   1.0299  0.3536  0.8607  11.00000  0.05    0.20
Q6    1   1.0627  0.1949  0.8118  11.00000  0.05    0.19
Q7    1   0.6121  0.2408  0.7253  11.00000  0.05    0.17
Q8    1   1.0380  0.3062  0.6791  11.00000  0.05    0.15
Q9    1   1.0242  0.1160  0.8657  11.00000  0.05    0.15
Q10   1   1.1634  0.1123  0.9273  11.00000  0.05    0.14
Q11   1   0.9736  0.2844  0.4995  11.00000  0.05    0.14
Q12   1   0.8944  0.2991  0.3651  11.00000  0.05    0.12
Q13   1   1.0217  0.3880  0.3023  11.00000  0.05    0.12
Q14   1   0.9463  0.2255  0.4255  11.00000  0.05    0.12
Q15   1   0.7591  0.4116  0.8935  11.00000  0.05    0.12
Q16   1   0.6773  0.3445  0.8212  11.00000  0.05    0.12
Q17   1   0.9912  0.4424  0.3476  11.00000  0.05    0.11
Q18   1   1.2772  0.1099  0.7920  11.00000  0.05    0.11
Q19   1   1.0559  0.4134  0.2619  11.00000  0.05    0.11
;
_shelx_res_checksum              77372
_shelx_hkl_file
;
  -1   0   0   -0.06    0.02
  -1   0   0   -0.08    0.02
  -1   0   0   -0.01    0.02
  -2   0   0   89.88    1.75
  -2   0   0   86.38    1.73
  -2   0   0   88.05    1.77
  -3   0   0   -0.21    0.04
  -3   0   0   -0.27    0.04
   3   0   0   -0.17    0.05
   4   0   0   56.24    1.20
  -4   0   0   53.88    1.16
  -4   0   0   55.16    1.17
   5   0   0    0.00    0.07
  -5   0   0    0.01    0.05
  -5   0   0    0.16    0.08
  -6   0   0  186.92    3.76
   6   0   0  189.02    3.84
  -7   0   0   -0.04    0.09
   7   0   0    0.07    0.10
   8   0   0    5.20    0.29
  -8   0   0    4.82    0.29
   0   1   0   -0.16    0.02
  -1  -1   0   71.77    1.39
  -1   1   0   72.87    1.42
  -1   1   0   69.45    1.38
   1   1   0   72.29    1.42
  -1   1   0   70.40    1.42
  -2  -1   0  506.43    9.62
  -2   1   0  487.72    9.68
  -2   1   0  472.09    9.88
   2   1   0  492.76    9.71
  -2   1   0  491.11    9.55
  -3  -1   0   29.81    0.66
  -3  -1   0   29.92    0.62
   3   1   0   29.55    0.66
  -3   1   0   30.31    0.67
  -3   1   0   26.70    0.65
  -3   1   0   28.25    0.64
  -4  -1   0    0.93    0.10
  -4   1   0    0.98    0.10
  -4   1   0    0.82    0.10
  -4   1   0    0.78    0.09
   4   1   0    1.01    0.10
  -5  -1   0   41.06    0.96
  -5  -1   0   40.74    0.91
   5  -1   0   42.73    0.98
   5   1   0   42.46    0.97
  -5   1   0   42.77    1.00
  -5   1   0   40.78    0.96
  -5   1   0   42.96    0.96
  -6  -1   0    0.89    0.15
   6  -1   0    0.83    0.15
   6   1   0    1.38    0.15
  -6   1   0    1.15    0.14
  -6   1   0    1.02    0.13
  -7  -1   0    0.45    0.12
   7  -1   0    0.53    0.13
   7   1   0    0.43    0.12
  -7   1   0    0.31    0.10
   8  -1   0    1.92    0.22
  -8  -1   0    1.96    0.22
  -8   1   0    1.77    0.20
   8   1   0    1.33    0.19
   0   2   0  216.62    4.20
  -1  -2   0  217.51    4.16
  -1   2   0  223.63    4.25
   1   2   0  211.29    4.26
  -1   2   0  219.11    4.26
  -2  -2   0  263.90    5.16
  -2   2   0  261.20    5.14
   2   2   0  279.93    5.29
  -2   2   0  279.66    5.28
  -2   2   0  263.95    5.30
  -3  -2   0    0.34    0.04
  -3  -2   0    0.42    0.07
  -3   2   0    0.60    0.08
   3   2   0    0.52    0.07
  -3   2   0    0.43    0.07
  -3   2   0    0.38    0.06
  -4  -2   0  121.33    2.46
  -4   2   0  124.13    2.52
  -4   2   0  123.58    2.43
  -4   2   0  120.14    2.50
   4   2   0  121.16    2.49
  -5  -2   0   58.22    1.29
  -5   2   0   58.56    1.26
  -5   2   0   58.39    1.32
   5   2   0   57.81    1.29
  -5   2   0   58.41    1.31
   6  -2   0   13.61    0.46
  -6  -2   0   13.81    0.46
  -6   2   0   14.60    0.47
  -6   2   0   13.67    0.43
  -6   2   0   14.38    0.47
   6   2   0   13.20    0.44
  -7  -2   0    1.08    0.17
   7  -2   0    1.26    0.17
  -7   2   0    1.07    0.15
   7   2   0    1.19    0.16
  -8  -2   0   38.31    1.02
   8  -2   0   36.92    1.00
  -8   2   0   39.30    0.99
   8   2   0   36.26    0.98
  -9  -2   0    0.02    0.13
   0   3   0   -0.18    0.03
   0   3   0   -0.17    0.04
   1   3   0   28.99    0.64
  -1   3   0   30.12    0.65
  -1   3   0   30.15    0.66
   2   3   0   43.07    0.92
  -2   3   0   43.63    0.93
  -2   3   0   43.32    0.95
  -3  -3   0  347.83    6.84
  -3   3   0  362.16    6.99
  -3   3   0  362.18    7.02
   3   3   0  353.65    7.00
  -4  -3   0   10.37    0.34
  -4   3   0   10.63    0.31
  -4   3   0   10.29    0.35
  -4   3   0   10.42    0.34
   4   3   0   10.33    0.32
  -5  -3   0    0.90    0.13
  -5   3   0    0.54    0.09
  -5   3   0    0.57    0.11
   5   3   0    0.68    0.11
  -5   3   0    0.78    0.12
  -6  -3   0    0.62    0.13
  -6   3   0    0.62    0.13
   6   3   0    0.52    0.11
  -6   3   0    0.56    0.13
  -6   3   0    0.53    0.10
  -7  -3   0    9.54    0.41
   7  -3   0   10.76    0.42
  -7   3   0   10.17    0.38
   7   3   0    9.55    0.38
  -7   3   0   10.02    0.42
   8  -3   0    6.76    0.35
  -8  -3   0    6.77    0.37
   8   3   0    6.75    0.34
  -9  -3   0    7.33    0.41
   0   4   0    3.56    0.14
   0   4   0    4.32    0.15
  -1   4   0    1.05    0.08
   1   4   0    0.62    0.07
  -1   4   0    0.62    0.07
  -2  -4   0   18.88    0.48
  -2  -4   0   19.33    0.39
   2   4   0   19.58    0.47
  -2   4   0   19.34    0.47
  -2   4   0   19.29    0.50
  -3  -4   0   36.95    0.83
   3   4   0   35.37    0.82
  -3   4   0   35.69    0.83
  -3   4   0   36.58    0.87
  -4  -4   0  166.80    3.37
  -4   4   0  165.30    3.44
   4   4   0  173.09    3.42
  -4   4   0  170.02    3.45
  -5  -4   0   11.48    0.41
  -5   4   0   12.27    0.42
  -5   4   0   11.47    0.42
   5   4   0   11.84    0.39
  -6  -4   0   17.08    0.56
  -6   4   0   18.71    0.58
   6   4   0   17.67    0.54
  -6   4   0   18.01    0.58
  -7  -4   0    3.74    0.28
   7   4   0    4.23    0.26
  -7   4   0    3.35    0.26
  -8  -4   0    4.82    0.32
   8  -4   0    4.46    0.30
   8   4   0    4.21    0.28
  -9  -4   0    0.00    0.13
   0   5   0    0.00    0.04
   0   5   0    0.02    0.04
  -1   5   0  206.64    4.14
  -1   5   0  207.93    4.14
   1   5   0  210.49    4.14
  -2  -5   0   69.71    1.46
  -2   5   0   68.98    1.47
   2   5   0   68.84    1.47
  -2   5   0   70.83    1.51
  -3  -5   0    0.82    0.10
  -3   5   0    0.80    0.10
  -3   5   0    0.90    0.12
   3   5   0    0.81    0.11
  -4  -5   0    0.13    0.08
   4   5   0    0.16    0.09
  -4   5   0    0.00    0.07
  -4   5   0    0.18    0.08
  -5  -5   0    3.72    0.23
   5   5   0    3.64    0.21
  -5   5   0    3.26    0.22
  -5   5   0    3.41    0.24
  -6  -5   0    9.22    0.40
   6   5   0    8.90    0.36
  -6   5   0    9.23    0.39
  -6   5   0    8.90    0.40
  -7  -5   0   23.60    0.74
  -7   5   0   24.30    0.75
   7   5   0   22.85    0.69
  -8  -5   0    7.42    0.40
   8  -5   0    7.66    0.39
   8   5   0    7.21    0.36
  -8   5   0    7.65    0.41
   0   6   0  189.98    3.81
   0   6   0  190.78    3.79
   1   6   0   38.93    0.89
  -1   6   0   39.80    0.89
  -1   6   0   39.06    0.91
  -2  -6   0   62.91    1.36
   2   6   0   64.14    1.37
  -2   6   0   63.67    1.38
  -2   6   0   63.69    1.41
  -3  -6   0    8.82    0.33
  -3   6   0    9.52    0.33
   3   6   0    9.41    0.32
  -3   6   0    9.29    0.35
  -4  -6   0   44.46    1.05
   4   6   0   44.27    1.04
  -4   6   0   44.71    1.06
  -4   6   0   43.44    1.10
  -5  -6   0   11.11    0.42
  -5   6   0   12.04    0.43
   5   6   0   11.06    0.40
  -5   6   0   11.22    0.45
  -6  -6   0   47.21    1.17
   6   6   0   45.88    1.13
  -6   6   0   46.06    1.17
  -6   6   0   45.61    1.21
  -7  -6   0    2.72    0.27
  -7   6   0    2.81    0.25
   7   6   0    2.70    0.24
  -8  -6   0    5.51    0.37
  -8   6   0    5.23    0.35
   8   6   0    5.53    0.34
   0   7   0   -0.05    0.05
   0   7   0    0.03    0.07
   1   7   0  236.54    4.75
  -1   7   0  238.06    4.76
  -1   7   0  239.13    4.76
  -2  -7   0   15.63    0.45
  -2   7   0   14.35    0.47
   2   7   0   14.94    0.44
  -2   7   0   14.17    0.44
  -3  -7   0   49.54    1.14
   3   7   0   48.03    1.12
  -3   7   0   49.78    1.14
  -3   7   0   48.44    1.18
  -4  -7   0    0.29    0.10
  -4   7   0    0.26    0.11
   4   7   0    0.18    0.10
  -4   7   0    0.31    0.10
  -5  -7   0   40.83    1.04
   5   7   0   39.97    1.00
  -5   7   0   41.04    1.04
  -5   7   0   40.36    1.08
  -6  -7   0    1.33    0.19
  -6   7   0    0.95    0.17
  -6   7   0    1.05    0.18
   6   7   0    1.15    0.17
  -7  -7   0   53.60    1.37
  -7   7   0   53.98    1.38
   7   7   0   53.26    1.32
  -8  -7   0   15.38    0.62
  -8   7   0   14.94    0.61
   8   7   0   14.85    0.56
   0   8   0    8.16    0.31
  -1   8   0   42.36    1.01
  -1   8   0   41.38    0.98
   1   8   0   40.87    0.97
  -2  -8   0   10.71    0.38
   2   8   0   10.98    0.37
  -2   8   0   10.34    0.37
  -2   8   0   10.97    0.41
  -3  -8   0    4.22    0.24
  -3   8   0    4.13    0.23
  -3   8   0    4.02    0.26
   3   8   0    4.07    0.23
  -4  -8   0    1.16    0.16
   4   8   0    1.14    0.15
  -4   8   0    1.31    0.16
  -4   8   0    1.25    0.18
  -5  -8   0    0.59    0.14
  -5   8   0    0.60    0.14
  -5   8   0    0.59    0.15
   5   8   0    0.62    0.14
  -6  -8   0    2.40    0.26
  -6   8   0    2.56    0.26
   6   8   0    2.43    0.24
  -7  -8   0    0.14    0.14
  -7   8   0    0.00    0.11
   7   8   0    0.16    0.14
   0   9   0    0.08    0.08
   1   9   0   20.80    0.59
  -1   9   0   20.73    0.62
  -1   9   0   22.17    0.61
  -2  -9   0    1.87    0.18
  -2   9   0    1.74    0.19
   2   9   0    1.95    0.17
  -2   9   0    1.95    0.17
  -3  -9   0  266.91    5.36
  -3   9   0  269.35    5.50
   3   9   0  272.40    5.45
  -3   9   0  269.99    5.47
  -4  -9   0   11.85    0.46
  -4   9   0   12.26    0.46
   4   9   0   11.70    0.44
  -4   9   0   12.09    0.50
  -5  -9   0   28.42    0.84
  -5   9   0   28.09    0.83
   5   9   0   28.58    0.80
  -6  -9   0    0.14    0.13
  -6   9   0    0.27    0.13
   6   9   0    0.38    0.15
  -7  -9   0   21.88    0.76
   7   9   0   20.80    0.69
  -7   9   0   21.49    0.75
   0  10   0    8.75    0.35
  -1  10   0   10.92    0.41
   1  10   0   11.13    0.41
  -2 -10   0   14.08    0.49
   2  10   0   13.32    0.46
  -2  10   0   14.14    0.49
  -3 -10   0   12.54    0.48
   3  10   0   12.77    0.46
  -3  10   0   12.67    0.47
  -4 -10   0    2.28    0.23
  -4  10   0    2.21    0.23
   4  10   0    1.75    0.21
  -5 -10   0   -0.10    0.09
  -5  10   0    0.13    0.13
   5  10   0   -0.04    0.12
  -6 -10   0    0.06    0.13
  -6  10   0    0.03    0.12
   6  10   0   -0.22    0.13
  -7 -10   0    0.54    0.18
   0  11   0   -0.04    0.09
   1  11   0   14.90    0.51
  -1  11   0   15.08    0.52
  -2 -11   0   32.81    0.91
   2  11   0   34.50    0.91
  -2  11   0   34.21    0.92
  -3 -11   0   16.88    0.60
   3  11   0   17.40    0.58
  -3  11   0   18.02    0.60
  -4 -11   0   12.72    0.51
   4  11   0   12.16    0.48
  -4  11   0   12.48    0.51
  -5 -11   0   33.72    0.99
  -5  11   0   32.92    0.98
   5  11   0   33.33    0.94
  -6 -11   0    1.08    0.21
   6  11   0    1.19    0.21
  -6  11   0    1.33    0.22
   0  12   0   49.30    1.24
  -1 -12   0    4.57    0.29
  -1  12   0    5.02    0.30
   1  12   0    4.74    0.29
  -2 -12   0    1.98    0.22
  -2  12   0    2.22    0.23
   2  12   0    2.79    0.24
  -3 -12   0   -0.07    0.09
  -3  12   0    0.09    0.11
   3  12   0   -0.06    0.11
  -4 -12   0    0.02    0.12
   4  12   0    0.22    0.13
  -4  12   0    0.11    0.11
  -5 -12   0    0.71    0.18
  -5  12   0    0.50    0.17
   5  12   0    0.55    0.17
   0  13   0   -0.02    0.09
  -1 -13   0   32.02    0.93
   1  13   0   34.76    0.96
  -1  13   0   33.70    0.96
  -2 -13   0    2.37    0.25
   2  13   0    2.23    0.24
  -2  13   0    2.13    0.24
  -3 -13   0   11.48    0.51
  -3  13   0   10.73    0.48
   3  13   0   11.06    0.48
  -4 -13   0    0.87    0.19
  -4  13   0    0.56    0.16
   4  13   0    0.54    0.17
   0  14   0   -0.05    0.12
  -1 -14   0    7.15    0.40
   1  14   0    7.47    0.40
  -1  14   0    8.76    0.42
  -2 -14   0    3.50    0.30
  -2  14   0    3.90    0.31
   2  14   0    4.55    0.32
  -3 -14   0    2.19    0.27
   3  14   0    1.78    0.24
  -3  14   0    1.94    0.25
   0 -15   0   -0.19    0.09
   0  15   0   -0.11    0.12
  -1 -15   0   16.76    0.65
   1  15   0   16.70    0.64
  -1  15   0   16.05    0.64
   9   0  -1    0.06    0.13
   8   0  -1   -0.16    0.11
   7   0  -1   16.02    0.53
  -7   0   1   16.18    0.52
  -6   0   1    0.00    0.08
   6   0  -1   -0.16    0.08
  -5   0   1    1.75    0.14
   5   0  -1    1.68    0.15
   4   0  -1   -0.12    0.04
  -4   0   1   -0.04    0.04
   3   0  -1   57.69    1.23
  -3   0   1   59.10    1.24
  -3   0   1   56.55    1.17
  -2   0   1   -0.09    0.03
  -2   0   1   -0.04    0.03
  -1   0   1  327.11    6.27
  -1   0   1  321.87    6.44
   0   0   1   -0.16    0.01
   0   0  -1   -0.16    0.02
   1   0   1   -0.04    0.01
  -1   0  -1   -0.01    0.02
  -1   0  -1   -0.04    0.02
  -2   0  -1   -0.17    0.03
  -2   0  -1   -0.15    0.03
   2   0   1   -0.14    0.03
   3   0   1  134.17    2.70
  -3   0  -1  138.24    2.67
  -3   0  -1  134.24    2.69
  -4   0  -1    0.10    0.06
   4   0   1   -0.06    0.05
  -4   0  -1   -0.02    0.04
  -5   0  -1  150.11    2.95
  -5   0  -1  139.85    2.94
   5   0   1  147.70    2.98
  -6   0  -1    0.02    0.09
  -6   0  -1   -0.07    0.07
   6   0   1   -0.18    0.08
   7   0   1   11.82    0.42
  -7   0  -1   11.10    0.44
  -8   0  -1    0.12    0.11
  -9   0  -1    0.49    0.16
   9  -1  -1   22.53    0.74
   9   1  -1   24.14    0.75
  -8  -1   1    9.55    0.41
   8  -1  -1   10.33    0.44
   8   1  -1    9.86    0.42
   7  -1  -1   51.43    1.24
  -7  -1   1   51.18    1.19
  -7   1   1   50.72    1.17
   7   1  -1   48.31    1.21
  -6  -1   1   27.13    0.70
   6  -1  -1   26.59    0.73
  -6   1   1   26.80    0.68
   6   1  -1   27.14    0.72
   5  -1  -1   61.51    1.37
  -5  -1   1   62.03    1.33
   5   1  -1   61.29    1.36
  -5   1   1   60.10    1.30
  -5   1   1   62.60    1.39
  -4  -1   1    7.93    0.26
  -4   1   1    7.87    0.25
  -4   1   1    8.60    0.29
   4   1  -1    8.21    0.28
  -3  -1   1  389.10    7.93
  -3   1   1  428.83    8.18
  -3   1   1  421.99    7.92
   3   1  -1  427.27    8.16
  -2  -1   1  109.16    2.18
  -2   1   1  113.46    2.17
  -2   1   1  115.27    2.27
   2   1  -1  113.11    2.26
  -1   1   1  348.84    7.14
   1   1  -1  353.34    6.91
   1   1  -1  348.68    7.03
   0  -1  -1  358.37    7.36
   0  -1  -1  378.30    7.17
   0   1  -1  369.22    7.37
   0   1  -1  351.62    7.42
   0   1   1  380.92    7.41
  -1  -1  -1  808.09   15.32
  -1  -1  -1  766.17   15.30
  -1   1  -1  739.10   15.14
   1   1   1  805.60   15.43
  -1   1  -1  812.10   15.55
  -1   1  -1  741.17   15.37
  -2  -1  -1   24.83    0.52
  -2  -1  -1   24.73    0.56
   2   1   1   25.90    0.54
  -2   1  -1   24.76    0.55
  -2   1  -1   23.93    0.56
  -2   1  -1   22.99    0.54
  -3  -1  -1  511.17    9.53
  -3  -1  -1  509.26    9.81
  -3   1  -1  493.43    9.70
   3   1   1  496.81    9.88
  -3   1  -1  482.51    9.75
  -3   1  -1  506.46    9.52
  -4  -1  -1    0.86    0.08
  -4  -1  -1    0.89    0.11
  -4   1  -1    0.93    0.10
  -4   1  -1    0.75    0.09
  -4   1  -1    0.82    0.10
   4   1   1    0.65    0.08
   5  -1   1    7.31    0.28
  -5  -1  -1    7.37    0.25
  -5  -1  -1    6.80    0.29
  -5   1  -1    7.73    0.30
  -5   1  -1    7.22    0.28
   5   1   1    7.59    0.27
   6  -1   1   55.67    1.27
  -6  -1  -1   55.79    1.28
  -6   1  -1   54.31    1.26
  -6   1  -1   55.83    1.27
   6   1   1   54.66    1.25
  -7  -1  -1   42.02    1.06
   7  -1   1   42.14    1.03
   7   1   1   42.01    1.02
  -7   1  -1   41.50    1.04
  -8  -1  -1    1.77    0.22
  -8   1  -1    1.34    0.19
  -9  -1  -1   12.26    0.52
   9  -2  -1    0.87    0.18
   9   2  -1    0.72    0.17
   8  -2  -1    6.36    0.35
  -8  -2   1    7.06    0.36
   8   2  -1    6.58    0.34
  -7  -2   1   12.57    0.46
   7  -2  -1   13.09    0.48
  -7   2   1   12.60    0.43
   7   2  -1   12.50    0.46
   6  -2  -1   79.40    1.78
  -6  -2   1   81.18    1.74
  -6   2   1   81.56    1.69
   6   2  -1   78.23    1.76
  -6   2   1   81.27    1.81
  -5  -2   1    0.12    0.07
  -5   2   1    0.11    0.06
   5   2  -1    0.03    0.07
  -5   2   1    0.03    0.08
  -4  -2   1    0.51    0.08
  -4   2   1    0.39    0.08
  -4   2   1    0.42    0.09
  -4   2   1    0.34    0.06
   4   2  -1    0.40    0.08
  -3  -2   1   17.64    0.44
   3   2  -1   17.26    0.36
  -3   2   1   17.67    0.46
  -3   2   1   17.41    0.41
   3   2  -1   18.07    0.45
  -3   2   1   17.69    0.46
  -2  -2   1    1.07    0.08
  -2   2   1    1.10    0.09
   2   2  -1    1.15    0.09
  -2   2   1    1.01    0.09
   1   2  -1    8.78    0.23
  -1   2   1    8.81    0.23
   1   2  -1    9.44    0.20
   0   2  -1  467.31    9.48
   0   2   1  477.57    9.76
   0   2  -1  496.31    9.75
  -1  -2  -1  156.72    3.08
  -1  -2  -1  164.04    3.10
  -1   2  -1  157.32    3.13
  -1   2  -1  154.63    3.14
   1   2   1  163.07    3.13
  -2  -2  -1   17.73    0.43
  -2  -2  -1   17.63    0.38
  -2   2  -1   17.27    0.41
   2   2   1   17.96    0.41
  -2   2  -1   17.94    0.44
  -2   2  -1   18.27    0.42
  -3  -2  -1  105.24    2.08
  -3  -2  -1   99.74    2.03
   3   2   1  103.25    2.08
  -3   2  -1  102.00    2.10
  -3   2  -1  103.24    2.11
  -3   2  -1  104.41    2.06
  -4  -2  -1   37.71    0.88
  -4  -2  -1   36.12    0.80
  -4   2  -1   38.12    0.87
  -4   2  -1   38.54    0.89
  -4   2  -1   37.31    0.85
   4   2   1   38.23    0.85
  -5  -2  -1   11.60    0.32
  -5  -2  -1   11.93    0.40
   5   2   1   11.93    0.37
  -5   2  -1   12.08    0.40
  -5   2  -1   11.62    0.38
  -5   2  -1   12.15    0.39
  -6  -2  -1   16.94    0.54
   6  -2   1   16.68    0.51
  -6   2  -1   16.76    0.51
   6   2   1   16.56    0.49
  -6   2  -1   16.99    0.53
   7  -2   1    0.79    0.15
  -7  -2  -1    0.75    0.16
   7   2   1    0.87    0.14
  -7   2  -1    0.92    0.15
  -7   2  -1    0.66    0.14
  -8  -2  -1    2.26    0.24
  -8   2  -1    2.32    0.23
  -9  -2  -1    0.36    0.16
   9  -3  -1    3.78    0.29
   9   3  -1    3.70    0.28
   8  -3  -1    2.48    0.25
  -8  -3   1    2.39    0.25
   8   3  -1    2.50    0.23
  -7  -3   1   63.44    1.44
   7  -3  -1   61.44    1.46
  -7   3   1   61.01    1.36
  -7   3   1   60.11    1.48
   7   3  -1   61.07    1.44
  -6  -3   1    0.59    0.12
  -6   3   1    0.56    0.13
  -6   3   1    0.81    0.11
   6   3  -1    0.77    0.13
  -5  -3   1    1.96    0.16
   5   3  -1    1.99    0.17
  -5   3   1    2.24    0.18
  -5   3   1    2.10    0.14
  -4  -3   1   28.96    0.70
  -4   3   1   28.48    0.73
   4   3  -1   29.79    0.71
  -4   3   1   29.15    0.73
  -3  -3   1   62.27    1.32
   3   3  -1   62.76    1.34
  -3   3   1   64.71    1.37
  -3   3   1   63.48    1.36
  -2  -3   1    8.20    0.24
   2   3  -1    8.04    0.24
  -2   3   1    7.91    0.24
   1   3  -1   51.08    1.05
  -1   3   1   51.53    1.06
   1   3  -1   49.15    1.01
   0   3   1  150.32    2.96
   0   3  -1  150.76    2.94
   0   3  -1  148.33    2.95
  -1  -3  -1   59.71    1.19
  -1  -3  -1   60.83    1.22
  -1   3  -1   59.58    1.23
   1   3   1   60.38    1.23
  -2  -3  -1  118.69    2.33
  -2  -3  -1  116.86    2.28
   2   3   1  118.08    2.35
  -2   3  -1  113.82    2.35
  -2   3  -1  119.60    2.38
  -3  -3  -1  133.86    2.66
  -3  -3  -1  133.67    2.59
   3   3   1  132.08    2.67
  -3   3  -1  135.71    2.63
  -3   3  -1  135.84    2.72
  -3   3  -1  127.84    2.69
  -4  -3  -1    0.94    0.07
  -4  -3  -1    0.92    0.12
  -4   3  -1    0.88    0.11
  -4   3  -1    0.82    0.10
  -4   3  -1    1.07    0.13
   4   3   1    0.98    0.11
  -5  -3  -1  126.66    2.64
   5   3   1  127.47    2.63
  -5   3  -1  129.15    2.66
  -5   3  -1  128.46    2.59
  -5   3  -1  126.61    2.68
  -6  -3  -1    7.10    0.34
  -6   3  -1    7.36    0.33
   6   3   1    7.44    0.30
  -6   3  -1    6.87    0.31
  -6   3  -1    7.36    0.31
   7  -3   1   43.43    1.08
  -7  -3  -1   44.24    1.13
  -7   3  -1   43.62    1.12
   7   3   1   43.88    1.07
  -7   3  -1   43.54    1.07
  -8  -3  -1    3.29    0.28
  -8   3  -1    3.14    0.24
  -9  -3  -1    4.17    0.33
   9  -4  -1    0.63    0.17
   9   4  -1    0.71    0.17
   8  -4  -1   15.94    0.58
  -8  -4   1   15.79    0.57
   8   4  -1   15.54    0.56
  -7  -4   1    0.11    0.11
   7   4  -1    0.10    0.11
  -7   4   1    0.12    0.12
  -6  -4   1    0.17    0.10
  -6   4   1    0.16    0.10
   6   4  -1    0.20    0.10
  -5  -4   1   54.27    1.26
   5   4  -1   55.93    1.27
  -5   4   1   57.07    1.31
  -4  -4   1   17.99    0.51
   4   4  -1   18.95    0.51
  -4   4   1   19.07    0.53
  -4   4   1   18.29    0.54
  -3  -4   1   19.81    0.51
  -3   4   1   20.42    0.53
   3   4  -1   19.75    0.51
  -2  -4   1   23.18    0.55
  -2   4   1   23.10    0.56
   2   4  -1   24.32    0.48
   2   4  -1   23.41    0.56
   1   4  -1    7.60    0.23
  -1   4   1    7.50    0.23
   1   4  -1    7.48    0.21
   0   4   1  168.44    3.26
   0   4  -1  160.23    3.24
  -1  -4  -1    4.45    0.17
  -1   4  -1    4.50    0.16
   1   4   1    4.26    0.16
  -1   4  -1    4.15    0.17
  -2  -4  -1   90.09    1.83
  -2  -4  -1   86.07    1.76
  -2   4  -1   93.25    1.84
  -2   4  -1   90.55    1.88
   2   4   1   89.95    1.84
  -3  -4  -1   62.40    1.32
  -3  -4  -1   57.24    1.20
  -3   4  -1   61.13    1.31
   3   4   1   63.33    1.30
  -3   4  -1   61.82    1.35
  -4  -4  -1   76.85    1.66
  -4   4  -1   77.14    1.66
  -4   4  -1   77.36    1.70
   4   4   1   77.87    1.64
  -5  -4  -1    1.31    0.16
  -5   4  -1    1.37    0.16
  -5   4  -1    1.68    0.16
   5   4   1    1.61    0.15
  -6  -4  -1   10.97    0.44
   6   4   1   11.56    0.39
  -6   4  -1   12.58    0.44
  -6   4  -1   11.39    0.45
  -7  -4  -1    1.04    0.18
  -7   4  -1    1.11    0.17
  -7   4  -1    0.95    0.17
   7   4   1    1.44    0.17
  -8  -4  -1    1.81    0.24
  -8  -5   1   15.20    0.57
  -8   5   1   14.08    0.58
   8   5  -1   13.93    0.53
  -7  -5   1   30.19    0.85
  -7   5   1   30.20    0.89
   7   5  -1   29.19    0.82
  -6  -5   1    1.46    0.18
   6   5  -1    1.56    0.18
  -6   5   1    1.62    0.19
  -5  -5   1   73.72    1.63
   5   5  -1   74.56    1.64
  -5   5   1   74.14    1.68
  -4  -5   1    3.09    0.19
  -4   5   1    3.21    0.20
  -4   5   1    3.27    0.22
   4   5  -1    3.72    0.21
  -3  -5   1   25.62    0.64
   3   5  -1   26.17    0.65
  -3   5   1   25.37    0.68
  -3   5   1   26.07    0.65
  -2   5   1    8.57    0.30
   2   5  -1    8.45    0.22
   2   5  -1    8.50    0.28
  -2   5   1    8.93    0.28
   1   5  -1  151.21    3.03
   1   5  -1  149.29    2.97
  -1   5   1  151.59    3.03
   0   5   1   35.67    0.79
   0   5  -1   35.95    0.79
   0   5  -1   35.21    0.79
  -1  -5  -1   40.25    0.88
  -1   5  -1   40.15    0.91
  -1   5  -1   40.32    0.88
   1   5   1   39.90    0.88
  -2  -5  -1    0.00    0.03
  -2  -5  -1    0.14    0.06
   2   5   1    0.06    0.06
  -2   5  -1    0.05    0.05
  -2   5  -1    0.24    0.07
  -3  -5  -1   40.81    0.95
   3   5   1   39.59    0.91
  -3   5  -1   40.31    0.98
  -3   5  -1   41.88    0.94
  -4  -5  -1    3.84    0.22
  -4   5  -1    4.37    0.24
  -4   5  -1    4.33    0.22
   4   5   1    4.63    0.22
  -5  -5  -1   48.55    1.17
  -5   5  -1   48.11    1.15
   5   5   1   48.57    1.12
  -5   5  -1   48.43    1.20
  -6  -5  -1    1.51    0.18
  -6   5  -1    1.37    0.17
  -6   5  -1    1.05    0.17
   6   5   1    1.52    0.17
  -7  -5  -1   28.39    0.85
   7   5   1   28.25    0.78
  -7   5  -1   28.47    0.83
  -7   5  -1   29.03    0.87
  -8  -5  -1   14.06    0.57
  -8  -6   1    0.16    0.13
  -8   6   1    0.04    0.12
   8   6  -1    0.07    0.13
  -7  -6   1    0.43    0.14
   7   6  -1    0.55    0.14
  -7   6   1    0.38    0.14
  -6  -6   1   21.97    0.67
   6   6  -1   21.58    0.64
  -6   6   1   21.79    0.69
  -5  -6   1    0.55    0.12
  -5   6   1    0.58    0.13
   5   6  -1    0.51    0.13
  -4  -6   1   76.27    1.67
  -4   6   1   78.31    1.72
   4   6  -1   77.27    1.69
  -3  -6   1    5.86    0.25
  -3   6   1    5.98    0.26
   3   6  -1    5.95    0.26
  -3   6   1    6.09    0.28
   2   6  -1   19.40    0.52
  -2   6   1   19.27    0.52
   1   6  -1   95.89    1.93
  -1   6   1   94.25    1.97
   1   6  -1   94.53    1.97
   0   6   1  217.54    4.31
   0   6  -1  214.87    4.31
   0   6  -1  216.59    4.29
  -1  -6  -1    6.63    0.24
  -1   6  -1    6.56    0.24
  -1   6  -1    6.26    0.25
   1   6   1    6.53    0.23
  -2  -6  -1  115.39    2.35
  -2  -6  -1  115.60    2.29
  -2   6  -1  116.69    2.38
  -2   6  -1  115.80    2.42
   2   6   1  114.78    2.38
  -3  -6  -1    4.75    0.24
  -3   6  -1    4.69    0.25
  -3   6  -1    4.80    0.22
   3   6   1    4.99    0.23
  -4  -6  -1   53.40    1.23
   4   6   1   52.46    1.19
  -4   6  -1   53.45    1.28
  -4   6  -1   52.47    1.22
  -5  -6  -1    1.66    0.19
  -5   6  -1    2.29    0.19
  -5   6  -1    2.12    0.22
   5   6   1    1.86    0.17
  -6  -6  -1    4.52    0.29
   6   6   1    4.44    0.26
  -6   6  -1    4.32    0.30
  -6   6  -1    4.30    0.27
  -7  -6  -1    1.00    0.19
   7   6   1    1.13    0.18
  -7   6  -1    1.20    0.21
  -7   6  -1    1.18    0.19
  -8  -6  -1   33.67    1.01
  -8  -7   1    4.15    0.32
  -8   7   1    3.84    0.32
   8   7  -1    3.86    0.30
  -7  -7   1    0.86    0.18
  -7   7   1    0.69    0.17
   7   7  -1    0.61    0.16
  -6  -7   1    0.82    0.15
  -6   7   1    0.39    0.14
   6   7  -1    0.45    0.14
  -5  -7   1   21.91    0.65
  -5   7   1   20.91    0.65
   5   7  -1   21.37    0.63
  -4  -7   1    0.99    0.13
   4   7  -1    0.78    0.14
  -4   7   1    1.10    0.15
  -3  -7   1  156.32    3.21
  -3   7   1  162.23    3.29
   3   7  -1  159.26    3.27
   2   7  -1    4.06    0.21
  -2   7   1    3.91    0.20
  -1   7   1    5.47    0.23
   1   7  -1    5.69    0.24
   1   7  -1    5.22    0.21
   0   7  -1   28.35    0.69
   0   7   1   28.08    0.69
   0   7  -1   27.64    0.69
  -1  -7  -1   32.95    0.78
  -1   7  -1   33.24    0.79
  -1   7  -1   32.21    0.81
   1   7   1   33.08    0.78
  -2  -7  -1    1.50    0.10
  -2  -7  -1    1.65    0.14
   2   7   1    1.65    0.15
  -2   7  -1    1.86    0.14
  -2   7  -1    1.60    0.17
  -3  -7  -1   13.97    0.46
   3   7   1   14.31    0.44
  -3   7  -1   14.92    0.50
  -3   7  -1   14.15    0.44
  -4  -7  -1    2.04    0.20
   4   7   1    1.92    0.18
  -4   7  -1    1.73    0.20
  -4   7  -1    2.35    0.18
  -5  -7  -1    0.50    0.12
  -5   7  -1    0.43    0.13
   5   7   1    0.43    0.13
  -5   7  -1    0.23    0.10
  -6  -7  -1    6.36    0.36
   6   7   1    7.34    0.33
  -6   7  -1    6.80    0.35
  -6   7  -1    6.55    0.38
  -7  -7  -1    5.11    0.34
  -7   7  -1    5.17    0.33
   7   7   1    5.24    0.32
  -7   7  -1    4.91    0.35
  -8  -7  -1    3.59    0.32
  -8  -8   1   28.42    0.91
  -7  -8   1    0.38    0.16
   7   8  -1    0.54    0.16
  -7   8   1    0.66    0.17
  -6  -8   1   39.42    1.07
  -6   8   1   39.74    1.10
   6   8  -1   40.59    1.05
  -5  -8   1   10.99    0.44
   5   8  -1   10.57    0.42
  -5   8   1   10.36    0.43
  -4  -8   1  136.09    2.82
   4   8  -1  135.08    2.85
  -4   8   1  134.12    2.88
  -3  -8   1   23.52    0.66
  -3   8   1   22.67    0.65
   3   8  -1   23.12    0.64
   2   8  -1   83.26    1.80
  -2   8   1   82.67    1.81
   1   8  -1    0.41    0.09
  -1   8   1    0.40    0.10
   1   8  -1    0.33    0.08
   0   8  -1  185.20    3.71
   0   8  -1  180.21    3.69
   0   8   1  181.77    3.71
  -1  -8  -1    0.09    0.07
   1   8   1    0.10    0.08
  -1   8  -1   -0.04    0.07
  -1   8  -1    0.10    0.07
  -2  -8  -1   63.05    1.45
  -2  -8  -1   67.17    1.36
   2   8   1   64.95    1.45
  -2   8  -1   67.34    1.51
  -2   8  -1   64.98    1.46
  -3  -8  -1   15.04    0.49
   3   8   1   14.93    0.47
  -3   8  -1   13.92    0.46
  -3   8  -1   14.89    0.52
  -4  -8  -1   47.49    1.17
   4   8   1   46.60    1.12
  -4   8  -1   48.26    1.22
  -4   8  -1   47.14    1.15
  -5  -8  -1    5.04    0.30
  -5   8  -1    5.12    0.32
   5   8   1    5.39    0.28
  -5   8  -1    5.11    0.29
  -6  -8  -1   49.15    1.27
   6   8   1   48.49    1.19
  -6   8  -1   47.69    1.31
  -6   8  -1   47.30    1.24
  -7  -8  -1    1.47    0.22
  -7   8  -1    1.04    0.21
   7   8   1    1.61    0.21
  -7   8  -1    1.14    0.20
  -7  -9   1    1.42    0.24
  -7   9   1    1.14    0.21
   7   9  -1    1.21    0.21
  -6  -9   1    1.06    0.19
  -6   9   1    1.36    0.21
   6   9  -1    1.40    0.20
  -5  -9   1    0.19    0.12
   5   9  -1    0.07    0.12
  -5   9   1   -0.05    0.10
  -4  -9   1   34.40    0.93
  -4   9   1   34.69    0.94
   4   9  -1   34.62    0.91
  -3  -9   1    1.06    0.16
  -3   9   1    1.17    0.16
   3   9  -1    1.50    0.17
   2   9  -1    5.93    0.28
  -2   9   1    6.12    0.29
   1   9  -1    3.17    0.21
  -1   9   1    2.78    0.20
   0   9   1    1.42    0.15
   0   9  -1    1.60    0.16
   0   9  -1    1.31    0.14
  -1  -9  -1    7.65    0.32
   1   9   1    8.14    0.33
  -1   9  -1    7.98    0.34
  -1   9  -1    7.78    0.31
  -2  -9  -1   24.66    0.70
   2   9   1   24.66    0.68
  -2   9  -1   25.09    0.73
  -2   9  -1   25.97    0.70
  -3  -9  -1    0.23    0.11
   3   9   1    0.29    0.11
  -3   9  -1    0.22    0.14
  -3   9  -1    0.45    0.12
  -4  -9  -1    6.17    0.33
   4   9   1    5.45    0.30
  -4   9  -1    5.98    0.31
  -4   9  -1    6.02    0.35
  -5  -9  -1    1.10    0.18
   5   9   1    1.30    0.18
  -5   9  -1    1.20    0.20
  -5   9  -1    1.37    0.19
  -6  -9  -1    2.75    0.28
  -6   9  -1    2.07    0.25
  -6   9  -1    2.39    0.28
   6   9   1    2.68    0.25
  -7  -9  -1    0.16    0.15
  -7   9  -1   -0.03    0.12
   7   9   1    0.16    0.14
  -7 -10   1   -0.06    0.11
  -7  10   1   -0.02    0.13
   7  10  -1   -0.05    0.14
  -6 -10   1   45.75    1.23
  -6  10   1   46.02    1.26
   6  10  -1   44.88    1.19
  -5 -10   1    3.31    0.26
   5  10  -1    3.13    0.26
  -5  10   1    3.45    0.28
  -4 -10   1   18.31    0.63
  -4  10   1   19.15    0.63
   4  10  -1   19.01    0.61
  -3 -10   1    8.65    0.39
   3  10  -1    8.40    0.37
  -3  10   1    8.57    0.38
  -2 -10   1   67.34    1.55
   2  10  -1   67.86    1.55
  -2  10   1   68.88    1.58
   1  10  -1    1.15    0.15
  -1  10   1    0.93    0.14
   0  10   1   62.65    1.46
   0  10  -1   63.83    1.47
   0  10  -1   65.75    1.47
  -1 -10  -1    0.20    0.09
   1  10   1    0.05    0.10
  -1  10  -1   -0.05    0.09
  -1  10  -1   -0.01    0.08
  -2 -10  -1    3.17    0.22
  -2  10  -1    3.08    0.25
  -2  10  -1    2.78    0.22
   2  10   1    2.97    0.22
  -3 -10  -1   35.64    0.96
  -3  10  -1   36.45    0.95
  -3  10  -1   35.61    1.01
   3  10   1   35.87    0.93
  -4 -10  -1  105.19    2.30
  -4  10  -1  102.76    2.37
   4  10   1  103.02    2.27
  -4  10  -1  102.81    2.31
  -5 -10  -1   -0.05    0.10
  -5  10  -1    0.00    0.12
   5  10   1   -0.01    0.12
  -5  10  -1    0.10    0.11
  -6 -10  -1   26.93    0.86
   6  10   1   25.26    0.78
  -6  10  -1   26.34    0.90
  -6  10  -1   26.83    0.84
  -6 -11   1    0.66    0.17
  -6  11   1    0.53    0.17
   6  11  -1    0.51    0.17
  -5 -11   1   -0.12    0.11
   5  11  -1    0.12    0.14
  -5  11   1   -0.05    0.11
  -4 -11   1    1.46    0.20
   4  11  -1    1.68    0.21
  -4  11   1    1.82    0.22
  -3 -11   1   19.39    0.65
  -3  11   1   20.40    0.65
   3  11  -1   19.11    0.62
  -2 -11   1    0.32    0.12
   2  11  -1    0.11    0.11
  -2  11   1    0.39    0.13
   1  11  -1   11.48    0.44
  -1  11   1   10.97    0.43
   0  11  -1   11.53    0.44
   0  11   1   11.65    0.44
  -1 -11  -1    0.01    0.09
  -1  11  -1    0.32    0.12
  -1  11  -1    0.12    0.11
   1  11   1    0.24    0.11
  -2 -11  -1   12.26    0.46
  -2  11  -1   11.09    0.48
   2  11   1   11.92    0.45
  -2  11  -1   11.36    0.44
  -3 -11  -1   13.83    0.54
  -3  11  -1   15.55    0.54
   3  11   1   14.19    0.51
  -3  11  -1   14.54    0.58
  -4 -11  -1    6.88    0.38
   4  11   1    6.66    0.34
  -4  11  -1    7.49    0.38
  -4  11  -1    6.91    0.40
  -5 -11  -1    1.09    0.19
  -5  11  -1    0.93    0.18
   5  11   1    1.20    0.19
  -5  11  -1    1.07    0.21
  -6 -11  -1    1.25    0.22
  -6  11  -1    1.40    0.22
   6  11   1    1.10    0.20
  -5 -12   1    0.05    0.13
  -5  12   1    0.20    0.14
   5  12  -1    0.06    0.14
  -4 -12   1   41.26    1.12
  -4  12   1   38.83    1.11
   4  12  -1   39.99    1.08
  -3 -12   1    3.21    0.27
   3  12  -1    3.23    0.26
  -3  12   1    3.47    0.27
  -2 -12   1    6.34    0.35
   2  12  -1    5.95    0.33
  -2  12   1    6.24    0.35
  -1  12   1    4.90    0.30
   1  12  -1    4.88    0.30
   0  12  -1   26.93    0.78
   0  12   1   26.73    0.79
  -1 -12  -1    0.80    0.16
  -1  12  -1    0.56    0.14
   1  12   1    0.86    0.16
  -2 -12  -1   30.93    0.90
  -2  12  -1   32.11    0.90
   2  12   1   32.01    0.89
  -3 -12  -1    0.35    0.14
  -3  12  -1    0.35    0.13
   3  12   1    0.47    0.14
  -4 -12  -1    6.25    0.38
   4  12   1    6.36    0.35
  -4  12  -1    6.45    0.38
  -5 -12  -1    0.30    0.15
  -5  12  -1    0.25    0.14
   5  12   1    0.00    0.13
  -4 -13   1    0.84    0.18
  -4  13   1    0.85    0.19
   4  13  -1    0.39    0.16
  -3 -13   1    6.03    0.37
  -3  13   1    6.02    0.36
   3  13  -1    5.23    0.33
  -2 -13   1    8.57    0.43
  -2  13   1    8.62    0.43
   2  13  -1    9.03    0.43
  -1  13   1    0.35    0.13
   1  13  -1    0.29    0.13
   0 -13  -1    0.19    0.12
   0  13   1    0.15    0.13
   0  13  -1    0.13    0.12
  -1 -13  -1    9.84    0.44
  -1  13  -1    9.41    0.43
   1  13   1    9.07    0.42
  -2 -13  -1    2.83    0.27
  -2  13  -1    3.18    0.26
   2  13   1    2.47    0.25
  -3 -13  -1    1.81    0.24
   3  13   1    1.63    0.22
  -3  13  -1    2.23    0.25
  -4 -13  -1    0.97    0.19
  -4  13  -1    1.37    0.22
   4  13   1    1.03    0.19
  -3 -14   1    0.04    0.13
  -3  14   1   -0.06    0.12
   3  14  -1   -0.18    0.12
  -2 -14   1   32.78    0.99
   2  14  -1   32.60    0.97
  -2  14   1   32.63    0.99
  -1 -14   1    1.60    0.22
   1  14  -1    1.54    0.22
  -1  14   1    1.56    0.22
   0 -14  -1   14.00    0.55
   0  14   1   13.29    0.54
   0  14  -1   13.96    0.55
  -1 -14  -1    1.01    0.19
   1  14   1    0.81    0.17
  -1  14  -1    1.09    0.19
  -2 -14  -1   12.24    0.54
  -2  14  -1   13.09    0.55
   2  14   1   12.50    0.52
  -3 -14  -1    0.28    0.15
   3  14   1    0.21    0.15
  -3  14  -1    0.48    0.16
   1 -15  -1   11.49    0.50
  -1 -15   1   11.55    0.52
   0 -15  -1    2.05    0.25
   0  15   1    1.91    0.25
   0  15  -1    1.85    0.24
   9   0  -2   -0.21    0.10
   8   0  -2   79.22    1.84
  -7   0   2   -0.03    0.08
   7   0  -2    0.10    0.11
   6   0  -2   51.46    1.24
  -6   0   2   54.04    1.17
  -5   0   2   -0.04    0.05
   5   0  -2   -0.02    0.07
  -4   0   2   61.89    1.30
   4   0  -2   66.07    1.39
  -3   0   2    0.00    0.03
   3   0  -2    0.05    0.05
  -3   0   2   -0.01    0.04
  -2   0   2  377.08    7.14
   2   0  -2  356.03    7.29
  -2   0   2  383.64    7.29
   1   0  -2    0.01    0.03
  -1   0   2   -0.21    0.03
   0   0   2  249.50    5.02
   0   0  -2  255.39    4.94
   0   0  -2  259.95    4.83
  -1   0  -2   -0.05    0.03
  -2   0  -2   53.63    1.12
   2   0   2   53.43    1.09
  -2   0  -2   54.63    1.12
  -3   0  -2   -0.08    0.04
   3   0   2   -0.10    0.04
  -3   0  -2   -0.11    0.05
  -4   0  -2  132.61    2.66
  -4   0  -2  131.63    2.66
   4   0   2  131.27    2.65
  -5   0  -2    0.00    0.06
  -5   0  -2   -0.09    0.07
   5   0   2   -0.05    0.06
  -6   0  -2   21.41    0.59
  -6   0  -2   20.43    0.63
   6   0   2   22.91    0.59
  -7   0  -2    0.05    0.10
  -8   0  -2   12.78    0.51
  -9   0  -2    0.05    0.13
   9  -1  -2    3.76    0.29
   9   1  -2    3.53    0.28
   8  -1  -2    5.00    0.33
   8   1  -2    5.69    0.33
  -7  -1   2    4.63    0.25
   7  -1  -2    4.05    0.27
   7   1  -2    4.37    0.27
   6  -1  -2   49.17    1.19
  -6  -1   2   49.37    1.11
   6   1  -2   49.15    1.18
  -6   1   2   49.65    1.09
   5  -1  -2    8.40    0.32
  -5  -1   2    7.99    0.28
   5   1  -2    7.84    0.31
  -5   1   2    7.81    0.26
  -5   1   2    8.04    0.33
  -4  -1   2   59.41    1.31
   4   1  -2   64.94    1.38
  -4   1   2   65.54    1.29
  -4   1   2   64.43    1.40
  -3  -1   2   34.92    0.74
  -3   1   2   35.01    0.72
  -3   1   2   34.69    0.81
   3   1  -2   34.76    0.73
   3   1  -2   34.63    0.79
  -2  -1   2   16.12    0.35
  -2   1   2   16.10    0.40
  -2   1   2   15.48    0.32
   2   1  -2   14.89    0.35
   2   1  -2   15.93    0.39
   1  -1  -2  524.35   10.29
   1   1  -2  522.60   10.41
   1   1  -2  522.96   10.29
  -1   1   2  499.93   10.27
   0  -1  -2  308.79    6.25
   0  -1  -2  321.39    6.47
   0   1  -2  338.84    6.31
   0   1   2  329.61    6.43
   0   1  -2  301.71    6.34
  -1  -1  -2   44.67    0.88
   1   1   2   42.97    0.85
  -1   1  -2   41.77    0.85
  -1   1  -2   42.27    0.89
  -1   1  -2   41.18    0.87
  -2  -1  -2   62.14    1.26
  -2  -1  -2   62.64    1.28
   2   1   2   59.87    1.24
  -2   1  -2   60.18    1.25
  -2   1  -2   63.19    1.29
  -2   1  -2   63.79    1.27
  -3  -1  -2  153.75    2.98
  -3  -1  -2  149.95    2.98
  -3   1  -2  153.04    3.02
  -3   1  -2  150.04    2.97
   3   1   2  152.07    2.99
  -3   1  -2  145.12    2.99
  -4  -1  -2    2.64    0.14
   4  -1   2    2.37    0.14
  -4  -1  -2    2.15    0.17
   4   1   2    2.26    0.13
  -4   1  -2    2.47    0.16
  -4   1  -2    2.55    0.16
  -5  -1  -2   54.98    1.25
   5  -1   2   54.20    1.20
  -5  -1  -2   54.24    1.19
  -5   1  -2   54.37    1.23
  -5   1  -2   54.40    1.23
   5   1   2   54.80    1.19
   6  -1   2   42.52    0.99
  -6  -1  -2   42.01    1.05
   6   1   2   41.24    0.98
  -6   1  -2   42.55    1.04
  -6   1  -2   43.54    1.03
  -7  -1  -2    2.98    0.25
  -7   1  -2    2.64    0.22
  -8  -1  -2    0.00    0.11
  -8   1  -2   -0.14    0.09
  -9  -1  -2    0.04    0.13
  -9   1  -2    0.07    0.12
   9  -2  -2    0.25    0.15
   9   2  -2    0.35    0.14
   8  -2  -2    8.61    0.42
   7  -2  -2    1.73    0.20
  -7  -2   2    1.57    0.18
   7   2  -2    1.43    0.18
  -6  -2   2   95.52    1.99
  -6   2   2   93.29    2.09
   6   2  -2   93.98    2.05
  -6   2   2   94.53    1.93
  -5  -2   2   41.98    0.94
   5   2  -2   40.87    0.98
  -5   2   2   40.33    1.00
   5   2  -2   40.05    0.85
  -5   2   2   40.57    0.89
  -4  -2   2   74.36    1.50
   4   2  -2   72.51    1.56
  -4   2   2   72.67    1.59
  -4   2   2   72.36    1.46
   4   2  -2   72.38    1.45
  -3  -2   2  133.87    2.67
  -3   2   2  130.29    2.62
   3   2  -2  138.38    2.66
   3   2  -2  141.01    2.77
  -3   2   2  139.32    2.79
  -2  -2   2    0.09    0.04
  -2   2   2    0.03    0.04
   2   2  -2    0.11    0.03
   2   2  -2    0.07    0.04
   1   2  -2    6.72    0.17
  -1   2   2    6.61    0.19
   1   2  -2    6.61    0.19
   0  -2  -2  940.47   19.39
   0  -2  -2  989.32   18.94
   0   2  -2  987.83   19.41
   0   2   2 1000.00   19.45
   0   2  -2  967.65   19.42
  -1  -2  -2  206.85    4.30
  -1  -2  -2  226.94    4.26
   1   2   2  224.51    4.33
  -1   2  -2  218.77    4.32
  -1   2  -2  231.32    4.35
  -2  -2  -2   43.91    0.90
  -2  -2  -2   43.92    0.94
  -2   2  -2   44.09    0.91
  -2   2  -2   42.63    0.95
   2   2   2   42.77    0.90
  -2   2  -2   44.11    0.93
  -3  -2  -2   65.40    1.47
  -3  -2  -2   73.50    1.53
  -3   2  -2   74.46    1.52
   3   2   2   75.23    1.49
  -3   2  -2   74.32    1.55
  -3   2  -2   75.17    1.51
  -4  -2  -2  206.61    4.31
  -4  -2  -2  220.96    4.34
  -4   2  -2  219.34    4.38
  -4   2  -2  225.95    4.32
   4   2   2  224.53    4.36
  -4   2  -2  223.45    4.41
  -5  -2  -2   20.90    0.51
  -5  -2  -2   19.60    0.58
  -5   2  -2   20.15    0.57
   5   2   2   20.18    0.53
  -5   2  -2   21.27    0.59
  -5   2  -2   21.32    0.56
  -6  -2  -2   82.79    1.86
   6  -2   2   86.37    1.83
  -6   2  -2   84.57    1.84
   6   2   2   84.12    1.80
  -6   2  -2   84.16    1.87
  -7  -2  -2   -0.01    0.11
  -7   2  -2    0.05    0.10
  -7   2  -2    0.05    0.10
  -8  -2  -2    2.50    0.26
  -8   2  -2    2.27    0.23
   9  -3  -2    3.41    0.29
   9   3  -2    4.07    0.29
   8  -3  -2   16.30    0.60
  -8  -3   2   16.38    0.56
   8   3  -2   16.29    0.58
   7  -3  -2   16.41    0.56
  -7  -3   2   15.10    0.52
   7   3  -2   14.93    0.53
  -7   3   2   16.74    0.59
  -6  -3   2   25.16    0.68
  -6   3   2   25.45    0.62
   6   3  -2   24.35    0.70
  -6   3   2   25.91    0.75
  -5  -3   2   51.63    1.15
   5   3  -2   51.30    1.18
  -5   3   2   50.79    1.21
  -4  -3   2   64.64    1.40
   4   3  -2   66.68    1.45
  -4   3   2   68.36    1.48
  -3  -3   2    0.47    0.07
   3   3  -2    0.33    0.07
  -3   3   2    0.32    0.07
   3   3  -2    0.30    0.03
  -2   3   2   27.26    0.63
   2   3  -2   27.23    0.62
   2   3  -2   26.25    0.56
   1   3  -2   23.68    0.54
  -1   3   2   24.76    0.55
   1   3  -2   23.73    0.52
   0  -3  -2  443.58    8.65
   0  -3  -2  436.28    8.57
   0   3  -2  431.16    9.02
   0   3  -2  450.15    8.72
   0   3   2  451.24    8.92
  -1  -3  -2  247.01    4.59
  -1  -3  -2  240.19    4.64
  -1   3  -2  221.39    4.70
   1   3   2  246.35    4.68
  -2  -3  -2    0.80    0.09
  -2  -3  -2    0.91    0.07
   2   3   2    0.86    0.08
  -2   3  -2    0.77    0.09
  -2   3  -2    0.79    0.07
  -3  -3  -2   80.29    1.58
  -3  -3  -2   78.68    1.65
  -3   3  -2   83.74    1.63
  -3   3  -2   72.71    1.62
  -3   3  -2   77.99    1.68
   3   3   2   78.85    1.62
  -4  -3  -2   20.49    0.48
  -4  -3  -2   21.26    0.58
   4   3   2   20.53    0.52
  -4   3  -2   20.04    0.53
  -4   3  -2   21.60    0.59
  -4   3  -2   21.25    0.55
  -5  -3  -2   19.00    0.58
   5   3   2   19.78    0.52
  -5   3  -2   20.65    0.57
  -5   3  -2   19.46    0.59
  -5   3  -2   20.17    0.55
  -6  -3  -2    1.17    0.18
  -6   3  -2    1.62    0.19
   6   3   2    1.50    0.15
  -6   3  -2    1.30    0.16
  -6   3  -2    1.10    0.15
  -7  -3  -2    1.38    0.21
  -7   3  -2    1.58    0.20
  -7   3  -2    1.51    0.18
  -8  -3  -2    0.35    0.15
  -8   3  -2    0.16    0.11
   9  -4  -2    0.64    0.18
   9   4  -2    0.70    0.17
   8  -4  -2    0.90    0.18
  -8  -4   2    0.78    0.16
  -8   4   2    0.56    0.15
   8   4  -2    0.91    0.17
  -7  -4   2    3.07    0.25
  -7   4   2    3.18    0.27
   7   4  -2    3.24    0.25
  -6  -4   2   31.52    0.81
   6   4  -2   30.11    0.81
  -6   4   2   30.65    0.86
  -5  -4   2    0.11    0.08
   5   4  -2   -0.07    0.07
  -5   4   2   -0.04    0.08
  -4  -4   2  137.28    2.74
  -4   4   2  135.26    2.84
   4   4  -2  136.78    2.81
  -3  -4   2    6.47    0.24
   3   4  -2    6.28    0.24
  -3   4   2    6.56    0.26
   2   4  -2    5.03    0.19
  -2   4   2    4.90    0.20
   2   4  -2    5.41    0.15
   1   4  -2   10.49    0.29
   1   4  -2   10.55    0.28
  -1   4   2   10.77    0.30
   0  -4  -2   83.12    1.63
   0   4   2   81.28    1.67
   0   4  -2   80.70    1.67
   0   4  -2   82.39    1.67
  -1  -4  -2   34.62    0.76
  -1  -4  -2   35.43    0.73
  -1   4  -2   34.23    0.75
   1   4   2   34.04    0.75
  -1   4  -2   33.76    0.78
  -2  -4  -2  418.31    8.63
  -2  -4  -2  452.81    8.52
   2   4   2  453.13    8.69
  -2   4  -2  453.31    8.69
  -2   4  -2  447.25    8.69
  -3  -4  -2   14.24    0.42
  -3  -4  -2   13.48    0.33
   3   4   2   13.54    0.37
  -3   4  -2   13.92    0.43
  -3   4  -2   14.56    0.38
  -4  -4  -2   87.14    1.86
   4   4   2   86.71    1.81
  -4   4  -2   86.13    1.84
  -4   4  -2   87.75    1.90
  -5  -4  -2    1.67    0.19
  -5   4  -2    1.71    0.16
  -5   4  -2    1.81    0.19
   5   4   2    1.90    0.16
  -6  -4  -2   15.75    0.55
   6   4   2   15.30    0.47
  -6   4  -2   15.46    0.55
  -6   4  -2   15.70    0.51
  -7  -4  -2    1.04    0.18
  -7   4  -2    0.69    0.16
  -8  -4  -2   44.93    1.22
  -8  -5   2    0.10    0.12
  -8   5   2    0.36    0.15
   8   5  -2    0.25    0.14
  -7  -5   2   49.17    1.21
  -7   5   2   47.93    1.27
   7   5  -2   49.14    1.22
  -6  -5   2    5.48    0.29
   6   5  -2    5.01    0.28
  -6   5   2    5.13    0.30
  -5  -5   2    1.46    0.16
   5   5  -2    1.47    0.16
  -5   5   2    1.54    0.17
  -4  -5   2   11.46    0.38
  -4   5   2   11.35    0.40
   4   5  -2   12.00    0.39
  -3  -5   2   90.71    1.86
  -3   5   2   89.19    1.92
   3   5  -2   90.38    1.90
  -2   5   2    7.25    0.25
   2   5  -2    6.95    0.20
   2   5  -2    6.69    0.25
  -1   5   2  323.19    6.34
   1   5  -2  317.90    6.26
   1   5  -2  324.19    6.33
   0  -5  -2   27.74    0.62
   0   5  -2   26.36    0.64
   0   5  -2   27.77    0.63
   0   5   2   27.48    0.63
  -1  -5  -2   38.10    0.81
  -1  -5  -2   38.13    0.84
   1   5   2   37.24    0.83
  -1   5  -2   37.99    0.87
  -1   5  -2   37.45    0.83
  -2  -5  -2    2.20    0.15
  -2  -5  -2    1.89    0.10
  -2   5  -2    2.01    0.12
  -2   5  -2    2.04    0.15
   2   5   2    2.18    0.13
  -3  -5  -2  115.52    2.28
  -3  -5  -2  113.89    2.38
  -3   5  -2  114.03    2.38
   3   5   2  117.32    2.37
  -3   5  -2  118.72    2.45
  -4  -5  -2    6.43    0.30
  -4   5  -2    6.65    0.27
   4   5   2    6.76    0.27
  -4   5  -2    6.81    0.31
  -5  -5  -2   68.37    1.56
   5   5   2   67.57    1.49
  -5   5  -2   66.97    1.59
  -5   5  -2   69.79    1.53
  -6  -5  -2    0.18    0.13
   6   5   2    0.32    0.11
  -6   5  -2    0.27    0.12
  -6   5  -2    0.23    0.10
  -7  -5  -2   34.98    1.01
  -7   5  -2   36.64    1.03
  -8  -5  -2    0.04    0.13
  -8   5  -2   -0.10    0.12
  -8  -6   2    4.32    0.32
   8   6  -2    3.89    0.29
  -8   6   2    4.52    0.33
  -7  -6   2   11.01    0.47
  -7   6   2   12.59    0.52
   7   6  -2   12.03    0.47
  -6  -6   2    7.17    0.34
   6   6  -2    7.28    0.34
  -6   6   2    7.08    0.36
  -5  -6   2   24.66    0.68
  -5   6   2   24.04    0.71
   5   6  -2   24.01    0.68
  -4  -6   2   61.57    1.38
  -4   6   2   61.48    1.43
   4   6  -2   63.23    1.40
  -3  -6   2   98.12    2.02
  -3   6   2   96.28    2.07
   3   6  -2   97.90    2.06
   2   6  -2   59.97    1.25
  -2   6   2   60.06    1.33
   2   6  -2   62.04    1.33
  -1   6   2  110.93    2.30
   1   6  -2  111.18    2.25
   1   6  -2  111.93    2.29
   0   6   2   32.94    0.75
   0   6  -2   31.83    0.76
   0   6  -2   31.88    0.75
  -1  -6  -2   16.34    0.42
  -1  -6  -2   17.23    0.46
   1   6   2   17.08    0.45
  -1   6  -2   17.64    0.49
  -1   6  -2   16.96    0.45
  -2  -6  -2    0.40    0.08
  -2  -6  -2    0.46    0.06
  -2   6  -2    0.37    0.10
   2   6   2    0.54    0.09
  -2   6  -2    0.55    0.08
  -3  -6  -2    2.64    0.11
  -3  -6  -2    3.28    0.20
   3   6   2    2.81    0.17
  -3   6  -2    3.21    0.18
  -3   6  -2    3.09    0.20
  -4  -6  -2    2.31    0.20
  -4   6  -2    2.57    0.21
  -4   6  -2    2.69    0.18
   4   6   2    2.47    0.18
  -5  -6  -2    0.09    0.10
   5   6   2    0.21    0.10
  -5   6  -2    0.40    0.11
  -5   6  -2    0.09    0.09
  -6  -6  -2    2.96    0.25
   6   6   2    3.14    0.22
  -6   6  -2    2.96    0.25
  -6   6  -2    3.18    0.24
  -7  -6  -2    3.62    0.29
  -7   6  -2    3.47    0.29
  -8  -6  -2    3.42    0.32
  -8   6  -2    3.60    0.32
  -8  -7   2   11.05    0.49
  -8   7   2   10.37    0.51
   8   7  -2    9.79    0.47
  -7  -7   2   26.46    0.81
  -7   7   2   27.48    0.86
   7   7  -2   26.07    0.79
  -6  -7   2    0.16    0.11
  -6   7   2    0.21    0.13
   6   7  -2    0.35    0.14
  -5  -7   2   16.87    0.55
  -5   7   2   16.74    0.57
   5   7  -2   17.39    0.55
  -4  -7   2    1.57    0.17
   4   7  -2    1.41    0.17
  -4   7   2    1.51    0.17
  -3  -7   2  137.64    2.84
  -3   7   2  139.76    2.92
   3   7  -2  141.67    2.90
  -2   7   2    5.71    0.25
   2   7  -2    6.38    0.21
   2   7  -2    6.30    0.27
   1   7  -2   94.33    1.99
  -1   7   2   95.47    2.00
   1   7  -2   93.69    1.95
   0   7  -2  142.69    2.88
   0   7  -2  138.86    2.87
   0   7   2  140.37    2.88
  -1  -7  -2   56.92    1.24
   1   7   2   56.80    1.24
  -1   7  -2   56.08    1.24
  -1   7  -2   55.21    1.27
  -2  -7  -2   36.88    0.89
  -2  -7  -2   36.71    0.80
  -2   7  -2   36.54    0.87
   2   7   2   37.16    0.86
  -2   7  -2   35.78    0.91
  -3  -7  -2   67.60    1.50
   3   7   2   66.35    1.47
  -3   7  -2   67.01    1.55
  -3   7  -2   67.16    1.48
  -4  -7  -2    9.39    0.39
  -4   7  -2    9.61    0.41
  -4   7  -2    9.79    0.36
   4   7   2    9.88    0.35
  -5  -7  -2   10.64    0.44
  -5   7  -2   10.70    0.47
  -5   7  -2   10.83    0.41
   5   7   2   11.08    0.39
  -6  -7  -2    0.80    0.17
  -6   7  -2    0.57    0.16
  -6   7  -2    0.69    0.14
   6   7   2    0.77    0.15
  -7  -7  -2   25.29    0.82
  -7   7  -2   24.29    0.84
  -8  -8   2    2.56    0.29
   8   8  -2    2.40    0.28
  -8   8   2    2.67    0.31
  -7  -8   2    3.78    0.30
   7   8  -2    4.48    0.32
  -7   8   2    4.00    0.32
  -6  -8   2    1.06    0.17
   6   8  -2    0.90    0.17
  -6   8   2    1.11    0.19
  -5  -8   2    6.82    0.34
   5   8  -2    7.46    0.35
  -5   8   2    7.50    0.36
  -4  -8   2    3.60    0.24
   4   8  -2    3.22    0.23
  -4   8   2    3.58    0.24
  -3  -8   2   49.27    1.16
  -3   8   2   48.71    1.18
   3   8  -2   49.69    1.16
   2   8  -2   90.31    1.85
  -2   8   2   89.52    1.94
   2   8  -2   88.39    1.93
   1   8  -2   25.66    0.66
  -1   8   2   25.46    0.67
   1   8  -2   24.24    0.63
   0   8  -2   36.86    0.88
   0   8   2   35.27    0.87
   0   8  -2   36.82    0.87
  -1  -8  -2   13.25    0.43
   1   8   2   13.74    0.42
  -1   8  -2   13.20    0.42
  -1   8  -2   13.64    0.45
  -2  -8  -2   54.02    1.17
  -2  -8  -2   56.06    1.27
  -2   8  -2   54.88    1.31
   2   8   2   56.17    1.25
  -2   8  -2   55.89    1.26
  -3  -8  -2   29.23    0.80
  -3   8  -2   29.82    0.77
   3   8   2   29.70    0.76
  -3   8  -2   29.87    0.84
  -4  -8  -2    2.92    0.22
   4   8   2    2.99    0.21
  -4   8  -2    2.56    0.23
  -4   8  -2    2.98    0.21
  -5  -8  -2    0.75    0.15
   5   8   2    0.73    0.15
  -5   8  -2    0.62    0.15
  -5   8  -2    0.85    0.15
  -6  -8  -2   11.47    0.50
   6   8   2   12.79    0.46
  -6   8  -2   11.36    0.47
  -6   8  -2   12.28    0.55
  -7  -8  -2    0.86    0.20
  -7   8  -2    0.85    0.20
  -7  -9   2   22.18    0.76
  -7   9   2   22.93    0.80
   7   9  -2   22.30    0.73
  -6  -9   2    2.20    0.25
  -6   9   2    2.53    0.27
   6   9  -2    1.97    0.23
  -5  -9   2   54.21    1.35
   5   9  -2   55.77    1.35
  -5   9   2   54.94    1.39
  -4  -9   2   23.70    0.71
  -4   9   2   24.25    0.73
   4   9  -2   24.60    0.71
  -3  -9   2   54.60    1.29
  -3   9   2   54.37    1.32
   3   9  -2   55.02    1.30
  -2   9   2    0.07    0.09
   2   9  -2    0.23    0.10
   1   9  -2   41.70    0.98
  -1   9   2   40.61    1.01
   1   9  -2   41.64    1.00
   0  -9  -2    5.40    0.25
   0   9  -2    4.84    0.25
   0   9   2    5.27    0.26
   0   9  -2    4.63    0.25
  -1  -9  -2   85.98    1.87
  -1   9  -2   87.85    1.93
  -1   9  -2   87.93    1.90
   1   9   2   86.75    1.89
  -2  -9  -2    6.75    0.32
  -2   9  -2    6.85    0.30
  -2   9  -2    7.17    0.34
   2   9   2    6.57    0.30
  -3  -9  -2   41.48    1.05
   3   9   2   40.81    1.00
  -3   9  -2   40.82    1.02
  -3   9  -2   41.12    1.09
  -4  -9  -2   -0.05    0.09
   4   9   2    0.21    0.11
  -4   9  -2    0.13    0.13
  -4   9  -2    0.07    0.10
  -5  -9  -2   14.73    0.57
  -5   9  -2   15.25    0.54
  -5   9  -2   15.17    0.61
   5   9   2   15.51    0.52
  -6  -9  -2    4.32    0.32
  -6   9  -2    4.58    0.31
  -6   9  -2    4.21    0.34
   6   9   2    4.73    0.30
  -7  -9  -2   10.10    0.51
  -7   9  -2    9.69    0.53
  -7 -10   2    0.48    0.17
   7  10  -2    0.55    0.18
  -7  10   2    1.34    0.24
  -6 -10   2    6.11    0.37
   6  10  -2    5.85    0.35
  -6  10   2    6.47    0.39
  -5 -10   2    0.03    0.10
   5  10  -2    0.06    0.13
  -5  10   2    0.07    0.12
  -4 -10   2    0.06    0.11
   4  10  -2    0.20    0.13
  -4  10   2    0.23    0.12
  -3 -10   2   13.35    0.49
   3  10  -2   14.21    0.50
  -3  10   2   14.44    0.51
  -2  10   2    0.02    0.09
   2  10  -2    0.15    0.11
   1  10  -2   19.26    0.59
   1  10  -2   19.93    0.57
  -1  10   2   19.58    0.59
   0 -10  -2   15.84    0.51
   0  10  -2   16.45    0.53
   0  10  -2   16.57    0.52
   0  10   2   15.79    0.51
  -1 -10  -2   15.93    0.52
  -1  10  -2   16.19    0.52
   1  10   2   15.61    0.51
  -1  10  -2   16.19    0.55
  -2 -10  -2   27.57    0.78
  -2  10  -2   27.29    0.81
   2  10   2   27.54    0.76
  -2  10  -2   27.13    0.75
  -3 -10  -2   31.61    0.88
  -3  10  -2   31.09    0.92
  -3  10  -2   31.66    0.85
   3  10   2   29.88    0.82
  -4 -10  -2    0.12    0.12
   4  10   2    0.00    0.11
  -4  10  -2   -0.12    0.11
  -4  10  -2   -0.01    0.09
  -5 -10  -2    0.81    0.18
   5  10   2    0.95    0.17
  -5  10  -2    1.05    0.18
  -5  10  -2    0.80    0.20
  -6 -10  -2    0.29    0.16
  -6  10  -2    0.33    0.16
   6  10   2   -0.03    0.13
  -6 -11   2    0.81    0.19
   6  11  -2    0.68    0.19
  -6  11   2    0.76    0.19
  -5 -11   2    9.06    0.45
   5  11  -2    9.24    0.44
  -5  11   2    9.03    0.46
  -4 -11   2    1.91    0.22
   4  11  -2    2.08    0.23
  -4  11   2    2.30    0.25
  -3 -11   2   71.16    1.67
   3  11  -2   71.08    1.67
  -3  11   2   72.17    1.70
  -2  11   2    0.56    0.13
   2  11  -2    0.35    0.12
   1  11  -2   24.11    0.67
  -1  11   2   22.95    0.70
   1  11  -2   23.42    0.69
   0 -11  -2   16.03    0.53
   0  11   2   16.62    0.54
   0  11  -2   16.33    0.54
   0  11  -2   15.68    0.53
  -1 -11  -2   51.36    1.24
   1  11   2   49.79    1.24
  -1  11  -2   52.99    1.29
  -1  11  -2   50.91    1.25
  -2 -11  -2    1.73    0.21
  -2  11  -2    1.54    0.19
  -2  11  -2    1.84    0.22
   2  11   2    1.53    0.19
  -3 -11  -2   71.76    1.68
  -3  11  -2   72.30    1.67
   3  11   2   69.95    1.63
  -3  11  -2   68.57    1.73
  -4 -11  -2    0.07    0.12
   4  11   2   -0.02    0.11
  -4  11  -2    0.22    0.12
  -4  11  -2   -0.13    0.12
  -5 -11  -2    5.95    0.37
  -5  11  -2    5.47    0.39
  -5  11  -2    6.57    0.37
   5  11   2    6.01    0.34
  -6 -11  -2   -0.10    0.13
   6  11   2   -0.02    0.13
  -6  11  -2    0.08    0.13
  -5 -12   2    1.24    0.21
   5  12  -2    0.98    0.20
  -5  12   2    0.96    0.21
  -4 -12   2    0.59    0.16
   4  12  -2    0.79    0.17
  -4  12   2    0.85    0.18
  -3 -12   2    3.12    0.27
   3  12  -2    2.96    0.26
  -3  12   2    3.23    0.26
   2  12  -2   36.90    1.00
  -2  12   2   36.81    1.02
  -1  12   2    1.61    0.20
   1  12  -2    1.83    0.21
   0 -12  -2   11.06    0.44
   0  12  -2   11.36    0.45
   0  12  -2   11.57    0.46
   0  12   2   11.07    0.45
  -1 -12  -2   15.53    0.56
  -1  12  -2   16.38    0.59
   1  12   2   15.46    0.55
  -1  12  -2   16.04    0.56
  -2 -12  -2    0.18    0.12
   2  12   2   -0.11    0.10
  -2  12  -2    0.25    0.12
  -2  12  -2    0.06    0.11
  -3 -12  -2    1.43    0.21
   3  12   2    1.28    0.20
  -3  12  -2    1.41    0.20
  -3  12  -2    1.26    0.22
  -4 -12  -2    4.42    0.32
  -4  12  -2    4.79    0.33
  -4  12  -2    3.99    0.33
   4  12   2    4.33    0.30
  -5 -12  -2    0.35    0.17
  -5  12  -2    1.08    0.23
  -5  12  -2    0.67    0.17
   5  12   2    0.77    0.18
  -4 -13   2    0.46    0.16
   4  13  -2    0.42    0.17
  -4  13   2    0.40    0.16
  -3 -13   2   16.11    0.62
  -3  13   2   16.20    0.63
   3  13  -2   15.58    0.59
  -2 -13   2    9.30    0.44
   2  13  -2    8.96    0.42
  -2  13   2    8.65    0.43
   1 -13  -2   45.17    1.15
  -1  13   2   44.50    1.20
   1  13  -2   46.38    1.20
   0 -13  -2    4.70    0.31
   0  13   2    4.85    0.30
   0  13  -2    5.11    0.32
  -1 -13  -2   13.52    0.52
  -1  13  -2   12.49    0.51
   1  13   2   12.64    0.51
  -2 -13  -2    0.66    0.16
  -2  13  -2    0.59    0.18
  -2  13  -2    0.92    0.17
   2  13   2    0.66    0.16
  -3 -13  -2    0.18    0.15
  -3  13  -2    0.45    0.15
  -3  13  -2    0.34    0.16
   3  13   2    0.38    0.15
  -4 -13  -2    8.52    0.47
  -4  13  -2    9.03    0.46
  -4  13  -2    8.96    0.51
   4  13   2    9.08    0.44
  -3 -14   2    1.45    0.23
   3  14  -2    1.26    0.21
  -3  14   2    1.55    0.23
  -2 -14   2    0.54    0.17
   2  14  -2    0.47    0.17
  -2  14   2    0.43    0.15
   1 -14  -2   10.29    0.45
  -1  14   2    9.99    0.47
   1  14  -2    9.76    0.46
   0 -14  -2   20.25    0.70
   0  14   2   21.96    0.73
   0  14  -2   20.55    0.71
  -1 -14  -2    6.63    0.38
  -1  14  -2    6.62    0.37
   1  14   2    7.32    0.39
  -2 -14  -2    8.28    0.44
  -2  14  -2    8.43    0.43
   2  14   2    7.47    0.40
  -3 -14  -2    1.87    0.25
  -3  14  -2    1.96    0.25
   3  14   2    2.00    0.24
   9   0  -3    7.62    0.41
   8   0  -3    0.06    0.12
   7   0  -3   10.58    0.43
  -6   0   3   -0.04    0.06
   6   0  -3    0.03    0.09
   5   0  -3   48.63    1.13
  -5   0   3   47.38    1.02
   4   0  -3    0.03    0.06
   4   0  -3    0.09    0.05
  -4   0   3    0.01    0.04
   3   0  -3  423.63    8.16
   3   0  -3  421.22    8.27
  -3   0   3  417.35    7.97
  -3   0   3  421.86    8.28
   1   0  -3  146.69    2.85
  -1   0   3  142.96    2.87
   0   0  -3    0.00    0.02
   0   0  -3   -0.10    0.03
   0   0  -3   -0.11    0.02
  -1   0  -3    2.46    0.11
  -1   0  -3    2.34    0.11
  -2   0  -3    0.27    0.06
   2   0   3    0.04    0.02
  -2   0  -3    0.05    0.05
  -3   0  -3  176.07    3.63
   3   0   3  184.29    3.58
  -3   0  -3  187.34    3.60
   4   0   3   -0.02    0.05
  -4   0  -3   -0.09    0.05
  -4   0  -3   -0.02    0.06
   5   0   3   47.22    1.03
  -5   0  -3   47.36    1.09
  -5   0  -3   46.68    1.12
  -6   0  -3    0.04    0.08
  -6   0  -3   -0.04    0.09
  -7   0  -3    9.14    0.43
  -8   0  -3   -0.07    0.11
   9  -1  -3    6.93    0.40
   9   1  -3    7.99    0.41
   8  -1  -3    3.63    0.28
   8   1  -3    3.31    0.27
   7  -1  -3   45.49    1.16
   7   1  -3   44.74    1.14
  -6  -1   3   14.75    0.42
   6  -1  -3   13.58    0.47
   6   1  -3   13.88    0.47
  -6   1   3   12.73    0.38
  -5  -1   3   76.81    1.59
   5  -1  -3   75.57    1.70
   5   1  -3   77.98    1.70
  -5   1   3   79.69    1.73
  -5   1   3   76.18    1.56
   5   1  -3   78.14    1.59
  -4  -1   3   22.41    0.51
   4   1  -3   21.48    0.57
  -4   1   3   21.71    0.59
   4   1  -3   21.07    0.50
  -4   1   3   22.03    0.48
  -3  -1   3  210.53    4.02
   3   1  -3  213.33    4.20
  -3   1   3  211.36    4.21
  -3   1   3  206.45    3.99
   3   1  -3  209.26    4.10
   2  -1  -3   33.96    0.74
   2   1  -3   33.11    0.71
  -2   1   3   33.34    0.76
   2   1  -3   34.59    0.75
   1  -1  -3   10.04    0.20
   1  -1  -3    9.74    0.26
  -1   1   3   10.08    0.26
   1   1  -3    9.26    0.25
   1   1  -3    9.35    0.25
   0  -1  -3   54.15    1.11
   0  -1  -3   53.26    1.07
   0   1  -3   51.76    1.07
   0   1  -3   53.89    1.11
   0   1   3   55.40    1.08
  -1  -1  -3  102.92    2.05
  -1  -1  -3   99.23    2.08
  -1   1  -3  106.67    2.10
  -1   1  -3  105.46    2.05
   1   1   3  106.03    2.03
  -1   1  -3  104.70    2.03
  -2  -1  -3    3.19    0.15
  -2   1  -3    2.94    0.15
  -2   1  -3    3.02    0.10
   2   1   3    3.10    0.10
  -2   1  -3    3.16    0.15
  -3  -1  -3  113.25    2.26
  -3  -1  -3  105.65    2.24
   3  -1   3  108.40    2.21
  -3   1  -3  112.94    2.22
   3   1   3  110.26    2.21
  -3   1  -3  113.09    2.28
  -3   1  -3  114.46    2.25
  -4  -1  -3    8.08    0.28
  -4  -1  -3    8.42    0.32
   4  -1   3    8.66    0.25
  -4   1  -3    8.29    0.31
   4   1   3    8.29    0.25
  -4   1  -3    8.21    0.30
  -5  -1  -3   20.98    0.54
  -5  -1  -3   19.51    0.59
   5  -1   3   20.52    0.51
  -5   1  -3   20.57    0.58
  -5   1  -3   19.40    0.58
   5   1   3   20.32    0.51
  -6  -1  -3    1.63    0.19
  -6   1  -3    1.83    0.19
  -6   1  -3    1.85    0.19
  -7  -1  -3   68.18    1.59
  -7   1  -3   65.14    1.56
  -8  -1  -3    1.01    0.19
  -8   1  -3    0.65    0.16
   9  -2  -3    0.01    0.12
   9   2  -3    0.14    0.13
   8  -2  -3   26.01    0.81
   8   2  -3   26.12    0.79
   7  -2  -3    7.93    0.38
  -7  -2   3    8.35    0.34
   7   2  -3    7.82    0.37
  -6  -2   3    0.04    0.08
   6   2  -3    0.20    0.11
  -6   2   3    0.06    0.10
  -5  -2   3   35.68    0.81
   5   2  -3   34.81    0.87
  -5   2   3   33.94    0.75
   5   2  -3   35.48    0.75
  -5   2   3   35.76    0.91
  -4  -2   3    0.09    0.05
  -4   2   3    0.13    0.07
   4   2  -3   -0.04    0.05
   4   2  -3   -0.05    0.04
  -4   2   3    0.01    0.03
  -3  -2   3    5.07    0.17
   3   2  -3    4.93    0.15
   3   2  -3    5.14    0.20
  -3   2   3    4.76    0.22
   2   2  -3    0.00    0.03
  -2   2   3    0.02    0.04
   2   2  -3    0.02    0.03
   1  -2  -3  265.04    5.20
   1  -2  -3  282.60    5.37
   1   2  -3  267.76    5.39
  -1   2   3  282.27    5.40
   1   2  -3  278.18    5.35
   0  -2  -3  171.16    3.32
   0  -2  -3  171.96    3.40
   0   2  -3  175.05    3.41
   0   2   3  176.51    3.40
   0   2  -3  170.05    3.39
  -1  -2  -3    5.70    0.19
  -1  -2  -3    5.81    0.18
   1   2   3    5.33    0.15
  -1   2  -3    5.77    0.20
  -1   2  -3    6.05    0.15
  -2  -2  -3    0.57    0.08
  -2  -2  -3    0.61    0.07
  -2   2  -3    0.65    0.08
  -2   2  -3    0.62    0.05
  -2   2  -3    0.47    0.07
   2   2   3    0.64    0.06
  -3  -2  -3    4.16    0.20
  -3  -2  -3    4.12    0.16
  -3   2  -3    4.29    0.20
   3   2   3    3.76    0.14
  -3   2  -3    3.94    0.15
  -3   2  -3    3.92    0.19
  -4  -2  -3   71.55    1.59
  -4  -2  -3   76.91    1.65
  -4   2  -3   78.81    1.64
  -4   2  -3   78.18    1.60
  -4   2  -3   77.38    1.67
   4   2   3   77.12    1.58
   5  -2   3   49.93    1.10
  -5  -2  -3   49.91    1.11
  -5  -2  -3   50.30    1.19
   5   2   3   50.61    1.09
  -5   2  -3   50.14    1.17
  -5   2  -3   50.09    1.19
  -6  -2  -3    0.56    0.14
  -6   2  -3    0.26    0.12
  -6   2  -3    0.27    0.11
  -7  -2  -3    1.36    0.20
  -7   2  -3    1.34    0.19
  -7   2  -3    1.33    0.19
  -8  -2  -3    2.24    0.26
  -8   2  -3    1.93    0.23
   9  -3  -3    1.49    0.23
   9   3  -3    1.78    0.23
   8  -3  -3    1.29    0.21
   8   3  -3    0.87    0.17
  -7  -3   3   68.97    1.52
   7  -3  -3   66.46    1.60
  -7   3   3   67.47    1.63
   7   3  -3   65.83    1.58
  -6  -3   3   14.99    0.47
   6   3  -3   14.87    0.50
  -6   3   3   15.29    0.54
  -5  -3   3   36.22    0.85
   5   3  -3   36.92    0.90
  -5   3   3   35.71    0.93
  -4  -3   3   32.31    0.77
   4   3  -3   33.23    0.70
  -4   3   3   34.15    0.84
   4   3  -3   34.69    0.82
  -3  -3   3  114.54    2.35
   3   3  -3  119.43    2.35
  -3   3   3  120.89    2.47
   3   3  -3  122.15    2.45
   2   3  -3    9.37    0.28
  -2   3   3    9.25    0.29
   2   3  -3    9.07    0.24
   1  -3  -3  436.36    8.23
   1  -3  -3  443.97    8.39
   1   3  -3  424.13    8.46
  -1   3   3  436.59    8.44
   1   3  -3  417.93    8.44
   0  -3  -3   25.16    0.57
   0  -3  -3   24.97    0.55
   0   3  -3   24.83    0.58
   0   3  -3   24.70    0.55
   0   3   3   25.21    0.55
  -1  -3  -3  160.59    3.37
  -1  -3  -3  174.13    3.34
   1   3   3  172.81    3.38
  -1   3  -3  178.01    3.42
  -1   3  -3  172.64    3.38
  -2  -3  -3   57.48    1.15
  -2  -3  -3   56.90    1.19
  -2   3  -3   55.78    1.22
  -2   3  -3   51.72    1.14
   2   3   3   54.87    1.14
  -3  -3  -3  227.26    4.50
  -3  -3  -3  232.11    4.50
  -3   3  -3  229.28    4.48
   3   3   3  225.17    4.52
  -3   3  -3  229.55    4.59
  -3   3  -3  233.16    4.53
  -4  -3  -3    2.06    0.13
  -4  -3  -3    1.93    0.18
  -4   3  -3    2.19    0.16
  -4   3  -3    2.30    0.15
  -4   3  -3    2.46    0.19
   4   3   3    2.43    0.14
  -5  -3  -3  123.72    2.61
  -5   3  -3  125.41    2.58
  -5   3  -3  125.37    2.58
  -5   3  -3  124.24    2.65
   5   3   3  124.03    2.54
  -6  -3  -3   39.27    1.04
  -6   3  -3   40.44    1.04
  -6   3  -3   39.48    1.00
  -7  -3  -3   17.77    0.63
  -7   3  -3   17.74    0.61
  -7   3  -3   16.87    0.58
  -8  -3  -3    4.72    0.33
  -8   3  -3    5.05    0.32
   9  -4  -3    2.19    0.27
   9   4  -3    2.42    0.27
   8  -4  -3   -0.07    0.11
   8   4  -3   -0.02    0.12
  -8   4   3    0.09    0.12
  -7  -4   3   21.73    0.65
  -7   4   3   22.33    0.73
   7   4  -3   21.02    0.67
  -6  -4   3  112.69    2.32
  -6   4   3  110.90    2.45
   6   4  -3  108.82    2.39
  -5  -4   3    0.94    0.12
  -5   4   3    0.97    0.15
   5   4  -3    1.38    0.16
  -4  -4   3   45.75    1.02
   4   4  -3   44.79    1.06
  -4   4   3   46.18    1.09
  -3  -4   3    1.36    0.11
  -3   4   3    1.48    0.13
   3   4  -3    1.34    0.13
   3   4  -3    1.52    0.08
   2   4  -3    0.20    0.04
   2   4  -3    0.01    0.06
  -2   4   3    0.16    0.06
   1  -4  -3   82.45    1.62
   1   4  -3   81.44    1.69
   1   4  -3   84.29    1.68
  -1   4   3   81.27    1.70
   0  -4  -3  325.61    6.19
   0  -4  -3  316.35    6.06
   0   4   3  314.47    6.22
   0   4  -3  309.88    6.22
   0   4  -3  320.03    6.20
  -1  -4  -3    0.53    0.06
  -1  -4  -3    0.30    0.06
   1   4   3    0.29    0.06
  -1   4  -3    0.30    0.07
  -1   4  -3    0.38    0.06
  -2  -4  -3   35.17    0.75
  -2  -4  -3   34.29    0.80
  -2   4  -3   32.19    0.75
   2   4   3   34.78    0.75
  -2   4  -3   34.75    0.83
  -3  -4  -3   21.79    0.53
  -3  -4  -3   23.85    0.62
  -3   4  -3   23.86    0.64
  -3   4  -3   24.09    0.56
   3   4   3   23.25    0.55
  -4  -4  -3   83.53    1.74
  -4  -4  -3   86.62    1.85
  -4   4  -3   81.56    1.79
   4   4   3   86.51    1.78
  -4   4  -3   89.84    1.89
  -5  -4  -3   23.46    0.70
  -5   4  -3   24.03    0.63
   5   4   3   24.44    0.61
  -5   4  -3   23.68    0.71
  -6  -4  -3   36.77    0.99
  -6   4  -3   36.57    1.00
  -7  -4  -3   15.96    0.60
  -7   4  -3   14.17    0.56
  -8  -4  -3    3.04    0.31
  -8   5   3    0.45    0.16
   8   5  -3    0.66    0.16
  -7  -5   3    9.19    0.40
  -7   5   3    9.28    0.44
   7   5  -3    8.45    0.40
  -6  -5   3    9.28    0.36
  -6   5   3    8.00    0.39
   6   5  -3    7.57    0.35
  -5  -5   3    0.18    0.08
  -5   5   3    0.25    0.11
   5   5  -3    0.04    0.09
  -4  -5   3   33.22    0.81
   4   5  -3   33.72    0.84
  -4   5   3   33.10    0.86
  -3  -5   3  187.07    3.66
  -3   5   3  185.53    3.79
   3   5  -3  185.01    3.63
   3   5  -3  186.44    3.76
   2   5  -3   32.66    0.77
  -2   5   3   33.16    0.79
   2   5  -3   32.70    0.72
   1  -5  -3   16.20    0.40
  -1   5   3   16.76    0.44
   1   5  -3   16.45    0.42
   1   5  -3   16.33    0.43
   0  -5  -3    5.32    0.20
   0  -5  -3    5.89    0.21
   0   5  -3    5.41    0.22
   0   5   3    5.73    0.20
   0   5  -3    5.46    0.20
  -1  -5  -3   50.55    1.08
  -1  -5  -3   50.52    1.06
   1   5   3   50.71    1.07
  -1   5  -3   47.26    1.06
  -1   5  -3   50.23    1.12
  -2  -5  -3   34.53    0.76
  -2  -5  -3   34.85    0.82
  -2   5  -3   34.41    0.78
  -2   5  -3   35.23    0.85
   2   5   3   34.39    0.78
  -3  -5  -3   99.16    2.05
  -3  -5  -3   94.14    1.95
   3   5   3   98.47    2.00
  -3   5  -3   96.77    2.09
  -3   5  -3   97.47    2.01
  -4  -5  -3    4.85    0.26
  -4   5  -3    4.97    0.27
   4   5   3    4.78    0.22
  -4   5  -3    5.07    0.23
  -5  -5  -3    5.74    0.30
   5   5   3    5.11    0.24
  -5   5  -3    4.94    0.30
  -5   5  -3    5.40    0.26
  -6  -5  -3    4.35    0.30
  -6   5  -3    4.23    0.29
  -7  -5  -3    5.58    0.35
  -7   5  -3    5.36    0.35
  -8  -5  -3    8.15    0.45
  -8   5  -3    8.02    0.44
  -8  -6   3    7.76    0.39
  -8   6   3    6.60    0.41
   8   6  -3    6.95    0.38
  -7  -6   3    2.77    0.24
  -7   6   3    2.44    0.27
   7   6  -3    2.77    0.25
  -6  -6   3   13.92    0.48
  -6   6   3   13.52    0.53
   6   6  -3   13.49    0.48
  -5  -6   3   16.41    0.52
  -5   6   3   16.52    0.56
   5   6  -3   17.08    0.53
  -4  -6   3  175.82    3.58
   4   6  -3  180.50    3.68
  -4   6   3  181.33    3.72
   3   6  -3   13.48    0.42
   3   6  -3   13.55    0.33
  -3   6   3   13.60    0.44
   2   6  -3   25.35    0.60
  -2   6   3   25.70    0.66
   2   6  -3   26.83    0.66
   1   6  -3    7.09    0.25
   1   6  -3    6.51    0.25
  -1   6   3    6.58    0.25
   0  -6  -3   96.68    1.95
   0   6  -3   95.75    2.01
   0   6   3   95.40    1.99
   0   6  -3   97.12    1.99
  -1  -6  -3   43.31    0.95
  -1  -6  -3   43.41    0.98
   1   6   3   43.50    0.97
  -1   6  -3   43.28    1.02
  -1   6  -3   44.80    0.97
  -2  -6  -3  127.45    2.68
  -2  -6  -3  137.44    2.73
  -2   6  -3  133.42    2.80
   2   6   3  139.13    2.73
  -2   6  -3  134.23    2.73
  -3  -6  -3   13.84    0.46
  -3  -6  -3   13.54    0.36
  -3   6  -3   13.68    0.48
  -3   6  -3   14.69    0.42
   3   6   3   14.81    0.41
  -4  -6  -3   24.68    0.71
  -4   6  -3   24.59    0.73
  -4   6  -3   25.37    0.66
   4   6   3   25.52    0.64
  -5  -6  -3    1.80    0.21
   5   6   3    2.07    0.18
  -5   6  -3    2.43    0.24
  -5   6  -3    2.19    0.18
  -6  -6  -3   33.52    0.97
  -6   6  -3   34.98    1.00
  -7  -6  -3    0.45    0.16
  -7   6  -3    0.39    0.15
  -8  -6  -3   17.96    0.71
  -8   6  -3   19.76    0.74
  -8  -7   3    6.27    0.37
  -8   7   3    6.15    0.40
   8   7  -3    6.00    0.37
  -7  -7   3    0.09    0.12
   7   7  -3    0.03    0.13
  -7   7   3   -0.15    0.10
  -6  -7   3   -0.04    0.08
  -6   7   3    0.00    0.11
   6   7  -3    0.05    0.12
  -5  -7   3   17.02    0.55
  -5   7   3   17.22    0.59
   5   7  -3   17.43    0.56
  -4  -7   3   82.33    1.79
  -4   7   3   82.88    1.86
   4   7  -3   81.79    1.82
  -3   7   3    2.65    0.20
   3   7  -3    2.23    0.20
  -2   7   3    3.28    0.19
   2   7  -3    3.03    0.16
   2   7  -3    2.97    0.20
   1   7  -3   29.74    0.72
   1   7  -3   30.76    0.75
  -1   7   3   29.79    0.74
   0  -7  -3   13.87    0.40
   0   7  -3   14.09    0.41
   0   7   3   13.77    0.41
   0   7  -3   13.44    0.42
  -1  -7  -3    6.72    0.24
  -1  -7  -3    6.42    0.27
  -1   7  -3    6.20    0.28
   1   7   3    6.53    0.25
  -1   7  -3    6.40    0.25
  -2  -7  -3   61.37    1.30
  -2  -7  -3   61.87    1.38
   2   7   3   63.35    1.36
  -2   7  -3   62.42    1.43
  -2   7  -3   61.65    1.36
  -3  -7  -3   12.14    0.44
  -3   7  -3   13.04    0.40
  -3   7  -3   12.03    0.46
   3   7   3   12.16    0.38
  -4  -7  -3    0.65    0.14
   4   7   3    0.38    0.11
  -4   7  -3    0.63    0.11
  -4   7  -3    0.63    0.14
  -5  -7  -3    0.05    0.11
  -5   7  -3    0.31    0.13
  -5   7  -3    0.15    0.09
   5   7   3    0.28    0.11
  -6  -7  -3    1.99    0.24
  -6   7  -3    1.59    0.23
  -7  -7  -3    4.03    0.33
  -7   7  -3    3.86    0.33
  -8  -8   3    1.96    0.25
  -7  -8   3    0.99    0.18
  -7   8   3    0.77    0.18
   7   8  -3    0.75    0.17
  -6  -8   3   29.60    0.85
   6   8  -3   28.65    0.84
  -6   8   3   29.30    0.90
  -5  -8   3    1.20    0.17
   5   8  -3    1.40    0.19
  -5   8   3    1.20    0.18
  -4  -8   3    9.89    0.39
   4   8  -3   11.10    0.42
  -4   8   3   10.92    0.43
   3   8  -3    2.22    0.19
  -3   8   3    2.13    0.19
   2   8  -3   38.13    0.87
   2   8  -3   38.22    0.93
  -2   8   3   37.68    0.94
   1   8  -3    5.58    0.25
  -1   8   3    5.95    0.27
   1   8  -3    6.11    0.25
   0  -8  -3  108.95    2.23
   0   8  -3  108.54    2.29
   0   8  -3  109.09    2.28
   0   8   3  106.47    2.28
  -1  -8  -3    9.71    0.35
  -1  -8  -3    9.38    0.31
   1   8   3    9.23    0.33
  -1   8  -3    9.39    0.37
  -1   8  -3    9.59    0.34
  -2  -8  -3    1.80    0.12
  -2   8  -3    1.73    0.19
  -2   8  -3    1.82    0.16
   2   8   3    2.07    0.16
  -3  -8  -3    6.13    0.31
  -3   8  -3    6.76    0.35
   3   8   3    7.62    0.30
  -3   8  -3    6.76    0.29
  -4  -8  -3   58.37    1.41
  -4   8  -3   59.31    1.36
  -4   8  -3   57.43    1.45
   4   8   3   58.37    1.33
  -5  -8  -3    0.68    0.15
  -5   8  -3    0.76    0.14
   5   8   3    0.71    0.14
  -5   8  -3    0.77    0.17
  -6  -8  -3    4.34    0.32
  -6   8  -3    3.68    0.31
  -7  -8  -3    4.72    0.36
  -7   8  -3    3.71    0.33
  -7  -9   3    1.38    0.22
   7   9  -3    1.30    0.21
  -7   9   3    1.43    0.23
  -6  -9   3   19.37    0.67
  -6   9   3   21.75    0.74
   6   9  -3   20.28    0.68
  -5  -9   3    0.90    0.16
   5   9  -3    1.24    0.19
  -5   9   3    1.32    0.19
  -4  -9   3    3.33    0.24
   4   9  -3    3.13    0.24
  -4   9   3    3.77    0.26
  -3   9   3    7.51    0.34
   3   9  -3    6.83    0.33
  -2   9   3    7.61    0.33
   2   9  -3    7.13    0.32
   1  -9  -3    3.88    0.21
   1   9  -3    4.47    0.24
   1   9  -3    4.28    0.23
  -1   9   3    3.91    0.23
   0  -9  -3   60.54    1.35
   0   9  -3   62.15    1.40
   0   9  -3   61.23    1.38
   0   9   3   59.32    1.38
  -1  -9  -3   26.36    0.67
  -1  -9  -3   25.42    0.71
  -1   9  -3   27.08    0.71
  -1   9  -3   25.33    0.74
   1   9   3   27.09    0.71
  -2  -9  -3    0.17    0.10
   2   9   3   -0.08    0.09
  -2   9  -3    0.08    0.08
  -2   9  -3    0.09    0.10
  -3  -9  -3    1.50    0.19
  -3   9  -3    1.24    0.20
  -3   9  -3    1.63    0.17
   3   9   3    2.17    0.19
  -4  -9  -3   10.40    0.45
   4   9   3   11.16    0.40
  -4   9  -3   10.58    0.48
  -4   9  -3   10.30    0.41
  -5  -9  -3    0.67    0.17
  -5   9  -3    0.42    0.16
  -5   9  -3    0.66    0.15
   5   9   3    0.66    0.14
  -6  -9  -3   16.53    0.64
  -6   9  -3   15.96    0.67
  -7 -10   3    0.49    0.17
   7  10  -3    0.68    0.19
  -7  10   3    0.75    0.20
  -6 -10   3    5.94    0.36
  -6  10   3    5.80    0.38
   6  10  -3    5.30    0.35
  -5 -10   3    1.58    0.20
   5  10  -3    1.29    0.20
  -5  10   3    2.04    0.24
  -4 -10   3   25.66    0.77
   4  10  -3   25.81    0.76
  -4  10   3   25.01    0.78
  -3 -10   3    0.61    0.13
  -3  10   3    0.58    0.14
   3  10  -3    0.83    0.15
   2  10  -3   50.59    1.20
  -2  10   3   47.35    1.20
   1 -10  -3    7.03    0.30
   1  10  -3    7.33    0.33
  -1  10   3    7.59    0.34
   1  10  -3    7.56    0.32
   0 -10  -3   97.81    2.07
   0  10  -3   98.02    2.12
   0  10  -3   96.61    2.12
   0  10   3   96.04    2.12
  -1 -10  -3    2.41    0.18
  -1 -10  -3    2.84    0.22
   1  10   3    2.60    0.20
  -1  10  -3    2.66    0.21
  -1  10  -3    2.57    0.23
  -2 -10  -3   44.81    1.13
  -2  10  -3   44.83    1.11
  -2  10  -3   45.78    1.19
   2  10   3   45.95    1.11
  -3 -10  -3    0.39    0.14
  -3  10  -3    0.05    0.12
  -3  10  -3    0.17    0.10
   3  10   3    0.36    0.12
  -4 -10  -3   34.00    0.96
  -4  10  -3   32.04    0.90
  -4  10  -3   32.19    0.99
   4  10   3   32.93    0.87
  -5 -10  -3    0.62    0.17
  -5  10  -3    0.67    0.15
  -5  10  -3    0.87    0.20
   5  10   3    0.36    0.14
  -6 -10  -3   14.43    0.62
  -6  10  -3   15.14    0.66
  -6 -11   3    0.14    0.13
   6  11  -3    0.02    0.14
  -6  11   3    0.12    0.14
  -5 -11   3    3.90    0.29
   5  11  -3    3.99    0.29
  -5  11   3    4.50    0.33
  -4 -11   3    1.69    0.21
  -4  11   3    2.11    0.24
   4  11  -3    1.24    0.20
  -3 -11   3    2.23    0.23
  -3  11   3    2.08    0.23
   3  11  -3    2.11    0.23
  -2  11   3    2.12    0.21
   2  11  -3    2.42    0.22
   1 -11  -3    0.03    0.09
   1  11  -3    0.05    0.09
   1  11  -3   -0.09    0.09
  -1  11   3    0.08    0.10
   0 -11  -3    3.97    0.25
   0  11  -3    4.04    0.26
   0  11  -3    3.64    0.25
   0  11   3    3.75    0.25
  -1 -11  -3   12.64    0.48
   1  11   3   13.07    0.47
  -1  11  -3   13.74    0.48
  -1  11  -3   13.16    0.51
  -2 -11  -3   25.57    0.76
  -2  11  -3   23.92    0.78
   2  11   3   24.76    0.72
  -2  11  -3   25.70    0.74
  -3 -11  -3    2.37    0.25
  -3  11  -3    2.88    0.24
  -3  11  -3    2.75    0.29
   3  11   3    2.94    0.24
  -4 -11  -3    4.47    0.32
  -4  11  -3    4.26    0.33
   4  11   3    4.78    0.29
  -4  11  -3    4.27    0.29
  -5 -11  -3    1.24    0.22
   5  11   3    1.49    0.20
  -5  11  -3    1.29    0.24
  -5 -12   3    3.96    0.31
   5  12  -3    3.40    0.30
  -5  12   3    3.50    0.31
  -4 -12   3   25.90    0.82
   4  12  -3   26.13    0.81
  -4  12   3   25.70    0.84
  -3 -12   3    0.36    0.14
   3  12  -3    0.45    0.16
  -3  12   3    0.40    0.14
  -2  12   3   44.04    1.18
   2  12  -3   45.90    1.17
   1 -12  -3    0.53    0.14
   1  12  -3    0.61    0.15
  -1  12   3    0.66    0.15
   0 -12  -3   36.48    0.98
   0  12  -3   37.30    1.00
   0  12  -3   38.44    1.02
   0  12   3   37.32    1.01
  -1 -12  -3    0.46    0.13
  -1  12  -3    0.42    0.14
  -1  12  -3    0.54    0.13
   1  12   3    0.47    0.14
  -2 -12  -3   26.50    0.82
  -2  12  -3   26.93    0.85
   2  12   3   26.19    0.78
  -2  12  -3   26.93    0.79
  -3 -12  -3   16.47    0.63
   3  12   3   17.58    0.60
  -3  12  -3   17.38    0.68
  -3  12  -3   17.61    0.61
  -4 -12  -3   24.12    0.82
   4  12   3   23.68    0.75
  -4  12  -3   25.72    0.89
  -4  12  -3   25.61    0.80
  -5 -12  -3    4.35    0.35
  -4 -13   3   11.21    0.52
  -4  13   3    9.59    0.49
   4  13  -3   10.65    0.49
  -3 -13   3   30.23    0.93
  -3  13   3   30.91    0.95
   3  13  -3   30.33    0.91
  -2  13   3    0.47    0.16
   2  13  -3    0.50    0.16
   1 -13  -3   21.50    0.68
   1  13  -3   22.52    0.72
  -1  13   3   21.62    0.73
   0 -13  -3   12.74    0.50
   0  13  -3   12.70    0.51
   0  13   3   14.60    0.54
  -1 -13  -3   10.92    0.47
  -1  13  -3   10.81    0.47
  -1  13  -3   11.49    0.50
   1  13   3   10.79    0.46
  -2 -13  -3    7.12    0.40
  -2  13  -3    7.47    0.42
   2  13   3    6.94    0.37
  -2  13  -3    7.77    0.39
  -3 -13  -3   18.70    0.69
  -3  13  -3   18.55    0.73
  -3  13  -3   17.85    0.65
   3  13   3   19.93    0.66
  -4 -13  -3    1.10    0.21
  -3 -14   3    2.16    0.27
  -3  14   3    2.04    0.27
   3  14  -3    2.43    0.27
  -2 -14   3    0.63    0.16
  -2  14   3    0.84    0.20
   2  14  -3    0.61    0.18
   1 -14  -3    1.07    0.19
   1  14  -3    1.27    0.20
  -1  14   3    1.10    0.20
   0 -14  -3   10.43    0.46
   0  14   3    9.87    0.47
   0  14  -3   10.39    0.47
  -1 -14  -3    4.76    0.33
  -1  14  -3    5.07    0.33
  -1  14  -3    5.53    0.37
   1  14   3    5.02    0.33
  -2 -14  -3    0.21    0.14
  -2  14  -3    0.23    0.13
  -2  14  -3    0.40    0.17
   2  14   3    0.16    0.13
   9   0  -4   -0.11    0.12
   8   0  -4    6.13    0.36
   7   0  -4    0.09    0.11
   6   0  -4    8.73    0.37
   6   0  -4    8.65    0.30
  -5   0   4    0.00    0.05
   5   0  -4    0.12    0.06
   5   0  -4    0.02    0.08
  -4   0   4  115.36    2.36
   4   0  -4  124.39    2.46
   4   0  -4  126.47    2.54
  -3   0   4   -0.02    0.05
   3   0  -4    0.12    0.05
   3   0  -4   -0.08    0.04
  -3   0   4    0.03    0.03
   2   0  -4  180.75    3.53
  -2   0   4  176.81    3.57
   2   0  -4  178.48    3.56
   1   0  -4   -0.06    0.03
   1   0  -4    0.02    0.04
  -1   0   4   -0.03    0.03
   0   0  -4    0.33    0.04
   0   0  -4    0.34    0.05
   0   0  -4    0.43    0.07
  -1   0  -4   -0.06    0.04
  -1   0  -4   -0.02    0.04
  -2   0  -4   40.55    0.91
  -2   0  -4   41.99    0.92
  -3   0  -4    0.03    0.05
   3   0   4    0.05    0.03
  -3   0  -4   -0.01    0.06
  -4   0  -4  285.34    5.57
   4   0   4  283.52    5.55
  -4   0  -4  282.96    5.63
  -5   0  -4    0.05    0.08
  -5   0  -4   -0.01    0.07
  -6   0  -4   52.58    1.27
  -6   0  -4   50.89    1.22
  -7   0  -4    0.00    0.12
  -8   0  -4    1.50    0.22
   9  -1  -4    0.77    0.19
   9   1  -4    0.38    0.16
   8  -1  -4   27.66    0.85
   8   1  -4   28.57    0.85
   7  -1  -4    0.23    0.12
   7   1  -4    0.16    0.12
   6  -1  -4    0.72    0.11
   6  -1  -4    0.74    0.14
   6   1  -4    0.62    0.13
   5  -1  -4    2.07    0.18
  -5  -1   4    2.14    0.14
   5  -1  -4    2.03    0.15
   5   1  -4    2.09    0.13
   5   1  -4    1.65    0.17
  -5   1   4    2.27    0.19
   4  -1  -4   66.76    1.39
  -4  -1   4   63.71    1.31
   4   1  -4   66.05    1.35
  -4   1   4   67.26    1.46
   4   1  -4   64.82    1.43
  -4   1   4   61.04    1.26
  -3  -1   4   56.77    1.18
   3  -1  -4   59.52    1.26
   3   1  -4   60.40    1.24
   3   1  -4   60.53    1.29
  -3   1   4   59.86    1.31
   2  -1  -4  218.09    4.25
   2   1  -4  214.00    4.28
  -2   1   4  213.34    4.29
   2   1  -4  218.58    4.24
   1  -1  -4    3.64    0.10
   1  -1  -4    3.59    0.15
   1   1  -4    3.43    0.13
   1   1  -4    3.52    0.14
  -1   1   4    3.46    0.14
   0  -1  -4  172.18    3.41
   0  -1  -4  169.43    3.32
   0   1  -4  175.31    3.42
   0   1   4  170.36    3.39
   0   1  -4  175.63    3.38
  -1  -1  -4   22.47    0.53
  -1  -1  -4   22.57    0.54
  -1   1  -4   22.75    0.53
   1   1   4   22.79    0.46
  -1   1  -4   22.69    0.55
  -2  -1  -4   -0.02    0.05
  -2  -1  -4    0.13    0.05
  -2   1  -4    0.22    0.07
  -2   1  -4    0.07    0.05
  -3  -1  -4   14.40    0.40
   3  -1   4   13.65    0.31
  -3  -1  -4   13.89    0.42
  -3   1  -4   14.61    0.42
   3   1   4   13.79    0.31
  -3   1  -4   13.61    0.42
  -4  -1  -4    0.03    0.06
  -4  -1  -4   -0.12    0.08
   4   1   4    0.28    0.06
  -4   1  -4    0.09    0.08
  -4   1  -4   -0.24    0.07
  -5  -1  -4   11.30    0.42
  -5  -1  -4   11.72    0.38
  -5   1  -4   11.56    0.42
  -5   1  -4   10.84    0.40
  -6  -1  -4   22.77    0.70
  -6   1  -4   21.81    0.68
  -6   1  -4   23.38    0.68
  -7  -1  -4    0.38    0.15
  -7   1  -4    0.23    0.14
  -8  -1  -4    0.22    0.14
  -8   1  -4    0.23    0.14
   9  -2  -4    4.56    0.33
   9   2  -4    4.44    0.33
   8  -2  -4    5.70    0.35
   8   2  -4    5.04    0.32
   7  -2  -4    2.27    0.23
   7   2  -4    2.08    0.22
   6  -2  -4   72.43    1.68
  -6  -2   4   75.77    1.55
  -6   2   4   70.94    1.70
   6   2  -4   72.57    1.66
  -5  -2   4   26.83    0.65
   5   2  -4   27.85    0.73
   5   2  -4   27.31    0.63
  -5   2   4   28.46    0.77
  -4  -2   4  129.09    2.57
   4   2  -4  132.06    2.60
   4   2  -4  130.77    2.70
  -4   2   4  129.88    2.73
   3  -2  -4   68.45    1.48
  -3  -2   4   70.14    1.41
   3   2  -4   71.49    1.50
   3   2  -4   70.56    1.44
  -3   2   4   71.27    1.53
   2  -2  -4   87.24    1.80
   2   2  -4   87.11    1.77
   2   2  -4   87.31    1.80
  -2   2   4   87.91    1.82
   1  -2  -4  143.95    2.69
   1  -2  -4  140.27    2.81
   1   2  -4  142.92    2.80
  -1   2   4  144.57    2.82
   1   2  -4  131.90    2.80
   0  -2  -4  136.32    2.71
   0  -2  -4  134.21    2.63
   0   2  -4  141.16    2.73
   0   2   4  134.46    2.69
   0   2  -4  133.04    2.68
  -1  -2  -4    0.12    0.05
  -1  -2  -4    0.17    0.05
   1   2   4    0.07    0.03
  -1   2  -4    0.13    0.06
  -1   2  -4    0.25    0.03
  -2  -2  -4  120.75    2.40
  -2  -2  -4  111.05    2.40
  -2   2  -4  121.82    2.45
  -2   2  -4  121.10    2.39
  -2   2  -4  120.37    2.35
   2   2   4  120.01    2.34
  -3  -2  -4   26.83    0.68
  -3  -2  -4   26.94    0.64
   3   2   4   26.54    0.57
  -3   2  -4   27.86    0.67
  -3   2  -4   24.74    0.58
  -3   2  -4   27.43    0.69
  -4  -2  -4   61.74    1.42
   4  -2   4   68.69    1.38
  -4  -2  -4   67.85    1.49
   4   2   4   67.30    1.38
  -4   2  -4   67.75    1.50
  -4   2  -4   68.62    1.48
  -5  -2  -4   28.78    0.70
  -5  -2  -4   27.35    0.77
  -5   2  -4   27.18    0.76
  -5   2  -4   27.04    0.75
  -6  -2  -4   24.99    0.75
  -6   2  -4   24.84    0.73
  -6   2  -4   24.75    0.73
  -7  -2  -4   -0.04    0.11
  -7   2  -4    0.07    0.12
  -7   2  -4    0.31    0.14
  -8  -2  -4   25.05    0.82
  -8   2  -4   23.90    0.78
   9  -3  -4    1.91    0.26
   9   3  -4    1.89    0.24
   8  -3  -4   -0.10    0.11
   8   3  -4   -0.07    0.10
   7  -3  -4   23.66    0.74
  -7   3   4   24.13    0.77
   7   3  -4   23.14    0.72
  -6  -3   4   30.89    0.75
  -6   3   4   28.57    0.84
   6   3  -4   28.82    0.80
  -5  -3   4   13.87    0.40
   5   3  -4   13.20    0.45
  -5   3   4   13.92    0.48
  -4  -3   4   86.87    1.78
  -4   3   4   87.80    1.91
   4   3  -4   87.84    1.76
   4   3  -4   88.44    1.88
   3   3  -4   10.41    0.34
  -3   3   4   10.43    0.36
   3   3  -4   11.15    0.29
   2  -3  -4    0.66    0.08
   2  -3  -4    0.67    0.04
   2   3  -4    0.81    0.09
  -2   3   4    0.78    0.09
   2   3  -4    0.61    0.07
   1  -3  -4    1.51    0.08
   1  -3  -4    1.95    0.12
  -1   3   4    1.66    0.11
   1   3  -4    1.46    0.11
   1   3  -4    1.60    0.11
   0  -3  -4  147.93    2.92
   0  -3  -4  149.58    3.00
   0   3  -4  152.43    2.98
   0   3   4  152.07    2.99
   0   3  -4  150.01    3.01
  -1  -3  -4   41.72    0.90
  -1  -3  -4   41.88    0.90
  -1   3  -4   39.30    0.86
  -1   3  -4   41.49    0.94
   1   3   4   42.49    0.87
  -2  -3  -4  114.68    2.33
  -2  -3  -4  115.80    2.33
   2   3   4  115.39    2.29
  -2   3  -4  114.75    2.39
  -2   3  -4  115.92    2.29
  -3  -3  -4   23.57    0.58
  -3  -3  -4   24.83    0.64
  -3   3  -4   23.94    0.55
  -3   3  -4   24.60    0.66
   3   3   4   24.15    0.54
  -4  -3  -4   44.45    1.08
  -4  -3  -4   44.65    1.00
  -4   3  -4   45.80    0.99
  -4   3  -4   45.81    1.06
  -4   3  -4   45.69    1.10
   4   3   4   45.16    0.97
  -5  -3  -4   -0.04    0.09
  -5   3  -4    0.23    0.11
  -5   3  -4    0.33    0.10
  -6  -3  -4   31.08    0.88
  -6   3  -4   31.47    0.88
  -6   3  -4   30.36    0.84
  -7  -3  -4   33.21    0.97
  -7   3  -4   32.39    0.94
  -7   3  -4   33.58    0.93
  -8  -3  -4    3.71    0.32
  -8   3  -4    3.33    0.28
   9  -4  -4    6.30    0.40
   9   4  -4    6.60    0.39
   8  -4  -4    4.19    0.31
   8   4  -4    4.39    0.30
  -8   4   4    4.18    0.32
  -7   4   4    6.87    0.39
   7   4  -4    7.34    0.36
  -6  -4   4   69.18    1.55
   6   4  -4   71.75    1.63
  -6   4   4   71.87    1.69
  -5  -4   4   17.00    0.48
  -5   4   4   16.76    0.55
   5   4  -4   16.91    0.53
  -4  -4   4   47.55    1.05
  -4   4   4   46.35    1.13
   4   4  -4   48.15    1.11
  -3   4   4    0.44    0.09
   3   4  -4    0.48    0.09
   2  -4  -4    0.19    0.04
  -2   4   4    0.27    0.07
   2   4  -4    0.19    0.07
   2   4  -4    0.19    0.05
   1  -4  -4  375.27    7.30
   1  -4  -4  392.49    7.51
   1   4  -4  382.06    7.49
  -1   4   4  380.15    7.54
   1   4  -4  391.46    7.53
   0  -4  -4  654.89   12.24
   0  -4  -4  643.96   12.89
   0   4  -4  632.81   13.04
   0   4   4  661.92   12.84
   0   4  -4  633.90   12.59
  -1  -4  -4    0.81    0.08
  -1  -4  -4    0.46    0.08
   1   4   4    0.59    0.07
  -1   4  -4    0.62    0.10
  -1   4  -4    0.88    0.08
  -2  -4  -4   85.18    1.80
  -2  -4  -4   87.20    1.77
  -2   4  -4   87.39    1.86
   2   4   4   85.34    1.75
  -2   4  -4   87.14    1.76
  -3  -4  -4    1.21    0.14
  -3  -4  -4    1.14    0.10
  -3   4  -4    1.27    0.11
   3   4   4    1.30    0.11
  -3   4  -4    1.49    0.16
  -4  -4  -4   16.15    0.52
  -4  -4  -4   15.38    0.42
  -4   4  -4   16.10    0.43
  -4   4  -4   15.72    0.52
   4   4   4   15.81    0.41
  -5  -4  -4   25.22    0.75
  -5   4  -4   26.11    0.76
  -6  -4  -4   20.10    0.68
  -6   4  -4   20.87    0.68
  -7  -4  -4    3.23    0.31
  -7   4  -4    4.47    0.31
  -8  -4  -4    1.85    0.25
   8   5  -4   16.96    0.62
  -8   5   4   16.62    0.66
  -7  -5   4   16.21    0.55
   7   5  -4   16.89    0.58
  -7   5   4   16.03    0.62
  -6  -5   4    0.19    0.10
   6   5  -4    0.33    0.12
  -6   5   4    0.10    0.12
  -5  -5   4   44.53    1.03
   5   5  -4   43.01    1.07
  -5   5   4   43.34    1.11
  -4  -5   4  100.30    2.08
   4   5  -4  100.71    2.16
  -4   5   4  102.17    2.20
   3   5  -4  267.33    5.18
  -3   5   4  264.95    5.34
   3   5  -4  264.48    5.30
   2  -5  -4    0.76    0.07
   2   5  -4    0.61    0.10
  -2   5   4    0.43    0.08
   2   5  -4    0.67    0.08
   1  -5  -4   48.37    1.09
   1  -5  -4   48.92    1.01
   1   5  -4   49.33    1.07
  -1   5   4   49.29    1.08
   1   5  -4   48.24    1.07
   0  -5  -4   11.94    0.34
   0  -5  -4   12.09    0.36
   0   5  -4   12.40    0.34
   0   5  -4   12.06    0.37
   0   5   4   12.07    0.34
  -1  -5  -4    6.79    0.25
  -1  -5  -4    6.13    0.22
   1   5   4    6.59    0.22
  -1   5  -4    6.12    0.21
  -1   5  -4    6.08    0.26
  -2  -5  -4  179.79    3.54
  -2  -5  -4  169.36    3.53
  -2   5  -4  175.54    3.54
   2   5   4  182.68    3.55
  -2   5  -4  181.86    3.64
  -3  -5  -4   73.48    1.61
  -3  -5  -4   75.35    1.53
   3   5   4   72.42    1.53
  -3   5  -4   71.85    1.54
  -3   5  -4   72.91    1.65
  -4  -5  -4    6.56    0.32
  -4   5  -4    6.80    0.26
  -4   5  -4    7.18    0.34
   4   5   4    7.11    0.25
  -5  -5  -4   37.90    1.00
  -5   5  -4   37.26    1.02
  -6  -5  -4    1.24    0.19
  -6   5  -4    1.14    0.19
  -7  -5  -4   10.71    0.49
  -7   5  -4    9.70    0.48
   8   6  -4    2.73    0.27
  -8   6   4    2.42    0.28
  -7  -6   4   10.24    0.43
   7   6  -4    9.02    0.42
  -7   6   4    8.95    0.46
  -6  -6   4    0.09    0.10
   6   6  -4    0.29    0.13
  -6   6   4    0.22    0.13
  -5  -6   4    0.52    0.11
  -5   6   4    0.42    0.12
   5   6  -4    0.98    0.15
  -4  -6   4    1.52    0.15
  -4   6   4    1.71    0.18
   4   6  -4    1.78    0.18
   3   6  -4   64.00    1.41
  -3   6   4   61.71    1.43
   3   6  -4   62.13    1.30
   2  -6  -4   35.62    0.76
  -2   6   4   35.12    0.86
   2   6  -4   35.32    0.85
   2   6  -4   35.20    0.80
   1  -6  -4  147.68    2.97
   1  -6  -4  147.65    2.86
   1   6  -4  145.82    2.96
  -1   6   4  144.56    2.97
   1   6  -4  141.44    2.94
   0  -6  -4   17.09    0.46
   0  -6  -4   16.98    0.47
   0   6   4   17.01    0.46
   0   6  -4   17.41    0.46
   0   6  -4   17.04    0.49
  -1  -6  -4    5.89    0.23
  -1  -6  -4    6.47    0.25
  -1   6  -4    6.08    0.23
  -1   6  -4    5.92    0.27
   1   6   4    6.05    0.23
  -2  -6  -4    5.18    0.25
  -2  -6  -4    4.81    0.20
  -2   6  -4    4.69    0.20
  -2   6  -4    5.05    0.27
   2   6   4    5.14    0.21
  -3  -6  -4   14.09    0.47
  -3  -6  -4   12.50    0.37
  -3   6  -4   14.07    0.40
  -3   6  -4   13.27    0.48
   3   6   4   13.53    0.39
  -4  -6  -4   27.45    0.77
   4   6   4   25.71    0.66
  -4   6  -4   26.69    0.79
  -4   6  -4   27.90    0.69
  -5  -6  -4    4.59    0.29
  -5   6  -4    4.31    0.30
  -6  -6  -4    0.53    0.16
  -6   6  -4    0.65    0.18
  -7  -6  -4   14.62    0.60
  -7   6  -4   13.99    0.61
  -8   7   4    4.27    0.35
   8   7  -4    4.53    0.33
  -7  -7   4   17.19    0.60
  -7   7   4   17.48    0.67
   7   7  -4   17.25    0.61
  -6  -7   4   28.08    0.79
  -6   7   4   28.20    0.86
   6   7  -4   27.41    0.80
  -5  -7   4    0.22    0.10
  -5   7   4    0.12    0.11
   5   7  -4    0.40    0.13
  -4  -7   4   16.30    0.51
   4   7  -4   15.51    0.51
  -4   7   4   15.54    0.53
   3   7  -4  107.36    2.28
  -3   7   4  106.25    2.30
   2  -7  -4    5.57    0.21
  -2   7   4    5.64    0.26
   2   7  -4    5.68    0.26
   2   7  -4    5.33    0.22
   1  -7  -4   52.01    1.13
   1   7  -4   52.05    1.17
  -1   7   4   52.60    1.19
   1   7  -4   52.96    1.18
   0  -7  -4   54.90    1.21
   0  -7  -4   53.29    1.19
   0   7   4   56.40    1.22
   0   7  -4   54.07    1.24
   0   7  -4   53.77    1.21
  -1  -7  -4    4.56    0.20
  -1  -7  -4    3.86    0.21
   1   7   4    4.58    0.21
  -1   7  -4    4.45    0.21
  -1   7  -4    4.61    0.24
  -2  -7  -4   32.01    0.73
  -2  -7  -4   30.86    0.79
   2   7   4   30.80    0.75
  -2   7  -4   30.37    0.83
  -2   7  -4   30.22    0.75
  -3  -7  -4   78.16    1.75
  -3   7  -4   77.99    1.81
  -3   7  -4   79.63    1.71
   3   7   4   80.88    1.70
  -4  -7  -4    5.59    0.31
  -4   7  -4    5.82    0.26
   4   7   4    5.78    0.26
  -4   7  -4    5.17    0.32
  -5  -7  -4   27.26    0.82
  -5   7  -4   26.73    0.84
  -6  -7  -4    0.00    0.13
  -6   7  -4    0.07    0.13
  -7  -7  -4    7.00    0.43
  -7   7  -4    7.67    0.45
  -7  -8   4   17.80    0.63
   7   8  -4   17.60    0.64
  -7   8   4   17.14    0.68
  -6  -8   4    4.62    0.29
   6   8  -4    4.37    0.30
  -6   8   4    4.28    0.32
  -5  -8   4   27.47    0.79
  -5   8   4   28.97    0.85
   5   8  -4   27.65    0.79
  -4  -8   4    6.46    0.31
   4   8  -4    6.58    0.32
  -4   8   4    6.74    0.34
   3   8  -4    0.09    0.10
  -3   8   4    0.22    0.10
   2  -8  -4   16.34    0.44
  -2   8   4   15.70    0.50
   2   8  -4   15.57    0.45
   2   8  -4   15.60    0.49
   1  -8  -4   31.45    0.74
   1   8  -4   29.93    0.77
  -1   8   4   31.03    0.79
   1   8  -4   30.37    0.77
   0  -8  -4    2.29    0.17
   0  -8  -4    2.11    0.16
   0   8  -4    2.20    0.17
   0   8   4    2.27    0.17
   0   8  -4    2.03    0.18
  -1  -8  -4    0.17    0.09
  -1  -8  -4    0.18    0.07
   1   8   4    0.31    0.09
  -1   8  -4    0.16    0.08
  -1   8  -4    0.20    0.10
  -2  -8  -4    6.25    0.30
  -2  -8  -4    6.05    0.24
  -2   8  -4    6.43    0.33
   2   8   4    6.58    0.27
  -2   8  -4    6.07    0.26
  -3  -8  -4   25.72    0.74
  -3   8  -4   25.75    0.68
   3   8   4   25.37    0.67
  -3   8  -4   25.08    0.77
  -4  -8  -4    1.01    0.17
  -4   8  -4    1.12    0.14
  -4   8  -4    0.96    0.18
   4   8   4    1.06    0.14
  -5  -8  -4    2.57    0.26
  -5   8  -4    2.66    0.28
  -6  -8  -4   -0.22    0.11
  -6   8  -4    0.15    0.15
  -7  -8  -4    0.48    0.18
  -7   8  -4    0.29    0.18
  -7  -9   4    8.83    0.44
  -7   9   4    7.92    0.46
   7   9  -4    8.01    0.43
  -6  -9   4    0.08    0.10
   6   9  -4   -0.10    0.11
  -6   9   4    0.05    0.13
  -5  -9   4    9.46    0.41
  -5   9   4    9.41    0.44
   5   9  -4    8.39    0.40
  -4  -9   4    0.19    0.11
   4   9  -4    0.33    0.13
  -4   9   4    0.75    0.16
  -3   9   4    4.59    0.28
   3   9  -4    4.53    0.26
   2  -9  -4    3.70    0.19
   2   9  -4    3.28    0.23
  -2   9   4    3.33    0.22
   1  -9  -4   25.26    0.65
   1   9  -4   24.81    0.67
  -1   9   4   24.62    0.69
   1   9  -4   24.20    0.67
   0  -9  -4    7.72    0.32
   0  -9  -4    6.96    0.30
   0   9  -4    7.34    0.33
   0   9  -4    7.87    0.32
   0   9   4    7.87    0.32
  -1  -9  -4  168.40    3.42
  -1  -9  -4  171.74    3.41
  -1   9  -4  163.43    3.45
  -1   9  -4  167.31    3.51
   1   9   4  169.07    3.46
  -2  -9  -4    4.93    0.29
  -2   9  -4    5.49    0.27
   2   9   4    5.80    0.27
  -2   9  -4    5.57    0.32
  -3  -9  -4   28.79    0.83
  -3   9  -4   30.19    0.88
   3   9   4   28.94    0.77
  -3   9  -4   28.68    0.77
  -4  -9  -4    1.21    0.20
  -4   9  -4    0.96    0.19
   4   9   4    1.24    0.16
  -4   9  -4    1.38    0.17
  -5  -9  -4    0.10    0.12
  -5   9  -4    0.24    0.14
  -6  -9  -4    3.69    0.31
  -6   9  -4    3.35    0.34
  -6 -10   4    0.90    0.18
   6  10  -4    0.83    0.18
  -6  10   4    0.91    0.20
  -5 -10   4   21.88    0.71
  -5  10   4   21.89    0.75
   5  10  -4   21.29    0.70
  -4 -10   4    0.17    0.11
  -4  10   4   -0.09    0.11
   4  10  -4   -0.07    0.11
   3  10  -4    9.29    0.39
  -3  10   4    9.13    0.41
   2 -10  -4    1.40    0.15
  -2  10   4    1.32    0.17
   2  10  -4    1.49    0.17
   1 -10  -4    0.00    0.08
  -1  10   4    0.09    0.09
   1  10  -4   -0.05    0.09
   1  10  -4   -0.17    0.08
   0 -10  -4    4.38    0.24
   0 -10  -4    3.93    0.24
   0  10  -4    4.39    0.28
   0  10   4    4.30    0.25
   0  10  -4    4.07    0.25
  -1 -10  -4   31.58    0.85
  -1 -10  -4   31.80    0.80
   1  10   4   31.89    0.84
  -1  10  -4   30.90    0.88
  -1  10  -4   32.63    0.84
  -2 -10  -4    0.00    0.10
   2  10   4    0.05    0.09
  -2  10  -4    0.19    0.09
  -2  10  -4   -0.24    0.09
  -3 -10  -4   49.14    1.26
  -3  10  -4   50.15    1.22
  -3  10  -4   49.31    1.32
   3  10   4   50.73    1.20
  -4 -10  -4    0.00    0.11
  -4  10  -4    0.13    0.14
   4  10   4    0.11    0.12
  -4  10  -4    0.09    0.09
  -5 -10  -4    3.06    0.30
  -5  10  -4    2.96    0.33
  -6 -10  -4    0.30    0.17
  -6  10  -4    0.44    0.18
  -6 -11   4   -0.19    0.10
  -6  11   4    0.29    0.15
   6  11  -4   -0.23    0.13
  -5 -11   4   13.26    0.54
   5  11  -4   13.61    0.55
  -5  11   4   13.79    0.59
  -4 -11   4    1.79    0.22
   4  11  -4    1.79    0.22
  -4  11   4    1.38    0.21
   3  11  -4   21.26    0.68
  -3  11   4   20.72    0.70
   2  11  -4    0.73    0.15
  -2  11   4    0.98    0.16
   1 -11  -4   53.78    1.25
  -1  11   4   52.39    1.31
   1  11  -4   53.93    1.28
   1  11  -4   52.52    1.29
   0 -11  -4    8.97    0.38
   0 -11  -4    9.22    0.37
   0  11  -4    9.54    0.41
   0  11  -4    8.99    0.38
   0  11   4    9.06    0.39
  -1 -11  -4   75.20    1.70
  -1  11  -4   73.98    1.75
  -1  11  -4   72.40    1.69
   1  11   4   73.62    1.69
  -2 -11  -4    3.13    0.27
  -2  11  -4    3.40    0.29
   2  11   4    3.49    0.24
  -2  11  -4    3.70    0.25
  -3 -11  -4   14.63    0.57
   3  11   4   15.37    0.53
  -3  11  -4   15.66    0.54
  -3  11  -4   14.96    0.61
  -4 -11  -4    4.10    0.33
  -4  11  -4    4.36    0.35
   4  11   4    4.66    0.29
  -5 -11  -4   10.78    0.53
  -5  11  -4   10.76    0.55
  -5 -12   4    3.27    0.31
   5  12  -4    2.85    0.29
  -5  12   4    3.02    0.32
  -4 -12   4   14.39    0.58
   4  12  -4   15.10    0.58
  -4  12   4   15.03    0.60
  -3 -12   4   10.95    0.48
   3  12  -4   10.98    0.47
  -3  12   4   10.20    0.48
   2  12  -4    9.69    0.43
  -2  12   4    9.29    0.44
   1 -12  -4   20.30    0.65
   1 -12  -4   20.43    0.63
   1  12  -4   19.98    0.65
  -1  12   4   20.21    0.67
   0 -12  -4   11.90    0.46
   0 -12  -4   11.53    0.44
   0  12  -4   11.29    0.46
   0  12  -4   11.82    0.48
   0  12   4   12.14    0.48
  -1 -12  -4    9.07    0.41
  -1  12  -4    8.58    0.43
  -1  12  -4    8.47    0.39
   1  12   4    8.83    0.40
  -2 -12  -4   -0.20    0.11
  -2  12  -4   -0.04    0.10
   2  12   4    0.00    0.11
  -2  12  -4    0.03    0.12
  -3 -12  -4   26.08    0.84
  -3  12  -4   26.48    0.88
  -3  12  -4   26.52    0.80
   3  12   4   25.50    0.77
  -4 -12  -4   11.04    0.52
  -4  12  -4   10.17    0.54
   4  12   4   10.49    0.45
  -4 -13   4    2.78    0.29
  -4  13   4    2.85    0.30
   4  13  -4    2.58    0.28
  -3 -13   4   32.27    0.97
   3  13  -4   31.47    0.94
  -3  13   4   32.64    0.99
  -2  13   4    1.86    0.24
   2  13  -4    1.61    0.22
   1 -13  -4   11.75    0.46
   1 -13  -4   12.07    0.49
   1  13  -4   11.24    0.48
  -1  13   4   11.40    0.50
   0 -13  -4    2.18    0.23
   0  13   4    1.91    0.23
   0  13  -4    2.02    0.23
  -1 -13  -4    0.08    0.12
   1  13   4    0.06    0.11
  -1  13  -4    0.12    0.12
  -1  13  -4   -0.03    0.13
  -2 -13  -4   12.17    0.53
   2  13   4   11.66    0.49
  -2  13  -4   13.39    0.53
  -2  13  -4   13.21    0.58
  -3 -13  -4   18.16    0.67
  -3  13  -4   16.24    0.61
  -3  13  -4   17.18    0.71
   2  14  -4   12.58    0.54
  -2  14   4   12.51    0.56
   1 -14  -4   18.70    0.65
   1  14  -4   19.31    0.68
  -1  14   4   18.72    0.69
   0 -14  -4   17.12    0.62
   0  14  -4   16.63    0.62
   0  14   4   16.50    0.63
  -1 -14  -4    0.77    0.18
  -1  14  -4    0.97    0.20
  -1  14  -4    0.80    0.17
   1  14   4    0.58    0.16
   9   0  -5    6.88    0.40
   8   0  -5    0.25    0.14
   7   0  -5    0.07    0.13
   6   0  -5    0.02    0.08
   6   0  -5   -0.05    0.06
   5   0  -5   29.72    0.72
   5   0  -5   29.89    0.80
   4   0  -5    0.02    0.06
   4   0  -5   -0.04    0.07
  -4   0   5    0.03    0.03
   3   0  -5   20.95    0.53
  -3   0   5   21.20    0.43
   3   0  -5   21.19    0.55
   2   0  -5    0.00    0.05
   2   0  -5    0.00    0.05
   1   0  -5  131.95    2.66
   1   0  -5  132.76    2.64
   0   0  -5   -0.02    0.04
   0   0  -5    0.04    0.03
   0   0  -5   -0.02    0.03
  -1   0  -5   61.70    1.28
  -1   0  -5   60.70    1.31
  -2   0  -5    0.05    0.05
  -2   0  -5    0.08    0.06
  -3   0  -5   10.16    0.34
  -3   0  -5    9.66    0.35
  -4   0  -5   -0.03    0.08
  -4   0  -5    0.08    0.08
  -5   0  -5   -0.05    0.10
  -5   0  -5    0.17    0.10
  -6   0  -5   -0.07    0.09
  -6   0  -5    0.07    0.11
  -7   0  -5    7.90    0.42
  -8   0  -5   -0.22    0.11
   9  -1  -5    1.70    0.24
   9   1  -5    1.42    0.23
   8  -1  -5    5.71    0.35
   8   1  -5    5.36    0.34
   7  -1  -5   27.88    0.83
   7   1  -5   28.86    0.84
   6  -1  -5    9.96    0.41
   6  -1  -5    9.81    0.35
   6   1  -5   10.23    0.41
   5  -1  -5   31.03    0.83
   5  -1  -5   31.70    0.77
   5   1  -5   31.62    0.73
  -5   1   5   31.09    0.85
   5   1  -5   31.23    0.82
   4  -1  -5    4.63    0.21
  -4  -1   5    4.61    0.16
   4   1  -5    4.65    0.23
   4   1  -5    4.68    0.19
  -4   1   5    4.59    0.25
  -3  -1   5   89.25    1.74
   3  -1  -5   89.19    1.85
  -3   1   5   90.00    1.90
   3   1  -5   88.42    1.83
   3   1  -5   88.99    1.88
   2  -1  -5    3.17    0.16
  -2   1   5    2.96    0.16
   2   1  -5    3.19    0.15
   2   1  -5    3.09    0.15
   1  -1  -5  190.65    3.77
   1  -1  -5  189.28    3.62
  -1   1   5  186.63    3.77
   1   1  -5  193.78    3.75
   1   1  -5  188.81    3.76
   0  -1  -5    1.25    0.09
   0  -1  -5    1.27    0.11
   0   1   5    1.44    0.08
   0   1  -5    1.41    0.07
   0   1  -5    1.34    0.11
  -1  -1  -5   44.42    0.97
  -1  -1  -5   45.40    1.00
  -1   1  -5   46.28    0.98
  -1   1  -5   44.48    1.01
  -2  -1  -5   33.90    0.79
  -2  -1  -5   33.31    0.79
  -2   1  -5   33.83    0.81
  -2   1  -5   33.02    0.78
  -3  -1  -5   19.16    0.54
  -3  -1  -5   19.35    0.53
  -3   1  -5   19.42    0.55
  -3   1  -5   18.95    0.54
  -4  -1  -5   13.63    0.43
  -4  -1  -5   14.10    0.47
  -4   1  -5   13.25    0.45
  -4   1  -5   13.49    0.45
  -5  -1  -5   74.86    1.64
  -5  -1  -5   73.64    1.68
  -5   1  -5   73.29    1.67
  -5   1  -5   73.60    1.67
  -6  -1  -5    0.13    0.11
  -6   1  -5   -0.07    0.09
  -6   1  -5    0.06    0.10
  -7  -1  -5   54.41    1.38
  -7   1  -5   53.03    1.36
  -8  -1  -5    8.66    0.46
  -8   1  -5    8.29    0.44
   9  -2  -5    0.61    0.18
   9   2  -5    0.60    0.18
   8  -2  -5    3.06    0.30
   8   2  -5    3.41    0.28
   7  -2  -5   33.31    0.96
   7  -2  -5   34.58    0.87
   7   2  -5   34.94    0.95
   6  -2  -5    0.20    0.09
   6  -2  -5    0.02    0.09
   6   2  -5   -0.07    0.09
  -6   2   5    0.03    0.09
  -5  -2   5   23.84    0.59
   5  -2  -5   24.47    0.65
   5   2  -5   25.47    0.70
  -5   2   5   25.24    0.72
   5   2  -5   26.62    0.61
   4  -2  -5    7.28    0.28
  -4  -2   5    7.23    0.23
   4   2  -5    7.02    0.24
   4   2  -5    7.21    0.29
  -4   2   5    7.15    0.31
   3  -2  -5   57.99    1.26
   3   2  -5   58.24    1.28
  -3   2   5   57.31    1.30
   3   2  -5   58.49    1.23
   2  -2  -5   19.80    0.51
   2   2  -5   19.71    0.50
  -2   2   5   19.08    0.51
   2   2  -5   19.87    0.49
   1  -2  -5  291.15    5.62
   1  -2  -5  289.02    5.81
   1   2  -5  305.75    5.81
  -1   2   5  297.05    5.83
   1   2  -5  296.39    5.80
   0  -2  -5   18.18    0.43
   0  -2  -5   18.55    0.47
   0   2  -5   16.87    0.41
   0   2   5   18.05    0.42
   0   2  -5   18.43    0.48
  -1  -2  -5   41.94    0.92
  -1  -2  -5   41.62    0.93
  -1   2  -5   40.76    0.84
  -1   2  -5   42.28    0.96
   1   2   5   41.76    0.85
  -2  -2  -5    5.10    0.21
  -2  -2  -5    4.52    0.21
   2   2   5    4.70    0.13
  -2   2  -5    4.70    0.23
  -2   2  -5    4.92    0.21
  -3  -2  -5   91.23    1.93
  -3  -2  -5   91.62    1.92
  -3   2  -5   90.29    1.96
  -3   2  -5   92.64    1.93
  -4  -2  -5   36.43    0.87
  -4  -2  -5   36.57    0.92
  -4   2  -5   36.48    0.91
  -4   2  -5   35.51    0.92
  -5  -2  -5    2.37    0.22
  -5  -2  -5    2.64    0.19
  -5   2  -5    2.49    0.21
  -5   2  -5    1.94    0.20
  -6  -2  -5    0.29    0.13
  -6   2  -5    0.42    0.13
  -6   2  -5    0.58    0.14
  -7  -2  -5   19.17    0.68
  -7   2  -5   18.59    0.66
  -8  -2  -5    4.39    0.35
  -8   2  -5    4.41    0.33
   9  -3  -5   30.73    0.97
   9   3  -5   29.96    0.94
   8  -3  -5    4.84    0.34
   8   3  -5    5.18    0.33
   7  -3  -5    7.78    0.39
   7  -3  -5    7.66    0.34
   7   3  -5    7.59    0.38
  -7   3   5    7.16    0.39
   6  -3  -5    0.12    0.09
  -6   3   5    0.21    0.11
   6   3  -5    0.11    0.10
  -5  -3   5   10.81    0.34
   5  -3  -5   10.56    0.38
  -5   3   5   10.76    0.42
   5   3  -5   11.01    0.40
   4  -3  -5    1.02    0.13
  -4  -3   5    0.91    0.10
   4   3  -5    0.86    0.09
   4   3  -5    0.77    0.12
  -4   3   5    1.01    0.14
   3  -3  -5  283.68    5.68
   3   3  -5  284.44    5.62
   3   3  -5  291.48    5.72
  -3   3   5  289.16    5.74
   2  -3  -5   54.73    1.20
  -2   3   5   53.30    1.20
   2   3  -5   55.65    1.17
   2   3  -5   55.15    1.19
   1  -3  -5    5.08    0.21
   1  -3  -5    5.10    0.16
   1   3  -5    6.54    0.21
  -1   3   5    5.34    0.20
   1   3  -5    5.29    0.21
   0  -3  -5   11.67    0.34
   0  -3  -5   11.77    0.31
   0   3   5   11.83    0.31
   0   3  -5   11.25    0.35
   0   3  -5   11.14    0.30
  -1  -3  -5   83.58    1.71
  -1  -3  -5   83.15    1.74
   1   3   5   83.68    1.68
  -1   3  -5   81.29    1.67
  -1   3  -5   85.37    1.78
  -2  -3  -5   10.81    0.34
  -2  -3  -5   11.17    0.36
  -2   3  -5   10.67    0.27
   2   3   5   10.89    0.27
  -2   3  -5   11.75    0.38
  -3  -3  -5  109.45    2.28
  -3  -3  -5  112.37    2.31
  -3   3  -5  108.75    2.35
   3   3   5  111.97    2.20
  -4  -3  -5    4.48    0.21
  -4  -3  -5    4.31    0.25
  -4   3  -5    4.20    0.25
  -4   3  -5    4.28    0.24
  -5  -3  -5    4.12    0.27
  -5   3  -5    3.71    0.25
  -5   3  -5    3.45    0.25
  -6  -3  -5    0.87    0.18
  -6   3  -5    0.86    0.16
  -6   3  -5    1.04    0.18
  -7  -3  -5    8.73    0.44
  -7   3  -5    8.28    0.42
  -7   3  -5    8.51    0.43
  -8  -3  -5    0.23    0.16
   8  -4  -5    4.43    0.30
   8  -4  -5    3.97    0.31
   8   4  -5    5.20    0.32
  -8   4   5    4.81    0.35
  -7   4   5   30.24    0.93
   7   4  -5   30.25    0.87
  -6  -4   5    3.46    0.22
   6   4  -5    2.94    0.24
  -6   4   5    3.24    0.26
  -5  -4   5   23.18    0.61
   5   4  -5   22.82    0.66
  -5   4   5   23.91    0.71
  -4  -4   5  124.91    2.46
   4  -4  -5  122.08    2.56
   4   4  -5  121.71    2.45
  -4   4   5  121.83    2.60
   4   4  -5  120.32    2.56
   3  -4  -5   49.31    1.14
   3   4  -5   50.49    1.14
  -3   4   5   50.09    1.17
   3   4  -5   51.01    1.08
   2  -4  -5   21.55    0.57
  -2   4   5   21.91    0.57
   2   4  -5   22.28    0.56
   2   4  -5   21.00    0.53
   1  -4  -5  119.39    2.38
   1  -4  -5  123.16    2.50
   1   4  -5  124.24    2.48
  -1   4   5  122.23    2.50
   1   4  -5  122.32    2.49
   0  -4  -5    2.73    0.16
   0  -4  -5    2.56    0.14
   0   4  -5    2.57    0.16
   0   4  -5    2.61    0.14
   0   4   5    2.71    0.14
  -1  -4  -5   15.15    0.42
  -1  -4  -5   15.15    0.42
  -1   4  -5   14.90    0.37
   1   4   5   14.69    0.38
  -1   4  -5   14.89    0.45
  -2  -4  -5   25.40    0.65
  -2  -4  -5   25.27    0.62
   2   4   5   25.17    0.57
  -2   4  -5   24.93    0.68
  -2   4  -5   24.56    0.56
  -3  -4  -5   82.67    1.78
  -3  -4  -5   83.90    1.73
  -3   4  -5   82.04    1.83
  -3   4  -5   76.84    1.67
   3   4   5   84.74    1.67
  -4  -4  -5    1.17    0.16
  -4  -4  -5    1.32    0.13
  -4   4  -5    1.27    0.17
  -5  -4  -5   60.39    1.45
  -5   4  -5   60.54    1.47
  -6  -4  -5    5.35    0.33
  -6   4  -5    5.66    0.34
  -7  -4  -5    0.35    0.15
  -7   4  -5    0.23    0.14
   8  -5  -5    1.36    0.21
   8   5  -5    1.15    0.20
  -8   5   5    1.46    0.23
  -7   5   5   12.93    0.55
   7   5  -5   12.62    0.50
  -6  -5   5    5.56    0.28
   6   5  -5    4.95    0.30
  -6   5   5    4.83    0.31
  -5  -5   5    3.95    0.22
  -5   5   5    3.64    0.25
   5   5  -5    3.19    0.22
  -4  -5   5  131.24    2.65
   4   5  -5  130.97    2.75
  -4   5   5  131.43    2.80
   3  -5  -5    1.29    0.14
   3   5  -5    1.28    0.11
   3   5  -5    1.42    0.15
  -3   5   5    1.19    0.14
   2  -5  -5   17.68    0.41
   2  -5  -5   18.51    0.52
  -2   5   5   18.16    0.51
   2   5  -5   18.49    0.50
   2   5  -5   17.35    0.47
   1  -5  -5   80.63    1.64
   1  -5  -5   81.62    1.74
   1   5  -5   81.81    1.73
   1   5  -5   82.64    1.72
  -1   5   5   82.50    1.73
   0  -5  -5  179.91    3.54
   0  -5  -5  175.56    3.45
   0   5  -5  167.32    3.52
   0   5  -5  179.49    3.57
   0   5   5  178.41    3.53
  -1  -5  -5   44.81    0.99
  -1  -5  -5   43.34    0.99
   1   5   5   43.20    0.96
  -1   5  -5   44.14    0.96
  -1   5  -5   44.44    1.05
  -2  -5  -5   68.13    1.49
  -2  -5  -5   66.26    1.45
  -2   5  -5   68.40    1.42
   2   5   5   69.06    1.42
  -2   5  -5   68.57    1.55
  -3  -5  -5   38.20    0.97
  -3  -5  -5   39.41    0.90
  -3   5  -5   39.29    1.01
  -3   5  -5   38.93    0.87
   3   5   5   40.09    0.87
  -4  -5  -5    1.27    0.17
  -4   5  -5    1.31    0.18
  -5  -5  -5   18.81    0.64
  -5   5  -5   18.90    0.65
  -6  -5  -5   21.80    0.74
  -6   5  -5   22.62    0.76
  -7  -5  -5   -0.14    0.11
  -7   5  -5   -0.05    0.13
  -8   6   5    0.06    0.13
   8   6  -5    0.04    0.13
  -7   6   5    9.52    0.47
   7   6  -5    8.67    0.42
  -6  -6   5   94.22    1.99
   6   6  -5   89.32    2.05
  -6   6   5   90.03    2.12
  -5  -6   5    3.25    0.21
  -5   6   5    3.06    0.24
   5   6  -5    2.89    0.23
  -4  -6   5    7.21    0.29
  -4   6   5    7.50    0.34
   4   6  -5    6.94    0.31
   3   6  -5    6.85    0.24
  -3   6   5    6.04    0.30
   3   6  -5    6.92    0.30
   2  -6  -5   19.18    0.46
   2  -6  -5   19.84    0.56
   2   6  -5   19.42    0.54
   2   6  -5   19.39    0.51
  -2   6   5   19.26    0.55
   1  -6  -5    0.52    0.10
   1  -6  -5    0.60    0.08
   1   6  -5    0.62    0.10
  -1   6   5    0.84    0.11
   1   6  -5    0.60    0.10
   0  -6  -5  176.09    3.52
   0  -6  -5  172.90    3.43
   0   6  -5  174.32    3.56
   0   6  -5  172.05    3.51
   0   6   5  177.15    3.53
  -1  -6  -5    1.38    0.14
  -1  -6  -5    1.53    0.13
  -1   6  -5    1.48    0.12
   1   6   5    1.54    0.12
  -1   6  -5    1.46    0.16
  -2  -6  -5   20.92    0.60
  -2  -6  -5   21.29    0.55
  -2   6  -5   20.93    0.63
  -2   6  -5   20.30    0.52
   2   6   5   20.70    0.53
  -3  -6  -5   20.74    0.55
  -3  -6  -5   21.50    0.64
  -3   6  -5   20.59    0.65
   3   6   5   22.20    0.55
  -3   6  -5   20.58    0.54
  -4  -6  -5   49.03    1.23
  -4   6  -5   50.23    1.27
  -5  -6  -5    1.55    0.20
  -5   6  -5    1.68    0.23
  -6  -6  -5   30.14    0.91
  -6   6  -5   30.23    0.94
  -7  -6  -5    1.36    0.22
  -7   6  -5    1.15    0.22
  -8   7   5   10.70    0.54
   8   7  -5   11.10    0.51
   7   7  -5    0.66    0.17
  -7   7   5    0.83    0.19
  -6  -7   5    2.16    0.21
   6   7  -5    1.75    0.21
  -6   7   5    1.52    0.23
  -5  -7   5    0.15    0.09
  -5   7   5    0.16    0.11
   5   7  -5    0.13    0.11
  -4  -7   5   33.91    0.85
   4   7  -5   32.81    0.87
  -4   7   5   32.65    0.90
   3   7  -5    1.33    0.15
  -3   7   5    1.53    0.17
   2  -7  -5   24.46    0.68
   2  -7  -5   25.48    0.58
  -2   7   5   23.47    0.67
   2   7  -5   24.64    0.63
   2   7  -5   24.59    0.66
   1  -7  -5    0.35    0.10
   1  -7  -5    0.16    0.07
  -1   7   5    0.19    0.08
   1   7  -5    0.10    0.08
   1   7  -5    0.19    0.09
   0  -7  -5   21.69    0.57
   0  -7  -5   21.86    0.59
   0   7  -5   21.98    0.62
   0   7   5   21.62    0.59
   0   7  -5   22.44    0.58
  -1  -7  -5   49.57    1.11
  -1  -7  -5   48.83    1.13
  -1   7  -5   49.29    1.19
   1   7   5   49.94    1.11
  -1   7  -5   48.07    1.10
  -2  -7  -5   14.69    0.48
  -2  -7  -5   14.84    0.42
  -2   7  -5   13.89    0.50
  -2   7  -5   13.98    0.42
   2   7   5   14.33    0.42
  -3  -7  -5    7.85    0.36
   3   7   5    8.25    0.30
  -3   7  -5    7.34    0.38
  -3   7  -5    8.26    0.30
  -4  -7  -5    5.00    0.30
  -4   7  -5    5.35    0.33
  -5  -7  -5    7.07    0.38
  -5   7  -5    7.14    0.41
  -6  -7  -5    9.42    0.47
  -6   7  -5    8.03    0.46
  -7  -7  -5   17.29    0.69
  -7   7  -5   17.40    0.72
  -7  -8   5    0.09    0.12
   7   8  -5    0.26    0.15
  -7   8   5   -0.09    0.12
  -6  -8   5   -0.04    0.10
   6   8  -5   -0.04    0.11
  -6   8   5    0.16    0.13
  -5  -8   5   22.51    0.67
  -5   8   5   21.54    0.72
   5   8  -5   22.11    0.68
  -4  -8   5   29.20    0.78
  -4   8   5   28.01    0.83
   4   8  -5   28.76    0.80
  -3   8   5    0.19    0.10
   3   8  -5    0.24    0.11
   2  -8  -5   20.75    0.62
   2  -8  -5   20.87    0.53
   2   8  -5   20.79    0.57
   2   8  -5   20.70    0.60
  -2   8   5   21.09    0.62
   1  -8  -5    1.86    0.15
   1  -8  -5    2.11    0.17
   1   8  -5    2.06    0.17
   1   8  -5    1.89    0.18
  -1   8   5    2.01    0.17
   0  -8  -5   44.66    1.03
   0  -8  -5   44.70    1.05
   0   8  -5   42.48    1.03
   0   8  -5   44.10    1.08
   0   8   5   44.87    1.05
  -1  -8  -5   22.67    0.61
  -1  -8  -5   23.10    0.64
  -1   8  -5   22.88    0.68
   1   8   5   22.99    0.62
  -1   8  -5   23.65    0.62
  -2  -8  -5   80.52    1.77
  -2  -8  -5   82.08    1.71
   2   8   5   81.39    1.74
  -2   8  -5   78.15    1.84
  -2   8  -5   78.63    1.73
  -3  -8  -5    0.63    0.15
   3   8   5    0.64    0.12
  -3   8  -5    0.94    0.18
  -3   8  -5    0.67    0.11
  -4  -8  -5   36.78    1.02
  -4   8  -5   37.25    1.07
  -5  -8  -5    0.66    0.18
  -5   8  -5    0.91    0.19
  -6  -8  -5   14.15    0.60
  -6   8  -5   14.27    0.63
  -7  -9   5    0.81    0.18
  -7   9   5    0.66    0.17
   7   9  -5    0.63    0.19
  -6  -9   5   10.68    0.47
  -6   9   5   10.92    0.52
   6   9  -5   10.53    0.47
  -5  -9   5    3.67    0.27
   5   9  -5    3.98    0.28
  -5   9   5    3.98    0.30
  -4  -9   5   13.51    0.48
  -4   9   5   13.57    0.53
   4   9  -5   13.15    0.49
   3   9  -5    4.53    0.27
  -3   9   5    4.93    0.29
   2  -9  -5    2.80    0.22
   2   9  -5    2.97    0.20
  -2   9   5    3.33    0.23
   2   9  -5    2.82    0.21
   1  -9  -5    3.77    0.23
   1  -9  -5    3.59    0.20
  -1   9   5    3.15    0.22
   1   9  -5    3.47    0.22
   1   9  -5    3.95    0.23
   0  -9  -5   10.05    0.37
   0  -9  -5   10.16    0.37
   0   9  -5    9.61    0.40
   0   9  -5    9.52    0.36
   0   9   5    9.69    0.37
  -1  -9  -5    0.60    0.11
  -1  -9  -5    0.45    0.12
  -1   9  -5    0.42    0.13
  -1   9  -5    1.31    0.15
   1   9   5    0.60    0.12
  -2  -9  -5   16.12    0.55
  -2   9  -5   15.21    0.57
   2   9   5   15.15    0.48
  -2   9  -5   16.05    0.49
  -3  -9  -5    1.49    0.20
  -3   9  -5    1.98    0.19
   3   9   5    1.92    0.18
  -3   9  -5    1.57    0.22
  -4  -9  -5   17.17    0.62
  -4   9  -5   15.94    0.63
  -5  -9  -5    1.03    0.20
  -5   9  -5    0.89    0.21
  -6  -9  -5   15.22    0.65
  -6   9  -5   15.42    0.68
  -6 -10   5    5.85    0.36
  -6  10   5    5.73    0.39
   6  10  -5    5.64    0.36
  -5 -10   5    0.30    0.13
  -5  10   5   -0.06    0.11
   5  10  -5    0.20    0.15
  -4 -10   5   13.37    0.51
   4  10  -5   13.32    0.50
  -4  10   5   12.74    0.53
   3  10  -5    5.04    0.30
  -3  10   5    4.85    0.30
   2 -10  -5    9.86    0.42
  -2  10   5   10.10    0.42
   2  10  -5   10.07    0.41
   1 -10  -5    1.90    0.20
   1 -10  -5    1.80    0.17
   1  10  -5    1.79    0.19
   1  10  -5    2.06    0.20
  -1  10   5    1.97    0.20
   0 -10  -5   39.90    0.99
   0 -10  -5   39.67    0.99
   0  10  -5   39.39    1.04
   0  10   5   38.86    1.01
   0  10  -5   40.63    1.01
  -1 -10  -5    1.97    0.21
  -1 -10  -5    2.02    0.19
   1  10   5    1.81    0.19
  -1  10  -5    1.98    0.19
  -1  10  -5    1.95    0.22
  -2 -10  -5   40.20    1.06
  -2  10  -5   41.59    1.02
  -2  10  -5   39.88    1.11
   2  10   5   40.79    1.02
  -3 -10  -5    1.56    0.21
  -3  10  -5    1.17    0.21
   3  10   5    1.53    0.18
  -3  10  -5    1.37    0.17
  -4 -10  -5   29.92    0.91
  -4  10  -5   30.33    0.97
  -5 -10  -5    6.24    0.40
  -5  10  -5    6.25    0.43
  -6 -11   5   10.11    0.48
  -6  11   5    9.07    0.51
   6  11  -5    9.43    0.47
  -5 -11   5    2.01    0.24
  -5  11   5    1.72    0.25
   5  11  -5    1.90    0.24
  -4 -11   5   39.14    1.07
   4  11  -5   39.59    1.07
  -4  11   5   38.33    1.11
   3  11  -5    0.53    0.16
  -3  11   5    0.73    0.17
   2 -11  -5   13.54    0.52
   2  11  -5   14.44    0.52
  -2  11   5   13.55    0.52
   1 -11  -5    0.78    0.15
   1 -11  -5    1.15    0.16
   1  11  -5    0.94    0.16
   1  11  -5    0.93    0.16
  -1  11   5    0.72    0.15
   0 -11  -5   25.17    0.71
   0 -11  -5   25.53    0.72
   0  11  -5   23.95    0.71
   0  11   5   24.28    0.73
   0  11  -5   24.26    0.75
  -1 -11  -5    0.86    0.16
  -1  11  -5    0.89    0.15
  -1  11  -5    0.86    0.18
   1  11   5    0.65    0.15
  -2 -11  -5   19.61    0.66
  -2  11  -5   18.64    0.69
  -2  11  -5   18.97    0.61
   2  11   5   19.55    0.61
  -3 -11  -5    2.14    0.25
  -3  11  -5    2.48    0.29
   3  11   5    2.74    0.23
  -4  11  -5   30.99    1.01
  -5 -12   5   10.61    0.50
  -5  12   5    9.56    0.51
   5  12  -5   10.32    0.49
  -4 -12   5    1.30    0.21
   4  12  -5    0.93    0.19
  -4  12   5    1.65    0.24
  -3  12   5    1.77    0.23
   3  12  -5    1.44    0.21
   2 -12  -5    6.57    0.36
   2  12  -5    6.52    0.35
  -2  12   5    6.37    0.36
   1 -12  -5    4.38    0.28
  -1  12   5    4.26    0.29
   1  12  -5    4.14    0.28
   0 -12  -5   25.07    0.76
   0 -12  -5   26.15    0.75
   0  12  -5   26.34    0.81
   0  12  -5   26.16    0.77
   0  12   5   25.45    0.78
  -1 -12  -5    5.90    0.34
  -1  12  -5    5.40    0.31
  -1  12  -5    5.90    0.37
   1  12   5    5.95    0.33
  -2 -12  -5    1.99    0.24
   2  12   5    1.96    0.21
  -2  12  -5    2.19    0.27
  -2  12  -5    1.86    0.21
  -3 -12  -5   -0.01    0.13
  -3  12  -5    0.26    0.17
   3  12   5    0.08    0.12
  -4 -12  -5    3.39    0.33
  -4  12  -5    3.53    0.37
   3 -13  -5    2.44    0.27
   3  13  -5    2.12    0.25
  -3  13   5    2.19    0.27
   2 -13  -5   11.00    0.48
   2  13  -5   10.90    0.48
  -2  13   5   10.76    0.50
   1 -13  -5    7.71    0.39
   1  13  -5    7.93    0.40
  -1  13   5    7.30    0.40
   0 -13  -5    5.29    0.32
   0  13  -5    5.70    0.34
   0  13   5    5.68    0.34
  -1 -13  -5    1.80    0.23
  -1  13  -5    1.74    0.22
  -1  13  -5    1.77    0.25
   1  13   5    1.80    0.22
  -2 -13  -5    8.45    0.44
  -2  13  -5    8.10    0.40
  -2  13  -5    9.20    0.49
   2  13   5    8.35    0.40
   1  14  -5   10.67    0.48
  -1  14   5    9.86    0.48
   0  14  -5    1.72    0.22
   0  14   5    2.50    0.27
   9   0  -6    0.03    0.13
   8   0  -6    5.60    0.35
   7   0  -6   -0.16    0.11
   6   0  -6   29.88    0.74
   6   0  -6   29.18    0.83
   5   0  -6    0.04    0.08
   5   0  -6    0.03    0.07
   4   0  -6  127.64    2.69
   4   0  -6  128.96    2.62
   3   0  -6    0.01    0.06
  -3   0   6    0.08    0.03
   3   0  -6    0.02    0.07
   2   0  -6   90.13    1.86
   2   0  -6   88.23    1.86
   1   0  -6   -0.07    0.05
   1   0  -6   -0.06    0.05
   0   0  -6   87.84    1.79
   0   0  -6   89.86    1.88
   0   0  -6   91.05    1.80
  -1   0  -6   -0.01    0.05
  -1   0  -6    0.01    0.05
  -2   0  -6  114.25    2.37
  -2   0  -6  112.56    2.32
  -3   0  -6   -0.06    0.06
  -3   0  -6    0.01    0.07
  -4   0  -6   68.15    1.53
  -4   0  -6   67.12    1.53
  -5   0  -6   -0.04    0.08
  -5   0  -6    0.05    0.10
  -6   0  -6   14.13    0.51
  -6   0  -6   13.38    0.53
  -7   0  -6    0.15    0.14
   9  -1  -6    7.18    0.42
   9   1  -6    6.85    0.41
   8  -1  -6   22.45    0.76
   8   1  -6   23.15    0.76
   7  -1  -6   11.50    0.48
   7   1  -6   10.95    0.46
   6  -1  -6    0.90    0.13
   6  -1  -6    0.71    0.15
   6   1  -6    0.84    0.15
   5  -1  -6    1.65    0.18
   5  -1  -6    1.40    0.14
   5   1  -6    1.28    0.15
   5   1  -6    1.58    0.14
   4  -1  -6   35.36    0.88
   4  -1  -6   34.68    0.84
  -4   1   6   34.61    0.89
   4   1  -6   34.55    0.87
   4   1  -6   35.68    0.82
   3  -1  -6    0.28    0.08
   3   1  -6    0.51    0.09
  -3   1   6    0.47    0.10
   3   1  -6    0.42    0.09
   2  -1  -6  121.38    2.49
   2   1  -6  121.94    2.48
  -2   1   6  120.71    2.50
   2   1  -6  122.33    2.48
   1  -1  -6  185.46    3.59
   1  -1  -6  191.00    3.75
  -1   1   6  191.55    3.73
   1   1  -6  177.96    3.70
   1   1  -6  189.70    3.74
   0  -1  -6  127.59    2.50
   0  -1  -6  127.88    2.60
   0   1  -6  126.82    2.51
   0   1   6  127.46    2.53
   0   1  -6  126.39    2.60
  -1  -1  -6   14.24    0.40
  -1  -1  -6   14.17    0.42
  -1   1  -6   14.46    0.43
  -1   1  -6   14.16    0.40
  -2  -1  -6   25.95    0.66
  -2  -1  -6   26.04    0.67
  -2   1  -6   25.85    0.66
  -2   1  -6   25.28    0.67
  -3  -1  -6    0.20    0.08
  -3  -1  -6    0.09    0.08
  -3   1  -6    0.10    0.08
  -3   1  -6    0.17    0.09
  -4  -1  -6   55.24    1.31
  -4  -1  -6   58.18    1.30
  -4   1  -6   54.52    1.30
  -4   1  -6   56.61    1.33
  -5  -1  -6    1.84    0.19
  -5  -1  -6    1.41    0.19
  -5   1  -6    1.78    0.20
  -5   1  -6    1.77    0.19
  -6  -1  -6   23.67    0.75
  -6   1  -6   23.23    0.73
  -6   1  -6   23.79    0.75
  -7  -1  -6    9.91    0.47
  -7   1  -6    9.31    0.45
   8  -2  -6    2.03    0.26
   8   2  -6    2.06    0.25
   7  -2  -6    3.72    0.23
   7  -2  -6    3.32    0.28
   7   2  -6    3.23    0.25
   6  -2  -6    2.65    0.19
   6  -2  -6    2.71    0.23
  -6   2   6    2.55    0.22
   6   2  -6    2.07    0.21
   5  -2  -6    1.21    0.14
   5   2  -6    1.23    0.16
   5   2  -6    1.24    0.12
  -5   2   6    1.02    0.16
  -4  -2   6   45.58    0.95
   4  -2  -6   45.17    1.05
  -4   2   6   44.48    1.09
   4   2  -6   44.71    1.00
   4   2  -6   43.67    1.06
   3  -2  -6   91.29    1.93
   3   2  -6   91.23    1.94
   3   2  -6   90.82    1.90
  -3   2   6   92.59    1.97
   2  -2  -6   22.31    0.58
   2   2  -6   21.86    0.56
  -2   2   6   22.46    0.58
   2   2  -6   22.26    0.55
   1  -2  -6   23.18    0.51
   1  -2  -6   24.06    0.60
   1   2  -6   23.46    0.59
  -1   2   6   22.76    0.56
   1   2  -6   21.34    0.53
   0  -2  -6   81.86    1.75
   0  -2  -6   83.35    1.67
   0   2  -6   84.80    1.67
   0   2   6   81.44    1.68
   0   2  -6   82.17    1.76
  -1  -2  -6   66.55    1.41
  -1  -2  -6   64.33    1.37
  -1   2  -6   60.90    1.28
  -1   2  -6   65.27    1.43
   1   2   6   66.16    1.30
  -2  -2  -6    1.19    0.13
  -2  -2  -6    1.52    0.14
  -2   2  -6    1.25    0.14
  -2   2  -6    1.21    0.13
  -3  -2  -6    5.96    0.26
  -3  -2  -6    5.47    0.27
  -3   2  -6    5.55    0.28
  -3   2  -6    5.08    0.25
  -4  -2  -6   28.09    0.78
  -4  -2  -6   29.42    0.75
  -4   2  -6   29.57    0.80
  -4   2  -6   27.52    0.78
  -5  -2  -6    2.01    0.22
  -5  -2  -6    2.08    0.19
  -5   2  -6    2.21    0.20
  -5   2  -6    1.77    0.19
  -6  -2  -6    7.49    0.40
  -6   2  -6    7.44    0.39
  -6   2  -6    8.76    0.41
  -7  -2  -6    0.84    0.20
  -7   2  -6    0.71    0.18
   8  -3  -6   22.87    0.78
   8   3  -6   23.10    0.76
   7  -3  -6    0.79    0.17
   7  -3  -6    0.81    0.15
  -7   3   6    0.80    0.17
   7   3  -6    0.96    0.17
   6  -3  -6   29.88    0.80
   6   3  -6   29.49    0.84
  -6   3   6   30.46    0.88
   5  -3  -6    0.02    0.08
  -5   3   6    0.10    0.09
   5   3  -6    0.11    0.09
  -4  -3   6  174.42    3.45
   4  -3  -6  178.08    3.60
   4   3  -6  178.90    3.53
  -4   3   6  175.37    3.66
   4   3  -6  176.07    3.62
   3  -3  -6   29.49    0.75
  -3   3   6   29.96    0.76
   3   3  -6   28.85    0.73
   3   3  -6   30.20    0.71
   2  -3  -6    3.36    0.19
   2   3  -6    2.98    0.17
   2   3  -6    2.99    0.16
  -2   3   6    2.98    0.17
   1  -3  -6   97.40    1.94
   1  -3  -6   98.19    2.06
   1   3  -6   98.29    2.06
   1   3  -6  100.79    2.02
  -1   3   6   98.99    2.04
   0  -3  -6  131.17    2.65
   0  -3  -6  127.48    2.55
   0   3  -6  131.62    2.67
   0   3  -6  129.14    2.58
   0   3   6  127.62    2.60
  -1  -3  -6   24.90    0.62
  -1  -3  -6   24.41    0.61
   1   3   6   25.02    0.54
  -1   3  -6   22.21    0.52
  -1   3  -6   24.29    0.65
  -2  -3  -6  205.00    4.12
  -2  -3  -6  208.38    4.18
  -2   3  -6  212.43    4.24
  -3  -3  -6    0.56    0.12
  -3  -3  -6    0.67    0.11
  -3   3  -6    0.92    0.15
  -4  -3  -6    0.24    0.09
  -4  -3  -6    0.23    0.11
  -4   3  -6    0.07    0.08
  -4   3  -6    0.15    0.10
  -5  -3  -6    4.92    0.30
  -5   3  -6    4.41    0.29
  -5   3  -6    5.60    0.30
  -6  -3  -6   11.74    0.50
  -6   3  -6   11.52    0.47
  -6   3  -6   12.02    0.50
  -7  -3  -6    5.02    0.36
  -7   3  -6    5.24    0.35
  -7   3  -6    4.64    0.33
   8  -4  -6    6.86    0.35
   8  -4  -6    6.81    0.40
   8   4  -6    7.14    0.40
   7  -4  -6    7.07    0.34
   7   4  -6    6.50    0.36
  -7   4   6    6.53    0.39
   6  -4  -6   17.52    0.56
  -6   4   6   16.86    0.62
   6   4  -6   17.10    0.58
   5  -4  -6    8.73    0.35
  -5  -4   6    8.60    0.31
   5   4  -6    8.81    0.36
  -5   4   6    8.25    0.38
  -4  -4   6    9.31    0.31
   4  -4  -6    9.35    0.36
   4   4  -6    9.20    0.35
  -4   4   6    9.31    0.38
   4   4  -6    9.36    0.30
   3  -4  -6   54.70    1.26
   3   4  -6   54.07    1.20
   3   4  -6   55.40    1.24
  -3   4   6   55.72    1.28
   2  -4  -6   27.64    0.70
  -2   4   6   27.56    0.70
   2   4  -6   27.78    0.68
   2   4  -6   26.55    0.67
   1  -4  -6   24.29    0.63
   1  -4  -6   25.00    0.55
   1   4  -6   23.31    0.59
  -1   4   6   25.08    0.61
   1   4  -6   24.56    0.63
   0  -4  -6   82.20    1.72
   0  -4  -6   79.90    1.65
   0   4  -6   79.21    1.65
   0   4   6   80.25    1.67
   0   4  -6   80.81    1.74
  -1  -4  -6   65.89    1.40
  -1  -4  -6   64.60    1.37
  -1   4  -6   64.76    1.44
  -1   4  -6   59.28    1.31
   1   4   6   65.55    1.33
  -2  -4  -6    2.49    0.19
  -2  -4  -6    2.75    0.18
   2   4   6    2.84    0.13
  -2   4  -6    2.51    0.20
  -3  -4  -6   44.77    1.05
  -3  -4  -6   45.64    1.09
  -3   4  -6   45.62    1.14
  -4  -4  -6    7.95    0.37
  -4  -4  -6    8.76    0.32
  -4   4  -6    7.87    0.37
  -5  -4  -6    2.61    0.25
  -5   4  -6    2.78    0.25
  -6  -4  -6    3.09    0.27
  -6   4  -6    2.82    0.29
  -7  -4  -6    6.65    0.41
  -7   4  -6    5.81    0.38
   8  -5  -6    1.46    0.20
   8  -5  -6    1.14    0.21
   8   5  -6    1.17    0.21
  -8   5   6    1.25    0.22
   7  -5  -6    2.07    0.23
   7   5  -6    1.65    0.22
  -7   5   6    1.76    0.24
   6  -5  -6   52.93    1.30
   6   5  -6   53.17    1.31
  -6   5   6   53.74    1.38
  -5  -5   6    1.93    0.17
   5  -5  -6    1.73    0.19
  -5   5   6    1.69    0.20
   5   5  -6    1.93    0.20
   4  -5  -6    8.23    0.35
  -4  -5   6    8.46    0.31
  -4   5   6    8.61    0.37
   4   5  -6    8.47    0.34
   3  -5  -6   74.97    1.66
  -3   5   6   74.17    1.67
   3   5  -6   74.32    1.64
   3   5  -6   75.68    1.59
   2  -5  -6    5.36    0.25
   2   5  -6    4.94    0.22
   2   5  -6    5.16    0.24
  -2   5   6    5.37    0.25
   1  -5  -6    3.19    0.15
   1  -5  -6    3.60    0.20
  -1   5   6    3.71    0.19
   1   5  -6    3.41    0.19
   1   5  -6    3.45    0.20
   0  -5  -6   98.44    2.09
   0  -5  -6   95.28    2.01
   0   5  -6  101.42    2.12
   0   5  -6  101.08    2.05
   0   5   6  101.08    2.06
  -1  -5  -6    0.07    0.07
  -1  -5  -6    0.12    0.07
   1   5   6    0.10    0.06
  -1   5  -6    0.15    0.06
  -1   5  -6    0.25    0.09
  -2  -5  -6    1.25    0.13
  -2  -5  -6    0.82    0.13
  -2   5  -6    1.17    0.16
   2   5   6    1.08    0.10
  -3  -5  -6   33.44    0.80
  -3  -5  -6   31.50    0.85
  -3   5  -6   31.50    0.89
  -4  -5  -6   30.11    0.84
  -4   5  -6   28.93    0.86
  -5  -5  -6    1.61    0.21
  -5   5  -6    1.55    0.22
  -6  -5  -6   11.34    0.51
  -6   5  -6   11.58    0.53
  -7  -5  -6    3.43    0.34
  -7   5  -6    4.17    0.34
   8  -6  -6   -0.05    0.11
  -8   6   6   -0.22    0.11
   8   6  -6    0.02    0.14
   7  -6  -6   25.69    0.78
  -7   6   6   25.35    0.85
   7   6  -6   24.70    0.79
   6  -6  -6   10.78    0.44
  -6   6   6   10.65    0.48
   6   6  -6   10.41    0.45
  -5  -6   6    9.03    0.35
   5  -6  -6    9.49    0.40
   5   6  -6    8.48    0.38
  -5   6   6    9.33    0.42
   4  -6  -6   11.54    0.43
  -4   6   6   12.38    0.47
   4   6  -6   11.98    0.43
   3  -6  -6   38.11    0.96
  -3   6   6   37.67    0.97
   3   6  -6   37.50    0.93
   3   6  -6   39.14    0.89
   2  -6  -6    0.07    0.08
   2   6  -6    0.00    0.08
   2   6  -6    0.12    0.07
  -2   6   6    0.00    0.07
   1  -6  -6  236.88    4.65
   1  -6  -6  228.45    4.47
   1   6  -6  227.87    4.63
   1   6  -6  230.61    4.62
  -1   6   6  230.53    4.65
   0  -6  -6   35.99    0.84
   0  -6  -6   35.53    0.88
   0   6  -6   35.70    0.91
   0   6   6   36.91    0.86
   0   6  -6   36.32    0.84
  -1  -6  -6    5.95    0.27
  -1  -6  -6    5.48    0.25
   1   6   6    5.90    0.23
  -1   6  -6    6.04    0.22
  -1   6  -6    5.77    0.29
  -2  -6  -6   38.02    0.89
  -2  -6  -6   37.54    0.93
  -2   6  -6   37.75    0.99
  -2   6  -6   34.66    0.84
   2   6   6   38.71    0.85
  -3  -6  -6   29.59    0.83
  -3  -6  -6   31.04    0.76
  -3   6  -6   30.06    0.87
  -4  -6  -6   22.47    0.70
  -4   6  -6   21.64    0.72
  -5  -6  -6   31.48    0.91
  -5   6  -6   29.50    0.93
  -6  -6  -6    9.91    0.50
  -6   6  -6   11.02    0.53
   7  -7  -6    4.85    0.33
   7   7  -6    4.84    0.33
  -7   7   6    4.88    0.36
   6  -7  -6    4.47    0.30
  -6  -7   6    4.73    0.28
  -6   7   6    4.48    0.32
   6   7  -6    4.61    0.30
  -5  -7   6   19.13    0.58
   5  -7  -6   18.39    0.62
   5   7  -6   18.19    0.60
  -5   7   6   18.38    0.65
   4  -7  -6   25.58    0.74
  -4   7   6   24.83    0.75
   4   7  -6   24.58    0.71
   3  -7  -6   34.94    0.93
   3   7  -6   35.77    0.85
  -3   7   6   35.89    0.94
   3   7  -6   35.92    0.91
   2  -7  -6   24.16    0.68
   2   7  -6   24.74    0.66
   2   7  -6   23.91    0.64
  -2   7   6   23.41    0.67
   1  -7  -6    9.03    0.35
   1  -7  -6    8.46    0.29
   1   7  -6    8.13    0.33
   1   7  -6    8.66    0.32
  -1   7   6    8.74    0.33
   0  -7  -6   15.34    0.48
   0  -7  -6   15.98    0.46
   0   7  -6   14.85    0.44
   0   7  -6   15.54    0.51
   0   7   6   15.33    0.46
  -1  -7  -6   55.96    1.28
  -1  -7  -6   57.80    1.28
  -1   7  -6   55.60    1.24
  -1   7  -6   55.74    1.36
   1   7   6   57.71    1.26
  -2  -7  -6    3.11    0.23
  -2  -7  -6    3.07    0.20
  -2   7  -6    2.94    0.17
   2   7   6    3.41    0.19
  -2   7  -6    3.61    0.26
  -3  -7  -6   29.67    0.82
  -3   7  -6   28.86    0.87
  -4  -7  -6    5.80    0.34
  -4   7  -6    6.27    0.36
  -5  -7  -6    9.88    0.48
  -5   7  -6   10.61    0.50
  -6  -7  -6    8.75    0.47
  -6   7  -6    9.02    0.50
   7  -8  -6    7.02    0.41
  -7   8   6    7.06    0.43
   7   8  -6    6.43    0.39
  -6  -8   6    0.17    0.11
   6  -8  -6    0.02    0.12
  -6   8   6    0.00    0.13
   6   8  -6    0.08    0.13
  -5  -8   6    7.98    0.36
   5  -8  -6    7.45    0.39
   5   8  -6    7.40    0.37
  -5   8   6    7.90    0.41
   4  -8  -6    9.80    0.43
  -4   8   6    9.66    0.43
   4   8  -6    9.61    0.40
   3  -8  -6   24.76    0.72
  -3   8   6   22.89    0.72
   3   8  -6   24.49    0.69
   2  -8  -6    0.32    0.10
  -2   8   6    0.39    0.11
   2   8  -6    0.43    0.11
   2   8  -6    0.57    0.11
   1  -8  -6   11.85    0.43
   1  -8  -6   11.64    0.37
   1   8  -6   12.02    0.41
  -1   8   6   12.24    0.43
   1   8  -6   12.77    0.44
   0  -8  -6   25.10    0.66
   0  -8  -6   24.98    0.68
   0   8   6   24.23    0.66
   0   8  -6   24.28    0.65
   0   8  -6   24.26    0.71
  -1  -8  -6   29.39    0.75
  -1  -8  -6   28.94    0.76
  -1   8  -6   28.14    0.82
  -1   8  -6   28.23    0.72
   1   8   6   28.80    0.74
  -2  -8  -6   19.99    0.58
  -2  -8  -6   21.46    0.65
  -2   8  -6   20.23    0.57
  -2   8  -6   21.25    0.69
   2   8   6   21.88    0.58
  -3  -8  -6   38.53    1.03
  -3   8  -6   38.92    1.09
  -4  -8  -6   15.24    0.58
  -4   8  -6   15.28    0.62
  -5  -8  -6    3.95    0.31
  -5   8  -6    3.55    0.32
  -6  -8  -6    2.21    0.29
  -6   8  -6    1.85    0.29
   7  -9  -6   15.15    0.62
   7   9  -6   15.03    0.61
  -7   9   6   15.44    0.66
  -6  -9   6    5.73    0.34
   6   9  -6    5.92    0.36
  -6   9   6    5.94    0.39
  -5  -9   6    0.31    0.13
   5  -9  -6   -0.05    0.11
   5   9  -6    0.26    0.14
  -5   9   6    0.26    0.14
   4  -9  -6    4.47    0.30
  -4  -9   6    4.39    0.28
   4   9  -6    4.40    0.28
  -4   9   6    4.81    0.31
   3  -9  -6   24.05    0.73
   3   9  -6   24.91    0.71
  -3   9   6   23.87    0.74
   2  -9  -6    8.32    0.37
  -2   9   6    8.04    0.36
   2   9  -6    8.17    0.35
   2   9  -6    8.24    0.34
   1  -9  -6   41.72    0.96
   1  -9  -6   40.02    1.02
  -1   9   6   39.70    1.02
   1   9  -6   39.11    0.99
   1   9  -6   41.87    1.03
   0  -9  -6    0.52    0.12
   0  -9  -6    0.66    0.12
   0   9  -6    0.59    0.14
   0   9  -6    0.39    0.10
   0   9   6    0.56    0.12
  -1  -9  -6   35.26    0.89
  -1  -9  -6   34.80    0.91
  -1   9  -6   35.74    0.98
  -1   9  -6   34.73    0.88
   1   9   6   35.42    0.89
  -2  -9  -6    4.47    0.29
  -2   9  -6    4.72    0.32
   2   9   6    4.42    0.24
  -2   9  -6    4.67    0.25
  -3  -9  -6   23.67    0.75
  -3   9  -6   23.70    0.79
  -4  -9  -6    7.14    0.39
  -4   9  -6    7.39    0.44
  -5  -9  -6   16.40    0.66
  -5   9  -6   16.55    0.69
  -6 -10   6    0.24    0.13
  -6  10   6    0.23    0.17
   6  10  -6    0.50    0.17
   5 -10  -6   53.83    1.40
  -5 -10   6   53.27    1.35
   5  10  -6   53.70    1.37
   4 -10  -6   10.89    0.48
  -4 -10   6   11.37    0.47
   4  10  -6   11.86    0.48
  -4  10   6   11.26    0.50
   3 -10  -6    5.59    0.32
  -3  10   6    4.93    0.32
   3  10  -6    5.53    0.31
   2 -10  -6    1.84    0.21
   2  10  -6    1.48    0.18
  -2  10   6    1.28    0.18
   1 -10  -6   22.66    0.67
   1  10  -6   22.12    0.65
  -1  10   6   20.04    0.66
   1  10  -6   23.13    0.68
   0 -10  -6    1.87    0.19
   0 -10  -6    2.15    0.20
   0  10   6    1.78    0.19
   0  10  -6    2.13    0.23
   0  10  -6    2.09    0.20
  -1 -10  -6   34.00    0.87
  -1 -10  -6   33.71    0.90
  -1  10  -6   31.83    0.95
  -1  10  -6   33.18    0.87
   1  10   6   33.29    0.88
  -2 -10  -6    3.39    0.27
  -2  10  -6    3.52    0.30
   2  10   6    3.73    0.24
  -3 -10  -6   21.84    0.72
  -3  10  -6   21.46    0.77
  -4 -10  -6    9.85    0.47
  -4  10  -6    8.55    0.48
  -5 -10  -6    4.10    0.34
  -5  10  -6    3.83    0.38
   5 -11  -6    0.61    0.17
  -5 -11   6    0.57    0.16
   5  11  -6    0.39    0.17
  -5  11   6    0.53    0.18
   4 -11  -6    6.01    0.36
  -4 -11   6    5.94    0.35
   4  11  -6    6.07    0.36
  -4  11   6    6.21    0.38
   3 -11  -6    0.74    0.17
   3  11  -6    0.71    0.16
  -3  11   6    0.78    0.17
   2 -11  -6    2.08    0.23
   2  11  -6    2.01    0.22
  -2  11   6    2.48    0.25
   1 -11  -6    3.63    0.26
   1  11  -6    3.66    0.26
   1  11  -6    3.82    0.28
  -1  11   6    3.76    0.27
   0 -11  -6    0.63    0.14
   0 -11  -6    0.68    0.14
   0  11  -6    0.66    0.14
   0  11  -6    0.76    0.17
   0  11   6    0.53    0.14
  -1 -11  -6    4.25    0.29
   1  11   6    5.01    0.29
  -1  11  -6    5.18    0.29
  -1  11  -6    5.34    0.35
  -2 -11  -6    0.34    0.14
  -2  11  -6    0.35    0.16
   2  11   6    0.37    0.12
  -3 -11  -6    4.00    0.32
  -3  11  -6    4.37    0.35
  -4 -11  -6    0.98    0.20
  -4  11  -6    0.80    0.22
  -4 -12   6    2.86    0.29
   4 -12  -6    2.70    0.29
  -4  12   6    2.66    0.30
   4  12  -6    2.63    0.28
   3 -12  -6   29.40    0.91
   3  12  -6   31.09    0.91
  -3  12   6   31.45    0.96
   2 -12  -6    0.00    0.11
   2  12  -6    0.08    0.12
  -2  12   6    0.05    0.13
   1 -12  -6   30.53    0.86
   1  12  -6   29.53    0.85
  -1  12   6   28.38    0.87
   0 -12  -6    2.24    0.23
   0  12  -6    1.99    0.25
   0  12  -6    1.96    0.22
   0  12   6    1.60    0.21
  -1 -12  -6    0.63    0.16
  -1  12  -6    0.65    0.18
  -1  12  -6    0.69    0.15
   1  12   6    0.53    0.15
  -2 -12  -6    1.57    0.22
  -2  12  -6    2.28    0.29
   2  12   6    1.94    0.22
  -3 -12  -6    8.49    0.46
  -3  12  -6    8.94    0.49
   3 -13  -6    5.00    0.34
  -3  13   6    4.87    0.35
   3  13  -6    4.56    0.33
   2 -13  -6   12.82    0.53
   2  13  -6   11.54    0.51
  -2  13   6   12.49    0.55
   1 -13  -6    1.57    0.22
   1  13  -6    1.91    0.23
  -1  13   6    1.54    0.22
   0  13   6    2.32    0.25
   0  13  -6    2.92    0.27
  -1 -13  -6   11.56    0.50
  -1  13  -6   12.27    0.55
   1  13   6   10.40    0.47
  -1  13  -6   10.22    0.45
  -2 -13  -6    0.19    0.14
   8   0  -7   -0.16    0.11
   7   0  -7   80.57    1.90
   6   0  -7   -0.01    0.08
   6   0  -7    0.05    0.09
   5   0  -7   40.81    1.05
   5   0  -7   42.28    1.00
   4   0  -7    0.06    0.08
   4   0  -7    0.04    0.09
   3   0  -7    0.97    0.13
   3   0  -7    1.17    0.13
   2   0  -7    0.06    0.06
   2   0  -7    0.06    0.07
   1   0  -7  329.21    6.43
   1   0  -7  326.14    6.47
   0   0  -7    0.00    0.04
   0   0  -7   -0.01    0.06
   0   0  -7   -0.02    0.03
  -1   0  -7   93.26    2.00
  -1   0  -7   94.30    1.93
  -2   0  -7    0.03    0.06
  -2   0  -7    0.01    0.06
  -3   0  -7   75.85    1.67
  -3   0  -7   75.46    1.69
  -4   0  -7   -0.03    0.09
  -4   0  -7    0.05    0.09
  -5   0  -7   53.30    1.30
  -5   0  -7   52.14    1.31
  -6   0  -7    0.06    0.12
  -7   0  -7   43.26    1.21
   8  -1  -7    0.07    0.12
   8   1  -7    0.08    0.14
   7  -1  -7   12.24    0.52
   7   1  -7   12.29    0.51
   6  -1  -7    1.05    0.17
   6  -1  -7    0.84    0.13
   6   1  -7    0.85    0.16
   5  -1  -7    0.11    0.10
   5  -1  -7    0.10    0.09
   5   1  -7    0.20    0.09
   5   1  -7    0.04    0.10
   4  -1  -7    3.75    0.21
   4  -1  -7    3.32    0.22
   4   1  -7    4.11    0.22
   4   1  -7    3.50    0.21
  -4   1   7    3.70    0.23
   3  -1  -7   73.47    1.60
   3  -1  -7   74.06    1.60
   3   1  -7   73.86    1.59
   3   1  -7   72.92    1.58
  -3   1   7   72.35    1.62
   2  -1  -7    5.29    0.22
   2  -1  -7    5.25    0.24
  -2   1   7    5.39    0.23
   2   1  -7    5.56    0.22
   2   1  -7    5.29    0.23
   1  -1  -7   46.86    1.03
   1  -1  -7   48.32    1.10
   1   1  -7   47.93    1.09
  -1   1   7   47.96    1.04
   1   1  -7   47.43    1.02
   0  -1  -7    4.00    0.21
   0  -1  -7    3.90    0.18
   0  -1  -7    3.85    0.14
   0   1  -7    3.90    0.21
   0   1  -7    3.92    0.14
  -1  -1  -7   50.16    1.15
  -1  -1  -7   50.02    1.11
  -1   1  -7   49.55    1.16
  -1   1  -7   50.25    1.11
  -2  -1  -7   24.45    0.66
  -2  -1  -7   24.21    0.64
  -2   1  -7   23.59    0.64
  -2   1  -7   23.97    0.67
  -3  -1  -7   30.64    0.81
  -3  -1  -7   31.20    0.81
  -3   1  -7   30.26    0.80
  -3   1  -7   30.53    0.82
  -4  -1  -7   16.78    0.54
  -4  -1  -7   16.95    0.56
  -4   1  -7   17.31    0.57
  -4   1  -7   17.09    0.56
  -5  -1  -7    7.34    0.38
  -5  -1  -7    7.69    0.36
  -5   1  -7    7.38    0.37
  -5   1  -7    8.40    0.39
  -6  -1  -7   -0.08    0.11
  -6   1  -7    0.18    0.12
  -6   1  -7   -0.02    0.11
  -7  -1  -7    8.19    0.44
  -7   1  -7    8.13    0.44
   8  -2  -7    0.74    0.19
   8   2  -7    0.47    0.15
   7  -2  -7   17.70    0.65
   7  -2  -7   18.49    0.58
   7   2  -7   18.68    0.64
   6  -2  -7    0.25    0.11
   6  -2  -7    0.12    0.11
   6   2  -7    0.08    0.10
   5  -2  -7   38.57    1.01
   5  -2  -7   39.78    0.97
   5   2  -7   39.04    1.00
  -5   2   7   38.96    1.03
   5   2  -7   39.58    0.92
   4  -2  -7   49.10    1.16
   4   2  -7   49.73    1.17
  -4   2   7   50.15    1.21
   4   2  -7   49.83    1.12
   3  -2  -7   74.44    1.62
   3   2  -7   74.31    1.60
  -3   2   7   73.58    1.64
   3   2  -7   74.28    1.61
   2  -2  -7    1.28    0.14
  -2   2   7    1.58    0.13
   2   2  -7    1.25    0.13
   2   2  -7    1.32    0.12
   1  -2  -7   48.60    1.00
   1  -2  -7   50.03    1.12
   1   2  -7   48.14    1.04
   1   2  -7   47.31    1.11
  -1   2   7   48.09    1.07
   0  -2  -7   62.92    1.31
   0  -2  -7   61.02    1.38
   0   2  -7   61.46    1.28
   0   2  -7   63.40    1.40
   0   2   7   63.28    1.30
  -1  -2  -7   63.82    1.38
  -1  -2  -7   65.75    1.43
  -1   2  -7   63.31    1.45
  -2  -2  -7   60.77    1.35
  -2  -2  -7   59.71    1.36
  -2   2  -7   61.17    1.40
  -3  -2  -7   78.45    1.73
  -3  -2  -7   79.16    1.73
  -3   2  -7   78.09    1.72
  -3   2  -7   77.51    1.77
  -4  -2  -7   13.98    0.47
  -4  -2  -7   13.42    0.50
  -4   2  -7   13.68    0.49
  -4   2  -7   13.78    0.51
  -5  -2  -7   11.30    0.46
  -5  -2  -7   10.65    0.42
  -5   2  -7   10.19    0.44
  -5   2  -7   10.88    0.46
  -6  -2  -7   -0.11    0.11
  -6   2  -7   -0.05    0.11
  -6   2  -7   -0.16    0.10
  -7  -2  -7    2.93    0.30
  -7   2  -7    3.33    0.28
   8  -3  -7   12.98    0.56
   8   3  -7   12.41    0.54
   7  -3  -7    0.51    0.17
   7  -3  -7    0.97    0.16
   7   3  -7    0.56    0.16
   6  -3  -7    1.40    0.17
   6   3  -7    1.22    0.18
  -6   3   7    1.07    0.18
   5  -3  -7   -0.07    0.08
  -5   3   7    0.16    0.11
   5   3  -7    0.10    0.10
   4  -3  -7   30.63    0.80
  -4  -3   7   30.19    0.70
   4   3  -7   32.31    0.76
   4   3  -7   30.10    0.80
  -4   3   7   30.08    0.83
   3  -3  -7    2.13    0.17
  -3   3   7    2.23    0.18
   3   3  -7    1.86    0.16
   3   3  -7    2.19    0.16
   2  -3  -7    0.21    0.08
   2   3  -7    0.01    0.06
  -2   3   7    0.11    0.07
   2   3  -7   -0.01    0.06
   1  -3  -7    6.20    0.20
   1  -3  -7    6.40    0.27
  -1   3   7    6.33    0.24
   1   3  -7    5.89    0.26
   1   3  -7    6.04    0.23
   0  -3  -7   19.40    0.50
   0  -3  -7   20.00    0.55
   0   3   7   19.96    0.49
   0   3  -7   20.51    0.57
   0   3  -7   18.27    0.46
  -1  -3  -7    8.06    0.31
  -1  -3  -7    7.12    0.28
  -1   3  -7    7.47    0.32
  -2  -3  -7   77.57    1.70
  -2  -3  -7   78.73    1.72
  -2   3  -7   79.71    1.77
  -3  -3  -7    4.16    0.23
  -3  -3  -7    4.20    0.26
  -3   3  -7    3.77    0.26
  -4  -3  -7   13.11    0.50
  -4  -3  -7   14.37    0.48
  -4   3  -7   14.32    0.53
  -5  -3  -7    1.11    0.19
  -5   3  -7    1.28    0.20
  -5   3  -7    1.06    0.17
  -6  -3  -7    1.16    0.21
  -6   3  -7    1.38    0.21
  -7  -3  -7    3.05    0.31
  -7   3  -7    3.36    0.30
   8  -4  -7    0.11    0.13
   8  -4  -7   -0.06    0.13
   8   4  -7    0.24    0.16
   7  -4  -7   23.15    0.71
  -7   4   7   24.27    0.82
   7   4  -7   24.23    0.76
   6  -4  -7    1.51    0.18
  -6   4   7    1.40    0.21
   6   4  -7    1.62    0.20
   5  -4  -7   11.63    0.44
   5   4  -7   12.62    0.45
  -5   4   7   12.50    0.49
   4  -4  -7    8.29    0.34
   4   4  -7    7.95    0.33
  -4   4   7    7.48    0.35
   4   4  -7    8.49    0.30
   3  -4  -7   74.57    1.67
  -3   4   7   76.40    1.69
   3   4  -7   74.64    1.62
   3   4  -7   76.23    1.65
   2  -4  -7   13.19    0.43
   2   4  -7   13.42    0.40
  -2   4   7   13.21    0.42
   2   4  -7   12.99    0.41
   1  -4  -7   48.74    1.13
   1  -4  -7   47.84    1.01
   1   4  -7   46.78    1.06
   1   4  -7   48.71    1.12
  -1   4   7   48.57    1.09
   0  -4  -7   56.71    1.22
   0  -4  -7   56.27    1.29
   0   4  -7   56.17    1.20
   0   4  -7   57.19    1.32
   0   4   7   59.27    1.24
  -1  -4  -7    5.59    0.26
  -1  -4  -7    5.34    0.24
  -1   4  -7    5.34    0.28
   1   4   7    5.27    0.20
  -2  -4  -7   14.29    0.47
  -2  -4  -7   14.59    0.46
  -2   4  -7   15.04    0.51
  -3  -4  -7   85.74    1.90
  -3  -4  -7   85.93    1.87
  -3   4  -7   87.06    1.97
  -4  -4  -7   23.09    0.71
  -4  -4  -7   23.72    0.66
  -4   4  -7   23.99    0.75
  -5  -4  -7   -0.02    0.10
  -5   4  -7    0.16    0.11
  -6  -4  -7    0.21    0.14
  -6   4  -7    0.25    0.14
   8  -5  -7   17.59    0.63
   8  -5  -7   17.58    0.69
  -8   5   7   18.87    0.73
   8   5  -7   18.05    0.67
   7  -5  -7    0.20    0.13
   7   5  -7    0.07    0.13
  -7   5   7    0.42    0.16
   6  -5  -7   23.06    0.71
   6   5  -7   23.16    0.72
  -6   5   7   23.11    0.77
   5  -5  -7    9.75    0.40
   5   5  -7    9.70    0.40
  -5   5   7    9.41    0.43
   4  -5  -7   21.05    0.63
  -4   5   7   20.88    0.65
   4   5  -7   20.75    0.62
   4   5  -7   21.09    0.56
   3  -5  -7   29.86    0.80
   3   5  -7   30.57    0.76
   3   5  -7   30.18    0.77
  -3   5   7   30.60    0.82
   2  -5  -7   10.87    0.40
   2   5  -7   11.63    0.38
   2   5  -7   11.25    0.38
  -2   5   7   10.92    0.39
   1  -5  -7   12.26    0.41
   1  -5  -7   11.91    0.33
   1   5  -7   11.98    0.36
  -1   5   7   11.63    0.38
   1   5  -7   10.92    0.40
   0  -5  -7   42.59    1.02
   0  -5  -7   42.23    0.96
   0   5   7   42.48    0.97
   0   5  -7   43.25    1.05
   0   5  -7   43.48    0.95
  -1  -5  -7   54.28    1.23
  -1  -5  -7   56.24    1.27
  -1   5  -7   54.62    1.31
   1   5   7   55.62    1.19
  -2  -5  -7   11.38    0.39
  -2  -5  -7   11.70    0.41
  -2   5  -7   10.86    0.44
  -3  -5  -7    5.32    0.30
  -3  -5  -7    5.32    0.26
  -3   5  -7    5.27    0.31
  -4  -5  -7    0.96    0.18
  -4   5  -7    1.56    0.21
  -5  -5  -7    1.94    0.23
  -5   5  -7    1.76    0.24
  -6  -5  -7    7.41    0.42
  -6   5  -7    7.87    0.45
   7  -6  -7    2.04    0.23
   7   6  -7    2.50    0.26
  -7   6   7    1.78    0.25
   6  -6  -7   -0.04    0.10
  -6   6   7   -0.11    0.11
   6   6  -7   -0.05    0.11
  -5  -6   7   20.34    0.58
   5  -6  -7   18.26    0.61
  -5   6   7   19.63    0.67
   5   6  -7   18.74    0.61
   4  -6  -7    7.46    0.35
   4   6  -7    6.75    0.32
  -4   6   7    7.31    0.35
   3  -6  -7   16.71    0.55
   3   6  -7   17.98    0.51
  -3   6   7   17.51    0.56
   3   6  -7   17.43    0.53
   2  -6  -7    5.08    0.27
   2   6  -7    5.55    0.26
  -2   6   7    5.64    0.28
   2   6  -7    5.49    0.26
   1  -6  -7   47.19    1.14
   1  -6  -7   48.33    1.04
   1   6  -7   47.61    1.15
  -1   6   7   48.73    1.13
   1   6  -7   48.58    1.09
   0  -6  -7    4.75    0.25
   0  -6  -7    4.88    0.23
   0   6   7    5.29    0.24
   0   6  -7    4.76    0.21
   0   6  -7    4.67    0.27
  -1  -6  -7   26.36    0.71
  -1  -6  -7   26.64    0.70
  -1   6  -7   26.20    0.76
   1   6   7   26.97    0.66
  -2  -6  -7    7.91    0.35
  -2  -6  -7    8.40    0.33
  -2   6  -7    8.69    0.40
  -3  -6  -7    3.47    0.21
  -3  -6  -7    3.33    0.26
  -3   6  -7    3.47    0.27
  -4  -6  -7   10.38    0.46
  -4   6  -7   11.03    0.50
  -5  -6  -7   16.93    0.63
  -5   6  -7   16.24    0.65
  -6  -6  -7    7.50    0.44
  -6   6  -7    6.99    0.44
   7  -7  -7   12.86    0.54
   7   7  -7   13.32    0.55
  -7   7   7   13.18    0.60
   6  -7  -7   19.49    0.67
  -6   7   7   19.28    0.71
   6   7  -7   20.05    0.67
  -5  -7   7    7.62    0.34
   5  -7  -7    7.56    0.38
   5   7  -7    7.34    0.37
  -5   7   7    7.32    0.39
   4  -7  -7   32.67    0.91
   4   7  -7   33.83    0.89
  -4   7   7   32.31    0.92
   3  -7  -7    0.19    0.11
   3   7  -7    0.23    0.09
  -3   7   7    0.22    0.11
   3   7  -7    0.31    0.11
   2  -7  -7   22.52    0.67
   2   7  -7   23.49    0.65
  -2   7   7   22.70    0.67
   2   7  -7   23.40    0.64
   1  -7  -7   16.77    0.53
  -1   7   7   16.34    0.51
   1   7  -7   17.13    0.54
   1   7  -7   16.66    0.49
   0  -7  -7  101.77    2.15
   0  -7  -7  103.92    2.23
   0   7   7  103.27    2.20
   0   7  -7  104.24    2.18
   0   7  -7  106.83    2.28
  -1  -7  -7    2.29    0.19
  -1  -7  -7    2.78    0.20
  -1   7  -7    3.26    0.18
  -1   7  -7    2.85    0.24
   1   7   7    2.89    0.18
  -2  -7  -7   15.90    0.49
  -2  -7  -7   15.84    0.53
  -2   7  -7   14.81    0.57
  -3  -7  -7    5.41    0.32
  -3   7  -7    5.53    0.35
  -4  -7  -7    8.12    0.41
  -4   7  -7    7.97    0.44
  -5  -7  -7   36.73    1.06
  -5   7  -7   35.94    1.10
  -6  -7  -7   43.27    1.23
  -6   7  -7   42.30    1.27
   7  -8  -7   -0.01    0.12
   7   8  -7    0.17    0.16
  -7   8   7    0.14    0.15
   6  -8  -7   27.25    0.85
  -6   8   7   27.87    0.91
   6   8  -7   27.77    0.85
   5  -8  -7    4.58    0.30
  -5  -8   7    4.91    0.30
  -5   8   7    4.56    0.33
   5   8  -7    4.13    0.30
   4  -8  -7   21.62    0.70
   4   8  -7   23.05    0.69
  -4   8   7   21.82    0.72
   3  -8  -7   18.26    0.61
   3   8  -7   18.53    0.58
  -3   8   7   17.90    0.61
   2  -8  -7   11.20    0.43
   2   8  -7   11.75    0.42
  -2   8   7   10.68    0.43
   2   8  -7   11.20    0.41
   1  -8  -7    2.31    0.20
   1   8  -7    2.38    0.21
  -1   8   7    2.47    0.21
   1   8  -7    2.48    0.19
   0  -8  -7   50.95    1.17
   0  -8  -7   50.79    1.22
   0   8  -7   53.12    1.28
   0   8  -7   51.00    1.17
   0   8   7   49.85    1.20
  -1  -8  -7    0.20    0.10
  -1  -8  -7    0.14    0.09
  -1   8  -7    0.24    0.12
   1   8   7    0.19    0.10
  -2  -8  -7    2.74    0.21
  -2  -8  -7    2.62    0.22
  -2   8  -7    2.12    0.25
  -3  -8  -7    0.32    0.14
  -3   8  -7    0.36    0.15
  -4  -8  -7   30.48    0.91
  -4   8  -7   29.12    0.95
  -5  -8  -7    2.72    0.29
  -5   8  -7    2.65    0.32
   6  -9  -7   -0.15    0.11
  -6   9   7   -0.01    0.14
   6   9  -7    0.24    0.14
  -5  -9   7    3.28    0.26
   5  -9  -7    3.22    0.27
   5   9  -7    3.03    0.28
  -5   9   7    3.73    0.30
   4  -9  -7   68.90    1.66
   4   9  -7   68.68    1.63
  -4   9   7   69.23    1.69
   3  -9  -7    0.20    0.13
  -3   9   7    0.00    0.11
   3   9  -7    0.24    0.12
   2  -9  -7   39.87    1.05
   2   9  -7   40.20    1.02
  -2   9   7   38.45    1.04
   2   9  -7   41.37    1.02
   1  -9  -7   10.81    0.44
   1   9  -7   12.56    0.47
   1   9  -7   11.74    0.42
  -1   9   7   12.11    0.45
   0  -9  -7   21.39    0.62
   0  -9  -7   21.88    0.65
   0   9   7   21.08    0.63
   0   9  -7   20.66    0.60
   0   9  -7   21.79    0.69
  -1  -9  -7    4.69    0.29
  -1  -9  -7    4.12    0.25
   1   9   7    4.30    0.25
  -1   9  -7    4.44    0.31
  -2  -9  -7   53.04    1.30
  -2   9  -7   52.33    1.38
  -3  -9  -7    0.04    0.13
  -3   9  -7    0.22    0.14
  -4  -9  -7   26.47    0.86
  -4   9  -7   27.10    0.91
  -5  -9  -7    0.93    0.20
  -5   9  -7    0.67    0.21
   6 -10  -7    2.81    0.30
  -6  10   7    3.01    0.33
   6  10  -7    2.35    0.28
   5 -10  -7    0.20    0.14
  -5 -10   7    0.21    0.13
   5  10  -7    0.34    0.15
  -5  10   7    0.15    0.14
   4 -10  -7    5.67    0.36
  -4  10   7    6.79    0.39
   4  10  -7    6.03    0.35
   3 -10  -7    0.00    0.11
   3  10  -7   -0.03    0.11
  -3  10   7    0.17    0.13
   2 -10  -7    2.24    0.23
  -2  10   7    2.69    0.24
   2  10  -7    2.57    0.22
   1 -10  -7    0.17    0.12
   1  10  -7    0.12    0.12
  -1  10   7    0.16    0.12
   1  10  -7    0.17    0.10
   0 -10  -7    3.92    0.26
   0  10  -7    3.52    0.28
   0  10  -7    4.06    0.25
   0  10   7    3.87    0.26
  -1 -10  -7    1.91    0.21
  -1 -10  -7    2.03    0.21
  -1  10  -7    2.38    0.26
   1  10   7    1.91    0.20
  -2 -10  -7    7.31    0.38
  -2  10  -7    6.86    0.41
  -3 -10  -7    2.31    0.25
  -3  10  -7    2.16    0.29
  -4 -10  -7    1.88    0.25
  -4  10  -7    2.78    0.32
  -5 -11   7    1.79    0.24
   5 -11  -7    1.94    0.25
   5  11  -7    1.43    0.22
  -5  11   7    1.69    0.26
   4 -11  -7   17.76    0.66
  -4 -11   7   18.53    0.65
   4  11  -7   17.84    0.64
  -4  11   7   17.10    0.68
   3 -11  -7    7.32    0.40
  -3  11   7    7.38    0.41
   3  11  -7    6.97    0.37
   2 -11  -7   19.03    0.66
   2  11  -7   20.34    0.65
  -2  11   7   19.97    0.68
   1 -11  -7    3.16    0.27
   1  11  -7    2.90    0.26
   1  11  -7    3.23    0.25
  -1  11   7    3.04    0.26
   0 -11  -7   16.00    0.55
   0  11   7   14.91    0.54
   0  11  -7   15.40    0.53
   0  11  -7   15.62    0.60
  -1 -11  -7    2.12    0.23
  -1  11  -7    2.28    0.27
   1  11   7    2.16    0.22
  -2 -11  -7    4.75    0.32
  -2  11  -7    4.66    0.36
  -3 -11  -7    5.41    0.36
  -3  11  -7    5.18    0.38
  -4 -12   7    0.69    0.17
   4 -12  -7    0.57    0.18
   4  12  -7    0.44    0.17
  -4  12   7    0.77    0.20
   3 -12  -7    0.91    0.19
  -3  12   7    0.77    0.19
   3  12  -7    0.95    0.19
   2 -12  -7    1.31    0.21
  -2  12   7    0.77    0.18
   2  12  -7    1.04    0.18
   1 -12  -7   14.50    0.56
   1  12  -7   14.49    0.54
  -1  12   7   13.70    0.56
   0 -12  -7    1.33    0.19
   0  12  -7    1.29    0.19
   0  12  -7    1.64    0.24
   0  12   7    1.47    0.21
   1  12   7    2.88    0.24
  -1  12  -7    2.54    0.29
  -2 -12  -7    0.60    0.17
  -2  12  -7    0.74    0.20
   1 -13  -7    4.21    0.31
   1  13  -7    4.08    0.30
  -1  13   7    3.75    0.31
   0  13  -7   22.55    0.73
   8   0  -8    0.69    0.18
   7   0  -8   -0.05    0.13
   6   0  -8    5.79    0.33
   6   0  -8    7.03    0.31
   5   0  -8    0.01    0.09
   5   0  -8    0.09    0.11
   4   0  -8   45.02    1.11
   4   0  -8   46.22    1.09
   3   0  -8    0.13    0.09
   3   0  -8    0.16    0.09
   2   0  -8   28.09    0.68
   2   0  -8   27.50    0.73
   1   0  -8   -0.03    0.05
   1   0  -8    0.00    0.07
   0   0  -8   58.09    1.34
  -1   0  -8    0.02    0.07
  -1   0  -8   -0.03    0.07
  -2   0  -8   53.22    1.28
  -2   0  -8   55.44    1.25
  -3   0  -8   -0.03    0.09
  -3   0  -8    0.01    0.08
  -4   0  -8   -0.04    0.10
  -4   0  -8   -0.09    0.09
  -5   0  -8    0.04    0.10
  -5   0  -8    0.19    0.12
  -6   0  -8    0.10    0.14
   8  -1  -8   21.10    0.74
   8   1  -8   19.52    0.71
   7  -1  -8    0.81    0.19
   7   1  -8    0.85    0.19
   6  -1  -8   25.84    0.79
   6  -1  -8   26.31    0.73
   6   1  -8   26.13    0.78
   5  -1  -8    0.48    0.13
   5  -1  -8    0.91    0.16
   5   1  -8    0.43    0.11
   5   1  -8    0.54    0.14
   4  -1  -8  184.56    3.80
   4  -1  -8  187.41    3.77
   4   1  -8  179.38    3.73
   4   1  -8  184.49    3.79
   3  -1  -8   30.76    0.78
   3  -1  -8   29.67    0.79
   3   1  -8   30.67    0.77
   3   1  -8   31.45    0.79
   2  -1  -8   32.13    0.77
   2  -1  -8   32.98    0.82
   2   1  -8   32.29    0.77
   2   1  -8   31.42    0.81
   1  -1  -8    0.33    0.07
   1  -1  -8    0.58    0.11
   1   1  -8    0.19    0.09
   1   1  -8    0.28    0.07
   0  -1  -8   56.71    1.30
   0  -1  -8   57.34    1.21
   0   1  -8   55.46    1.30
  -1  -1  -8    0.49    0.10
  -1  -1  -8    0.66    0.12
  -1   1  -8    0.36    0.11
  -2  -1  -8  143.26    3.01
  -2  -1  -8  144.89    2.94
  -2   1  -8  143.36    2.94
  -2   1  -8  143.85    3.03
  -3  -1  -8    0.05    0.09
  -3  -1  -8    0.01    0.09
  -3   1  -8    0.04    0.09
  -3   1  -8    0.05    0.09
  -4  -1  -8   50.22    1.24
  -4  -1  -8   51.10    1.25
  -4   1  -8   50.40    1.27
  -4   1  -8   49.48    1.24
  -5  -1  -8    0.95    0.17
  -5  -1  -8    0.92    0.16
  -5   1  -8    0.69    0.16
  -5   1  -8    0.92    0.17
  -6  -1  -8   30.21    0.91
  -6   1  -8   29.43    0.90
  -6   1  -8   28.12    0.89
   8  -2  -8   -0.04    0.14
   8   2  -8    0.16    0.15
   7  -2  -8   23.93    0.78
   7  -2  -8   23.41    0.70
   7   2  -8   23.75    0.77
   6  -2  -8    9.80    0.39
   6  -2  -8    9.69    0.43
   6   2  -8    9.79    0.43
   5  -2  -8    9.06    0.39
   5  -2  -8    9.13    0.37
  -5   2   8    8.73    0.40
   5   2  -8    8.72    0.38
   5   2  -8    8.87    0.34
   4  -2  -8    7.42    0.33
  -4   2   8    7.90    0.35
   4   2  -8    7.32    0.30
   4   2  -8    7.68    0.32
   3  -2  -8    0.09    0.09
   3   2  -8    0.18    0.08
  -3   2   8    0.17    0.09
   3   2  -8    0.02    0.07
   2  -2  -8   14.01    0.46
  -2   2   8   14.82    0.44
   2   2  -8   14.37    0.46
   2   2  -8   14.51    0.42
   1  -2  -8   44.45    0.94
   1  -2  -8   43.96    1.06
   1   2  -8   44.93    0.98
   1   2  -8   45.17    1.07
  -1   2   8   44.49    1.00
   0  -2  -8   42.71    0.95
   0  -2  -8   41.66    1.02
   0   2  -8   43.41    1.05
  -1  -2  -8   64.96    1.41
  -1  -2  -8   64.47    1.47
  -1   2  -8   64.42    1.49
  -2  -2  -8    0.06    0.09
  -2  -2  -8   -0.05    0.09
  -2   2  -8    0.08    0.09
  -3  -2  -8    6.37    0.32
  -3  -2  -8    7.18    0.32
  -3   2  -8    6.73    0.32
  -3   2  -8    7.60    0.35
  -4  -2  -8   23.68    0.73
  -4  -2  -8   24.49    0.71
  -4   2  -8   24.26    0.75
  -4   2  -8   23.56    0.72
  -5  -2  -8    4.73    0.29
  -5  -2  -8    4.52    0.31
  -5   2  -8    4.53    0.31
  -5   2  -8    4.53    0.30
  -6  -2  -8    0.47    0.16
  -6   2  -8    0.66    0.17
  -6   2  -8    0.79    0.18
   8  -3  -8   19.27    0.72
   8   3  -8   20.02    0.71
   7  -3  -8    9.39    0.45
   7  -3  -8    9.38    0.41
   7   3  -8    9.27    0.44
   6  -3  -8   22.81    0.73
   6  -3  -8   22.66    0.68
  -6   3   8   20.96    0.73
   6   3  -8   22.67    0.71
   5  -3  -8   12.86    0.46
   5   3  -8   12.81    0.47
   5   3  -8   13.19    0.42
  -5   3   8   12.08    0.49
   4  -3  -8    3.46    0.22
   4   3  -8    3.41    0.22
  -4   3   8    2.76    0.22
   4   3  -8    3.59    0.21
   3  -3  -8    4.93    0.26
  -3   3   8    4.62    0.26
   3   3  -8    5.17    0.25
   3   3  -8    4.73    0.24
   2  -3  -8   28.73    0.77
  -2   3   8   28.92    0.74
   2   3  -8   29.90    0.72
   2   3  -8   28.47    0.75
   1  -3  -8   39.88    0.85
   1  -3  -8   39.37    0.97
   1   3  -8   39.51    0.89
   1   3  -8   39.60    0.98
  -1   3   8   39.71    0.92
   0  -3  -8  113.27    2.39
   0  -3  -8  113.53    2.28
   0   3   8  113.62    2.30
   0   3  -8  111.02    2.41
  -1  -3  -8    0.03    0.08
  -1  -3  -8    0.05    0.09
  -1   3  -8    0.13    0.09
  -2  -3  -8    1.84    0.18
  -2  -3  -8    2.14    0.18
  -2   3  -8    1.89    0.21
  -3  -3  -8    6.39    0.32
  -3  -3  -8    6.48    0.31
  -3   3  -8    6.30    0.34
  -4  -3  -8   24.21    0.70
  -4  -3  -8   23.43    0.73
  -4   3  -8   22.82    0.75
  -5  -3  -8   -0.02    0.11
  -5   3  -8    0.14    0.12
  -6  -3  -8    8.31    0.44
  -6   3  -8    9.30    0.47
   8  -4  -8    0.15    0.15
   8   4  -8    0.14    0.15
   7  -4  -8   19.90    0.71
   7  -4  -8   19.48    0.65
   7   4  -8   20.68    0.69
  -7   4   8   18.89    0.72
   6  -4  -8    3.73    0.26
  -6   4   8    3.73    0.30
   6   4  -8    4.21    0.29
   5  -4  -8    7.39    0.35
   5   4  -8    7.13    0.34
  -5   4   8    6.85    0.36
   4  -4  -8    2.79    0.22
   4   4  -8    2.52    0.19
   4   4  -8    2.34    0.20
  -4   4   8    2.99    0.23
   3  -4  -8    1.52    0.17
   3   4  -8    2.05    0.17
  -3   4   8    1.79    0.18
   3   4  -8    1.87    0.17
   2  -4  -8   22.98    0.66
   2   4  -8   24.14    0.66
   2   4  -8   23.90    0.62
  -2   4   8   23.46    0.65
   1  -4  -8   23.40    0.66
   1   4  -8   22.30    0.65
   1   4  -8   23.61    0.58
  -1   4   8   23.80    0.61
   0  -4  -8    5.44    0.27
   0  -4  -8    5.30    0.23
   0   4  -8    5.37    0.28
   0   4   8    4.94    0.21
  -1  -4  -8    1.34    0.14
  -1  -4  -8    0.73    0.12
  -1   4  -8    1.02    0.16
  -2  -4  -8    2.37    0.20
  -2  -4  -8    2.34    0.19
  -2   4  -8    2.39    0.23
  -3  -4  -8   39.79    1.00
  -3  -4  -8   39.76    1.02
  -3   4  -8   38.87    1.07
  -4  -4  -8   13.21    0.51
  -4  -4  -8   12.80    0.46
  -4   4  -8   12.60    0.53
  -5  -4  -8   13.68    0.56
  -5   4  -8   13.99    0.58
  -6  -4  -8    6.54    0.40
  -6   4  -8    5.96    0.40
   7  -5  -8    0.09    0.12
  -7   5   8    0.06    0.14
   7   5  -8   -0.01    0.13
   6  -5  -8    4.98    0.30
  -6   5   8    5.27    0.35
   6   5  -8    5.44    0.32
   5  -5  -8    0.09    0.11
  -5   5   8    0.06    0.11
   5   5  -8   -0.01    0.11
   4  -5  -8   32.11    0.86
  -4   5   8   30.23    0.87
   4   5  -8   29.67    0.82
   4   5  -8   31.00    0.78
   3  -5  -8    1.02    0.16
   3   5  -8    0.95    0.14
   3   5  -8    0.93    0.14
  -3   5   8    0.98    0.15
   2  -5  -8   26.45    0.74
   2   5  -8   26.94    0.69
  -2   5   8   26.31    0.72
   2   5  -8   26.17    0.72
   1  -5  -8    0.15    0.09
   1   5  -8    0.05    0.09
  -1   5   8    0.42    0.10
   1   5  -8    0.18    0.08
   0  -5  -8   82.42    1.74
   0  -5  -8   80.99    1.83
   0   5   8   84.50    1.77
   0   5  -8   84.27    1.86
  -1  -5  -8   65.65    1.50
  -1  -5  -8   66.53    1.46
  -1   5  -8   66.33    1.56
  -2  -5  -8   40.76    1.00
  -2  -5  -8   40.90    1.01
  -2   5  -8   38.79    1.07
  -3  -5  -8    9.72    0.38
  -3  -5  -8    8.97    0.41
  -3   5  -8    9.85    0.45
  -4  -5  -8   -0.04    0.11
  -4   5  -8    0.08    0.13
  -5  -5  -8    0.98    0.19
  -5   5  -8    0.74    0.19
  -6  -5  -8   14.79    0.63
  -6   5  -8   16.54    0.67
   7  -6  -8    5.19    0.33
   7   6  -8    4.76    0.34
  -7   6   8    5.11    0.37
   6  -6  -8    5.55    0.33
   6   6  -8    5.31    0.33
  -6   6   8    5.10    0.35
   5  -6  -8   23.57    0.73
  -5   6   8   24.16    0.78
   5   6  -8   24.04    0.72
   4  -6  -8   12.70    0.50
  -4   6   8   13.68    0.52
   4   6  -8   13.81    0.48
   3  -6  -8   55.29    1.36
   3   6  -8   56.70    1.30
   3   6  -8   57.27    1.32
  -3   6   8   56.57    1.37
   2  -6  -8    2.27    0.20
   2   6  -8    2.12    0.19
   2   6  -8    1.94    0.18
  -2   6   8    1.99    0.19
   1  -6  -8    0.11    0.09
  -1   6   8    0.29    0.09
   1   6  -8    0.03    0.08
   1   6  -8    0.15    0.09
   0  -6  -8    1.10    0.15
   0  -6  -8    1.56    0.15
   0   6  -8    1.51    0.18
   0   6   8    1.45    0.14
  -1  -6  -8   17.76    0.55
  -1  -6  -8   17.00    0.53
  -1   6  -8   17.24    0.59
  -2  -6  -8    0.68    0.13
  -2  -6  -8    0.59    0.13
  -2   6  -8    0.59    0.15
  -3  -6  -8   58.76    1.39
  -3  -6  -8   58.13    1.35
  -3   6  -8   54.99    1.46
  -4  -6  -8    0.56    0.17
  -4   6  -8    0.40    0.15
  -5  -6  -8    0.44    0.16
  -5   6  -8    0.20    0.16
   7  -7  -8    2.47    0.27
  -7   7   8    1.97    0.28
   7   7  -8    2.04    0.25
   6  -7  -8    2.96    0.26
   6   7  -8    3.31    0.28
  -6   7   8    3.42    0.30
   5  -7  -8    4.19    0.30
  -5   7   8    4.24    0.31
   5   7  -8    4.22    0.30
   4  -7  -8   31.36    0.90
   4   7  -8   31.97    0.87
  -4   7   8   31.44    0.92
   3  -7  -8   18.31    0.62
   3   7  -8   18.68    0.58
  -3   7   8   19.66    0.63
   3   7  -8   19.89    0.58
   2  -7  -8   36.11    0.95
  -2   7   8   34.88    0.93
   2   7  -8   34.89    0.91
   2   7  -8   35.54    0.89
   1  -7  -8    0.76    0.14
   1   7  -8    0.48    0.12
   1   7  -8    0.57    0.13
  -1   7   8    0.92    0.14
   0  -7  -8   15.47    0.51
   0  -7  -8   14.90    0.46
   0   7  -8   15.54    0.55
   0   7   8   14.47    0.47
  -1  -7  -8   17.16    0.55
  -1  -7  -8   17.92    0.55
  -1   7  -8   16.50    0.60
  -2  -7  -8    2.16    0.22
  -2  -7  -8    2.01    0.20
  -2   7  -8    2.27    0.25
  -3  -7  -8   11.09    0.46
  -3   7  -8   10.87    0.50
  -4  -7  -8   27.60    0.85
  -4   7  -8   27.01    0.90
  -5  -7  -8    0.65    0.19
  -5   7  -8    0.73    0.20
   6  -8  -8   11.99    0.52
   6   8  -8   12.19    0.52
  -6   8   8   11.47    0.55
   5  -8  -8   32.39    0.95
  -5   8   8   31.26    0.97
   5   8  -8   33.26    0.93
   4  -8  -8    0.25    0.14
  -4   8   8    0.48    0.16
   4   8  -8    0.36    0.14
   3  -8  -8   24.26    0.76
   3   8  -8   25.79    0.73
  -3   8   8   24.27    0.76
   2  -8  -8    4.64    0.29
   2   8  -8    5.10    0.28
  -2   8   8    4.94    0.29
   2   8  -8    4.79    0.28
   1  -8  -8  139.38    2.96
   1   8  -8  139.61    2.90
   1   8  -8  136.60    2.97
  -1   8   8  141.16    2.96
   0  -8  -8    0.23    0.11
   0   8  -8    0.07    0.12
   0   8   8    0.15    0.10
  -1  -8  -8   39.74    1.01
  -1  -8  -8   40.69    1.00
  -1   8  -8   36.75    1.07
  -2  -8  -8   -0.04    0.09
  -2  -8  -8    0.01    0.11
  -2   8  -8    0.13    0.14
  -3  -8  -8   31.67    0.93
  -3   8  -8   33.22    1.01
  -4  -8  -8   -0.11    0.13
  -4   8  -8    0.00    0.14
  -5  -8  -8   19.09    0.72
  -5   8  -8   19.79    0.78
   6  -9  -8    1.72    0.25
   6   9  -8    1.49    0.23
  -6   9   8    1.74    0.26
   5  -9  -8    0.10    0.13
   5   9  -8   -0.11    0.13
  -5   9   8   -0.11    0.12
   4  -9  -8    0.46    0.15
   4   9  -8    0.37    0.15
  -4   9   8    0.28    0.15
   3  -9  -8   18.49    0.64
  -3   9   8   18.53    0.65
   3   9  -8   19.00    0.61
   2  -9  -8    1.56    0.20
  -2   9   8    1.89    0.21
   2   9  -8    2.03    0.22
   2   9  -8    1.62    0.19
   1  -9  -8   19.76    0.64
  -1   9   8   19.89    0.63
   1   9  -8   19.27    0.59
   1   9  -8   21.10    0.67
   0  -9  -8    7.80    0.37
   0   9   8    7.59    0.35
   0   9  -8    8.24    0.41
  -1  -9  -8    2.25    0.22
  -1  -9  -8    2.22    0.22
  -1   9  -8    2.74    0.28
  -2  -9  -8   -0.03    0.10
  -2   9  -8   -0.14    0.12
  -3  -9  -8   -0.03    0.12
  -3   9  -8    0.06    0.13
  -4  -9  -8   -0.01    0.14
  -4   9  -8    0.35    0.18
  -5 -10   8    0.51    0.15
   5 -10  -8    0.43    0.17
   5  10  -8    0.55    0.18
  -5  10   8    0.47    0.18
   4 -10  -8   -0.12    0.12
  -4  10   8    0.07    0.13
   4  10  -8    0.00    0.12
   3 -10  -8   24.42    0.78
  -3  10   8   25.26    0.81
   3  10  -8   23.54    0.74
   2 -10  -8   -0.01    0.12
   2  10  -8    0.21    0.12
  -2  10   8    0.27    0.14
   1 -10  -8   62.94    1.52
   1  10  -8   62.33    1.46
   1  10  -8   63.97    1.54
  -1  10   8   61.00    1.50
   0 -10  -8    5.51    0.32
   0  10  -8    5.61    0.35
   0  10   8    5.39    0.31
  -1 -10  -8   15.25    0.54
  -1  10  -8   16.40    0.63
  -2 -10  -8    0.51    0.16
  -2  10  -8    0.51    0.18
  -3 -10  -8   10.95    0.50
  -3  10  -8   10.85    0.55
   4 -11  -8    9.27    0.47
   4  11  -8    8.81    0.44
   3 -11  -8    9.74    0.47
   3  11  -8    9.42    0.44
  -3  11   8    9.73    0.48
   2 -11  -8    6.80    0.37
  -2  11   8    6.08    0.37
   2  11  -8    6.68    0.36
   1 -11  -8    0.57    0.16
  -1  11   8    0.90    0.18
   1  11  -8    1.02    0.17
   0 -11  -8    2.34    0.24
   0  11  -8    2.68    0.28
   0  11   8    2.49    0.25
  -1  11  -8    3.52    0.32
  -2 -11  -8    5.01    0.34
  -2  11  -8    4.80    0.38
   2 -12  -8    6.65    0.38
   2  12  -8    5.75    0.34
  -2  12   8    5.53    0.37
   1 -12  -8    3.85    0.30
   1  12  -8    3.50    0.27
  -1  12   8    3.85    0.30
   0  12  -8    3.43    0.33
   0  12   8    3.66    0.29
  -1  12  -8    8.13    0.47
   8   0  -9    0.09    0.14
   7   0  -9   40.52    1.14
   6   0  -9    0.01    0.10
   6   0  -9    0.07    0.12
   5   0  -9   98.93    2.12
   5   0  -9   94.16    2.15
   4   0  -9    0.22    0.12
   4   0  -9    0.03    0.12
   3   0  -9  137.64    2.82
   3   0  -9  131.77    2.83
   2   0  -9   -0.03    0.07
   2   0  -9   -0.07    0.07
   1   0  -9   48.24    1.16
   0   0  -9    0.10    0.08
  -1   0  -9   41.05    0.97
  -1   0  -9   41.44    1.05
  -2   0  -9    0.28    0.11
  -2   0  -9    0.01    0.08
  -3   0  -9   65.75    1.55
  -3   0  -9   63.57    1.50
  -4   0  -9    0.01    0.10
  -4   0  -9    0.09    0.11
  -5   0  -9   39.94    1.10
  -5   0  -9   39.11    1.09
  -6   0  -9   -0.14    0.10
   8  -1  -9    0.80    0.19
   8   1  -9    0.87    0.20
   7  -1  -9    3.21    0.31
   7   1  -9    3.24    0.30
   6  -1  -9    0.13    0.12
   6  -1  -9    0.20    0.13
   6   1  -9   -0.15    0.10
   5  -1  -9    4.62    0.30
   5  -1  -9    4.44    0.28
   5   1  -9    5.28    0.28
   5   1  -9    5.01    0.29
   4  -1  -9   75.65    1.71
   4  -1  -9   76.36    1.70
   4   1  -9   74.39    1.68
   4   1  -9   74.28    1.69
   3  -1  -9    3.57    0.24
   3  -1  -9    3.08    0.22
   3   1  -9    3.52    0.22
   3   1  -9    3.76    0.23
   2  -1  -9    3.21    0.19
   2  -1  -9    2.99    0.22
   2   1  -9    2.97    0.21
   2   1  -9    3.14    0.18
   1  -1  -9    6.30    0.30
   1   1  -9    5.53    0.28
   0  -1  -9    3.02    0.21
   0  -1  -9    3.27    0.18
   0   1  -9    3.14    0.22
  -1  -1  -9    1.43    0.15
  -1  -1  -9    1.21    0.17
  -1   1  -9    1.31    0.17
  -2  -1  -9   35.39    0.94
  -2  -1  -9   34.59    0.89
  -2   1  -9   34.52    0.94
  -3  -1  -9   21.56    0.66
  -3  -1  -9   22.12    0.68
  -3   1  -9   21.02    0.68
  -3   1  -9   20.93    0.65
  -4  -1  -9    6.38    0.34
  -4  -1  -9    5.91    0.33
  -4   1  -9    5.35    0.33
  -4   1  -9    5.81    0.33
  -5  -1  -9    0.05    0.11
  -5  -1  -9   -0.16    0.12
  -5   1  -9    0.05    0.12
  -5   1  -9   -0.10    0.11
  -6  -1  -9    0.08    0.14
  -6   1  -9   -0.05    0.12
  -6   1  -9    0.34    0.14
   8  -2  -9    0.63    0.18
   8   2  -9    0.17    0.15
   7  -2  -9   50.64    1.25
   7  -2  -9   49.14    1.33
   7   2  -9   49.87    1.31
   6  -2  -9    4.39    0.28
   6  -2  -9    4.41    0.31
   6   2  -9    4.41    0.30
   5  -2  -9   20.23    0.65
   5  -2  -9   21.14    0.64
   5   2  -9   20.39    0.64
   5   2  -9   20.92    0.61
   4  -2  -9    3.35    0.26
   4  -2  -9    3.63    0.25
  -4   2   9    3.85    0.26
   4   2  -9    3.76    0.24
   4   2  -9    3.87    0.23
   3  -2  -9   28.41    0.78
   3  -2  -9   28.73    0.76
  -3   2   9   28.29    0.77
   3   2  -9   28.29    0.76
   3   2  -9   28.84    0.74
   2  -2  -9    5.52    0.28
   2  -2  -9    5.93    0.26
   2   2  -9    5.76    0.28
  -2   2   9    6.04    0.26
   2   2  -9    5.72    0.24
   1  -2  -9   99.22    2.19
   1  -2  -9   99.40    2.09
   1   2  -9  105.26    2.20
   0  -2  -9    4.78    0.22
   0  -2  -9    4.22    0.26
   0   2  -9    4.53    0.27
  -1  -2  -9    5.69    0.26
  -1  -2  -9    5.90    0.30
  -1   2  -9    5.20    0.29
  -2  -2  -9   11.34    0.42
  -2  -2  -9   11.59    0.44
  -2   2  -9   11.77    0.46
  -3  -2  -9   72.72    1.64
  -3  -2  -9   70.90    1.66
  -3   2  -9   70.15    1.70
  -4  -2  -9    0.59    0.15
  -4  -2  -9    0.35    0.13
  -4   2  -9    0.54    0.15
  -4   2  -9    0.38    0.12
  -5  -2  -9   20.42    0.71
  -5   2  -9   20.87    0.73
  -6  -2  -9   -0.03    0.12
  -6   2  -9   -0.02    0.13
  -6   2  -9    0.04    0.11
   7  -3  -9    1.00    0.21
   7  -3  -9    1.85    0.22
   7   3  -9    1.25    0.21
   6  -3  -9   21.30    0.71
   6  -3  -9   21.22    0.67
   6   3  -9   21.74    0.69
   5  -3  -9    1.40    0.20
   5  -3  -9    1.46    0.19
   5   3  -9    1.53    0.19
  -5   3   9    1.51    0.20
   5   3  -9    1.51    0.17
   4  -3  -9   16.41    0.55
   4   3  -9   15.61    0.52
   4   3  -9   16.98    0.52
  -4   3   9   17.09    0.57
   3  -3  -9    2.08    0.21
   3   3  -9    2.37    0.19
  -3   3   9    2.23    0.19
   3   3  -9    2.85    0.20
   2  -3  -9    8.52    0.37
   2   3  -9    8.47    0.35
   2   3  -9    8.89    0.31
  -2   3   9    8.84    0.34
   1  -3  -9    2.85    0.21
  -1   3   9    3.44    0.20
   1   3  -9    2.78    0.22
   0  -3  -9   10.93    0.41
   0  -3  -9   11.39    0.35
   0   3  -9   10.59    0.43
  -1  -3  -9   51.58    1.14
  -1  -3  -9   48.35    1.20
  -1   3  -9   47.76    1.23
  -2  -3  -9   13.21    0.46
  -2  -3  -9   12.34    0.46
  -2   3  -9   12.65    0.50
  -3  -3  -9   -0.17    0.09
  -3  -3  -9   -0.06    0.09
  -3   3  -9    0.12    0.11
  -4  -3  -9    7.09    0.36
  -4  -3  -9    7.36    0.38
  -4   3  -9    6.77    0.38
  -5  -3  -9    1.35    0.21
  -5   3  -9    1.31    0.22
  -6  -3  -9    1.82    0.26
   7  -4  -9    0.51    0.15
   7  -4  -9    0.15    0.15
   7   4  -9    0.25    0.14
   6  -4  -9    1.36    0.19
  -6   4   9    1.23    0.20
   6   4  -9    1.50    0.21
   5  -4  -9   14.89    0.53
   5   4  -9   15.31    0.53
  -5   4   9   14.69    0.57
   4  -4  -9    0.35    0.13
   4   4  -9    0.27    0.11
  -4   4   9    0.27    0.12
   4   4  -9    0.30    0.11
   3  -4  -9   23.41    0.69
   3   4  -9   22.35    0.65
   3   4  -9   23.63    0.64
  -3   4   9   22.11    0.67
   2  -4  -9    1.05    0.16
  -2   4   9    1.09    0.14
   2   4  -9    0.89    0.14
   2   4  -9    0.89    0.12
   1  -4  -9   14.62    0.51
  -1   4   9   15.70    0.46
   1   4  -9   14.69    0.51
   0  -4  -9   17.50    0.48
   0  -4  -9   17.14    0.55
   0   4  -9   16.42    0.56
  -1  -4  -9   75.72    1.72
  -1  -4  -9   77.04    1.65
  -1   4  -9   74.14    1.75
  -2  -4  -9   17.48    0.55
  -2  -4  -9   16.95    0.56
  -2   4  -9   16.93    0.60
  -3  -4  -9   24.71    0.72
  -3  -4  -9   24.27    0.73
  -3   4  -9   23.38    0.77
  -4  -4  -9    2.48    0.25
  -4  -4  -9    2.79    0.26
  -4   4  -9    2.03    0.26
  -5  -4  -9    0.21    0.14
  -5   4  -9   -0.05    0.12
   7  -5  -9    0.07    0.14
   7  -5  -9    0.06    0.12
   7   5  -9   -0.02    0.13
  -7   5   9   -0.13    0.12
   6  -5  -9    4.80    0.31
  -6   5   9    4.12    0.32
   6   5  -9    4.51    0.31
   5  -5  -9   -0.04    0.11
   5   5  -9   -0.03    0.11
  -5   5   9    0.19    0.13
   4  -5  -9   13.86    0.51
  -4   5   9   14.10    0.53
   4   5  -9   14.03    0.49
   4   5  -9   13.76    0.46
   3  -5  -9    2.45    0.21
   3   5  -9    2.44    0.20
  -3   5   9    2.43    0.21
   3   5  -9    2.03    0.20
   2  -5  -9    4.42    0.28
  -2   5   9    4.83    0.26
   2   5  -9    4.49    0.27
   2   5  -9    5.19    0.25
   1  -5  -9    7.04    0.34
   1   5  -9    6.94    0.33
  -1   5   9    7.16    0.30
   0  -5  -9   14.60    0.50
   0   5  -9   13.78    0.51
  -1  -5  -9    1.32    0.17
  -1  -5  -9    1.29    0.16
  -1   5  -9    1.42    0.19
  -2  -5  -9    3.54    0.25
  -2  -5  -9    3.74    0.25
  -2   5  -9    4.13    0.29
  -3  -5  -9    2.19    0.22
  -3  -5  -9    1.94    0.22
  -3   5  -9    1.66    0.24
  -4  -5  -9   23.15    0.76
  -4   5  -9   23.61    0.81
  -5  -5  -9    2.38    0.27
  -5   5  -9    2.19    0.28
   7  -6  -9    6.81    0.39
   7   6  -9    7.34    0.41
  -7   6   9    6.86    0.44
   6  -6  -9    0.06    0.13
  -6   6   9    0.38    0.16
   6   6  -9    0.36    0.15
   5  -6  -9    8.04    0.41
   5   6  -9    8.68    0.40
  -5   6   9    8.99    0.44
   4  -6  -9    0.44    0.14
  -4   6   9    0.56    0.15
   4   6  -9    0.28    0.13
   3  -6  -9   27.70    0.81
   3   6  -9   29.36    0.78
  -3   6   9   27.37    0.80
   3   6  -9   28.02    0.77
   2  -6  -9    1.76    0.20
   2   6  -9    2.25    0.20
  -2   6   9    2.07    0.20
   2   6  -9    2.31    0.22
   1  -6  -9   35.83    0.96
   1   6  -9   35.91    0.97
  -1   6   9   37.24    0.92
   0  -6  -9    5.79    0.31
   0   6  -9    5.54    0.32
  -1  -6  -9   27.36    0.77
  -1  -6  -9   27.28    0.74
  -1   6  -9   27.02    0.83
  -2  -6  -9    1.96    0.21
  -2  -6  -9    2.20    0.22
  -2   6  -9    2.14    0.25
  -3  -6  -9   14.55    0.54
  -3  -6  -9   13.25    0.49
  -3   6  -9   13.14    0.57
  -4  -6  -9   41.25    1.13
  -4   6  -9   40.98    1.20
  -5  -6  -9    0.39    0.17
  -5   6  -9    0.28    0.17
   6  -7  -9    7.74    0.41
   6   7  -9    8.55    0.42
  -6   7   9    6.76    0.42
   5  -7  -9    1.69    0.23
   5   7  -9    2.23    0.24
  -5   7   9    1.93    0.25
   4  -7  -9   60.34    1.50
  -4   7   9   60.91    1.52
   4   7  -9   61.36    1.46
   3  -7  -9    6.99    0.37
   3   7  -9    7.46    0.34
  -3   7   9    6.53    0.35
   3   7  -9    7.22    0.34
   2  -7  -9   24.53    0.76
   2   7  -9   25.67    0.75
  -2   7   9   25.65    0.74
   2   7  -9   25.43    0.70
   1  -7  -9    8.18    0.37
  -1   7   9    8.13    0.35
   1   7  -9    7.46    0.38
   0  -7  -9   30.50    0.85
   0   7  -9   30.74    0.89
  -1  -7  -9    1.99    0.21
  -1  -7  -9    2.13    0.20
  -1   7  -9    1.79    0.23
  -2  -7  -9   35.05    0.93
  -2  -7  -9   34.20    0.92
  -2   7  -9   33.06    1.01
  -3  -7  -9    0.14    0.13
  -3   7  -9    0.18    0.16
  -4  -7  -9   16.22    0.63
  -4   7  -9   16.14    0.67
   6  -8  -9    0.99    0.20
  -6   8   9    0.93    0.21
   6   8  -9    0.96    0.20
   5  -8  -9    1.47    0.22
  -5   8   9    1.48    0.23
   5   8  -9    1.46    0.21
   4  -8  -9    0.85    0.18
  -4   8   9    1.01    0.20
   4   8  -9    1.03    0.18
   3  -8  -9    1.26    0.19
   3   8  -9    1.07    0.17
  -3   8   9    1.01    0.19
   2  -8  -9    0.32    0.13
   2   8  -9    0.08    0.11
   2   8  -9    0.05    0.12
  -2   8   9    0.09    0.11
   1  -8  -9   23.52    0.73
  -1   8   9   23.86    0.70
   1   8  -9   23.13    0.74
   0  -8  -9   -0.08    0.10
   0   8  -9    0.08    0.13
  -1  -8  -9    0.37    0.13
  -1   8  -9    0.48    0.15
  -2  -8  -9    0.43    0.13
  -2  -8  -9    0.05    0.12
  -2   8  -9    0.11    0.13
  -3  -8  -9   -0.03    0.13
  -3   8  -9    0.33    0.16
  -4  -8  -9    1.35    0.22
  -4   8  -9    1.98    0.28
   5  -9  -9    1.97    0.25
   5   9  -9    2.10    0.25
  -5   9   9    2.68    0.29
   4  -9  -9   21.06    0.72
   4   9  -9   20.36    0.68
  -4   9   9   20.95    0.74
   3  -9  -9    0.73    0.18
   3   9  -9    0.60    0.15
  -3   9   9    0.71    0.17
   2  -9  -9   36.63    1.02
   2   9  -9   37.62    1.01
   2   9  -9   36.48    0.96
  -2   9   9   35.20    1.00
   1  -9  -9    0.40    0.15
   1   9  -9    0.35    0.16
  -1   9   9    0.47    0.14
   0  -9  -9   68.32    1.63
   0   9  -9   68.41    1.69
  -1  -9  -9    0.61    0.15
  -1   9  -9    0.62    0.17
  -2  -9  -9   22.80    0.73
  -2   9  -9   23.04    0.82
  -3  -9  -9   -0.15    0.12
  -3   9  -9    0.08    0.14
   4 -10  -9    1.16    0.21
  -4  10   9    0.81    0.19
   4  10  -9    0.93    0.19
   3 -10  -9   -0.13    0.12
  -3  10   9   -0.15    0.11
   3  10  -9   -0.19    0.11
   2 -10  -9    0.15    0.13
   2  10  -9   -0.01    0.11
  -2  10   9    0.11    0.14
   1 -10  -9   15.11    0.57
   1  10  -9   14.98    0.58
  -1  10   9   14.55    0.56
   0 -10  -9   19.26    0.65
   0  10  -9   17.79    0.68
  -1 -10  -9    2.70    0.26
  -1  10  -9    2.08    0.27
  -2  10  -9    5.96    0.40
   3 -11  -9    0.16    0.14
  -3  11   9   -0.15    0.12
   3  11  -9   -0.02    0.12
   2 -11  -9    1.42    0.22
   2  11  -9    1.38    0.20
  -2  11   9    1.46    0.22
   1 -11  -9   -0.25    0.11
   0 -11  -9   29.27    0.88
   0  11  -9   29.28    0.94
  -1  11  -9    0.71    0.20
   7   0 -10    0.07    0.13
   6   0 -10   14.74    0.57
   6   0 -10   15.16    0.54
   5   0 -10    2.16    0.23
   4   0 -10   69.52    1.60
   4   0 -10   67.58    1.58
   3   0 -10   -0.08    0.09
   3   0 -10    0.06    0.09
   2   0 -10    4.12    0.26
   1   0 -10   -0.05    0.09
   0   0 -10    4.07    0.26
  -1   0 -10    0.05    0.10
  -2   0 -10   17.09    0.55
  -2   0 -10   16.92    0.60
  -3   0 -10    0.03    0.10
  -3   0 -10    0.07    0.10
  -4   0 -10   11.56    0.50
  -4   0 -10   10.50    0.47
  -5   0 -10    0.16    0.13
  -5   0 -10    0.02    0.11
   7  -1 -10    1.30    0.21
   7   1 -10    1.20    0.21
   6  -1 -10   31.44    0.93
   6  -1 -10   31.77    0.89
   6   1 -10   32.25    0.93
   5  -1 -10    7.37    0.36
   5  -1 -10    7.21    0.36
   5   1 -10    6.89    0.35
   5   1 -10    6.73    0.34
   4  -1 -10  116.53    2.48
   4  -1 -10  114.17    2.48
   4   1 -10  113.66    2.46
   4   1 -10  112.06    2.46
   3  -1 -10    0.16    0.10
   3  -1 -10    0.18    0.10
   3   1 -10    0.12    0.11
   3   1 -10    0.22    0.10
   2  -1 -10   16.98    0.56
   2   1 -10   16.54    0.55
   1  -1 -10    0.31    0.11
   1   1 -10    0.44    0.13
   0  -1 -10   37.60    0.99
   0   1 -10   37.29    0.99
  -1  -1 -10   35.96    0.98
  -1  -1 -10   37.41    0.91
  -1   1 -10   37.83    1.01
  -2  -1 -10   36.26    0.92
  -2  -1 -10   34.94    0.97
  -2   1 -10   33.89    0.97
  -3  -1 -10    4.92    0.31
  -3  -1 -10    3.69    0.27
  -3   1 -10    3.77    0.26
  -3   1 -10    4.93    0.32
  -4  -1 -10   16.50    0.60
  -4  -1 -10   16.67    0.61
  -4   1 -10   16.33    0.60
  -4   1 -10   16.49    0.62
  -5  -1 -10    0.27    0.14
  -5  -1 -10    0.41    0.15
  -5   1 -10    0.42    0.15
  -5   1 -10    0.44    0.16
   7  -2 -10    5.89    0.34
   7  -2 -10    5.62    0.37
   7   2 -10    6.01    0.37
   6  -2 -10    0.15    0.13
   6  -2 -10    0.10    0.12
   6   2 -10    0.14    0.13
   5  -2 -10    0.67    0.15
   5  -2 -10    0.72    0.15
   5   2 -10    0.89    0.15
   5   2 -10    0.85    0.16
   4  -2 -10    9.83    0.43
   4  -2 -10   10.48    0.44
   4   2 -10   10.76    0.42
   4   2 -10   10.45    0.41
   3  -2 -10   28.69    0.81
   3  -2 -10   28.46    0.77
   3   2 -10   27.83    0.79
   3   2 -10   29.45    0.75
   2  -2 -10    8.35    0.37
   2  -2 -10    8.33    0.32
   2   2 -10    8.27    0.37
   1  -2 -10   25.62    0.74
   1   2 -10   24.98    0.74
   0  -2 -10    2.15    0.22
   0  -2 -10    2.09    0.16
   0   2 -10    1.79    0.20
  -1  -2 -10   10.93    0.40
  -1  -2 -10   11.27    0.45
  -1   2 -10   11.98    0.48
  -2  -2 -10    3.66    0.27
  -2  -2 -10    4.01    0.26
  -2   2 -10    3.55    0.27
  -3  -2 -10    0.38    0.13
  -3  -2 -10    0.52    0.14
  -3   2 -10    0.57    0.16
  -4  -2 -10    0.02    0.12
  -4  -2 -10    0.33    0.15
  -4   2 -10    0.02    0.12
  -5  -2 -10    0.90    0.19
  -5   2 -10    1.13    0.22
   7  -3 -10    1.06    0.19
   7  -3 -10    1.20    0.22
   7   3 -10    1.19    0.20
   6  -3 -10    5.03    0.34
   6  -3 -10    5.80    0.34
   6   3 -10    5.95    0.34
   5  -3 -10    0.60    0.15
   5  -3 -10    0.59    0.15
   5   3 -10    0.72    0.15
   4  -3 -10   21.72    0.69
   4  -3 -10   22.62    0.69
  -4   3  10   22.06    0.70
   4   3 -10   22.23    0.66
   4   3 -10   23.69    0.67
   3  -3 -10    5.08    0.29
   3   3 -10    4.60    0.28
   3   3 -10    5.17    0.26
  -3   3  10    4.35    0.27
   2  -3 -10   51.31    1.28
  -2   3  10   53.52    1.23
   2   3 -10   51.32    1.27
   1  -3 -10   33.23    0.90
   1   3 -10   32.31    0.90
   0  -3 -10   68.89    1.61
   0   3 -10   68.94    1.63
  -1  -3 -10    1.15    0.15
  -1  -3 -10    0.89    0.15
  -1   3 -10    1.12    0.17
  -2  -3 -10   20.27    0.63
  -2  -3 -10   21.02    0.66
  -2   3 -10   20.09    0.69
  -3  -3 -10    1.68    0.21
  -3  -3 -10    2.20    0.23
  -3   3 -10    1.73    0.24
  -4  -3 -10   18.85    0.64
  -4  -3 -10   18.76    0.66
  -4   3 -10   18.66    0.70
  -5  -3 -10    0.01    0.12
  -5   3 -10   -0.23    0.11
   7  -4 -10    7.59    0.43
   7  -4 -10    7.95    0.41
   7   4 -10    7.65    0.41
   6  -4 -10    0.01    0.12
   6  -4 -10    0.10    0.13
   6   4 -10    0.17    0.13
  -6   4  10   -0.04    0.12
   5  -4 -10   14.49    0.55
  -5   4  10   14.43    0.57
   5   4 -10   15.34    0.54
   4  -4 -10    3.30    0.26
   4   4 -10    3.65    0.25
  -4   4  10    3.82    0.27
   4   4 -10    3.12    0.23
   3  -4 -10   16.16    0.57
   3   4 -10   16.69    0.52
  -3   4  10   15.81    0.55
   3   4 -10   16.38    0.55
   2  -4 -10   11.41    0.46
   2   4 -10   11.44    0.44
  -2   4  10   11.96    0.43
   1  -4 -10   16.95    0.58
   1   4 -10   17.41    0.59
   0  -4 -10    0.50    0.14
   0   4 -10    0.99    0.17
  -1  -4 -10   11.66    0.46
  -1  -4 -10   12.49    0.43
  -1   4 -10   10.97    0.47
  -2  -4 -10   -0.08    0.09
  -2  -4 -10   -0.02    0.10
  -2   4 -10    0.06    0.11
  -3  -4 -10   13.30    0.52
  -3  -4 -10   13.37    0.52
  -3   4 -10   13.71    0.57
  -4  -4 -10    8.38    0.43
  -4   4 -10    8.84    0.47
  -5  -4 -10    7.22    0.42
  -5   4 -10    7.42    0.45
   6  -5 -10    1.49    0.21
   6   5 -10    1.39    0.21
  -6   5  10    1.21    0.21
   5  -5 -10    0.78    0.17
   5   5 -10    0.91    0.18
  -5   5  10    0.77    0.18
   4  -5 -10   10.94    0.46
  -4   5  10   11.13    0.48
   4   5 -10   10.82    0.43
   4   5 -10   11.39    0.43
   3  -5 -10   -0.03    0.10
   3   5 -10    0.03    0.09
   3   5 -10   -0.07    0.09
  -3   5  10   -0.01    0.09
   2  -5 -10   24.94    0.76
  -2   5  10   25.15    0.72
   2   5 -10   26.48    0.76
   1  -5 -10    3.15    0.25
   1   5 -10    3.05    0.24
   0  -5 -10   31.97    0.89
   0   5 -10   31.39    0.91
  -1  -5 -10   14.76    0.49
  -1  -5 -10   14.21    0.52
  -1   5 -10   14.55    0.57
  -2  -5 -10    6.41    0.34
  -2  -5 -10    6.48    0.34
  -2   5 -10    6.01    0.37
  -3  -5 -10    4.25    0.29
  -3  -5 -10    4.50    0.31
  -3   5 -10    4.24    0.34
  -4  -5 -10   22.74    0.75
  -4   5 -10   21.01    0.80
   6  -6 -10    2.51    0.27
   6   6 -10    2.45    0.26
  -6   6  10    2.46    0.28
   5  -6 -10   39.06    1.08
  -5   6  10   37.95    1.10
   5   6 -10   38.06    1.03
   4  -6 -10    8.08    0.41
  -4   6  10    8.59    0.42
   4   6 -10    9.97    0.41
   3  -6 -10   12.28    0.50
  -3   6  10   12.14    0.48
   3   6 -10   13.43    0.48
   3   6 -10   12.76    0.45
   2  -6 -10   -0.06    0.11
   2   6 -10   -0.07    0.10
  -2   6  10    0.13    0.10
   1  -6 -10   15.33    0.55
   1   6 -10   15.26    0.56
   0  -6 -10    0.11    0.11
   0   6 -10    0.02    0.11
  -1  -6 -10   19.10    0.62
  -1   6 -10   18.01    0.67
  -2  -6 -10    6.95    0.35
  -2  -6 -10    5.99    0.33
  -2   6 -10    5.63    0.38
  -3  -6 -10   42.80    1.15
  -3   6 -10   44.26    1.26
  -4  -6 -10    1.17    0.21
  -4   6 -10    0.91    0.22
   6  -7 -10    6.69    0.39
  -6   7  10    6.12    0.40
   6   7 -10    6.48    0.38
   5  -7 -10    6.69    0.38
  -5   7  10    6.52    0.39
   5   7 -10    6.27    0.36
   4  -7 -10    3.04    0.26
   4   7 -10    3.24    0.27
  -4   7  10    2.90    0.29
   3  -7 -10    0.42    0.15
  -3   7  10   -0.01    0.11
   3   7 -10    0.30    0.14
   3   7 -10    0.07    0.12
   2  -7 -10    0.14    0.11
  -2   7  10    0.10    0.11
   2   7 -10    0.08    0.13
   1  -7 -10    0.75    0.16
   1   7 -10    0.67    0.16
   0  -7 -10    4.25    0.29
   0   7 -10    4.72    0.32
  -1  -7 -10   -0.08    0.09
  -1   7 -10   -0.02    0.12
  -2  -7 -10   17.42    0.60
  -2  -7 -10   18.10    0.61
  -2   7 -10   17.38    0.69
  -3  -7 -10   -0.14    0.12
  -3   7 -10   -0.02    0.13
   5  -8 -10    4.51    0.32
  -5   8  10    4.47    0.35
   5   8 -10    4.21    0.32
   4  -8 -10    0.97    0.19
   4   8 -10    0.67    0.16
  -4   8  10    1.01    0.20
   3  -8 -10   30.50    0.93
  -3   8  10   32.05    0.93
   3   8 -10   31.66    0.87
   2  -8 -10    1.24    0.20
   2   8 -10    1.54    0.21
   1  -8 -10   30.42    0.90
   1   8 -10   30.69    0.92
   0  -8 -10    3.04    0.26
   0   8 -10    3.00    0.30
  -1  -8 -10    9.97    0.44
  -1   8 -10    9.66    0.48
  -2   8 -10    0.32    0.17
  -3  -8 -10   19.47    0.68
  -3   8 -10   19.25    0.76
   4  -9 -10    0.46    0.16
  -4   9  10    0.43    0.17
   4   9 -10    0.33    0.15
   3  -9 -10    6.78    0.38
   3   9 -10    7.13    0.36
  -3   9  10    6.74    0.39
   2  -9 -10    1.59    0.22
   1  -9 -10   12.36    0.52
   1   9 -10   13.47    0.56
   0  -9 -10    6.97    0.38
   0   9 -10    8.09    0.44
  -1  -9 -10    0.64    0.16
  -1   9 -10    0.76    0.20
  -2   9 -10   -0.10    0.13
   3 -10 -10    5.49    0.35
  -3  10  10    5.00    0.35
   3  10 -10    5.59    0.34
   2 -10 -10   10.45    0.49
   1 -10 -10   47.05    1.26
   1  10 -10   46.98    1.28
   0 -10 -10    1.11    0.20
   0  10 -10    1.43    0.24
  -1  10 -10   15.32    0.65
   7   0 -11   26.89    0.86
   6   0 -11    0.03    0.12
   6   0 -11    0.11    0.12
   5   0 -11    1.47    0.20
   5   0 -11    1.51    0.20
   4   0 -11   -0.17    0.10
   4   0 -11    0.15    0.12
   3   0 -11   53.28    1.32
   2   0 -11    0.10    0.10
   1   0 -11   69.30    1.64
   0   0 -11    0.11    0.11
  -1   0 -11    5.47    0.32
  -2   0 -11    0.00    0.10
  -3   0 -11   53.80    1.41
  -3   0 -11   55.57    1.35
  -4   0 -11    0.01    0.11
  -4   0 -11    0.00    0.12
   7  -1 -11    0.51    0.18
   7   1 -11    0.46    0.16
   6  -1 -11    3.05    0.27
   6  -1 -11    2.85    0.27
   6   1 -11    2.82    0.26
   5  -1 -11    1.15    0.19
   5  -1 -11    0.98    0.17
   5   1 -11    1.01    0.18
   5   1 -11    0.94    0.17
   4  -1 -11    4.03    0.27
   4  -1 -11    4.01    0.29
   4   1 -11    3.75    0.26
   4   1 -11    3.85    0.25
   3  -1 -11    0.02    0.11
   3   1 -11   -0.17    0.10
   2  -1 -11    5.67    0.32
   2   1 -11    6.40    0.34
   1  -1 -11   16.71    0.59
   1   1 -11   17.89    0.60
   0  -1 -11    0.46    0.14
   0   1 -11    0.26    0.13
  -1  -1 -11    0.44    0.14
  -1  -1 -11    0.19    0.09
  -1   1 -11    0.22    0.12
  -2  -1 -11    9.28    0.44
  -2  -1 -11    9.85    0.40
  -2   1 -11    9.13    0.45
  -3  -1 -11    0.43    0.16
  -3  -1 -11    0.31    0.14
  -3   1 -11    0.31    0.14
  -4  -1 -11    0.07    0.12
  -4  -1 -11    0.11    0.13
  -4   1 -11    0.09    0.12
   6  -2 -11    1.14    0.20
   6  -2 -11    1.04    0.19
   6   2 -11    1.06    0.18
   5  -2 -11   38.27    1.04
   5  -2 -11   37.60    1.03
   5   2 -11   36.76    1.00
   5   2 -11   37.51    1.01
   4  -2 -11    5.89    0.32
   4  -2 -11    5.45    0.34
   4   2 -11    6.03    0.33
   4   2 -11    5.98    0.31
   3  -2 -11   53.06    1.33
   3   2 -11   53.70    1.32
   2  -2 -11    0.07    0.11
   2   2 -11    0.01    0.11
   1  -2 -11   27.64    0.82
   1   2 -11   27.83    0.82
   0  -2 -11    0.51    0.15
   0   2 -11    0.45    0.14
  -1  -2 -11   57.45    1.29
  -1  -2 -11   54.82    1.39
  -1   2 -11   55.14    1.41
  -2  -2 -11   11.03    0.48
  -2  -2 -11   12.00    0.45
  -2   2 -11   11.12    0.50
  -3  -2 -11   16.33    0.62
  -3  -2 -11   17.36    0.60
  -3   2 -11   17.05    0.65
  -4  -2 -11    3.96    0.30
  -4  -2 -11    4.79    0.33
  -4   2 -11    3.94    0.33
   6  -3 -11    0.46    0.16
   6  -3 -11    1.00    0.19
   6   3 -11    0.37    0.14
   5  -3 -11   -0.03    0.12
   5  -3 -11    0.07    0.12
   5   3 -11    0.30    0.14
   4  -3 -11   31.66    0.88
   4  -3 -11   30.77    0.91
   4   3 -11   31.04    0.85
   4   3 -11   31.47    0.88
   3  -3 -11    2.45    0.25
   3   3 -11    2.11    0.23
   2  -3 -11    1.71    0.21
   2   3 -11    1.75    0.21
   1  -3 -11    1.17    0.18
   1   3 -11    1.10    0.19
   0  -3 -11   22.38    0.71
   0   3 -11   20.48    0.70
  -1  -3 -11    2.05    0.23
  -1   3 -11    2.59    0.26
  -2  -3 -11    2.63    0.23
  -2  -3 -11    2.09    0.21
  -2   3 -11    2.53    0.27
  -3  -3 -11    0.31    0.14
  -3  -3 -11    0.69    0.16
  -3   3 -11    0.53    0.17
  -4  -3 -11    3.83    0.30
  -4  -3 -11    3.62    0.30
  -4   3 -11    3.98    0.34
   6  -4 -11    1.23    0.21
   6  -4 -11    1.53    0.22
   6   4 -11    1.31    0.20
   5  -4 -11   18.56    0.66
   5  -4 -11   18.53    0.64
  -5   4  11   17.00    0.65
   5   4 -11   19.00    0.63
   4  -4 -11    8.63    0.40
   4  -4 -11    8.57    0.42
  -4   4  11    8.24    0.40
   4   4 -11    8.72    0.38
   4   4 -11    8.26    0.39
   3  -4 -11   12.80    0.51
   3   4 -11   12.85    0.50
   2  -4 -11    1.06    0.19
   2   4 -11    1.28    0.19
   1  -4 -11   56.09    1.41
   1   4 -11   57.89    1.43
   0  -4 -11    0.66    0.16
   0   4 -11    0.64    0.15
  -1  -4 -11   25.04    0.79
  -1   4 -11   25.96    0.82
  -2  -4 -11    0.48    0.13
  -2  -4 -11    0.66    0.15
  -2   4 -11    0.65    0.18
  -3  -4 -11   15.22    0.57
  -3  -4 -11   14.58    0.57
  -3   4 -11   14.97    0.63
  -4  -4 -11    2.11    0.26
  -4   4 -11    2.29    0.30
   6  -5 -11    4.47    0.34
   6  -5 -11    4.17    0.33
  -6   5  11    4.38    0.34
   6   5 -11    4.30    0.31
   5  -5 -11   10.28    0.48
   5   5 -11   10.49    0.45
  -5   5  11    9.84    0.48
   4  -5 -11   35.65    1.03
   4   5 -11   37.58    0.97
  -4   5  11   36.15    1.03
   3  -5 -11    0.68    0.17
   3   5 -11    0.58    0.15
   2  -5 -11   35.47    1.00
   2   5 -11   34.50    0.97
   1  -5 -11    0.32    0.13
   1   5 -11    0.35    0.13
   0  -5 -11   21.33    0.70
   0   5 -11   22.02    0.73
  -1  -5 -11    0.40    0.14
  -1   5 -11    0.22    0.13
  -2  -5 -11   21.57    0.71
  -2  -5 -11   21.95    0.68
  -2   5 -11   20.26    0.75
  -3  -5 -11    1.86    0.23
  -3  -5 -11    2.83    0.28
  -3   5 -11    2.17    0.28
   5  -6 -11    0.13    0.14
  -5   6  11    0.05    0.13
   5   6 -11   -0.04    0.12
   4  -6 -11    0.09    0.13
   4   6 -11    0.02    0.13
  -4   6  11   -0.16    0.12
   3  -6 -11    1.57    0.21
   3   6 -11    1.62    0.21
   2  -6 -11    0.94    0.18
   2   6 -11    1.11    0.19
   1  -6 -11    1.24    0.20
   1   6 -11    1.48    0.21
   0  -6 -11    0.11    0.12
   0   6 -11    0.25    0.13
  -1  -6 -11    0.63    0.15
  -1   6 -11    0.82    0.19
  -2  -6 -11    1.20    0.20
  -2   6 -11    1.15    0.22
  -3  -6 -11    6.65    0.38
  -3   6 -11    6.91    0.43
   5  -7 -11    1.20    0.21
   5   7 -11    1.11    0.21
  -5   7  11    1.20    0.22
   4  -7 -11   15.67    0.62
  -4   7  11   14.04    0.59
   4   7 -11   16.30    0.56
   3  -7 -11    2.96    0.26
   2  -7 -11   17.84    0.64
   2   7 -11   16.87    0.62
   1  -7 -11    1.25    0.19
   1   7 -11    1.43    0.22
   0  -7 -11    8.06    0.41
   0   7 -11    8.16    0.44
  -1  -7 -11    4.53    0.31
  -1   7 -11    4.00    0.34
  -2  -7 -11    9.32    0.44
  -2   7 -11    8.77    0.48
   4  -8 -11    4.08    0.31
  -4   8  11    3.85    0.31
   3  -8 -11    0.44    0.16
   2  -8 -11    4.58    0.33
   2   8 -11    4.40    0.32
   1  -8 -11    3.60    0.30
   1   8 -11    3.97    0.32
   0  -8 -11    3.85    0.29
   0   8 -11    3.23    0.33
  -1  -8 -11    6.54    0.37
  -1   8 -11    6.53    0.41
  -2   8 -11    3.24    0.35
   3  -9 -11    0.52    0.18
   2  -9 -11    0.23    0.15
   1  -9 -11    0.28    0.15
   1   9 -11    0.32    0.17
   0  -9 -11   30.68    0.94
   0   9 -11   31.74    1.00
   6   0 -12    2.25    0.25
   6   0 -12    1.42    0.21
   5   0 -12   -0.04    0.11
   5   0 -12   -0.16    0.10
   4   0 -12   -0.14    0.11
   3   0 -12    0.13    0.11
   2   0 -12    0.82    0.17
   1   0 -12   -0.02    0.11
   0   0 -12    3.12    0.27
  -1   0 -12    0.07    0.13
  -2   0 -12    3.52    0.29
  -3   0 -12   -0.02    0.13
   6  -1 -12    6.01    0.36
   6  -1 -12    6.11    0.37
   6   1 -12    6.92    0.37
   5  -1 -12    7.11    0.37
   5  -1 -12    7.14    0.39
   5   1 -12    7.61    0.37
   5   1 -12    6.72    0.37
   4  -1 -12    9.95    0.45
   4   1 -12    9.53    0.44
   3  -1 -12    0.61    0.16
   3   1 -12    0.31    0.14
   2  -1 -12   15.52    0.58
   2   1 -12   15.47    0.58
   1  -1 -12   10.09    0.46
   1   1 -12   10.52    0.47
   0  -1 -12   58.47    1.48
   0   1 -12   58.72    1.49
  -1  -1 -12   13.18    0.55
  -1   1 -12   13.52    0.56
  -2  -1 -12   11.73    0.52
  -2   1 -12   11.34    0.52
  -3  -1 -12    0.02    0.12
  -3  -1 -12    0.37    0.15
  -3   1 -12    0.05    0.14
   6  -2 -12    0.16    0.13
   6  -2 -12    0.19    0.14
   6   2 -12    0.09    0.12
   5  -2 -12    2.91    0.26
   5  -2 -12    2.96    0.29
   5   2 -12    2.55    0.26
   5   2 -12    3.59    0.26
   4  -2 -12    5.47    0.35
   4   2 -12    5.37    0.33
   3  -2 -12    7.17    0.38
   3   2 -12    6.81    0.37
   2  -2 -12    0.08    0.12
   2   2 -12    0.02    0.11
   1  -2 -12    4.71    0.32
   1   2 -12    4.83    0.33
   0  -2 -12    5.93    0.36
   0   2 -12    6.22    0.36
  -1  -2 -12    2.06    0.25
  -1   2 -12    2.44    0.27
  -2  -2 -12   13.16    0.55
  -2  -2 -12   13.87    0.51
  -2   2 -12   12.22    0.55
  -3  -2 -12    1.48    0.21
  -3  -2 -12    1.78    0.24
  -3   2 -12    1.60    0.24
   5  -3 -12    0.18    0.14
   5  -3 -12    0.39    0.15
   5   3 -12    0.37    0.14
   4  -3 -12   73.68    1.80
   4   3 -12   75.43    1.77
   3  -3 -12    1.50    0.22
   3   3 -12    1.47    0.21
   2  -3 -12   26.20    0.82
   2   3 -12   26.21    0.82
   1  -3 -12    1.16    0.20
   1   3 -12    0.91    0.18
   0  -3 -12   21.08    0.73
   0   3 -12   22.19    0.74
  -1  -3 -12    4.25    0.30
  -1   3 -12    4.08    0.32
  -2  -3 -12   19.07    0.68
  -2   3 -12   18.24    0.70
  -3  -3 -12    1.23    0.20
  -3  -3 -12    1.29    0.21
  -3   3 -12    1.48    0.25
   5  -4 -12   14.40    0.58
   5  -4 -12   14.54    0.57
   5   4 -12   13.33    0.53
   4  -4 -12    0.09    0.13
   4   4 -12   -0.03    0.12
   3  -4 -12   17.21    0.64
   2  -4 -12   18.79    0.67
   2   4 -12   18.56    0.66
   1  -4 -12   23.57    0.77
   1   4 -12   23.51    0.78
   0  -4 -12    4.65    0.32
   0   4 -12    5.21    0.34
  -1  -4 -12   14.90    0.58
  -1   4 -12   16.10    0.63
  -2  -4 -12    0.25    0.13
  -2   4 -12    0.02    0.13
  -3  -4 -12    7.47    0.41
  -3  -4 -12    7.03    0.39
  -3   4 -12    7.87    0.46
   5  -5 -12    5.37    0.37
   5  -5 -12    5.34    0.34
  -5   5  12    4.69    0.34
   4  -5 -12    5.40    0.36
   3  -5 -12    2.16    0.25
   3   5 -12    1.98    0.24
   2  -5 -12   11.64    0.50
   2   5 -12   10.99    0.49
   1  -5 -12    1.28    0.21
   1   5 -12    1.39    0.22
   0  -5 -12    2.52    0.26
   0   5 -12    2.91    0.30
  -1  -5 -12    7.05    0.40
  -1   5 -12    7.48    0.43
  -2  -5 -12    3.31    0.28
  -2   5 -12    2.76    0.31
   4  -6 -12    5.88    0.38
   3  -6 -12    8.27    0.43
   3   6 -12    7.83    0.41
   2  -6 -12    0.89    0.19
   2   6 -12    1.23    0.21
   1  -6 -12   41.59    1.16
   1   6 -12   42.17    1.18
   0  -6 -12    1.87    0.24
   0   6 -12    1.86    0.26
  -1  -6 -12   12.66    0.54
  -1   6 -12   13.21    0.59
  -2  -6 -12    0.32    0.14
  -2   6 -12    0.25    0.17
   3  -7 -12    0.21    0.15
   2  -7 -12    6.89    0.41
   2   7 -12    7.17    0.41
   1  -7 -12    0.98    0.20
   1   7 -12    1.27    0.22
   0  -7 -12    5.83    0.37
   0   7 -12    6.15    0.40
  -1  -7 -12    1.62    0.23
  -1   7 -12    1.11    0.22
   1  -8 -12    6.24    0.39
   1   8 -12    6.48    0.41
   5   0 -13    5.48    0.35
   4   0 -13   -0.11    0.12
   3   0 -13   10.59    0.49
   2   0 -13   -0.06    0.12
   1   0 -13   11.03    0.50
   0   0 -13    0.04    0.12
  -1   0 -13   60.71    1.57
  -2   0 -13    0.02    0.14
   5  -1 -13    0.12    0.13
   5   1 -13    0.23    0.14
   4  -1 -13   -0.01    0.11
   4   1 -13    0.11    0.13
   3  -1 -13    0.02    0.13
   3   1 -13    0.06    0.12
   2  -1 -13    0.46    0.16
   2   1 -13    0.55    0.16
   1  -1 -13    2.18    0.26
   1   1 -13    1.65    0.23
   0  -1 -13    8.41    0.45
   0   1 -13    8.88    0.46
  -1  -1 -13    0.55    0.18
  -1   1 -13    0.48    0.16
  -2  -1 -13   -0.03    0.11
  -2   1 -13    0.25    0.15
   4  -2 -13    4.98    0.34
   4   2 -13    5.29    0.35
   3  -2 -13   14.90    0.59
   3   2 -13   15.23    0.59
   2  -2 -13    1.98    0.25
   2   2 -13    2.03    0.25
   1  -2 -13   36.09    1.06
   1   2 -13   36.23    1.06
   0  -2 -13   -0.04    0.12
   0   2 -13   -0.12    0.12
  -1  -2 -13    3.25    0.32
  -1   2 -13    2.45    0.28
  -2  -2 -13    0.17    0.14
  -2   2 -13    0.20    0.16
   4  -3 -13    0.08    0.14
   4   3 -13   -0.04    0.12
   3  -3 -13    1.59    0.23
   3   3 -13    1.21    0.20
   2  -3 -13   11.11    0.51
   2   3 -13   10.33    0.48
   1  -3 -13    7.61    0.42
   1   3 -13    7.12    0.42
   0  -3 -13   10.30    0.50
   0   3 -13   10.40    0.51
  -1  -3 -13   20.19    0.73
  -1   3 -13   20.81    0.76
   4  -4 -13    4.78    0.36
   4   4 -13    5.39    0.35
   3  -4 -13   13.64    0.58
   3   4 -13   13.88    0.57
   2  -4 -13    0.15    0.14
   2   4 -13    0.51    0.17
   1  -4 -13   11.98    0.54
   1   4 -13   12.44    0.56
   0  -4 -13    1.84    0.25
   0   4 -13    2.25    0.28
  -1  -4 -13    2.35    0.27
  -1   4 -13    2.69    0.31
   3  -5 -13    1.77    0.24
   3   5 -13    1.42    0.23
   2  -5 -13    5.03    0.34
   2   5 -13    4.78    0.35
   1  -5 -13   12.38    0.55
   1   5 -13   12.55    0.56
   0  -5 -13    9.80    0.49
   0   5 -13    8.70    0.48
   2   6 -13   14.43    0.60
   1  -6 -13    0.98    0.20
   1   6 -13    1.05    0.22
   3   0 -14   -0.06    0.13
   2   0 -14    3.86    0.32
   1   0 -14    0.04    0.13
   2  -1 -14    6.24    0.40
   2   1 -14    6.39    0.40
   1  -1 -14    1.07    0.21
   1   1 -14    1.26    0.22
   2  -2 -14    7.56    0.44
   2   2 -14    7.48    0.44
   1  -2 -14    0.06    0.13
   1   2 -14    0.08    0.14
   0   0   0    0.00    0.00
;
_shelx_hkl_checksum              11920
_shelx_shelxl_version_number     2014/7
_olex2_submission_special_instructions 'No special instructions were received'
loop_
_space_group_symop_operation_xyz
'x, y, z'
'-x+1/2, y+1/2, -z+1/2'
'-x, -y, -z'
'x-1/2, -y-1/2, z-1/2'
loop_
_atom_site_label
_atom_site_type_symbol
_atom_site_fract_x
_atom_site_fract_y
_atom_site_fract_z
_atom_site_U_iso_or_equiv
_atom_site_adp_type
_atom_site_occupancy
_atom_site_site_symmetry_order
_atom_site_calc_flag
_atom_site_refinement_flags_posn
Si1 Si 0.99795(4) 0.27632(2) 0.77406(3) 0.01781(9) Uani 1 1 d .
O1 O 0.65914(10) 0.38208(6) 0.85503(7) 0.01981(14) Uani 1 1 d .
C1 C 0.80143(13) 0.53599(8) 1.02032(9) 0.01767(17) Uani 1 1 d .
H1 H 0.6671 0.5596 1.0333 0.021 Uiso 1 1 calc R
C2 C 0.83023(13) 0.44100(8) 0.92742(9) 0.01610(16) Uani 1 1 d .
C3 C 1.02610(13) 0.40388(8) 0.90569(9) 0.01647(16) Uani 1 1 d .
C4 C 0.70780(16) 0.28518(10) 0.76047(11) 0.0272(2) Uani 1 1 d .
H4A H 0.6449 0.3071 0.6658 0.033 Uiso 1 1 calc R
H4B H 0.6529 0.2021 0.7839 0.033 Uiso 1 1 calc R
C5 C 1.1053(2) 0.12048(10) 0.83669(12) 0.0353(3) Uani 1 1 d .
H5A H 1.0611 0.0553 0.7677 0.053 Uiso 1 1 calc GR
H5B H 1.0559 0.0987 0.9219 0.053 Uiso 1 1 calc GR
H5C H 1.2554 0.1252 0.8535 0.053 Uiso 1 1 calc GR
C6 C 1.09340(17) 0.32215(11) 0.61447(11) 0.0276(2) Uani 1 1 d .
H6A H 1.0289 0.4019 0.5799 0.041 Uiso 1 1 calc GR
H6B H 1.0590 0.2556 0.5456 0.041 Uiso 1 1 calc GR
H6C H 1.2426 0.3331 0.6337 0.041 Uiso 1 1 calc GR
loop_
_atom_site_aniso_label
_atom_site_aniso_U_11
_atom_site_aniso_U_22
_atom_site_aniso_U_33
_atom_site_aniso_U_23
_atom_site_aniso_U_13
_atom_site_aniso_U_12
Si1 0.01934(14) 0.01685(13) 0.01700(14) -0.00333(8) 0.00218(9) 0.00082(8)
O1 0.0161(3) 0.0221(3) 0.0208(3) -0.0056(2) 0.0015(2) -0.0011(2)
C1 0.0155(4) 0.0188(4) 0.0190(4) -0.0018(3) 0.0037(3) 0.0011(3)
C2 0.0157(4) 0.0167(4) 0.0155(4) 0.0003(3) 0.0012(3) -0.0007(3)
C3 0.0171(4) 0.0161(3) 0.0163(4) -0.0012(3) 0.0029(3) 0.0008(3)
C4 0.0219(4) 0.0333(5) 0.0268(5) -0.0146(4) 0.0050(4) -0.0046(4)
C5 0.0500(7) 0.0202(5) 0.0308(5) -0.0039(4) -0.0088(5) 0.0056(4)
C6 0.0306(5) 0.0311(5) 0.0228(4) -0.0064(4) 0.0091(4) -0.0057(4)
loop_
_atom_type_symbol
_atom_type_description
_atom_type_scat_dispersion_real
_atom_type_scat_dispersion_imag
_atom_type_scat_source
C C 0.0033 0.0016 'International Tables Vol C Tables 4.2.6.8 and 6.1.1.4'
H H 0.0000 0.0000 'International Tables Vol C Tables 4.2.6.8 and 6.1.1.4'
O O 0.0106 0.0060 'International Tables Vol C Tables 4.2.6.8 and 6.1.1.4'
Si Si 0.0817 0.0704 'International Tables Vol C Tables 4.2.6.8 and 6.1.1.4'
loop_
_geom_angle_atom_site_label_1
_geom_angle_atom_site_label_2
_geom_angle_atom_site_label_3
_geom_angle
_geom_angle_site_symmetry_1
_geom_angle_site_symmetry_3
C3 Si1 C4 89.99(4) . .
C5 Si1 C3 114.59(5) . .
C5 Si1 C4 113.15(6) . .
C5 Si1 C6 110.56(6) . .
C6 Si1 C3 113.50(5) . .
C6 Si1 C4 113.78(5) . .
C2 O1 C4 113.71(7) . .
C2 C1 H1 120.5 . .
C2 C1 C3 118.97(8) . 3_767
C3 C1 H1 120.5 3_767 .
O1 C2 C1 118.56(8) . .
O1 C2 C3 119.44(8) . .
C1 C2 C3 122.00(8) . .
C1 C3 Si1 132.35(7) 3_767 .
C2 C3 Si1 108.62(6) . .
C2 C3 C1 119.03(8) . 3_767
Si1 C4 H4A 110.0 . .
Si1 C4 H4B 110.0 . .
O1 C4 Si1 108.25(6) . .
O1 C4 H4A 110.0 . .
O1 C4 H4B 110.0 . .
H4A C4 H4B 108.4 . .
Si1 C5 H5A 109.5 . .
Si1 C5 H5B 109.5 . .
Si1 C5 H5C 109.5 . .
H5A C5 H5B 109.5 . .
H5A C5 H5C 109.5 . .
H5B C5 H5C 109.5 . .
Si1 C6 H6A 109.5 . .
Si1 C6 H6B 109.5 . .
Si1 C6 H6C 109.5 . .
H6A C6 H6B 109.5 . .
H6A C6 H6C 109.5 . .
H6B C6 H6C 109.5 . .
loop_
_geom_bond_atom_site_label_1
_geom_bond_atom_site_label_2
_geom_bond_distance
_geom_bond_site_symmetry_2
Si1 C3 1.8624(9) .
Si1 C4 1.9016(11) .
Si1 C5 1.8571(11) .
Si1 C6 1.8583(11) .
O1 C2 1.3844(10) .
O1 C4 1.4572(11) .
C1 H1 0.9500 .
C1 C2 1.3943(12) .
C1 C3 1.4030(12) 3_767
C2 C3 1.4011(12) .
C3 C1 1.4029(12) 3_767
C4 H4A 0.9900 .
C4 H4B 0.9900 .
C5 H5A 0.9800 .
C5 H5B 0.9800 .
C5 H5C 0.9800 .
C6 H6A 0.9800 .
C6 H6B 0.9800 .
C6 H6C 0.9800 .
loop_
_geom_torsion_atom_site_label_1
_geom_torsion_atom_site_label_2
_geom_torsion_atom_site_label_3
_geom_torsion_atom_site_label_4
_geom_torsion
_geom_torsion_site_symmetry_1
_geom_torsion_site_symmetry_4
O1 C2 C3 Si1 0.43(10) . .
O1 C2 C3 C1 -179.90(8) . 3_767
C1 C2 C3 Si1 -179.63(7) . .
C1 C2 C3 C1 0.04(14) . 3_767
C2 O1 C4 Si1 0.24(10) . .
C3 C1 C2 O1 179.90(8) 3_767 .
C3 C1 C2 C3 -0.04(14) 3_767 .
C4 Si1 C3 C1 -179.82(9) . 3_767
C4 Si1 C3 C2 -0.21(7) . .
C4 O1 C2 C1 179.60(8) . .
C4 O1 C2 C3 -0.45(12) . .
C5 Si1 C3 C1 64.57(11) . 3_767
C5 Si1 C3 C2 -115.82(8) . .
C6 Si1 C3 C1 -63.75(10) . 3_767
C6 Si1 C3 C2 115.86(7) . .
