#------------------------------------------------------------------------------
#$Date: 2019-11-25 17:10:08 +0200 (Mon, 25 Nov 2019) $
#$Revision: 241417 $
#$URL: file:///home/coder/svn-repositories/cod/cif/4/13/11/4131129.cif $
#------------------------------------------------------------------------------
#
# This file is available in the Crystallography Open Database (COD),
# http://www.crystallography.net/
#
# All data on this site have been placed in the public domain by the
# contributors.
#
data_4131129
loop_
_publ_author_name
'Tian, Maoqun'
'Yan, Ming'
'Baran, Phil S.'
_publ_section_title
;
 11-Step Total Synthesis of Araiosamines.
;
_journal_issue                   43
_journal_name_full               'Journal of the American Chemical Society'
_journal_page_first              14234
_journal_page_last               14237
_journal_paper_doi               10.1021/jacs.6b09701
_journal_volume                  138
_journal_year                    2016
_chemical_formula_moiety         'C13 H19 N3 O2'
_chemical_formula_sum            'C13 H19 N3 O2'
_chemical_formula_weight         249.31
_space_group_crystal_system      triclinic
_space_group_IT_number           2
_space_group_name_Hall           '-P 1'
_space_group_name_H-M_alt        'P -1'
_atom_sites_solution_hydrogens   mixed
_audit_creation_date             2016-08-02
_audit_creation_method
;
Olex2 1.2
(compiled 2016.02.19 svn.r3266 for OlexSys, GUI svn.r5155)
;
_cell_angle_alpha                70.333(2)
_cell_angle_beta                 77.849(3)
_cell_angle_gamma                73.650(3)
_cell_formula_units_Z            2
_cell_length_a                   7.1915(6)
_cell_length_b                   9.9207(8)
_cell_length_c                   10.5906(8)
_cell_measurement_reflns_used    5452
_cell_measurement_temperature    100(2)
_cell_measurement_theta_max      25.66
_cell_measurement_theta_min      2.24
_cell_volume                     677.11(9)
_computing_cell_refinement       'SAINT v8.34A (Bruker, 2013)'
_computing_data_collection       'APEX2 v2013.6-2 (Bruker, 2013)'
_computing_data_reduction        'SAINT v8.34A (Bruker, 2013)'
_computing_molecular_graphics    'Olex2 (Dolomanov et al., 2009)'
_computing_publication_material  'Olex2 (Dolomanov et al., 2009)'
_computing_structure_refinement  'XL (Sheldrick, 2008)'
_computing_structure_solution    'ShelXT (Sheldrick, 2008)'
_diffrn_ambient_temperature      100.0
_diffrn_detector                 'Bruker APEX-II CCD'
_diffrn_detector_area_resol_mean 7.9
_diffrn_detector_type            'CCD Area Detector'
_diffrn_measured_fraction_theta_full 1.000
_diffrn_measured_fraction_theta_max 1.000
_diffrn_measurement_device       'Kappa Four-Circle Diffractometer'
_diffrn_measurement_device_type  'Bruker APEX II Ultra'
_diffrn_measurement_method       '\w and \f scans'
_diffrn_radiation_monochromator  'Double Bounce Multilayer Mirrors'
_diffrn_radiation_probe          x-ray
_diffrn_radiation_type           MoK\a
_diffrn_radiation_wavelength     0.71073
_diffrn_reflns_av_R_equivalents  0.0571
_diffrn_reflns_av_unetI/netI     0.0420
_diffrn_reflns_Laue_measured_fraction_full 1.000
_diffrn_reflns_Laue_measured_fraction_max 1.000
_diffrn_reflns_limit_h_max       8
_diffrn_reflns_limit_h_min       -8
_diffrn_reflns_limit_k_max       12
_diffrn_reflns_limit_k_min       -12
_diffrn_reflns_limit_l_max       12
_diffrn_reflns_limit_l_min       -12
_diffrn_reflns_number            10609
_diffrn_reflns_point_group_measured_fraction_full 1.000
_diffrn_reflns_point_group_measured_fraction_max 1.000
_diffrn_reflns_theta_full        25.681
_diffrn_reflns_theta_max         25.681
_diffrn_reflns_theta_min         2.059
_diffrn_source                   'Micro Focus Rotating Anode'
_diffrn_source_type              'Bruker TXS'
_diffrn_standards_number         0
_exptl_absorpt_coefficient_mu    0.084
_exptl_absorpt_correction_T_max  0.7409
_exptl_absorpt_correction_T_min  0.6816
_exptl_absorpt_correction_type   multi-scan
_exptl_absorpt_process_details
;
SADABS-2014/5 (Bruker,2014/5) was used for absorption correction.
wR2(int) was 0.1356 before and 0.0721 after correction.
The Ratio of minimum to maximum transmission is 0.9200.
The \l/2 correction factor is Not present.
;
_exptl_crystal_colour            colourless
_exptl_crystal_colour_primary    colourless
_exptl_crystal_density_diffrn    1.223
_exptl_crystal_description       block
_exptl_crystal_F_000             268
_exptl_crystal_size_max          0.2
_exptl_crystal_size_mid          0.15
_exptl_crystal_size_min          0.125
_refine_diff_density_max         0.189
_refine_diff_density_min         -0.254
_refine_diff_density_rms         0.045
_refine_ls_extinction_method     none
_refine_ls_goodness_of_fit_ref   1.046
_refine_ls_hydrogen_treatment    mixed
_refine_ls_matrix_type           full
_refine_ls_number_parameters     173
_refine_ls_number_reflns         2575
_refine_ls_number_restraints     0
_refine_ls_restrained_S_all      1.046
_refine_ls_R_factor_all          0.0458
_refine_ls_R_factor_gt           0.0403
_refine_ls_shift/su_max          0.000
_refine_ls_shift/su_mean         0.000
_refine_ls_structure_factor_coef Fsqd
_refine_ls_weighting_details
'w=1/[\s^2^(Fo^2^)+(0.0519P)^2^+0.1986P] where P=(Fo^2^+2Fc^2^)/3'
_refine_ls_weighting_scheme      calc
_refine_ls_wR_factor_gt          0.1044
_refine_ls_wR_factor_ref         0.1110
_reflns_Friedel_coverage         0.000
_reflns_number_gt                2272
_reflns_number_total             2575
_reflns_threshold_expression     'I > 2\s(I)'
_cod_data_source_file            ja6b09701_si_002.cif
_cod_data_source_block           final
_cod_depositor_comments
;
The following automatic conversions were performed:

data item '_diffrn_radiation_probe' value 'X-ray' was changed to
'x-ray' in accordance with the
/home/saulius/struct/COD-crude-data/automatic-downloads/DataCite-retrospective/ACS/depositions/lib/dictionaries/cif_core.dic
dictionary named 'cif_core.dic' version 2.4.2 last updated on
2011-04-26.

Automatic conversion script
Id: cif_fix_values 6909 2019-04-08 15:41:33Z antanas 
;
_cod_database_code               4131129
_shelx_space_group_comment
;
The symmetry employed for this shelxl refinement is uniquely defined
by the following loop, which should always be used as a source of
symmetry information in preference to the above space-group names.
They are only intended as comments.
;
_olex2_refinement_description
;
1. Fixed Uiso
 At 1.2 times of:
  All C(H) groups, All C(H,H) groups
 At 1.5 times of:
  All C(H,H,H) groups
2.a Aromatic/amide H refined with riding coordinates:
 C1(H1), C2(H2), C3(H3), C4(H4), C5(H5)
2.b Idealised Me refined as rotating group:
 C7(H7A,H7B,H7C), C11(H11A,H11B,H11C), C12(H12A,H12B,H12C), C13(H13A,H13B,H13C)
;
_shelx_res_file
;
    final.res created by SHELXL-2014/7

TITL Prelim_a.res in P-1
REM Old TITL Prelim in P-1
REM SHELXT solution in P-1
REM R1 0.127, Rweak 0.004, Alpha 0.029, Orientation as input
REM Formula found by SHELXT: C13 N3 O2
CELL 0.71073 7.1915 9.9207 10.5906 70.333 77.849 73.65
ZERR 2 0.0006 0.0008 0.0008 0.002 0.003 0.003
LATT 1
SFAC C H N O
UNIT 26 38 6 4

L.S. 10
PLAN  5
TEMP -173.15
BOND $H
LIST 6
MORE -1
CONF
fmap 2
acta 52
REM <olex2.extras>
REM <HklSrc "%.\\Final.hkl">
REM </olex2.extras>

WGHT    0.051900    0.198600
FVAR       0.28759
O1    4    0.450423    0.136016    0.362447    11.00000    0.02922    0.01785 =
         0.02280   -0.00133   -0.00968   -0.00973
O2    4    0.415450    0.340383    0.183360    11.00000    0.02876    0.01861 =
         0.01843   -0.00241   -0.00994   -0.00858
N1    3    0.759978    0.353488    0.486807    11.00000    0.02232    0.01689 =
         0.01856   -0.00279   -0.00657   -0.00710
N2    3    0.662043    0.138051    0.535262    11.00000    0.03418    0.01916 =
         0.02385    0.00111   -0.01468   -0.01192
N3    3    0.580659    0.335892    0.339072    11.00000    0.02103    0.01713 =
         0.01743   -0.00435   -0.00546   -0.00597
C1    1    1.032624    0.184371    0.603769    11.00000    0.02212    0.02639 =
         0.02514   -0.01089   -0.00426   -0.00461
AFIX  43
H1    2    1.087413    0.155605    0.524371    11.00000   -1.20000
AFIX   0
C2    1    1.125531    0.120397    0.719097    11.00000    0.02347    0.02522 =
         0.03586   -0.00891   -0.01184   -0.00071
AFIX  43
H2    2    1.243332    0.046810    0.719058    11.00000   -1.20000
AFIX   0
C3    1    1.046863    0.163616    0.834217    11.00000    0.03124    0.02696 =
         0.02563   -0.00369   -0.01347   -0.00870
AFIX  43
H3    2    1.109555    0.118675    0.913573    11.00000   -1.20000
AFIX   0
C4    1    0.876376    0.272620    0.833656    11.00000    0.02988    0.02794 =
         0.02075   -0.00892   -0.00326   -0.01170
AFIX  43
H4    2    0.824426    0.303778    0.912101    11.00000   -1.20000
AFIX   0
C5    1    0.781363    0.336349    0.719380    11.00000    0.02137    0.01801 =
         0.02298   -0.00615   -0.00277   -0.00674
AFIX  43
H5    2    0.664200    0.410539    0.719374    11.00000   -1.20000
AFIX   0
C6    1    0.859074    0.290716    0.604814    11.00000    0.01860    0.01825 =
         0.01850   -0.00389   -0.00418   -0.00830
C7    1    0.764119    0.505773    0.408482    11.00000    0.02555    0.01756 =
         0.02146   -0.00355   -0.00430   -0.00857
AFIX 137
H7A   2    0.899254    0.512517    0.371690    11.00000   -1.50000
H7B   2    0.710395    0.569376    0.467235    11.00000   -1.50000
H7C   2    0.685480    0.537376    0.334085    11.00000   -1.50000
AFIX   0
C8    1    0.664240    0.273627    0.451825    11.00000    0.01747    0.01742 =
         0.01812   -0.00610   -0.00059   -0.00539
C9    1    0.482270    0.258991    0.303000    11.00000    0.01736    0.01660 =
         0.01636   -0.00501   -0.00265   -0.00212
C10   1    0.312243    0.280920    0.115834    11.00000    0.02200    0.02008 =
         0.01789   -0.00624   -0.00667   -0.00574
C11   1    0.279633    0.403513   -0.015798    11.00000    0.03169    0.02464 =
         0.01991   -0.00419   -0.00925   -0.00809
AFIX 137
H11A  2    0.198386    0.493275    0.004110    11.00000   -1.50000
H11B  2    0.213618    0.374366   -0.071102    11.00000   -1.50000
H11C  2    0.405883    0.421889   -0.065214    11.00000   -1.50000
AFIX   0
C12   1    0.117515    0.256827    0.198150    11.00000    0.02326    0.03080 =
         0.02276   -0.00653   -0.00486   -0.00734
AFIX 137
H12A  2    0.140704    0.176148    0.281609    11.00000   -1.50000
H12B  2    0.042673    0.231909    0.145208    11.00000   -1.50000
H12C  2    0.043674    0.346897    0.220681    11.00000   -1.50000
AFIX   0
C13   1    0.439844    0.140989    0.086456    11.00000    0.02613    0.02682 =
         0.02558   -0.01201   -0.00634   -0.00361
AFIX 137
H13A  2    0.570428    0.156613    0.045215    11.00000   -1.50000
H13B  2    0.381180    0.115981    0.024198    11.00000   -1.50000
H13C  2    0.450035    0.060328    0.171049    11.00000   -1.50000
AFIX   0
H2A   2    0.595362    0.088861    0.515795    11.00000   -1.20000
H2B   2    0.716618    0.105329    0.611535    11.00000   -1.20000
HKLF 4

REM  Prelim_a.res in P-1
REM R1 =  0.0403 for    2272 Fo > 4sig(Fo)  and  0.0458 for all    2575 data
REM    173 parameters refined using      0 restraints

END

WGHT      0.0519      0.1986

REM Highest difference peak  0.189,  deepest hole -0.254,  1-sigma level  0.045
Q1    1   0.8718  0.3445  0.6414  11.00000  0.05    0.19
Q2    1   0.2297  0.2802  0.1498  11.00000  0.05    0.19
Q3    1   0.9655  0.2772  0.5873  11.00000  0.05    0.17
Q4    1   0.7573  0.4033  0.4611  11.00000  0.05    0.17
Q5    1   0.2906  0.3418  0.0506  11.00000  0.05    0.16
;
_shelx_res_checksum              72925
_shelx_hkl_file
;
  -1   0   0   37.39    3.17
  -1   0   0   35.91    3.17
  -1   0   0   37.09    3.16
  -1   0   0   42.93    3.17
  -1   0   0   43.66    3.17
   1   0   0   44.77    3.17
   1   0   0   46.33    3.17
   1   0   0   40.21    3.17
  -2   0   0   -0.03    0.02
  -2   0   0   -0.02    0.02
  -2   0   0   -0.03    0.02
  -2   0   0   -0.02    0.03
  -2   0   0    0.02    0.02
   2   0   0    0.01    0.03
   2   0   0    0.00    0.02
   2   0   0    0.06    0.04
   2   0   0    0.02    0.03
  -3   0   0    4.02    0.36
  -3   0   0    4.22    0.35
  -3   0   0    3.78    0.36
  -3   0   0    3.77    0.36
  -3   0   0    4.33    0.34
   3   0   0    3.48    0.35
   3   0   0    4.07    0.37
   3   0   0    3.53    0.35
   3   0   0    3.63    0.34
  -4   0   0    1.21    0.17
  -4   0   0    1.10    0.13
  -4   0   0    1.10    0.19
  -4   0   0    0.93    0.13
   4   0   0    0.93    0.14
   4   0   0    0.90    0.17
   4   0   0    1.01    0.14
  -5   0   0    0.77    0.13
  -5   0   0    0.98    0.18
  -5   0   0    0.81    0.17
   5   0   0    0.80    0.17
   5   0   0    0.59    0.13
   5   0   0    0.61    0.14
  -6   0   0    3.71    0.42
  -6   0   0    4.21    0.43
   6   0   0    3.31    0.41
   6   0   0    3.38    0.38
  -7   0   0    4.98    0.50
  -7   0   0    3.91    0.48
   7   0   0    3.84    0.42
   7   0   0    3.83    0.48
  -8   0   0    0.04    0.11
   8   0   0    0.23    0.10
   8   0   0    0.01    0.12
   8  -1   0   -0.02    0.06
   8  -1   0   -0.11    0.08
  -8   1   0   -0.05    0.09
  -8   1   0   -0.03    0.10
   7  -1   0    3.46    0.41
  -7   1   0    3.80    0.42
  -7   1   0    2.40    0.38
   6  -1   0   -0.03    0.05
   6  -1   0    0.11    0.08
  -6   1   0   -0.04    0.07
  -6   1   0   -0.03    0.07
   5  -1   0    8.88    0.73
   5  -1   0    9.76    0.81
   5  -1   0    8.78    0.76
  -5   1   0    8.24    0.79
  -5   1   0    8.80    0.80
   4  -1   0    2.56    0.25
   4  -1   0    2.27    0.21
   4  -1   0    1.96    0.23
   4  -1   0    2.03    0.25
  -4   1   0    2.28    0.26
  -4   1   0    2.51    0.24
  -4   1   0    2.08    0.26
   3  -1   0   71.64    4.95
   3  -1   0   58.07    4.94
   3  -1   0   67.03    4.95
   3  -1   0   68.12    4.92
   3  -1   0   56.35    4.94
   3  -1   0   69.14    4.96
  -3   1   0   62.67    4.96
  -3   1   0   63.54    4.95
  -3   1   0   57.33    4.94
   2  -1   0   80.26    6.80
   2  -1   0   81.25    6.80
   2  -1   0  102.88    6.81
   2  -1   0   86.63    6.78
   2  -1   0   82.83    6.80
   2  -1   0  102.55    6.81
  -2   1   0   86.61    6.81
  -2   1   0   86.18    6.81
  -2   1   0   84.33    6.80
   1  -1   0    0.72    0.08
   1  -1   0    0.69    0.07
   1  -1   0    0.84    0.08
   1  -1   0    0.72    0.08
   1  -1   0    0.86    0.09
  -1   1   0    0.94    0.08
  -1   1   0    0.71    0.08
  -1   1   0    0.81    0.09
  -1   1   0    0.70    0.08
  -1   1   0    0.65    0.07
   0  -1   0   19.27    1.41
   0  -1   0   16.85    1.40
   0  -1   0   17.29    1.41
   0  -1   0   19.39    1.42
   0   1   0   20.10    1.41
   0   1   0   16.96    1.41
   0   1   0   17.61    1.41
   0   1   0   18.05    1.40
  -1  -1   0    7.51    0.64
  -1  -1   0    8.75    0.64
  -1  -1   0    8.69    0.63
  -1  -1   0    6.96    0.63
  -1  -1   0    9.43    0.64
   1   1   0    7.52    0.64
   1   1   0    7.96    0.64
   1   1   0    7.40    0.63
  -2  -1   0  129.52    9.59
  -2  -1   0  126.03    9.59
  -2  -1   0  115.42    9.58
  -2  -1   0  112.29    9.57
   2   1   0  138.18    9.59
   2   1   0  134.56    9.58
   2   1   0  113.58    9.58
  -3  -1   0   56.49    4.37
  -3  -1   0   57.72    4.38
  -3  -1   0   61.63    4.36
  -3  -1   0   53.09    4.38
   3   1   0   56.29    4.38
   3   1   0   53.35    4.37
   3   1   0   53.84    4.36
  -4  -1   0    9.24    0.76
  -4  -1   0   10.59    0.80
  -4  -1   0    8.93    0.81
   4   1   0    9.40    0.80
   4   1   0    9.03    0.79
   4   1   0    9.05    0.81
  -5  -1   0   37.92    3.47
  -5  -1   0   47.31    3.43
  -5  -1   0   40.83    3.48
   5   1   0   42.45    3.48
   5   1   0   49.09    3.46
  -6  -1   0   18.79    1.47
  -6  -1   0   16.85    1.54
  -6  -1   0   16.07    1.53
   6   1   0   18.36    1.54
   6   1   0   19.72    1.50
  -7  -1   0    2.40    0.39
  -7  -1   0    2.80    0.34
   7   1   0    2.08    0.29
   7   1   0    2.27    0.33
  -8  -1   0    3.66    0.48
   8   1   0    3.77    0.42
   8   1   0    3.93    0.48
   7  -2   0    0.09    0.09
   7  -2   0    0.46    0.15
  -7   2   0    0.27    0.14
  -7   2   0    0.56    0.20
   6  -2   0    2.14    0.27
   6  -2   0    2.47    0.31
  -6   2   0    2.34    0.31
  -6   2   0    2.25    0.32
   5  -2   0   26.31    2.21
   5  -2   0   30.68    2.25
  -5   2   0   27.88    2.24
  -5   2   0   25.70    2.23
   4  -2   0    0.55    0.11
   4  -2   0    0.60    0.12
   4  -2   0    0.53    0.08
   4  -2   0    0.46    0.11
  -4   2   0    0.62    0.13
  -4   2   0    0.61    0.13
   3  -2   0   27.90    2.40
   3  -2   0   34.76    2.43
   3  -2   0   36.02    2.43
   3  -2   0   30.60    2.37
   3  -2   0   29.12    2.40
  -3   2   0   28.42    2.41
  -3   2   0   28.79    2.41
  -3   2   0   29.71    2.42
   2  -2   0    3.87    0.31
   2  -2   0    3.44    0.28
   2  -2   0    3.23    0.32
   2  -2   0    3.39    0.29
   2  -2   0    3.34    0.30
  -2   2   0    3.12    0.32
  -2   2   0    3.31    0.30
  -2   2   0    3.91    0.29
  -2   2   0    3.12    0.31
  -2   2   0    3.29    0.30
   1  -2   0   25.82    1.83
   1  -2   0   26.99    1.87
   1  -2   0   22.55    1.84
   1  -2   0   22.66    1.83
   1  -2   0   26.20    1.84
  -1   2   0   23.39    1.84
  -1   2   0   24.25    1.84
  -1   2   0   22.36    1.86
  -1   2   0   22.52    1.84
  -1   2   0   20.32    1.83
   0  -2   0  376.04   30.03
   0  -2   0  401.25   30.05
   0  -2   0  400.69   30.06
   0   2   0  367.43   30.05
   0   2   0  382.73   29.98
   0   2   0  460.91   30.02
   0   2   0  336.62   30.06
  -1  -2   0   42.42    3.73
  -1  -2   0   53.98    3.74
  -1  -2   0   49.08    3.74
  -1  -2   0   50.34    3.73
   1   2   0   52.74    3.74
   1   2   0   41.28    3.72
   1   2   0   53.17    3.74
   1   2   0   43.34    3.73
  -2  -2   0  204.25   14.95
  -2  -2   0  179.13   14.95
  -2  -2   0  184.99   14.97
  -2  -2   0  185.46   14.96
   2   2   0  209.92   14.96
   2   2   0  195.72   14.96
   2   2   0  195.13   14.96
   2   2   0  198.19   14.97
  -3  -2   0   21.59    1.59
  -3  -2   0   17.96    1.57
  -3  -2   0   17.75    1.58
   3   2   0   20.49    1.59
   3   2   0   23.31    1.58
   3   2   0   17.58    1.58
  -4  -2   0   65.42    5.48
  -4  -2   0   70.67    5.49
  -4  -2   0   75.47    5.47
   4   2   0   67.52    5.48
   4   2   0   71.28    5.49
   4   2   0   70.21    5.46
  -5  -2   0    3.59    0.41
  -5  -2   0    4.41    0.36
  -5  -2   0    3.74    0.42
   5   2   0    4.46    0.43
   5   2   0    3.72    0.39
  -6  -2   0    2.36    0.34
  -6  -2   0    2.99    0.28
  -6  -2   0    2.30    0.33
   6   2   0    2.57    0.31
   6   2   0    3.93    0.39
  -7  -2   0    1.16    0.26
   7   2   0    1.16    0.26
   7   2   0    1.47    0.21
  -8  -2   0    0.05    0.13
   8   2   0   -0.08    0.09
   8   2   0    0.12    0.10
   7  -3   0   -0.02    0.09
   7  -3   0    0.00    0.08
  -7   3   0    0.06    0.09
  -7   3   0   -0.01    0.09
   6  -3   0    4.84    0.52
   6  -3   0    4.42    0.48
  -6   3   0    5.66    0.54
  -6   3   0    4.71    0.51
   5  -3   0    0.56    0.13
   5  -3   0    0.20    0.11
  -5   3   0    0.25    0.12
  -5   3   0    0.40    0.14
   4  -3   0    6.53    0.59
   4  -3   0    5.38    0.58
   4  -3   0    6.32    0.57
   4  -3   0    6.81    0.53
  -4   3   0    7.22    0.60
  -4   3   0    6.31    0.59
   3  -3   0   -0.01    0.03
   3  -3   0    0.00    0.02
   3  -3   0    0.12    0.04
   3  -3   0    0.03    0.04
   3  -3   0    0.07    0.05
  -3   3   0    0.01    0.02
  -3   3   0    0.02    0.04
  -3   3   0   -0.05    0.03
   2  -3   0   20.06    1.56
   2  -3   0   19.30    1.60
   2  -3   0   19.69    1.57
   2  -3   0   20.18    1.56
   2  -3   0   18.61    1.58
  -2   3   0   19.67    1.57
  -2   3   0   19.10    1.56
  -2   3   0   20.98    1.61
  -2   3   0   20.15    1.58
  -2   3   0   21.87    1.59
   1  -3   0    0.04    0.02
   1  -3   0    0.01    0.04
   1  -3   0    0.02    0.03
   1  -3   0    0.04    0.03
  -1   3   0   -0.01    0.01
  -1   3   0    0.02    0.02
  -1   3   0   -0.01    0.02
  -1   3   0   -0.04    0.02
  -1   3   0   -0.01    0.03
   0  -3   0    0.17    0.04
   0  -3   0    0.07    0.03
   0  -3   0    0.16    0.05
   0  -3   0    0.12    0.04
   0   3   0    0.13    0.04
   0   3   0    0.15    0.02
   0   3   0    0.13    0.04
   0   3   0    0.14    0.05
  -1  -3   0   70.02    5.12
  -1  -3   0   57.84    5.12
  -1  -3   0   63.24    5.12
  -1  -3   0   72.63    5.12
   1   3   0   63.61    5.12
   1   3   0   66.68    5.12
   1   3   0   68.63    5.13
  -2  -3   0   71.68    5.55
  -2  -3   0   73.63    5.54
  -2  -3   0   78.34    5.56
  -2  -3   0   64.55    5.53
   2   3   0   73.66    5.54
   2   3   0   66.26    5.54
   2   3   0   72.90    5.56
   2   3   0   61.80    5.54
   2   3   0   80.95    5.54
  -3  -3   0   24.21    1.82
  -3  -3   0   20.03    1.84
  -3  -3   0   21.45    1.85
  -3  -3   0   24.56    1.84
   3   3   0   20.67    1.84
   3   3   0   24.44    1.84
   3   3   0   27.75    1.86
   3   3   0   21.37    1.83
  -4  -3   0    0.21    0.09
  -4  -3   0    0.30    0.07
   4   3   0    0.26    0.08
   4   3   0    0.31    0.10
  -5  -3   0    6.32    0.51
  -5  -3   0    4.60    0.55
   5   3   0    5.40    0.53
   5   3   0    6.97    0.59
  -6  -3   0    0.21    0.08
  -6  -3   0    0.25    0.13
  -6  -3   0    0.19    0.06
   6   3   0    0.16    0.08
   6   3   0    0.14    0.11
  -7  -3   0    2.13    0.37
   7   3   0    1.62    0.31
   7   3   0    1.83    0.25
  -8  -3   0    0.06    0.13
   8   3   0    0.26    0.16
   8   3   0    0.07    0.09
   7  -4   0    1.78    0.33
  -7   4   0    1.98    0.35
  -7   4   0    1.16    0.30
   6  -4   0    3.47    0.42
   6  -4   0    3.23    0.38
  -6   4   0    3.99    0.43
  -6   4   0    3.08    0.41
   5  -4   0   22.57    1.71
   5  -4   0   19.90    1.70
   5  -4   0   16.38    1.65
  -5   4   0   21.63    1.70
  -5   4   0   23.52    1.73
   4  -4   0    0.01    0.05
   4  -4   0    0.06    0.06
   4  -4   0    0.06    0.07
   4  -4   0    0.03    0.04
  -4   4   0    0.06    0.06
  -4   4   0    0.05    0.04
  -4   4   0    0.00    0.06
   3  -4   0    2.17    0.20
   3  -4   0    2.05    0.25
   3  -4   0    2.31    0.21
   3  -4   0    2.03    0.23
  -3   4   0    1.96    0.20
  -3   4   0    1.86    0.22
  -3   4   0    1.97    0.23
   2  -4   0   27.35    1.97
   2  -4   0   25.93    1.96
   2  -4   0   23.31    1.99
   2  -4   0   29.32    1.99
   2  -4   0   24.50    2.02
  -2   4   0   21.68    1.96
  -2   4   0   23.95    1.99
  -2   4   0   25.46    1.98
   1  -4   0    0.06    0.04
   1  -4   0    0.12    0.06
   1  -4   0    0.08    0.03
   1  -4   0    0.07    0.04
  -1   4   0    0.09    0.04
  -1   4   0    0.09    0.03
  -1   4   0    0.03    0.05
  -1   4   0    0.13    0.04
  -1   4   0    0.09    0.04
   0  -4   0   52.43    4.49
   0  -4   0   64.25    4.49
   0  -4   0   57.65    4.52
   0  -4   0   64.33    4.49
   0   4   0   57.58    4.52
   0   4   0   56.94    4.50
   0   4   0   53.06    4.48
   0   4   0   56.56    4.46
  -1  -4   0  156.79   13.37
  -1  -4   0  184.80   13.36
  -1  -4   0  195.74   13.37
  -1  -4   0  164.74   13.35
   1   4   0  151.73   13.34
   1   4   0  179.57   13.37
   1   4   0  179.91   13.36
   1   4   0  173.48   13.37
  -2  -4   0    2.81    0.27
  -2  -4   0    2.19    0.24
  -2  -4   0    2.59    0.26
  -2  -4   0    2.13    0.24
   2   4   0    2.36    0.24
   2   4   0    3.22    0.28
   2   4   0    2.47    0.25
   2   4   0    2.60    0.25
   2   4   0    2.49    0.25
  -3  -4   0    0.35    0.10
  -3  -4   0    0.41    0.09
  -3  -4   0    0.31    0.10
   3   4   0    0.24    0.08
   3   4   0    0.35    0.09
   3   4   0    0.31    0.10
   3   4   0    0.43    0.11
  -4  -4   0    2.66    0.27
  -4  -4   0    3.17    0.33
   4   4   0    2.76    0.31
   4   4   0    2.63    0.29
  -5  -4   0    1.33    0.17
  -5  -4   0    1.93    0.25
   5   4   0    1.29    0.19
   5   4   0    1.36    0.24
  -6  -4   0   20.63    1.61
  -6  -4   0   18.51    1.50
   6   4   0   17.81    1.54
   6   4   0   17.83    1.58
  -7  -4   0    1.81    0.33
   7   4   0    1.68    0.31
   7   4   0    1.24    0.24
  -8  -4   0    6.30    0.72
   8   4   0    6.86    0.73
   8   4   0    6.88    0.67
   6  -5   0   -0.01    0.08
   6  -5   0    0.07    0.11
  -6   5   0    0.06    0.09
  -6   5   0    0.03    0.08
   5  -5   0    0.16    0.11
   5  -5   0    0.19    0.11
   5  -5   0    0.23    0.10
  -5   5   0    0.24    0.12
  -5   5   0    0.31    0.11
   4  -5   0    9.02    0.78
   4  -5   0    7.39    0.74
  -4   5   0    8.63    0.74
  -4   5   0    8.35    0.70
  -4   5   0    8.37    0.75
   3  -5   0    7.21    0.57
   3  -5   0    6.09    0.59
  -3   5   0    6.13    0.56
  -3   5   0    5.64    0.54
  -3   5   0    5.85    0.52
   2  -5   0    0.99    0.11
   2  -5   0    1.05    0.19
   2  -5   0    0.96    0.14
  -2   5   0    0.94    0.12
  -2   5   0    1.28    0.13
  -2   5   0    1.01    0.14
   1  -5   0   22.15    1.86
   1  -5   0   24.30    1.87
   1  -5   0   20.56    1.86
   1  -5   0   24.69    1.91
   1  -5   0   24.66    1.83
  -1   5   0   26.37    1.87
  -1   5   0   22.35    1.84
  -1   5   0   23.62    1.85
   0  -5   0   79.04    6.04
   0  -5   0   73.92    6.07
   0  -5   0   82.40    6.04
   0   5   0   82.53    6.00
   0   5   0   74.01    6.02
   0   5   0   74.73    6.03
  -1  -5   0    0.07    0.05
  -1  -5   0    0.03    0.05
  -1  -5   0    0.12    0.06
  -1  -5   0    0.02    0.04
   1   5   0    0.08    0.04
   1   5   0    0.04    0.05
   1   5   0    0.16    0.05
   1   5   0   -0.02    0.04
  -2  -5   0    6.63    0.51
  -2  -5   0    4.39    0.48
  -2  -5   0    5.76    0.49
   2   5   0    6.06    0.47
   2   5   0    4.44    0.48
   2   5   0    5.13    0.48
  -3  -5   0  130.95    8.70
  -3  -5   0  105.12    8.71
   3   5   0  107.91    8.69
   3   5   0  114.41    8.69
   3   5   0  101.82    8.69
  -4  -5   0    6.96    0.60
  -4  -5   0    7.19    0.65
   4   5   0    6.21    0.61
   4   5   0    7.40    0.64
  -5  -5   0    1.73    0.21
  -5  -5   0    1.38    0.27
   5   5   0    2.40    0.28
   5   5   0    1.77    0.23
  -6  -5   0    1.61    0.20
  -6  -5   0    2.17    0.30
   6   5   0    1.33    0.28
   6   5   0    2.03    0.25
  -7  -5   0    0.23    0.15
   7   5   0    0.48    0.14
   7   5   0    0.70    0.19
  -8  -5   0    1.58    0.34
   8   5   0    1.38    0.31
   8   5   0    1.30    0.25
   6  -6   0    2.10    0.36
  -6   6   0    2.17    0.37
  -6   6   0    2.58    0.34
   5  -6   0    3.31    0.39
   5  -6   0    4.00    0.44
   5  -6   0    3.46    0.41
  -5   6   0    4.26    0.42
  -5   6   0    3.51    0.41
   4  -6   0   10.61    1.00
   4  -6   0    9.79    0.96
  -4   6   0   10.74    0.95
  -4   6   0   11.03    0.98
  -4   6   0   12.64    0.92
   3  -6   0   -0.01    0.05
   3  -6   0    0.06    0.06
  -3   6   0    0.04    0.06
  -3   6   0    0.03    0.04
  -3   6   0   -0.04    0.05
   2  -6   0    2.14    0.27
   2  -6   0    2.00    0.22
   2  -6   0    1.78    0.18
  -2   6   0    1.88    0.19
  -2   6   0    1.93    0.20
   1  -6   0    0.96    0.13
   1  -6   0    1.18    0.20
  -1   6   0    0.85    0.11
  -1   6   0    0.74    0.10
  -1   6   0    0.87    0.13
   0  -6   0   30.70    2.32
   0  -6   0   29.54    2.37
   0   6   0   27.95    2.30
   0   6   0   29.38    2.28
  -1  -6   0    1.90    0.23
  -1  -6   0    1.79    0.20
   1   6   0    1.74    0.16
   1   6   0    1.82    0.20
  -2  -6   0    0.30    0.09
  -2  -6   0    0.28    0.08
   2   6   0    0.21    0.07
   2   6   0    0.16    0.07
  -3  -6   0    0.15    0.07
  -3  -6   0    0.15    0.09
   3   6   0    0.18    0.07
   3   6   0    0.15    0.08
   3   6   0    0.18    0.07
   3   6   0    0.07    0.07
  -4  -6   0    0.22    0.11
  -4  -6   0    0.21    0.09
   4   6   0    0.24    0.09
   4   6   0    0.27    0.10
  -5  -6   0   89.66    7.36
  -5  -6   0  100.67    7.30
   5   6   0   92.71    7.36
   5   6   0   91.69    7.32
  -6  -6   0   25.39    2.23
  -6  -6   0   26.71    2.14
   6   6   0   27.68    2.24
   6   6   0   27.30    2.19
  -7  -6   0   -0.01    0.10
   7   6   0    0.26    0.12
   7   6   0    0.09    0.12
  -8  -6   0    6.61    0.69
   8   6   0    5.61    0.65
   8   6   0    5.62    0.60
   5  -7   0    9.21    0.90
   5  -7   0    8.73    0.91
   5  -7   0    9.68    0.88
  -5   7   0   11.02    0.93
   4  -7   0    0.34    0.15
   4  -7   0    0.31    0.11
  -4   7   0    0.69    0.14
  -4   7   0    0.45    0.11
  -4   7   0    0.34    0.12
   3  -7   0    0.71    0.18
   3  -7   0    0.53    0.14
  -3   7   0    0.58    0.13
  -3   7   0    0.66    0.12
  -3   7   0    0.46    0.13
   2  -7   0    0.90    0.16
   2  -7   0    0.81    0.20
   2  -7   0    0.92    0.11
  -2   7   0    0.83    0.16
  -2   7   0    0.99    0.13
  -2   7   0    1.06    0.13
   1  -7   0    3.81    0.48
   1  -7   0    4.52    0.45
  -1   7   0    5.87    0.47
  -1   7   0    5.21    0.43
  -1   7   0    4.90    0.42
   0  -7   0   16.03    1.50
   0  -7   0   16.48    1.46
   0   7   0   19.28    1.45
   0   7   0   19.21    1.46
   0   7   0   18.67    1.42
  -1  -7   0    0.34    0.12
  -1  -7   0    0.24    0.08
   1   7   0    0.23    0.08
   1   7   0    0.25    0.05
  -2  -7   0    7.55    0.65
  -2  -7   0    7.29    0.67
   2   7   0    7.60    0.65
   2   7   0    6.78    0.63
  -3  -7   0    0.08    0.07
  -3  -7   0    0.04    0.05
   3   7   0   -0.05    0.05
   3   7   0    0.04    0.06
   3   7   0    0.07    0.07
  -4  -7   0   36.80    2.63
  -4  -7   0   30.62    2.64
   4   7   0   29.32    2.63
   4   7   0   34.02    2.62
  -5  -7   0   23.48    1.85
  -5  -7   0   19.35    1.77
   5   7   0   22.71    1.81
   5   7   0   23.19    1.84
  -6  -7   0    2.03    0.36
   6   7   0    2.42    0.30
   6   7   0    2.17    0.32
  -7  -7   0    0.50    0.19
   7   7   0    0.34    0.13
   7   7   0    0.38    0.16
   4  -8   0    0.06    0.10
   4  -8   0    0.11    0.10
  -4   8   0    0.13    0.11
   3  -8   0    7.33    0.70
   3  -8   0    6.24    0.63
  -3   8   0    7.01    0.59
  -3   8   0    6.23    0.62
   2  -8   0    0.84    0.22
   2  -8   0    1.21    0.18
  -2   8   0    1.31    0.16
  -2   8   0    1.37    0.19
   1  -8   0    0.71    0.18
   1  -8   0    0.52    0.12
  -1   8   0    0.62    0.09
  -1   8   0    0.52    0.10
  -1   8   0    0.64    0.14
   0  -8   0   13.83    1.33
   0   8   0   17.58    1.30
   0   8   0   14.58    1.26
   0   8   0   16.22    1.24
  -1  -8   0   10.60    0.92
  -1  -8   0   10.00    0.97
   1   8   0   12.30    0.91
   1   8   0   10.58    0.92
   1   8   0   10.75    0.86
  -2  -8   0   -0.04    0.04
  -2  -8   0   -0.03    0.07
   2   8   0    0.01    0.06
  -3  -8   0    0.01    0.07
  -3  -8   0   -0.04    0.05
   3   8   0    0.06    0.07
   3   8   0    0.02    0.05
  -4  -8   0    0.27    0.11
  -4  -8   0    0.21    0.10
   4   8   0    0.21    0.09
   4   8   0    0.33    0.12
  -5  -8   0   50.40    3.93
  -5  -8   0   51.45    3.99
   5   8   0   51.99    3.98
   5   8   0   45.55    3.93
  -6  -8   0    0.05    0.09
   6   8   0   -0.14    0.06
   6   8   0    0.00    0.07
  -7  -8   0    1.04    0.26
   7   8   0    0.92    0.24
   7   8   0    0.67    0.19
   3  -9   0    1.84    0.25
   3  -9   0    1.49    0.30
  -3   9   0    1.40    0.19
  -3   9   0    1.29    0.25
   2  -9   0    0.89    0.18
   2  -9   0    1.41    0.28
  -2   9   0    1.14    0.16
  -2   9   0    1.12    0.21
   1  -9   0    3.94    0.37
   1  -9   0    3.24    0.42
  -1   9   0    3.56    0.33
  -1   9   0    2.86    0.35
   0  -9   0    1.90    0.29
   0  -9   0    2.09    0.26
   0   9   0    2.38    0.26
   0   9   0    2.05    0.23
  -1  -9   0    2.13    0.29
  -1  -9   0    2.33    0.33
   1   9   0    2.95    0.29
   1   9   0    3.00    0.30
  -2  -9   0   -0.08    0.06
  -2  -9   0   -0.03    0.05
   2   9   0   -0.04    0.05
   2   9   0    0.00    0.03
  -3  -9   0   22.48    1.80
  -3  -9   0   21.21    1.77
   3   9   0   20.91    1.75
   3   9   0   21.41    1.77
  -4  -9   0    7.10    0.67
  -4  -9   0    7.07    0.67
   4   9   0    7.13    0.67
   4   9   0    6.68    0.64
  -5  -9   0    6.04    0.60
  -5  -9   0    5.79    0.57
   5   9   0    5.31    0.56
   5   9   0    6.21    0.60
  -6  -9   0    0.04    0.11
   6   9   0    0.05    0.10
   6   9   0    0.09    0.10
   2 -10   0    1.36    0.31
   2 -10   0    1.95    0.26
  -2  10   0    1.97    0.28
  -2  10   0    2.08    0.23
   1 -10   0    6.04    0.61
   1 -10   0    5.65    0.52
  -1  10   0    5.12    0.48
  -1  10   0    4.27    0.50
   0 -10   0    6.55    0.65
   0 -10   0    7.38    0.73
   0  10   0    7.02    0.63
   0  10   0    7.53    0.66
  -1 -10   0    6.65    0.67
  -1 -10   0    6.32    0.61
   1  10   0    6.29    0.58
   1  10   0    6.72    0.61
  -2 -10   0    6.79    0.58
  -2 -10   0    4.66    0.48
   2  10   0    5.61    0.50
   2  10   0    3.77    0.45
  -3 -10   0    0.43    0.13
  -3 -10   0    0.14    0.12
   3  10   0    0.18    0.10
  -4 -10   0    1.91    0.28
  -4 -10   0    1.95    0.32
   4  10   0    2.33    0.29
   4  10   0    1.87    0.26
  -5 -10   0    0.04    0.08
   5  10   0    0.04    0.08
   5  10   0   -0.08    0.06
   0 -11   0    0.10    0.13
   0 -11   0    0.18    0.10
   0  11   0    0.06    0.08
   0  11   0   -0.04    0.06
  -1 -11   0    0.53    0.19
  -1 -11   0    0.45    0.15
   1  11   0    0.90    0.17
   1  11   0    1.00    0.19
  -2 -11   0    0.13    0.12
  -2 -11   0    0.21    0.11
   2  11   0    0.08    0.08
   2  11   0    0.16    0.10
  -3 -11   0    9.34    0.85
  -3 -11   0    9.49    0.81
   3  11   0    7.54    0.79
  -4 -11   0    0.14    0.10
  -4 -11   0    0.49    0.17
   4  11   0    0.35    0.13
   2  11  -1    0.18    0.09
   2  11  -1    0.18    0.09
  -2 -11   1    0.26    0.12
  -2 -11   1    0.16    0.13
   5  10  -1    1.56    0.26
   5  10  -1    1.23    0.25
  -5 -10   1    1.20    0.26
   4  10  -1    5.40    0.57
  -4 -10   1    6.13    0.61
  -4 -10   1    5.53    0.58
   3  10  -1    0.11    0.09
  -3 -10   1   -0.02    0.07
  -3 -10   1    0.00    0.10
   2  10  -1    0.52    0.13
   2  10  -1    0.80    0.16
  -2 -10   1    0.81    0.17
  -2 -10   1    0.74    0.20
   1  10  -1    6.34    0.60
   1  10  -1    6.36    0.57
  -1 -10   1    6.26    0.60
  -1 -10   1    6.00    0.66
   0  10  -1    1.27    0.19
   0  10  -1    1.58    0.22
   0 -10   1    1.59    0.24
   0 -10   1    1.74    0.32
  -1  10  -1    0.53    0.13
  -1  10  -1    0.12    0.10
   1 -10   1    0.39    0.17
   1 -10   1    0.19    0.10
   6   9  -1    3.02    0.39
   6   9  -1    3.08    0.35
  -6  -9   1    2.23    0.41
   5   9  -1    5.36    0.59
   5   9  -1    5.67    0.57
  -5  -9   1    6.12    0.59
  -5  -9   1    6.38    0.62
   4   9  -1    0.40    0.15
   4   9  -1    0.88    0.18
  -4  -9   1    0.93    0.20
  -4  -9   1    1.01    0.21
   3   9  -1    6.80    0.56
  -3  -9   1    4.98    0.56
  -3  -9   1    4.98    0.54
   2   9  -1    4.61    0.50
   2   9  -1    6.16    0.51
  -2  -9   1    5.41    0.52
  -2  -9   1    4.96    0.55
   1   9  -1    4.86    0.44
   1   9  -1    4.38    0.42
  -1  -9   1    3.85    0.47
  -1  -9   1    4.11    0.43
   0   9  -1    3.21    0.32
   0   9  -1    2.34    0.28
   0  -9   1    2.53    0.36
   0  -9   1    3.40    0.33
  -1   9  -1    0.30    0.11
  -1   9  -1    0.39    0.10
   1  -9   1    0.22    0.12
   1  -9   1    0.46    0.13
  -2   9  -1    3.63    0.36
   2  -9   1    3.19    0.44
   2  -9   1    3.79    0.39
  -3   9  -1   -0.01    0.09
  -3   9  -1   -0.08    0.05
   3  -9   1    0.10    0.11
   3  -9   1    0.03    0.09
   6   8  -1    0.61    0.16
   6   8  -1    0.73    0.20
  -6  -8   1    0.39    0.18
   5   8  -1    4.67    0.48
   5   8  -1    5.05    0.53
  -5  -8   1    4.38    0.49
  -5  -8   1    5.57    0.55
   4   8  -1    3.33    0.35
   4   8  -1    2.83    0.36
  -4  -8   1    3.50    0.39
  -4  -8   1    3.47    0.39
   3   8  -1    3.98    0.41
   3   8  -1    4.43    0.40
  -3  -8   1    3.35    0.42
  -3  -8   1    3.64    0.41
   2   8  -1    0.28    0.10
  -2  -8   1    0.25    0.13
  -2  -8   1    0.41    0.11
   1   8  -1    0.17    0.08
   1   8  -1    0.25    0.04
   1   8  -1    0.26    0.08
  -1  -8   1    0.28    0.09
  -1  -8   1    0.19    0.11
   0   8  -1    2.78    0.29
   0   8  -1    2.75    0.30
   0  -8   1    3.42    0.32
   0  -8   1    3.15    0.38
  -1   8  -1    5.49    0.45
  -1   8  -1    5.00    0.47
   1  -8   1    4.51    0.46
   1  -8   1    4.55    0.52
  -2   8  -1   -0.05    0.05
  -2   8  -1    0.10    0.06
   2  -8   1    0.07    0.09
   2  -8   1    0.05    0.07
  -3   8  -1    6.07    0.59
  -3   8  -1    6.90    0.63
   3  -8   1    7.50    0.64
   3  -8   1    6.53    0.69
  -4   8  -1    7.22    0.62
  -4   8  -1    6.18    0.66
   4  -8   1    6.11    0.69
   4  -8   1    7.52    0.67
   7   7  -1    6.46    0.75
   7   7  -1    8.05    0.73
  -7  -7   1    7.79    0.80
   6   7  -1   35.21    2.97
   6   7  -1   37.73    3.02
  -6  -7   1   38.60    3.05
   5   7  -1    1.44    0.27
   5   7  -1    1.13    0.21
  -5  -7   1    1.76    0.29
  -5  -7   1    1.26    0.22
   4   7  -1    2.51    0.33
   4   7  -1    3.46    0.33
  -4  -7   1    3.44    0.35
  -4  -7   1    2.30    0.33
   3   7  -1    0.65    0.13
   3   7  -1    0.78    0.16
   3   7  -1    0.86    0.14
  -3  -7   1    0.70    0.16
  -3  -7   1    0.68    0.16
   2   7  -1    6.26    0.49
   2   7  -1    5.11    0.51
  -2  -7   1    5.52    0.52
  -2  -7   1    5.09    0.54
   1   7  -1    5.87    0.45
   1   7  -1    4.51    0.50
   1   7  -1    4.98    0.49
   1   7  -1    5.92    0.47
  -1  -7   1    6.53    0.53
  -1  -7   1    6.06    0.57
   0   7  -1    0.05    0.05
   0   7  -1    0.12    0.07
   0   7  -1    0.16    0.03
   0  -7   1    0.10    0.06
   0  -7   1    0.15    0.10
  -1   7  -1    4.03    0.39
  -1   7  -1    4.19    0.41
  -1   7  -1    4.81    0.37
   1  -7   1    4.76    0.42
   1  -7   1    3.93    0.47
  -2   7  -1    0.96    0.17
  -2   7  -1    1.00    0.13
  -2   7  -1    0.55    0.11
   2  -7   1    0.73    0.18
   2  -7   1    0.79    0.15
  -3   7  -1    0.07    0.07
  -3   7  -1    0.32    0.10
  -3   7  -1    0.20    0.07
   3  -7   1    0.06    0.07
   3  -7   1    0.12    0.11
  -4   7  -1    0.40    0.14
  -4   7  -1    0.73    0.13
   4  -7   1    0.64    0.15
   4  -7   1    0.34    0.15
  -5   7  -1    1.26    0.26
   5  -7   1    1.09    0.25
   5  -7   1    1.36    0.26
   7   6  -1    3.89    0.45
   7   6  -1    4.92    0.53
  -7  -6   1    4.20    0.52
   6   6  -1    3.83    0.45
   6   6  -1    3.40    0.40
  -6  -6   1    3.94    0.47
  -6  -6   1    3.98    0.40
   5   6  -1   10.33    0.87
   5   6  -1    8.63    0.82
  -5  -6   1    9.54    0.87
  -5  -6   1    9.01    0.81
   4   6  -1   12.63    1.12
   4   6  -1   15.60    1.17
  -4  -6   1   13.00    1.16
  -4  -6   1   12.95    1.13
   3   6  -1    1.74    0.21
   3   6  -1    1.34    0.17
   3   6  -1    1.41    0.18
  -3  -6   1    1.29    0.19
  -3  -6   1    1.25    0.22
   2   6  -1    4.13    0.36
   2   6  -1    4.07    0.38
   2   6  -1    4.35    0.40
  -2  -6   1    3.66    0.39
  -2  -6   1    3.94    0.41
   1   6  -1    6.41    0.50
   1   6  -1    5.71    0.45
  -1  -6   1    5.17    0.49
  -1  -6   1    4.57    0.52
   0   6  -1   12.87    0.99
   0   6  -1   11.21    1.02
   0   6  -1   14.69    1.05
   0  -6   1   12.29    1.04
   0  -6   1   12.69    1.10
  -1   6  -1    1.79    0.19
  -1   6  -1    1.76    0.15
  -1   6  -1    1.34    0.17
   1  -6   1    1.37    0.22
   1  -6   1    1.73    0.19
  -2   6  -1   18.22    1.37
  -2   6  -1   15.51    1.39
  -2   6  -1   17.66    1.37
   2  -6   1   18.23    1.34
   2  -6   1   15.25    1.38
   2  -6   1   16.88    1.44
  -3   6  -1    0.93    0.17
  -3   6  -1    0.95    0.13
  -3   6  -1    0.95    0.14
   3  -6   1    0.94    0.12
   3  -6   1    0.90    0.20
   3  -6   1    0.79    0.16
  -4   6  -1   10.80    0.91
  -4   6  -1   11.14    0.96
  -4   6  -1   11.00    0.93
   4  -6   1   10.76    0.95
   4  -6   1   10.34    0.98
  -5   6  -1    4.12    0.43
  -5   6  -1    3.50    0.38
  -5   6  -1    4.51    0.46
   5  -6   1    3.68    0.45
   5  -6   1    4.16    0.45
   5  -6   1    4.16    0.44
   8   5  -1    0.99    0.22
   8   5  -1    0.92    0.25
  -8  -5   1    1.34    0.32
   7   5  -1   19.45    1.83
   7   5  -1   22.51    1.78
  -7  -5   1   22.01    1.87
   6   5  -1   16.15    1.26
   6   5  -1   14.72    1.31
  -6  -5   1   13.43    1.30
  -6  -5   1   14.32    1.23
   5   5  -1    2.98    0.37
   5   5  -1    3.03    0.34
  -5  -5   1    3.29    0.34
  -5  -5   1    3.23    0.38
   4   5  -1    0.22    0.09
   4   5  -1    0.11    0.08
  -4  -5   1   -0.06    0.06
  -4  -5   1    0.17    0.08
   3   5  -1    2.04    0.22
   3   5  -1    1.73    0.21
   3   5  -1    1.94    0.24
   3   5  -1    2.13    0.25
  -3  -5   1    1.77    0.24
  -3  -5   1    2.22    0.24
   2   5  -1   31.48    2.68
   2   5  -1   35.72    2.66
   2   5  -1   33.78    2.71
   2   5  -1   31.04    2.66
  -2  -5   1   39.27    2.70
  -2  -5   1   30.42    2.69
  -2  -5   1   36.70    2.71
   1   5  -1   25.04    1.87
   1   5  -1   23.64    1.90
  -1  -5   1   23.09    1.93
  -1  -5   1   23.37    1.90
   0   5  -1    9.79    0.89
   0   5  -1   12.73    0.89
   0   5  -1   10.88    0.85
   0  -5   1   12.32    0.91
   0  -5   1    9.76    0.89
   0  -5   1   10.17    0.93
  -1   5  -1    4.76    0.38
  -1   5  -1    4.07    0.36
  -1   5  -1    4.71    0.39
   1  -5   1    4.62    0.44
   1  -5   1    4.35    0.39
   1  -5   1    3.70    0.38
  -2   5  -1    4.00    0.41
  -2   5  -1    4.62    0.40
  -2   5  -1    4.81    0.40
   2  -5   1    4.31    0.41
   2  -5   1    5.18    0.47
   2  -5   1    4.76    0.38
  -3   5  -1    1.22    0.15
  -3   5  -1    1.17    0.17
  -3   5  -1    1.25    0.16
   3  -5   1    1.14    0.22
   3  -5   1    1.13    0.17
   3  -5   1    1.28    0.13
  -4   5  -1    6.25    0.50
  -4   5  -1    5.14    0.53
  -4   5  -1    5.57    0.52
   4  -5   1    4.78    0.52
   4  -5   1    5.42    0.55
  -5   5  -1    8.45    0.88
  -5   5  -1   10.97    0.91
   5  -5   1   10.54    0.90
   5  -5   1    9.54    0.91
   5  -5   1   10.54    0.91
  -6   5  -1    0.68    0.19
  -6   5  -1    0.40    0.15
   6  -5   1    0.44    0.15
   6  -5   1    0.91    0.20
   6  -5   1    0.89    0.22
   8   4  -1    0.37    0.14
   8   4  -1    0.52    0.20
  -8  -4   1    0.27    0.17
   7   4  -1    0.13    0.09
   7   4  -1    0.14    0.13
  -7  -4   1    0.31    0.13
   6   4  -1    7.90    0.73
   6   4  -1    7.54    0.77
  -6  -4   1    9.47    0.81
  -6  -4   1    7.70    0.71
   5   4  -1    5.64    0.56
   5   4  -1    6.88    0.62
  -5  -4   1    6.23    0.56
  -5  -4   1    6.16    0.62
   4   4  -1    6.20    0.62
   4   4  -1    8.33    0.61
  -4  -4   1    6.04    0.62
  -4  -4   1    6.04    0.58
   3   4  -1   26.39    2.16
   3   4  -1   26.61    2.18
   3   4  -1   26.66    2.15
  -3  -4   1   31.15    2.18
  -3  -4   1   28.08    2.20
  -3  -4   1   24.43    2.18
   2   4  -1   95.17    7.56
   2   4  -1   91.67    7.52
   2   4  -1   95.35    7.52
   2   4  -1   99.90    7.56
  -2  -4   1   91.25    7.55
  -2  -4   1  108.39    7.56
  -2  -4   1   99.81    7.54
   1   4  -1   27.05    2.23
   1   4  -1   32.88    2.21
   1   4  -1   28.64    2.25
   1   4  -1   25.94    2.22
   1   4  -1   27.97    2.26
  -1  -4   1   26.33    2.23
  -1  -4   1   28.44    2.24
  -1  -4   1   28.37    2.24
  -1  -4   1   29.44    2.26
   0   4  -1   26.65    1.87
   0   4  -1   21.41    1.81
   0   4  -1   22.34    1.82
   0   4  -1   21.99    1.80
   0   4  -1   24.73    1.78
   0  -4   1   21.26    1.81
   0  -4   1   22.58    1.85
   0  -4   1   22.04    1.81
   0  -4   1   24.65    1.82
  -1   4  -1    0.10    0.03
  -1   4  -1    0.02    0.03
  -1   4  -1    0.05    0.03
   1  -4   1    0.04    0.04
   1  -4   1    0.09    0.06
   1  -4   1    0.08    0.04
   1  -4   1    0.03    0.02
  -2   4  -1   11.92    0.93
  -2   4  -1   10.50    0.90
  -2   4  -1   12.27    0.91
   2  -4   1   13.36    0.93
   2  -4   1    9.16    0.94
   2  -4   1   11.18    0.89
   2  -4   1   11.26    0.90
   2  -4   1   10.14    0.91
  -3   4  -1    5.58    0.45
  -3   4  -1    4.63    0.46
  -3   4  -1    4.20    0.45
   3  -4   1    5.45    0.50
   3  -4   1    5.39    0.44
   3  -4   1    5.60    0.47
  -4   4  -1    7.96    0.77
  -4   4  -1    9.86    0.74
  -4   4  -1    7.77    0.75
   4  -4   1    8.29    0.78
   4  -4   1    9.67    0.78
  -5   4  -1    5.22    0.51
  -5   4  -1    4.35    0.50
   5  -4   1    5.09    0.51
   5  -4   1    5.03    0.51
   5  -4   1    5.31    0.50
  -6   4  -1    3.13    0.37
  -6   4  -1    2.96    0.36
   6  -4   1    3.44    0.39
   6  -4   1    2.68    0.34
   6  -4   1    2.82    0.34
  -7   4  -1    0.35    0.17
  -7   4  -1    0.61    0.19
   7  -4   1    0.95    0.21
   7  -4   1    0.38    0.17
   8   3  -1    0.77    0.19
   8   3  -1    0.53    0.21
  -8  -3   1    0.52    0.19
   7   3  -1    1.22    0.27
   7   3  -1    1.77    0.23
  -7  -3   1    0.92    0.27
   6   3  -1    0.77    0.16
   6   3  -1    0.53    0.18
  -6  -3   1    0.53    0.14
  -6  -3   1    0.80    0.20
  -6  -3   1    0.98    0.22
   5   3  -1    0.30    0.10
   5   3  -1    0.55    0.16
  -5  -3   1    0.37    0.10
  -5  -3   1    0.40    0.12
  -5  -3   1    0.45    0.15
   4   3  -1    2.66    0.36
   4   3  -1    4.39    0.36
  -4  -3   1    3.61    0.37
  -4  -3   1    3.61    0.34
  -4  -3   1    3.04    0.37
   3   3  -1    6.33    0.56
   3   3  -1    6.22    0.56
   3   3  -1    5.70    0.54
   3   3  -1    5.66    0.54
  -3  -3   1    5.47    0.55
  -3  -3   1    6.84    0.55
  -3  -3   1    7.52    0.56
  -3  -3   1    7.15    0.58
  -3  -3   1    5.93    0.56
   2   3  -1   74.45    5.65
   2   3  -1   68.51    5.64
   2   3  -1   72.09    5.63
   2   3  -1   82.35    5.66
  -2  -3   1   77.55    5.65
  -2  -3   1   69.92    5.65
  -2  -3   1   65.65    5.63
  -2  -3   1   71.25    5.65
   1   3  -1   12.45    1.06
   1   3  -1   13.36    1.08
   1   3  -1   12.14    1.07
   1   3  -1   15.30    1.05
   1   3  -1   13.57    1.04
  -1  -3   1   13.92    1.08
  -1  -3   1   12.39    1.06
  -1  -3   1   13.17    1.06
  -1  -3   1   12.08    1.06
   0   3  -1    2.12    0.23
   0   3  -1    2.08    0.20
   0   3  -1    2.37    0.18
   0   3  -1    2.04    0.20
   0   3  -1    1.94    0.21
   0  -3   1    2.35    0.21
   0  -3   1    2.01    0.21
   0  -3   1    2.13    0.23
   0  -3   1    2.68    0.21
  -1   3  -1   17.35    1.34
  -1   3  -1   15.31    1.38
  -1   3  -1   20.33    1.36
  -1   3  -1   18.95    1.35
  -1   3  -1   20.19    1.36
   1  -3   1   15.22    1.35
   1  -3   1   16.93    1.36
   1  -3   1   15.72    1.39
   1  -3   1   17.43    1.33
   1  -3   1   14.19    1.35
  -2   3  -1   18.20    1.29
  -2   3  -1   15.21    1.28
  -2   3  -1   16.91    1.32
  -2   3  -1   16.26    1.27
  -2   3  -1   17.78    1.28
   2  -3   1   16.21    1.27
   2  -3   1   15.04    1.28
   2  -3   1   15.79    1.26
   2  -3   1   15.34    1.28
   2  -3   1   14.31    1.31
  -3   3  -1    0.25    0.07
  -3   3  -1    0.21    0.06
  -3   3  -1    0.19    0.07
   3  -3   1    0.31    0.08
   3  -3   1    0.30    0.09
   3  -3   1    0.19    0.06
   3  -3   1    0.42    0.06
   3  -3   1    0.18    0.05
  -4   3  -1    2.74    0.31
  -4   3  -1    3.26    0.32
   4  -3   1    3.85    0.33
   4  -3   1    2.64    0.32
   4  -3   1    2.75    0.31
  -5   3  -1    7.52    0.79
  -5   3  -1    8.22    0.79
   5  -3   1   10.32    0.80
   5  -3   1    9.55    0.80
   5  -3   1    8.80    0.80
  -6   3  -1    1.00    0.22
  -6   3  -1    0.72    0.19
   6  -3   1    0.58    0.18
   6  -3   1    0.79    0.18
  -7   3  -1    0.15    0.13
  -7   3  -1    0.04    0.09
   7  -3   1    0.00    0.09
   7  -3   1    0.03    0.10
   8   2  -1    2.75    0.42
   8   2  -1    3.30    0.38
   7   2  -1    0.38    0.17
   7   2  -1    0.61    0.15
  -7  -2   1    0.73    0.20
  -7  -2   1    0.56    0.18
   6   2  -1   18.52    1.42
   6   2  -1   14.60    1.45
  -6  -2   1   15.20    1.45
  -6  -2   1   19.44    1.48
   5   2  -1   10.27    0.97
   5   2  -1   11.05    0.93
  -5  -2   1    9.39    0.96
  -5  -2   1   14.01    1.01
   4   2  -1    2.94    0.29
   4   2  -1    2.88    0.32
  -4  -2   1    2.67    0.29
  -4  -2   1    3.00    0.32
  -4  -2   1    2.98    0.32
   3   2  -1   35.04    2.50
   3   2  -1   34.77    2.53
   3   2  -1   32.76    2.50
   3   2  -1   33.99    2.53
  -3  -2   1   29.62    2.49
  -3  -2   1   32.33    2.52
  -3  -2   1   27.88    2.52
  -3  -2   1   28.18    2.51
   2   2  -1   33.60    2.55
   2   2  -1   30.10    2.54
   2   2  -1   36.67    2.53
   2   2  -1   32.62    2.53
  -2  -2   1   29.35    2.53
  -2  -2   1   33.63    2.55
  -2  -2   1   30.58    2.54
  -2  -2   1   31.45    2.53
  -2  -2   1   33.56    2.55
   1   2  -1   42.79    3.15
   1   2  -1   38.15    3.13
   1   2  -1   39.00    3.13
   1   2  -1   38.55    3.15
   1   2  -1   41.00    3.16
  -1  -2   1   38.55    3.15
  -1  -2   1   39.81    3.14
  -1  -2   1   47.24    3.16
  -1  -2   1   39.44    3.13
   0   2  -1    8.38    0.69
   0   2  -1    8.50    0.70
   0   2  -1    7.62    0.69
   0   2  -1    8.60    0.72
   0  -2   1   10.31    0.72
   0  -2   1    9.35    0.70
  -1   2  -1    1.55    0.14
  -1   2  -1    1.56    0.17
  -1   2  -1    1.62    0.15
  -1   2  -1    1.64    0.15
  -1   2  -1    1.49    0.14
   1  -2   1    1.40    0.14
   1  -2   1    1.51    0.17
   1  -2   1    1.42    0.14
   1  -2   1    1.81    0.14
   1  -2   1    1.46    0.14
  -2   2  -1    1.75    0.18
  -2   2  -1    1.51    0.17
  -2   2  -1    1.66    0.19
  -2   2  -1    2.07    0.17
  -2   2  -1    2.00    0.17
   2  -2   1    1.63    0.19
   2  -2   1    1.76    0.16
   2  -2   1    2.00    0.18
   2  -2   1    1.80    0.17
   2  -2   1    1.63    0.17
  -3   2  -1    1.00    0.14
  -3   2  -1    1.06    0.14
  -3   2  -1    0.81    0.14
  -3   2  -1    1.17    0.12
   3  -2   1    1.07    0.11
   3  -2   1    1.08    0.14
   3  -2   1    0.86    0.13
   3  -2   1    0.90    0.12
  -4   2  -1    4.27    0.43
  -4   2  -1    3.85    0.42
   4  -2   1    4.03    0.41
   4  -2   1    4.02    0.41
   4  -2   1    4.91    0.39
   4  -2   1    5.27    0.42
   4  -2   1    4.66    0.43
  -5   2  -1    9.11    0.85
  -5   2  -1   10.62    0.87
   5  -2   1    9.90    0.84
   5  -2   1    8.46    0.82
   5  -2   1   10.43    0.86
  -6   2  -1    0.13    0.09
  -6   2  -1    0.09    0.07
   6  -2   1    0.15    0.10
   6  -2   1    0.02    0.06
  -7   2  -1    0.56    0.17
  -7   2  -1    0.56    0.20
   7  -2   1    1.04    0.23
   7  -2   1    0.90    0.19
   8   1  -1    0.73    0.22
   8   1  -1    0.72    0.18
  -8  -1   1    0.40    0.18
  -8  -1   1    0.72    0.22
   7   1  -1    0.40    0.13
   7   1  -1    0.15    0.12
  -7  -1   1    0.42    0.16
  -7  -1   1    0.17    0.13
   6   1  -1    6.25    0.68
   6   1  -1    6.85    0.64
  -6  -1   1    7.30    0.71
  -6  -1   1    8.32    0.72
   5   1  -1   11.94    1.00
   5   1  -1   11.09    0.95
  -5  -1   1   11.16    0.93
  -5  -1   1   11.41    0.99
  -5  -1   1   10.73    0.99
   4   1  -1    2.66    0.29
   4   1  -1    2.66    0.25
  -4  -1   1    2.48    0.28
  -4  -1   1    2.59    0.25
  -4  -1   1    1.76    0.26
   3   1  -1    5.84    0.52
   3   1  -1    6.51    0.55
   3   1  -1    5.99    0.54
  -3  -1   1    5.60    0.54
  -3  -1   1    6.13    0.54
  -3  -1   1    6.94    0.53
   2   1  -1   39.17    2.99
   2   1  -1   33.98    2.97
   2   1  -1   38.80    2.99
  -2  -1   1   36.42    2.97
  -2  -1   1   42.72    3.00
  -2  -1   1   39.19    2.99
   1   1  -1  807.83   62.46
   1   1  -1  909.02   62.34
   1   1  -1  788.31   62.35
   1   1  -1  742.11   62.40
  -1  -1   1  814.75   62.45
  -1  -1   1  796.46   62.38
  -1  -1   1  768.22   62.36
  -1  -1   1  880.11   62.43
  -1  -1   1  778.12   62.42
   0   1  -1   19.51    1.47
   0   1  -1   19.69    1.47
   0   1  -1   19.06    1.47
   0   1  -1   21.86    1.49
   0  -1   1   19.22    1.47
   0  -1   1   17.91    1.47
   0  -1   1   17.76    1.47
   0  -1   1   16.83    1.48
  -1   1  -1    0.96    0.10
  -1   1  -1    0.95    0.11
  -1   1  -1    1.15    0.10
  -1   1  -1    1.14    0.10
  -1   1  -1    1.11    0.10
   1  -1   1    0.93    0.10
   1  -1   1    0.95    0.10
   1  -1   1    0.93    0.12
   1  -1   1    1.07    0.10
   1  -1   1    0.88    0.10
  -2   1  -1   11.16    0.88
  -2   1  -1    9.87    0.86
  -2   1  -1   12.05    0.87
  -2   1  -1   10.28    0.88
  -2   1  -1   10.29    0.87
   2  -1   1   12.29    0.86
   2  -1   1   10.70    0.88
   2  -1   1    9.89    0.87
   2  -1   1   12.02    0.87
   2  -1   1   10.03    0.87
  -3   1  -1    8.69    0.79
  -3   1  -1    8.43    0.78
  -3   1  -1   11.49    0.78
  -3   1  -1    7.97    0.78
   3  -1   1    9.96    0.78
   3  -1   1    8.37    0.77
   3  -1   1    8.91    0.78
   3  -1   1    9.55    0.76
   3  -1   1    9.96    0.78
   3  -1   1   11.32    0.79
  -4   1  -1   18.10    1.43
  -4   1  -1   18.66    1.44
  -4   1  -1   18.28    1.41
   4  -1   1   14.87    1.41
   4  -1   1   18.22    1.41
   4  -1   1   14.99    1.38
   4  -1   1   17.09    1.42
   4  -1   1   20.43    1.42
  -5   1  -1    0.99    0.19
  -5   1  -1    1.04    0.20
  -5   1  -1    0.90    0.19
   5  -1   1    1.12    0.19
   5  -1   1    1.07    0.19
  -6   1  -1    4.92    0.48
  -6   1  -1    3.75    0.45
   6  -1   1    5.19    0.48
   6  -1   1    3.79    0.42
  -7   1  -1    0.05    0.10
  -7   1  -1    0.04    0.09
   7  -1   1   -0.07    0.07
   7  -1   1   -0.06    0.08
  -8   1  -1    0.09    0.13
   8  -1   1    0.12    0.10
   8  -1   1    0.09    0.12
   8   0  -1    5.68    0.65
   8   0  -1    6.72    0.63
  -8   0   1    5.20    0.64
  -8   0   1    6.00    0.67
   7   0  -1    3.21    0.36
   7   0  -1    3.96    0.45
  -7   0   1    3.45    0.44
  -7   0   1    2.97    0.41
   6   0  -1   16.88    1.38
   6   0  -1   13.53    1.41
  -6   0   1   17.74    1.45
  -6   0   1   19.08    1.46
   5   0  -1    1.73    0.20
   5   0  -1    2.12    0.26
  -5   0   1    1.59    0.23
  -5   0   1    1.62    0.23
   4   0  -1   30.58    2.38
   4   0  -1   27.08    2.41
  -4   0   1   24.21    2.40
  -4   0   1   33.11    2.39
  -4   0   1   29.93    2.38
  -4   0   1   36.88    2.44
   3   0  -1    7.93    0.68
   3   0  -1    9.11    0.70
   3   0  -1    7.65    0.66
   3   0  -1    7.67    0.67
  -3   0   1    9.95    0.71
  -3   0   1    8.00    0.66
  -3   0   1    7.74    0.68
  -3   0   1    7.01    0.68
   2   0  -1    0.73    0.10
   2   0  -1    0.89    0.09
   2   0  -1    1.01    0.12
   2   0  -1    0.71    0.10
  -2   0   1    0.63    0.09
  -2   0   1    0.86    0.11
  -2   0   1    0.99    0.11
   1   0  -1   70.44    4.88
   1   0  -1   68.43    4.88
   1   0  -1   64.10    4.89
   1   0  -1   58.96    4.89
  -1   0   1   58.46    4.89
  -1   0   1   64.46    4.88
  -1   0   1   59.11    4.88
  -1   0   1   62.19    4.89
   0   0  -1   87.53    7.17
   0   0  -1   99.45    7.16
   0   0  -1   94.69    7.15
   0   0   1   94.39    7.16
   0   0   1   87.99    7.17
   0   0   1   92.85    7.15
  -1   0  -1   28.75    2.06
  -1   0  -1   28.62    2.06
  -1   0  -1   28.85    2.06
  -1   0  -1   25.95    2.06
   1   0   1   28.59    2.06
   1   0   1   23.57    2.06
   1   0   1   25.54    2.06
   1   0   1   24.85    2.07
   1   0   1   24.87    2.06
  -2   0  -1   25.08    2.23
  -2   0  -1   25.72    2.24
  -2   0  -1   24.97    2.23
  -2   0  -1   28.33    2.23
  -2   0  -1   28.56    2.24
   2   0   1   32.56    2.24
   2   0   1   29.42    2.23
   2   0   1   25.70    2.23
   2   0   1   30.84    2.23
   2   0   1   31.39    2.24
   2   0   1   32.97    2.25
  -3   0  -1   15.55    1.22
  -3   0  -1   14.81    1.25
  -3   0  -1   15.48    1.24
  -3   0  -1   13.12    1.24
  -3   0  -1   12.83    1.23
   3   0   1   16.60    1.22
   3   0   1   17.38    1.24
   3   0   1   16.45    1.25
   3   0   1   15.74    1.22
   3   0   1   16.45    1.25
   3   0   1   15.28    1.24
  -4   0  -1    9.07    0.81
  -4   0  -1    9.37    0.77
  -4   0  -1   10.23    0.81
   4   0   1   10.27    0.77
   4   0   1    9.78    0.81
   4   0   1    9.16    0.79
   4   0   1    7.80    0.78
  -5   0  -1    0.30    0.10
  -5   0  -1    0.25    0.11
  -5   0  -1    0.14    0.06
   5   0   1    0.20    0.09
   5   0   1    0.22    0.08
  -6   0  -1    4.69    0.50
  -6   0  -1    4.40    0.48
  -6   0  -1    4.68    0.44
   6   0   1    4.64    0.46
   6   0   1    4.48    0.48
  -7   0  -1    2.11    0.30
   7   0   1    1.97    0.33
   7   0   1    1.88    0.26
  -8   0  -1    0.03    0.12
   8   0   1    0.02    0.11
   8   0   1   -0.03    0.08
   8  -1  -1    0.56    0.22
  -8   1   1    0.67    0.22
  -8   1   1    0.74    0.23
   7  -1  -1    1.63    0.22
   7  -1  -1    1.31    0.27
  -7   1   1    1.58    0.33
  -7   1   1    1.19    0.26
   6  -1  -1    1.84    0.22
   6  -1  -1    1.77    0.30
  -6   1   1    1.42    0.28
  -6   1   1    1.61    0.29
   5  -1  -1    2.37    0.26
   5  -1  -1    2.23    0.29
   5  -1  -1    2.59    0.23
  -5   1   1    2.22    0.29
  -5   1   1    1.96    0.28
   4  -1  -1    0.84    0.12
   4  -1  -1    0.62    0.09
   4  -1  -1    0.90    0.16
  -4   1   1    0.59    0.14
  -4   1   1    0.69    0.14
  -4   1   1    0.80    0.12
   3  -1  -1   10.56    0.87
   3  -1  -1   11.77    0.89
   3  -1  -1   10.31    0.91
   3  -1  -1   11.26    0.91
   3  -1  -1   10.68    0.90
  -3   1   1   12.59    0.93
  -3   1   1    9.93    0.90
  -3   1   1   11.04    0.91
  -3   1   1   11.06    0.90
   2  -1  -1  284.40   24.11
   2  -1  -1  316.61   24.14
   2  -1  -1  324.50   24.12
   2  -1  -1  306.64   24.12
   2  -1  -1  319.21   24.13
  -2   1   1  304.83   24.12
  -2   1   1  317.06   24.13
  -2   1   1  306.66   24.13
  -2   1   1  342.13   24.13
   1  -1  -1  831.87   69.52
   1  -1  -1 1000.00   69.59
   1  -1  -1  964.81   69.49
   1  -1  -1  925.49   69.56
  -1   1   1  994.83   69.59
  -1   1   1  839.30   69.56
  -1   1   1  779.27   69.56
  -1   1   1  890.54   69.62
   0  -1  -1   24.96    1.90
   0  -1  -1   23.81    1.90
   0  -1  -1   24.56    1.91
   0  -1  -1   25.97    1.90
   0   1   1   24.68    1.91
   0   1   1   24.06    1.90
   0   1   1   24.73    1.90
  -1  -1  -1   33.79    2.57
  -1  -1  -1   35.30    2.57
   1   1   1   33.43    2.57
   1   1   1   32.27    2.57
   1   1   1   31.33    2.57
  -2  -1  -1   18.29    1.46
  -2  -1  -1   18.72    1.44
  -2  -1  -1   16.77    1.46
  -2  -1  -1   19.39    1.47
   2   1   1   17.09    1.46
   2   1   1   22.55    1.48
   2   1   1   17.58    1.46
  -3  -1  -1   -0.01    0.03
  -3  -1  -1   -0.05    0.03
  -3  -1  -1    0.00    0.02
  -3  -1  -1    0.00    0.03
   3   1   1    0.00    0.04
   3   1   1    0.00    0.04
   3   1   1   -0.04    0.03
   3   1   1    0.00    0.03
  -4  -1  -1    2.01    0.19
  -4  -1  -1    2.03    0.24
  -4  -1  -1    1.93    0.22
  -4  -1  -1    2.00    0.23
   4   1   1    1.73    0.23
   4   1   1    2.11    0.23
   4   1   1    2.26    0.23
  -5  -1  -1    1.75    0.18
  -5  -1  -1    1.96    0.24
  -5  -1  -1    1.22    0.24
   5   1   1    1.88    0.22
   5   1   1    1.90    0.24
  -6  -1  -1    0.33    0.09
  -6  -1  -1    0.52    0.15
   6   1   1    0.43    0.13
   6   1   1    0.36    0.14
  -7  -1  -1    3.24    0.40
   7   1   1    4.36    0.44
   7   1   1    2.94    0.37
  -8  -1  -1    5.01    0.60
   8   1   1    5.00    0.59
   8   1   1    6.07    0.57
   7  -2  -1    4.60    0.45
   7  -2  -1    4.57    0.51
  -7   2   1    4.51    0.51
  -7   2   1    3.17    0.47
   6  -2  -1   10.79    0.99
   6  -2  -1   12.41    1.06
  -6   2   1   11.27    1.05
  -6   2   1   12.61    1.06
   5  -2  -1    1.43    0.24
   5  -2  -1    1.27    0.17
   5  -2  -1    1.29    0.14
  -5   2   1    1.29    0.23
  -5   2   1    1.23    0.23
   4  -2  -1    0.61    0.07
   4  -2  -1    0.67    0.12
   4  -2  -1    0.18    0.09
  -4   2   1    0.57    0.13
  -4   2   1    0.60    0.15
   3  -2  -1   19.53    1.44
   3  -2  -1   16.24    1.46
   3  -2  -1   17.74    1.43
   3  -2  -1   20.58    1.45
   3  -2  -1   17.86    1.41
  -3   2   1   18.61    1.45
  -3   2   1   17.33    1.46
  -3   2   1   17.31    1.46
  -3   2   1   17.23    1.46
   2  -2  -1    0.07    0.04
   2  -2  -1    0.12    0.05
   2  -2  -1    0.10    0.02
   2  -2  -1    0.11    0.05
   2  -2  -1    0.11    0.04
  -2   2   1    0.13    0.04
  -2   2   1    0.12    0.03
  -2   2   1    0.13    0.05
  -2   2   1    0.13    0.04
  -2   2   1    0.03    0.04
   1  -2  -1  164.89   13.82
   1  -2  -1  202.24   13.80
   1  -2  -1  179.07   13.80
   1  -2  -1  192.74   13.81
  -1   2   1  165.03   13.80
  -1   2   1  191.98   13.80
  -1   2   1  168.37   13.82
  -1   2   1  166.35   13.80
  -1   2   1  182.90   13.81
   0  -2  -1   38.15    3.13
   0  -2  -1   44.91    3.14
   0  -2  -1   43.45    3.14
   0  -2  -1   37.77    3.14
   0   2   1   38.46    3.14
   0   2   1   40.72    3.13
   0   2   1   42.51    3.14
   0   2   1   42.33    3.13
   0   2   1   36.95    3.15
  -1  -2  -1  293.26   22.59
  -1  -2  -1  268.20   22.57
  -1  -2  -1  309.24   22.53
   1   2   1  286.04   22.61
   1   2   1  303.90   22.60
   1   2   1  295.84   22.59
  -2  -2  -1   94.43    7.50
  -2  -2  -1  103.16    7.54
  -2  -2  -1   89.64    7.54
   2   2   1   91.63    7.53
   2   2   1  109.19    7.54
  -3  -2  -1   20.90    1.92
  -3  -2  -1   20.64    1.92
   3   2   1   25.66    1.93
   3   2   1   26.87    1.94
   3   2   1   27.94    1.93
   3   2   1   24.22    1.93
  -4  -2  -1   43.60    3.76
  -4  -2  -1   50.79    3.70
   4   2   1   47.76    3.75
   4   2   1   50.65    3.76
   4   2   1   45.42    3.76
  -5  -2  -1    8.16    0.76
  -5  -2  -1    9.15    0.69
   5   2   1    7.75    0.76
   5   2   1    8.16    0.74
  -6  -2  -1    6.79    0.70
  -6  -2  -1    7.59    0.63
   6   2   1    6.97    0.71
   6   2   1    8.68    0.70
  -7  -2  -1    1.49    0.28
   7   2   1    1.49    0.23
   7   2   1    1.69    0.29
  -8  -2  -1   -0.04    0.11
   8   2   1   -0.04    0.07
   8   2   1   -0.02    0.12
   7  -3  -1    2.67    0.37
  -7   3   1    2.66    0.38
  -7   3   1    2.41    0.41
   6  -3  -1   10.89    0.89
   6  -3  -1    9.50    0.93
  -6   3   1   10.39    0.95
  -6   3   1    9.62    0.93
   5  -3  -1    0.69    0.18
   5  -3  -1    1.17    0.16
   5  -3  -1    1.26    0.12
  -5   3   1    0.75    0.18
  -5   3   1    0.58    0.16
   4  -3  -1    0.53    0.14
   4  -3  -1    0.70    0.08
   4  -3  -1    0.51    0.11
  -4   3   1    0.83    0.16
  -4   3   1    0.56    0.14
   3  -3  -1    2.79    0.30
   3  -3  -1    3.18    0.28
   3  -3  -1    3.03    0.31
   3  -3  -1    2.79    0.25
  -3   3   1    2.80    0.29
  -3   3   1    3.09    0.30
   2  -3  -1   11.61    0.90
   2  -3  -1   10.88    0.88
   2  -3  -1    9.15    0.90
   2  -3  -1   11.46    0.89
   2  -3  -1   11.25    0.86
  -2   3   1   10.86    0.86
  -2   3   1   10.28    0.89
  -2   3   1   11.90    0.89
  -2   3   1   10.16    0.91
  -2   3   1   11.78    0.90
   1  -3  -1   43.09    3.13
   1  -3  -1   45.11    3.15
   1  -3  -1   35.58    3.16
   1  -3  -1   39.81    3.14
  -1   3   1   39.98    3.14
  -1   3   1   38.11    3.14
  -1   3   1   40.44    3.14
  -1   3   1   41.15    3.12
   0  -3  -1   37.01    2.95
   0  -3  -1   37.40    2.96
   0  -3  -1   37.41    2.96
   0   3   1   40.21    2.96
   0   3   1   34.86    2.95
   0   3   1   36.09    2.94
   0   3   1   40.48    2.98
   0   3   1   42.02    2.96
  -1  -3  -1   57.02    4.50
  -1  -3  -1   59.63    4.50
  -1  -3  -1   54.33    4.50
  -1  -3  -1   55.79    4.50
   1   3   1   56.61    4.50
   1   3   1   53.71    4.51
   1   3   1   62.06    4.50
   1   3   1   65.79    4.50
  -2  -3  -1   59.77    4.84
  -2  -3  -1   64.36    4.84
  -2  -3  -1   59.28    4.81
  -2  -3  -1   63.89    4.84
   2   3   1   59.91    4.84
   2   3   1   57.70    4.83
   2   3   1   64.58    4.84
   2   3   1   68.67    4.82
  -3  -3  -1   27.44    2.00
  -3  -3  -1   26.10    1.95
  -3  -3  -1   24.11    2.00
   3   3   1   25.62    2.00
   3   3   1   24.22    2.00
   3   3   1   22.77    1.99
  -4  -3  -1    1.80    0.17
  -4  -3  -1    1.82    0.23
   4   3   1    1.82    0.23
   4   3   1    1.99    0.22
   4   3   1    1.42    0.21
  -5  -3  -1   40.17    3.27
  -5  -3  -1   38.48    3.28
  -5  -3  -1   45.98    3.39
   5   3   1   45.98    3.35
   5   3   1   43.10    3.37
  -6  -3  -1    0.02    0.07
  -6  -3  -1    0.02    0.03
  -6  -3  -1    0.01    0.03
   6   3   1   -0.05    0.07
   6   3   1   -0.04    0.05
  -7  -3  -1    0.09    0.10
   7   3   1    0.17    0.11
   7   3   1    0.02    0.07
  -8  -3  -1    0.46    0.20
   8   3   1    0.30    0.13
   8   3   1    0.12    0.13
   7  -4  -1    0.41    0.17
  -7   4   1    0.42    0.17
  -7   4   1    0.19    0.15
   6  -4  -1    0.66    0.19
   6  -4  -1    0.70    0.15
  -6   4   1    1.06    0.23
  -6   4   1    0.71    0.19
   5  -4  -1    4.32    0.51
   5  -4  -1    5.85    0.50
  -5   4   1    5.41    0.53
  -5   4   1    4.88    0.52
   4  -4  -1    0.24    0.10
   4  -4  -1    0.48    0.10
   4  -4  -1    0.36    0.12
   4  -4  -1    0.44    0.07
  -4   4   1    0.24    0.10
  -4   4   1    0.28    0.11
   3  -4  -1    0.20    0.08
   3  -4  -1    0.25    0.08
   3  -4  -1    0.18    0.04
  -3   4   1    0.21    0.08
  -3   4   1    0.20    0.05
  -3   4   1    0.14    0.07
   2  -4  -1    0.77    0.12
   2  -4  -1    0.95    0.10
   2  -4  -1    0.97    0.13
   2  -4  -1    1.05    0.15
  -2   4   1    0.78    0.09
  -2   4   1    0.72    0.11
  -2   4   1    0.76    0.13
   1  -4  -1   51.87    3.96
   1  -4  -1   52.14    3.94
   1  -4  -1   47.79    3.99
   1  -4  -1   51.43    3.95
   1  -4  -1   50.19    3.96
  -1   4   1   52.17    3.96
  -1   4   1   51.36    3.94
  -1   4   1   55.22    3.96
  -1   4   1   50.84    3.94
  -1   4   1   45.60    3.99
   0  -4  -1    9.80    0.78
   0  -4  -1   11.61    0.81
   0  -4  -1   10.96    0.79
   0  -4  -1   10.32    0.78
   0   4   1    7.48    0.79
   0   4   1    8.43    0.78
   0   4   1    9.21    0.76
  -1  -4  -1    1.91    0.21
  -1  -4  -1    1.93    0.20
  -1  -4  -1    2.09    0.21
  -1  -4  -1    2.44    0.22
   1   4   1    2.52    0.23
   1   4   1    2.24    0.21
   1   4   1    2.06    0.20
   1   4   1    1.84    0.21
  -2  -4  -1  134.51    9.51
  -2  -4  -1  123.48    9.52
  -2  -4  -1  119.88    9.52
   2   4   1  116.03    9.51
   2   4   1  124.38    9.51
   2   4   1  120.26    9.52
  -3  -4  -1   71.98    5.47
  -3  -4  -1   71.26    5.52
  -3  -4  -1   69.54    5.51
   3   4   1   71.19    5.50
   3   4   1   68.32    5.51
   3   4   1   66.44    5.50
   3   4   1   75.64    5.48
  -4  -4  -1    6.70    0.61
  -4  -4  -1    7.00    0.55
   4   4   1    6.12    0.59
   4   4   1    6.46    0.60
   4   4   1    6.58    0.61
  -5  -4  -1    0.92    0.18
  -5  -4  -1    0.58    0.09
   5   4   1    0.76    0.15
   5   4   1    0.91    0.19
  -6  -4  -1    7.72    0.65
  -6  -4  -1    7.69    0.76
   6   4   1    8.76    0.77
   6   4   1    8.03    0.73
  -7  -4  -1    0.08    0.12
   7   4   1    0.11    0.10
   7   4   1    0.05    0.07
  -8  -4  -1    0.20    0.14
   8   4   1    0.08    0.11
   8   4   1    0.00    0.08
   6  -5  -1    3.94    0.48
  -6   5   1    4.72    0.49
  -6   5   1    3.93    0.48
   5  -5  -1    0.22    0.10
   5  -5  -1    0.14    0.10
  -5   5   1    0.18    0.09
  -5   5   1    0.14    0.10
   4  -5  -1    0.00    0.06
   4  -5  -1    0.06    0.07
   4  -5  -1    0.09    0.06
  -4   5   1    0.06    0.08
  -4   5   1    0.00    0.05
   3  -5  -1    1.87    0.23
   3  -5  -1    1.37    0.19
  -3   5   1    1.34    0.18
  -3   5   1    1.73    0.16
  -3   5   1    1.52    0.20
   2  -5  -1    0.25    0.08
   2  -5  -1    0.40    0.07
   2  -5  -1    0.25    0.09
  -2   5   1    0.29    0.08
  -2   5   1    0.25    0.06
  -2   5   1    0.25    0.07
   1  -5  -1  109.07    9.09
   1  -5  -1  108.28    9.13
   1  -5  -1  116.88    9.07
   1  -5  -1  128.11    9.08
  -1   5   1  123.99    9.07
  -1   5   1  115.04    9.09
  -1   5   1  121.13    9.07
   0  -5  -1   20.02    1.47
   0  -5  -1   19.86    1.46
   0  -5  -1   15.90    1.47
   0  -5  -1   18.10    1.45
   0   5   1   17.39    1.46
   0   5   1   18.87    1.43
   0   5   1   16.74    1.49
   0   5   1   18.65    1.45
  -1  -5  -1    5.97    0.53
  -1  -5  -1    7.19    0.55
  -1  -5  -1    6.75    0.56
  -1  -5  -1    6.23    0.53
   1   5   1    6.83    0.55
   1   5   1    5.33    0.54
   1   5   1    6.63    0.53
   1   5   1    5.39    0.52
  -2  -5  -1    3.13    0.33
  -2  -5  -1    3.23    0.31
  -2  -5  -1    3.60    0.31
  -2  -5  -1    2.43    0.31
   2   5   1    2.94    0.30
   2   5   1    3.57    0.32
   2   5   1    3.43    0.33
   2   5   1    3.35    0.31
  -3  -5  -1    0.08    0.07
  -3  -5  -1    0.06    0.04
   3   5   1    0.02    0.05
   3   5   1    0.08    0.05
   3   5   1    0.13    0.07
   3   5   1   -0.02    0.03
  -4  -5  -1   11.89    0.95
  -4  -5  -1   11.08    0.88
   4   5   1    9.96    0.92
   4   5   1   10.06    0.91
  -5  -5  -1   19.72    1.80
  -5  -5  -1   21.71    1.73
   5   5   1   23.92    1.80
   5   5   1   22.13    1.81
  -6  -5  -1    5.67    0.60
  -6  -5  -1    5.92    0.49
   6   5   1    5.96    0.57
   6   5   1    5.55    0.59
  -7  -5  -1    7.28    0.78
   7   5   1    7.71    0.77
   7   5   1    8.37    0.76
  -8  -5  -1   -0.06    0.11
   8   5   1    0.04    0.11
   8   5   1    0.08    0.09
   6  -6  -1    2.01    0.36
  -6   6   1    2.54    0.35
  -6   6   1    1.93    0.34
   5  -6  -1    1.81    0.24
   5  -6  -1    1.91    0.28
   5  -6  -1    1.55    0.28
  -5   6   1    1.79    0.25
  -5   6   1    1.87    0.27
   4  -6  -1    5.35    0.48
   4  -6  -1    4.10    0.48
  -4   6   1    4.39    0.46
  -4   6   1    4.26    0.39
  -4   6   1    4.25    0.45
   3  -6  -1    1.58    0.24
   3  -6  -1    1.70    0.22
  -3   6   1    1.72    0.18
  -3   6   1    1.86    0.22
  -3   6   1    1.42    0.21
   2  -6  -1    7.82    0.64
   2  -6  -1    8.34    0.66
   2  -6  -1    6.23    0.66
  -2   6   1    6.40    0.63
  -2   6   1    7.45    0.60
   1  -6  -1   29.23    2.40
   1  -6  -1   30.27    2.33
   1  -6  -1   31.72    2.36
  -1   6   1   29.66    2.33
  -1   6   1   29.02    2.35
  -1   6   1   28.93    2.33
   0  -6  -1   19.19    1.35
   0  -6  -1   15.83    1.29
   0   6   1   15.14    1.29
   0   6   1   15.14    1.26
  -1  -6  -1   10.76    0.85
  -1  -6  -1    8.99    0.81
   1   6   1    9.01    0.81
   1   6   1   10.70    0.81
   1   6   1    9.59    0.78
  -2  -6  -1   30.84    2.55
  -2  -6  -1   34.75    2.56
   2   6   1   33.67    2.54
   2   6   1   31.29    2.55
   2   6   1   30.25    2.56
  -3  -6  -1   14.63    1.28
  -3  -6  -1   14.46    1.25
   3   6   1   14.99    1.27
   3   6   1   15.57    1.26
   3   6   1   17.24    1.27
  -4  -6  -1   37.89    2.97
  -4  -6  -1   42.39    3.04
   4   6   1   41.43    2.99
   4   6   1   35.56    3.00
   4   6   1   32.34    3.00
  -5  -6  -1    6.15    0.55
  -5  -6  -1    5.97    0.62
   5   6   1    7.67    0.62
   5   6   1    5.86    0.61
  -6  -6  -1    1.52    0.28
   6   6   1    1.46    0.26
   6   6   1    1.13    0.23
  -7  -6  -1    1.06    0.24
   7   6   1    1.29    0.24
   7   6   1    0.73    0.21
  -8  -6  -1    4.16    0.53
   8   6   1    3.45    0.44
   8   6   1    5.26    0.54
   5  -7  -1    0.23    0.12
   5  -7  -1   -0.02    0.10
  -5   7   1    0.10    0.11
  -5   7   1    0.01    0.10
   4  -7  -1    2.00    0.28
   4  -7  -1    2.15    0.31
  -4   7   1    2.45    0.28
  -4   7   1    1.91    0.28
   3  -7  -1    0.97    0.22
   3  -7  -1    0.71    0.17
  -3   7   1    0.93    0.18
  -3   7   1    0.99    0.17
  -3   7   1    1.04    0.13
   2  -7  -1    1.05    0.18
   2  -7  -1    0.83    0.20
  -2   7   1    1.25    0.14
  -2   7   1    1.39    0.18
  -2   7   1    1.21    0.16
   1  -7  -1    7.34    0.67
   1  -7  -1    7.71    0.73
  -1   7   1    8.48    0.65
  -1   7   1    7.65    0.68
  -1   7   1    7.84    0.65
   0  -7  -1    4.09    0.44
   0   7   1    4.46    0.36
   0   7   1    3.67    0.39
   0   7   1    4.58    0.38
  -1  -7  -1    5.17    0.50
  -1  -7  -1    5.25    0.47
   1   7   1    6.04    0.48
   1   7   1    4.71    0.43
  -2  -7  -1    1.53    0.22
  -2  -7  -1    1.98    0.22
   2   7   1    1.63    0.20
   2   7   1    2.55    0.24
  -3  -7  -1   10.24    0.90
  -3  -7  -1   10.16    0.89
   3   7   1   10.04    0.89
   3   7   1   11.14    0.89
  -4  -7  -1  100.23    7.24
  -4  -7  -1   85.35    7.26
   4   7   1   99.98    7.26
   4   7   1   87.81    7.24
   4   7   1   91.22    7.26
  -5  -7  -1    0.61    0.12
  -5  -7  -1    0.49    0.15
   5   7   1    0.45    0.13
   5   7   1    0.37    0.12
  -6  -7  -1    0.78    0.21
   6   7   1    0.77    0.18
   6   7   1    0.75    0.20
  -7  -7  -1    3.13    0.40
   7   7   1    2.48    0.37
   7   7   1    2.91    0.35
  -8  -7  -1    1.66    0.35
   8   7   1    1.23    0.25
   8   7   1    1.53    0.32
   4  -8  -1    0.00    0.09
   4  -8  -1   -0.04    0.09
  -4   8   1    0.03    0.07
   3  -8  -1    1.83    0.27
   3  -8  -1    2.72    0.34
  -3   8   1    1.90    0.26
  -3   8   1    2.25    0.23
  -3   8   1    2.70    0.30
   2  -8  -1    0.72    0.15
   2  -8  -1    0.67    0.18
  -2   8   1    0.78    0.16
  -2   8   1    0.88    0.15
  -2   8   1    0.82    0.13
   1  -8  -1   10.26    0.82
   1  -8  -1   11.01    0.90
  -1   8   1    8.22    0.81
  -1   8   1    9.08    0.79
  -1   8   1    9.80    0.78
   0  -8  -1    0.18    0.08
   0  -8  -1    0.14    0.10
   0   8   1    0.16    0.06
   0   8   1    0.26    0.08
   0   8   1    0.28    0.06
  -1  -8  -1    1.40    0.19
  -1  -8  -1    1.37    0.24
   1   8   1    1.45    0.19
   1   8   1    1.46    0.15
  -2  -8  -1   23.35    2.07
  -2  -8  -1   26.25    2.05
   2   8   1   27.51    2.04
   2   8   1   24.49    2.04
  -3  -8  -1    2.08    0.26
  -3  -8  -1    2.16    0.27
   3   8   1    1.76    0.25
   3   8   1    2.62    0.26
  -4  -8  -1   40.67    3.24
  -4  -8  -1   41.40    3.27
   4   8   1   39.09    3.24
   4   8   1   42.51    3.27
  -5  -8  -1    5.92    0.55
  -5  -8  -1    5.84    0.60
   5   8   1    6.10    0.60
   5   8   1    5.71    0.57
  -6  -8  -1    0.07    0.12
   6   8   1    0.29    0.12
   6   8   1    0.30    0.12
  -7  -8  -1    0.19    0.13
   7   8   1   -0.02    0.08
   7   8   1   -0.04    0.09
   3  -9  -1   -0.02    0.08
   3  -9  -1    0.03    0.10
  -3   9   1    0.02    0.08
   2  -9  -1    6.65    0.66
   2  -9  -1    8.29    0.75
  -2   9   1    7.39    0.63
  -2   9   1    7.05    0.67
   1  -9  -1    3.83    0.41
   1  -9  -1    3.68    0.47
  -1   9   1    4.21    0.38
  -1   9   1    4.84    0.43
   0  -9  -1    7.33    0.77
   0  -9  -1    8.01    0.72
   0   9   1    8.35    0.67
   0   9   1    8.38    0.72
   0   9   1    8.04    0.69
  -1  -9  -1    0.48    0.13
  -1  -9  -1    0.68    0.18
   1   9   1    0.50    0.13
   1   9   1    0.78    0.09
  -2  -9  -1    0.02    0.07
  -2  -9  -1    0.08    0.07
   2   9   1    0.11    0.08
   2   9   1    0.09    0.04
  -3  -9  -1    5.17    0.56
  -3  -9  -1    6.42    0.56
   3   9   1    5.31    0.53
   3   9   1    6.17    0.55
  -4  -9  -1    1.75    0.25
  -4  -9  -1    1.95    0.25
   4   9   1    2.33    0.28
   4   9   1    1.58    0.23
  -5  -9  -1    1.57    0.27
  -5  -9  -1    1.66    0.30
   5   9   1    2.35    0.28
   5   9   1    2.25    0.29
  -6  -9  -1    8.77    0.92
   6   9   1   10.31    0.91
   6   9   1   10.52    0.94
  -7  -9  -1    4.04    0.50
   2 -10  -1    5.77    0.64
   2 -10  -1    5.16    0.57
  -2  10   1    5.79    0.53
  -2  10   1    6.93    0.60
   1 -10  -1    4.24    0.44
   1 -10  -1    4.25    0.51
  -1  10   1    3.69    0.42
  -1  10   1    4.56    0.40
   0 -10  -1    0.01    0.06
   0 -10  -1    0.08    0.10
   0  10   1   -0.04    0.05
   0  10   1    0.07    0.06
  -1 -10  -1    0.01    0.09
  -1 -10  -1    0.08    0.07
   1  10   1   -0.06    0.05
   1  10   1    0.08    0.06
  -2 -10  -1   10.66    1.12
  -2 -10  -1   14.73    1.12
   2  10   1   13.16    1.10
  -3 -10  -1    1.88    0.26
  -3 -10  -1    1.85    0.28
   3  10   1    2.14    0.25
   3  10   1    1.60    0.24
  -4 -10  -1    0.18    0.10
  -4 -10  -1    0.34    0.12
   4  10   1    0.26    0.12
   4  10   1    0.21    0.10
  -5 -10  -1    2.56    0.36
   5  10   1    3.02    0.35
   5  10   1    3.19    0.37
  -6 -10  -1    0.40    0.15
   6  10   1    0.37    0.14
   6  10   1    0.51    0.17
   0 -11  -1    3.12    0.42
   0 -11  -1    3.12    0.34
   0  11   1    2.60    0.34
   0  11   1    2.96    0.31
  -1 -11  -1    1.98    0.34
  -1 -11  -1    1.45    0.26
   1  11   1    1.63    0.21
   1  11   1    1.73    0.24
  -2 -11  -1   -0.02    0.08
  -2 -11  -1   -0.04    0.08
   2  11   1   -0.05    0.06
   2  11   1   -0.03    0.06
  -3 -11  -1    0.73    0.19
  -3 -11  -1    0.76    0.18
   3  11   1    0.83    0.18
  -4 -11  -1   11.20    1.10
  -4 -11  -1   11.89    1.10
   4  11   1   13.16    1.09
   4  11   1   13.59    1.11
   4  10  -2    0.30    0.14
  -4 -10   2    0.27    0.14
  -4 -10   2    0.77    0.21
   3  10  -2    1.84    0.25
   3  10  -2    1.70    0.23
  -3 -10   2    1.50    0.27
  -3 -10   2    1.56    0.31
   2  10  -2    0.68    0.16
   2  10  -2    0.48    0.13
  -2 -10   2    0.61    0.16
  -2 -10   2    0.83    0.23
   1  10  -2   -0.01    0.07
   1  10  -2    0.09    0.07
  -1 -10   2    0.13    0.11
  -1 -10   2   -0.02    0.06
   0  10  -2    1.09    0.18
   0  10  -2    1.09    0.20
   0 -10   2    1.08    0.26
   0 -10   2    0.97    0.19
  -1  10  -2    0.13    0.09
  -1  10  -2   -0.03    0.08
   1 -10   2    0.07    0.08
   1 -10   2    0.06    0.11
   5   9  -2    0.04    0.10
   5   9  -2   -0.11    0.05
  -5  -9   2    0.02    0.09
  -5  -9   2    0.02    0.09
   4   9  -2    0.62    0.16
  -4  -9   2    0.54    0.17
  -4  -9   2    0.67    0.20
   3   9  -2    5.26    0.49
   3   9  -2    5.34    0.46
  -3  -9   2    4.34    0.48
  -3  -9   2    3.56    0.49
   2   9  -2    1.26    0.21
   2   9  -2    1.29    0.21
  -2  -9   2    1.13    0.21
  -2  -9   2    1.38    0.28
   1   9  -2    3.92    0.37
   1   9  -2    3.73    0.38
  -1  -9   2    3.55    0.38
  -1  -9   2    3.20    0.43
   0   9  -2    7.94    0.70
   0   9  -2    7.73    0.71
   0  -9   2    7.88    0.72
   0  -9   2    8.79    0.81
  -1   9  -2    0.09    0.08
  -1   9  -2    0.13    0.07
   1  -9   2    0.40    0.16
   1  -9   2    0.09    0.08
  -2   9  -2    0.19    0.11
  -2   9  -2    0.15    0.08
   2  -9   2    0.09    0.11
   2  -9   2    0.21    0.11
   6   8  -2    0.53    0.18
   6   8  -2    0.59    0.16
  -6  -8   2    0.48    0.19
   5   8  -2    1.33    0.26
   5   8  -2    1.06    0.21
  -5  -8   2    1.27    0.24
  -5  -8   2    1.63    0.29
   4   8  -2    0.34    0.12
   4   8  -2    0.39    0.12
  -4  -8   2    0.33    0.13
  -4  -8   2    0.27    0.12
   3   8  -2    2.20    0.26
  -3  -8   2    1.58    0.24
  -3  -8   2    1.95    0.28
   2   8  -2    0.13    0.08
   2   8  -2    0.36    0.11
  -2  -8   2    0.22    0.11
  -2  -8   2    0.11    0.08
   1   8  -2    0.18    0.08
   1   8  -2    0.06    0.06
  -1  -8   2    0.17    0.08
  -1  -8   2    0.10    0.10
   0   8  -2   -0.01    0.04
   0   8  -2    0.02    0.05
   0  -8   2   -0.04    0.07
   0  -8   2    0.05    0.06
  -1   8  -2    3.28    0.36
  -1   8  -2    3.91    0.36
   1  -8   2    3.53    0.44
   1  -8   2    3.53    0.36
  -2   8  -2   15.05    1.30
  -2   8  -2   13.77    1.26
   2  -8   2   17.33    1.30
   2  -8   2   16.44    1.38
  -3   8  -2    3.41    0.41
  -3   8  -2    4.57    0.41
   3  -8   2    4.10    0.42
   3  -8   2    4.18    0.49
  -4   8  -2    0.02    0.06
   4  -8   2   -0.02    0.07
   4  -8   2    0.06    0.11
   7   7  -2   -0.02    0.07
   7   7  -2   -0.08    0.09
  -7  -7   2    0.10    0.12
   6   7  -2    1.41    0.21
   6   7  -2    0.85    0.23
  -6  -7   2    1.41    0.28
  -6  -7   2    0.93    0.22
   5   7  -2    0.87    0.22
   5   7  -2    0.84    0.17
  -5  -7   2    0.40    0.16
  -5  -7   2    1.04    0.20
   4   7  -2    3.73    0.40
   4   7  -2    4.16    0.44
  -4  -7   2    4.43    0.46
  -4  -7   2    4.30    0.45
   3   7  -2    0.19    0.10
   3   7  -2    0.52    0.12
  -3  -7   2    0.47    0.13
  -3  -7   2    0.34    0.14
   2   7  -2   -0.02    0.04
   2   7  -2   -0.02    0.02
  -2  -7   2    0.07    0.07
  -2  -7   2   -0.01    0.07
   1   7  -2   19.03    1.73
   1   7  -2   24.59    1.76
  -1  -7   2   22.92    1.76
  -1  -7   2   20.55    1.81
   0   7  -2    5.36    0.50
   0   7  -2    5.39    0.49
   0  -7   2    5.56    0.50
   0  -7   2    5.78    0.57
  -1   7  -2    1.00    0.17
  -1   7  -2    1.00    0.15
   1  -7   2    1.28    0.25
   1  -7   2    1.26    0.16
  -2   7  -2    0.24    0.10
  -2   7  -2    0.12    0.07
   2  -7   2    0.41    0.15
   2  -7   2    0.26    0.09
  -3   7  -2    9.44    0.76
  -3   7  -2    7.84    0.77
   3  -7   2    7.95    0.83
   3  -7   2    9.53    0.78
  -4   7  -2    4.68    0.42
  -4   7  -2    3.66    0.44
   4  -7   2    4.17    0.44
   4  -7   2    3.77    0.48
  -5   7  -2    1.82    0.24
   5  -7   2    2.26    0.36
   5  -7   2    1.56    0.29
   7   6  -2    8.44    0.85
   7   6  -2    8.45    0.78
  -7  -6   2    8.46    0.86
   6   6  -2    2.13    0.29
   6   6  -2    2.01    0.36
  -6  -6   2    2.99    0.37
  -6  -6   2    2.47    0.31
   5   6  -2   10.90    0.95
   5   6  -2   10.92    0.90
  -5  -6   2    9.41    0.94
  -5  -6   2    9.76    0.91
   4   6  -2    7.36    0.69
   4   6  -2    8.58    0.67
  -4  -6   2    6.49    0.68
  -4  -6   2    7.05    0.70
   3   6  -2    5.48    0.52
   3   6  -2    6.79    0.59
   3   6  -2    6.79    0.55
  -3  -6   2    6.00    0.58
  -3  -6   2    5.82    0.58
   2   6  -2    1.82    0.21
   2   6  -2    1.22    0.15
  -2  -6   2    1.67    0.20
  -2  -6   2    1.78    0.23
   1   6  -2    0.24    0.07
   1   6  -2    0.19    0.03
   1   6  -2    0.08    0.06
   1   6  -2    0.20    0.03
  -1  -6   2    0.30    0.08
  -1  -6   2   -0.01    0.06
   0   6  -2    0.37    0.08
   0   6  -2    0.27    0.08
   0  -6   2    0.32    0.11
   0  -6   2    0.28    0.08
  -1   6  -2    1.55    0.17
  -1   6  -2    1.13    0.17
   1  -6   2    1.55    0.23
   1  -6   2    2.05    0.19
  -2   6  -2   21.68    1.58
  -2   6  -2   19.39    1.55
  -2   6  -2   20.07    1.53
   2  -6   2   18.43    1.51
   2  -6   2   18.44    1.63
   2  -6   2   18.32    1.56
  -3   6  -2    1.39    0.20
  -3   6  -2    1.78    0.20
  -3   6  -2    1.64    0.19
   3  -6   2    1.78    0.21
   3  -6   2    1.68    0.29
  -4   6  -2   21.00    1.62
  -4   6  -2   18.15    1.53
  -4   6  -2   17.97    1.50
   4  -6   2   20.22    1.59
   4  -6   2   16.15    1.52
  -5   6  -2   17.73    1.42
  -5   6  -2   16.01    1.35
   5  -6   2   15.44    1.41
   5  -6   2   16.06    1.40
   7   5  -2   11.36    1.02
   7   5  -2   10.25    0.93
  -7  -5   2    9.99    1.01
   6   5  -2    5.31    0.54
   6   5  -2    4.66    0.47
  -6  -5   2    5.53    0.55
  -6  -5   2    3.78    0.45
   5   5  -2    0.62    0.17
   5   5  -2    0.53    0.14
  -5  -5   2    0.48    0.16
  -5  -5   2    0.36    0.12
   4   5  -2    0.05    0.05
   4   5  -2    0.15    0.09
  -4  -5   2    0.00    0.07
  -4  -5   2    0.02    0.07
   3   5  -2    0.60    0.11
   3   5  -2    0.67    0.15
   3   5  -2    0.70    0.13
  -3  -5   2    0.57    0.14
  -3  -5   2    0.71    0.15
   2   5  -2    6.09    0.54
   2   5  -2    6.96    0.52
   2   5  -2    6.54    0.56
  -2  -5   2    5.49    0.56
  -2  -5   2    5.93    0.58
  -2  -5   2    5.96    0.57
   1   5  -2    9.07    0.71
   1   5  -2    8.96    0.76
   1   5  -2   10.13    0.75
  -1  -5   2   10.07    0.81
  -1  -5   2    8.21    0.76
  -1  -5   2    8.12    0.77
   0   5  -2    4.36    0.34
   0   5  -2    3.79    0.34
   0  -5   2    3.53    0.39
   0  -5   2    3.46    0.34
   0  -5   2    3.35    0.35
  -1   5  -2   24.98    1.81
  -1   5  -2   22.08    1.80
   1  -5   2   21.95    1.87
   1  -5   2   21.30    1.81
   1  -5   2   23.84    1.83
  -2   5  -2    2.47    0.23
  -2   5  -2    1.84    0.19
  -2   5  -2    2.18    0.21
   2  -5   2    2.05    0.17
   2  -5   2    2.40    0.23
   2  -5   2    1.88    0.26
   2  -5   2    1.45    0.20
  -3   5  -2    4.60    0.42
  -3   5  -2    4.99    0.42
  -3   5  -2    5.01    0.44
   3  -5   2    3.98    0.46
   3  -5   2    4.34    0.43
   3  -5   2    4.58    0.39
  -4   5  -2    3.77    0.35
  -4   5  -2    2.75    0.35
  -4   5  -2    3.87    0.36
   4  -5   2    3.08    0.35
   4  -5   2    4.07    0.41
  -5   5  -2    0.44    0.14
  -5   5  -2    0.27    0.09
  -5   5  -2    0.38    0.11
   5  -5   2    0.29    0.13
   5  -5   2    0.24    0.12
   5  -5   2    0.15    0.09
  -6   5  -2    2.37    0.36
   6  -5   2    2.29    0.34
   6  -5   2    3.25    0.36
   6  -5   2    2.26    0.32
   8   4  -2    3.96    0.46
   8   4  -2    4.29    0.55
  -8  -4   2    6.13    0.61
   7   4  -2    0.57    0.19
   7   4  -2    0.41    0.14
  -7  -4   2    0.74    0.22
   6   4  -2    1.11    0.25
   6   4  -2    0.86    0.18
  -6  -4   2    0.74    0.21
  -6  -4   2    1.48    0.21
   5   4  -2    2.15    0.27
   5   4  -2    2.34    0.32
  -5  -4   2    3.60    0.37
  -5  -4   2    2.97    0.32
   4   4  -2    1.11    0.16
   4   4  -2    1.10    0.20
  -4  -4   2    1.19    0.18
  -4  -4   2    1.10    0.22
   3   4  -2    5.19    0.47
   3   4  -2    5.28    0.51
   3   4  -2    5.05    0.47
  -3  -4   2    4.71    0.50
  -3  -4   2    5.49    0.55
  -3  -4   2    7.44    0.54
   2   4  -2    0.33    0.10
   2   4  -2    0.45    0.10
   2   4  -2    0.38    0.07
   2   4  -2    0.46    0.09
  -2  -4   2    0.32    0.10
  -2  -4   2    0.43    0.11
  -2  -4   2    0.30    0.09
   1   4  -2   53.00    4.17
   1   4  -2   49.19    4.20
   1   4  -2   50.65    4.24
  -1  -4   2   59.74    4.23
  -1  -4   2   57.75    4.22
  -1  -4   2   54.19    4.24
   0   4  -2    1.61    0.17
   0   4  -2    1.55    0.16
   0  -4   2    1.94    0.19
   0  -4   2    1.51    0.17
   0  -4   2    1.53    0.20
  -1   4  -2   19.20    1.63
  -1   4  -2   23.40    1.64
   1  -4   2   20.04    1.64
   1  -4   2   21.33    1.69
   1  -4   2   19.81    1.63
  -2   4  -2    0.17    0.05
  -2   4  -2    0.13    0.05
  -2   4  -2    0.23    0.06
   2  -4   2    0.40    0.05
   2  -4   2    0.19    0.06
   2  -4   2    0.12    0.05
   2  -4   2    0.15    0.08
  -3   4  -2    0.72    0.13
  -3   4  -2    0.97    0.15
  -3   4  -2    0.73    0.12
   3  -4   2    0.76    0.12
   3  -4   2    0.78    0.16
   3  -4   2    0.79    0.10
   3  -4   2    0.57    0.12
  -4   4  -2   18.84    1.44
  -4   4  -2   16.69    1.45
  -4   4  -2   21.82    1.49
   4  -4   2   15.51    1.45
   4  -4   2   16.51    1.48
  -5   4  -2    0.55    0.15
  -5   4  -2    0.78    0.17
   5  -4   2    0.54    0.15
   5  -4   2    0.66    0.16
   5  -4   2    0.55    0.15
  -6   4  -2    0.85    0.20
   6  -4   2    0.45    0.15
   6  -4   2    0.77    0.18
   6  -4   2    0.57    0.17
   7  -4   2   -0.05    0.08
   7  -4   2   -0.01    0.09
   8   3  -2    2.62    0.44
   8   3  -2    3.03    0.35
  -8  -3   2    2.04    0.41
   7   3  -2    0.76    0.17
   7   3  -2    0.76    0.22
  -7  -3   2    0.47    0.20
  -7  -3   2    0.57    0.22
  -7  -3   2    0.76    0.20
   6   3  -2    0.61    0.14
   6   3  -2    0.73    0.20
  -6  -3   2    0.89    0.22
  -6  -3   2    0.33    0.17
  -6  -3   2    0.89    0.18
   5   3  -2    3.14    0.33
   5   3  -2    3.29    0.39
  -5  -3   2    3.46    0.39
  -5  -3   2    2.83    0.34
  -5  -3   2    3.89    0.39
   4   3  -2    0.37    0.10
   4   3  -2    0.30    0.12
  -4  -3   2    0.46    0.12
  -4  -3   2    0.34    0.10
  -4  -3   2    0.32    0.12
   3   3  -2   18.43    1.52
   3   3  -2   18.34    1.51
   3   3  -2   23.06    1.57
  -3  -3   2   19.07    1.54
  -3  -3   2   19.23    1.56
  -3  -3   2   18.30    1.55
  -3  -3   2   17.25    1.53
  -3  -3   2   19.52    1.55
   2   3  -2   39.40    3.40
   2   3  -2   42.33    3.36
   2   3  -2   48.96    3.41
   2   3  -2   40.13    3.37
  -2  -3   2   45.47    3.41
  -2  -3   2   43.84    3.41
  -2  -3   2   43.53    3.38
  -2  -3   2   43.43    3.40
   1   3  -2    8.77    0.63
   1   3  -2    7.83    0.68
   1   3  -2    6.81    0.68
   1   3  -2    7.41    0.66
  -1  -3   2    8.29    0.67
  -1  -3   2    8.61    0.67
  -1  -3   2    7.21    0.69
  -1  -3   2    8.29    0.66
   0   3  -2   21.74    1.77
   0   3  -2   20.26    1.74
   0   3  -2   23.79    1.73
   0   3  -2   20.40    1.72
   0  -3   2   24.19    1.73
   0  -3   2   24.00    1.77
   0  -3   2   19.96    1.73
  -1   3  -2    3.39    0.30
  -1   3  -2    3.88    0.30
  -1   3  -2    3.30    0.30
  -1   3  -2    2.77    0.33
   1  -3   2    3.68    0.34
   1  -3   2    3.13    0.29
   1  -3   2    3.35    0.27
   1  -3   2    3.68    0.30
   1  -3   2    3.15    0.30
  -2   3  -2    8.47    0.76
  -2   3  -2    9.76    0.82
  -2   3  -2    9.60    0.76
  -2   3  -2   10.42    0.77
   2  -3   2   10.17    0.76
   2  -3   2    9.14    0.76
   2  -3   2    8.86    0.80
   2  -3   2    9.38    0.74
   2  -3   2    8.42    0.75
  -3   3  -2   20.38    1.75
  -3   3  -2   19.56    1.74
  -3   3  -2   22.45    1.76
   3  -3   2   21.47    1.73
   3  -3   2   23.35    1.76
   3  -3   2   22.34    1.79
   3  -3   2   24.79    1.75
  -4   3  -2    2.20    0.25
  -4   3  -2    2.13    0.23
  -4   3  -2    2.41    0.26
   4  -3   2    2.44    0.27
   4  -3   2    2.32    0.25
   4  -3   2    1.72    0.22
  -5   3  -2    3.42    0.37
  -5   3  -2    3.16    0.37
   5  -3   2    3.90    0.38
   5  -3   2    2.79    0.35
   5  -3   2    3.75    0.38
  -6   3  -2    0.39    0.14
   6  -3   2    0.46    0.14
   6  -3   2    0.27    0.12
   6  -3   2    0.18    0.11
  -7   3  -2    0.28    0.15
   7  -3   2    0.32    0.14
   7  -3   2    0.54    0.18
   8   2  -2    0.40    0.12
   8   2  -2    0.15    0.16
  -8  -2   2    0.02    0.13
   7   2  -2    0.29    0.15
   7   2  -2    0.17    0.10
  -7  -2   2    0.21    0.15
   6   2  -2    1.43    0.19
   6   2  -2    1.04    0.25
  -6  -2   2    1.08    0.25
  -6  -2   2    1.38    0.27
   5   2  -2    0.04    0.05
   5   2  -2    0.03    0.08
  -5  -2   2    0.02    0.07
  -5  -2   2    0.18    0.09
   4   2  -2    0.02    0.04
   4   2  -2    0.13    0.08
  -4  -2   2    0.01    0.04
  -4  -2   2    0.12    0.07
   3   2  -2   27.19    2.26
   3   2  -2   26.18    2.29
   3   2  -2   32.77    2.27
  -3  -2   2   31.91    2.30
  -3  -2   2   26.54    2.26
  -3  -2   2   29.79    2.31
  -3  -2   2   27.46    2.28
   2   2  -2   11.16    1.00
   2   2  -2   11.15    1.00
   2   2  -2   11.73    0.98
   2   2  -2   13.52    0.99
  -2  -2   2   12.31    1.02
  -2  -2   2   13.51    1.00
  -2  -2   2   11.59    1.01
  -2  -2   2   14.90    1.00
  -2  -2   2   10.56    1.00
   1   2  -2    8.64    0.67
   1   2  -2    7.32    0.64
   1   2  -2    7.35    0.62
   1   2  -2    8.14    0.65
  -1  -2   2    7.91    0.65
  -1  -2   2    7.09    0.66
  -1  -2   2    9.01    0.65
  -1  -2   2    7.83    0.63
  -1  -2   2    7.66    0.63
   0   2  -2   22.66    2.00
   0   2  -2   23.41    2.03
   0   2  -2   25.73    2.00
   0   2  -2   25.92    2.01
   0  -2   2   24.64    2.01
   0  -2   2   30.43    2.05
   0  -2   2   27.93    2.01
  -1   2  -2    2.99    0.29
  -1   2  -2    3.00    0.25
  -1   2  -2    2.85    0.25
  -1   2  -2    3.23    0.25
   1  -2   2    3.05    0.25
   1  -2   2    3.01    0.24
   1  -2   2    2.63    0.28
   1  -2   2    2.68    0.25
   1  -2   2    2.53    0.25
  -2   2  -2    3.62    0.35
  -2   2  -2    3.83    0.38
  -2   2  -2    4.02    0.35
  -2   2  -2    4.63    0.36
   2  -2   2    4.52    0.35
   2  -2   2    4.42    0.35
   2  -2   2    3.82    0.34
   2  -2   2    4.21    0.38
   2  -2   2    3.79    0.35
  -3   2  -2    0.69    0.11
  -3   2  -2    1.06    0.13
  -3   2  -2    1.02    0.16
  -3   2  -2    1.11    0.13
   3  -2   2    0.86    0.11
   3  -2   2    1.05    0.14
   3  -2   2    0.77    0.12
   3  -2   2    0.74    0.11
   3  -2   2    0.66    0.10
  -4   2  -2    0.15    0.06
  -4   2  -2    0.04    0.06
   4  -2   2    0.14    0.06
   4  -2   2    0.04    0.05
   4  -2   2    0.10    0.06
   4  -2   2    0.08    0.05
  -5   2  -2    0.07    0.07
  -5   2  -2    0.12    0.08
   5  -2   2    0.01    0.05
   5  -2   2    0.01    0.05
   5  -2   2   -0.04    0.04
  -6   2  -2    0.92    0.21
   6  -2   2    0.89    0.21
   6  -2   2    1.39    0.24
   6  -2   2    1.27    0.21
  -7   2  -2    0.15    0.12
   7  -2   2    0.09    0.12
   7  -2   2    0.07    0.08
   8   1  -2    2.06    0.39
  -8  -1   2    2.90    0.47
  -8  -1   2    1.70    0.35
   7   1  -2    0.94    0.24
   7   1  -2    1.16    0.20
  -7  -1   2    1.92    0.34
  -7  -1   2    0.93    0.25
   6   1  -2    0.07    0.07
   6   1  -2   -0.08    0.07
  -6  -1   2    0.00    0.07
  -6  -1   2    0.01    0.06
   5   1  -2    1.00    0.21
   5   1  -2    1.13    0.15
  -5  -1   2    0.77    0.18
  -5  -1   2    1.08    0.22
   4   1  -2    2.72    0.32
  -4  -1   2    3.29    0.30
  -4  -1   2    2.99    0.33
  -4  -1   2    2.89    0.32
   3   1  -2   24.35    2.17
   3   1  -2   26.73    2.14
   3   1  -2   28.93    2.18
  -3  -1   2   24.33    2.14
  -3  -1   2   32.17    2.20
  -3  -1   2   28.54    2.17
   2   1  -2   12.11    1.07
   2   1  -2   14.04    1.05
   2   1  -2   11.53    1.05
   2   1  -2   15.50    1.09
  -2  -1   2   14.15    1.05
  -2  -1   2   11.01    1.06
  -2  -1   2   14.51    1.08
  -2  -1   2   13.22    1.06
   1   1  -2    0.04    0.02
   1   1  -2    0.01    0.02
   1   1  -2    0.00    0.03
   1   1  -2   -0.04    0.03
  -1  -1   2    0.00    0.02
  -1  -1   2   -0.05    0.02
  -1  -1   2    0.06    0.03
  -1  -1   2    0.09    0.04
   0   1  -2    1.00    0.11
   0   1  -2    1.14    0.09
   0   1  -2    1.12    0.10
   0   1  -2    0.93    0.13
   0   1  -2    1.00    0.10
   0  -1   2    1.07    0.09
   0  -1   2    1.16    0.10
   0  -1   2    1.00    0.11
   0  -1   2    0.98    0.13
   0  -1   2    1.11    0.11
  -1   1  -2    0.55    0.07
  -1   1  -2    0.74    0.10
  -1   1  -2    0.62    0.07
  -1   1  -2    0.53    0.06
   1  -1   2    0.63    0.07
   1  -1   2    0.54    0.07
   1  -1   2    0.94    0.10
   1  -1   2    0.71    0.07
  -2   1  -2    1.47    0.16
  -2   1  -2    1.57    0.18
  -2   1  -2    1.67    0.16
  -2   1  -2    1.89    0.16
   2  -1   2    1.98    0.17
   2  -1   2    1.43    0.15
   2  -1   2    1.73    0.16
   2  -1   2    1.63    0.17
   2  -1   2    1.76    0.18
  -3   1  -2    4.31    0.35
  -3   1  -2    3.82    0.35
  -3   1  -2    3.76    0.36
  -3   1  -2    4.05    0.34
   3  -1   2    4.29    0.34
   3  -1   2    3.39    0.35
   3  -1   2    4.44    0.36
   3  -1   2    4.01    0.34
   3  -1   2    3.44    0.35
   3  -1   2    3.35    0.35
  -4   1  -2   33.73    2.38
  -4   1  -2   32.17    2.40
  -4   1  -2   29.69    2.38
   4  -1   2   29.76    2.38
   4  -1   2   29.61    2.36
   4  -1   2   29.70    2.36
   4  -1   2   25.25    2.37
  -5   1  -2   22.67    1.62
  -5   1  -2   19.57    1.58
   5  -1   2   18.86    1.56
   5  -1   2   18.44    1.59
   5  -1   2   18.15    1.59
  -6   1  -2    3.95    0.43
   6  -1   2    3.96    0.41
   6  -1   2    3.40    0.40
  -7   1  -2    0.34    0.14
   7  -1   2    0.15    0.10
   7  -1   2    0.12    0.11
   8  -1   2    0.10    0.13
   8  -1   2   -0.09    0.09
   8   0  -2    0.10    0.13
  -8   0   2    0.06    0.12
  -8   0   2    0.14    0.12
   7   0  -2    2.98    0.34
   7   0  -2    2.45    0.44
  -7   0   2    3.01    0.42
  -7   0   2    4.37    0.47
   6   0  -2    0.52    0.13
   6   0  -2    0.60    0.18
  -6   0   2    0.48    0.16
  -6   0   2    0.45    0.15
   5   0  -2    0.03    0.04
   5   0  -2    0.02    0.07
  -5   0   2    0.10    0.08
  -5   0   2    0.07    0.07
   4   0  -2    8.75    0.75
   4   0  -2    8.10    0.79
  -4   0   2    9.55    0.80
  -4   0   2    9.20    0.80
  -4   0   2    9.63    0.76
   3   0  -2   77.43    6.06
   3   0  -2   79.04    6.09
   3   0  -2   73.97    6.07
   3   0  -2   73.53    6.10
  -3   0   2   73.73    6.08
  -3   0   2   83.42    6.06
  -3   0   2   83.93    6.10
  -3   0   2   81.21    6.09
   2   0  -2  133.44   10.01
   2   0  -2  119.23   10.03
   2   0  -2  147.84   10.04
   2   0  -2  135.97   10.02
  -2   0   2  147.26   10.04
  -2   0   2  120.93   10.01
  -2   0   2  123.82   10.03
  -2   0   2  111.30   10.03
   1   0  -2   16.10    1.27
   1   0  -2   15.91    1.27
   1   0  -2   17.02    1.25
   1   0  -2   16.65    1.26
  -1   0   2   16.12    1.27
  -1   0   2   16.71    1.26
  -1   0   2   15.65    1.25
  -1   0   2   14.20    1.27
   0   0  -2    0.03    0.02
   0   0  -2    0.05    0.02
   0   0  -2    0.04    0.02
   0   0   2    0.02    0.02
   0   0   2    0.03    0.02
   0   0   2    0.04    0.02
   0   0   2    0.05    0.02
  -1   0  -2  129.85   10.97
  -1   0  -2  157.80   10.96
  -1   0  -2  141.51   10.97
   1   0   2  132.85   10.96
   1   0   2  131.54   10.97
   1   0   2  160.68   10.96
   1   0   2  142.42   10.97
  -2   0  -2   55.90    4.31
  -2   0  -2   58.99    4.30
  -2   0  -2   51.74    4.30
   2   0   2   56.67    4.31
   2   0   2   60.94    4.31
   2   0   2   60.35    4.32
   2   0   2   51.14    4.30
   2   0   2   49.48    4.31
  -3   0  -2   20.36    1.82
  -3   0  -2   22.83    1.81
  -3   0  -2   27.35    1.82
   3   0   2   24.09    1.83
   3   0   2   23.38    1.81
   3   0   2   24.17    1.82
   3   0   2   19.70    1.80
   3   0   2   22.74    1.83
  -4   0  -2    6.14    0.50
  -4   0  -2    5.32    0.52
   4   0   2    4.77    0.50
   4   0   2    6.20    0.50
   4   0   2    6.20    0.52
   4   0   2    5.68    0.49
   4   0   2    6.40    0.53
  -5   0  -2    0.43    0.12
  -5   0  -2    0.65    0.11
   5   0   2    0.55    0.13
   5   0   2    0.41    0.12
   5   0   2    0.45    0.11
  -6   0  -2    1.40    0.17
  -6   0  -2    1.33    0.23
   6   0   2    0.78    0.20
   6   0   2    1.19    0.21
  -7   0  -2    0.52    0.17
   7   0   2    0.53    0.17
   7   0   2    0.36    0.14
  -8   0  -2    1.85    0.34
   8   0   2    1.92    0.29
   8   0   2    1.76    0.34
   7  -1  -2    1.17    0.21
   7  -1  -2    1.47    0.30
  -7   1   2    1.28    0.28
  -7   1   2    1.32    0.29
   6  -1  -2    0.27    0.10
   6  -1  -2    0.55    0.17
  -6   1   2    0.52    0.16
  -6   1   2    0.46    0.17
   5  -1  -2    1.16    0.21
   5  -1  -2    0.65    0.09
   5  -1  -2    0.73    0.13
  -5   1   2    0.48    0.15
  -5   1   2    0.63    0.16
   4  -1  -2    0.46    0.12
   4  -1  -2    0.33    0.07
  -4   1   2    0.19    0.09
  -4   1   2    0.37    0.11
   3  -1  -2   19.96    1.66
   3  -1  -2   24.59    1.69
   3  -1  -2   21.30    1.64
  -3   1   2   20.62    1.66
  -3   1   2   18.38    1.67
  -3   1   2   20.27    1.67
  -3   1   2   21.39    1.64
  -3   1   2   20.14    1.66
   2  -1  -2  127.97    9.62
   2  -1  -2  128.86    9.63
   2  -1  -2  125.44    9.63
  -2   1   2  123.60    9.63
  -2   1   2  108.01    9.60
  -2   1   2  131.92    9.64
  -2   1   2  127.99    9.63
   1  -1  -2  305.43   23.68
   1  -1  -2  306.94   23.66
   1  -1  -2  336.07   23.69
   1  -1  -2  307.10   23.65
  -1   1   2  290.74   23.75
  -1   1   2  303.69   23.69
  -1   1   2  310.74   23.67
  -1   1   2  299.38   23.73
   0  -1  -2   23.59    1.90
   0  -1  -2   23.20    1.90
   0  -1  -2   23.43    1.91
   0   1   2   24.96    1.90
   0   1   2   25.14    1.91
   0   1   2   26.88    1.90
   0   1   2   25.92    1.90
   0   1   2   23.75    1.90
  -1  -1  -2    3.29    0.26
  -1  -1  -2    3.11    0.27
   1   1   2    3.20    0.26
   1   1   2    3.09    0.27
  -2  -1  -2   13.91    1.15
  -2  -1  -2   14.29    1.12
  -2  -1  -2   13.79    1.13
  -2  -1  -2   16.42    1.14
   2   1   2   13.44    1.14
   2   1   2   13.79    1.14
   2   1   2   14.97    1.12
  -3  -1  -2   15.96    1.11
  -3  -1  -2   14.40    1.07
  -3  -1  -2   11.73    1.09
  -3  -1  -2   13.46    1.10
   3   1   2   13.64    1.11
   3   1   2   13.20    1.10
   3   1   2   12.02    1.09
   3   1   2   13.93    1.06
   3   1   2   14.09    1.12
  -4  -1  -2    0.61    0.08
  -4  -1  -2    0.62    0.12
   4   1   2    0.77    0.14
   4   1   2    0.56    0.12
   4   1   2    0.57    0.12
  -5  -1  -2    2.66    0.26
  -5  -1  -2    2.35    0.30
   5   1   2    3.12    0.32
   5   1   2    3.30    0.31
   5   1   2    3.08    0.32
  -6  -1  -2    0.49    0.14
  -6  -1  -2    0.48    0.10
   6   1   2    0.42    0.13
   6   1   2    0.60    0.16
  -7  -1  -2    2.74    0.33
   7   1   2    1.92    0.34
  -8  -1  -2    6.91    0.69
   8   1   2    5.60    0.63
   8   1   2    6.90    0.67
   7  -2  -2    0.18    0.15
  -7   2   2    0.51    0.20
  -7   2   2    0.41    0.18
   6  -2  -2    0.07    0.09
   6  -2  -2    0.01    0.05
  -6   2   2    0.00    0.08
  -6   2   2    0.08    0.09
   5  -2  -2    2.45    0.23
   5  -2  -2    2.88    0.33
  -5   2   2    2.02    0.31
  -5   2   2    3.55    0.35
   4  -2  -2    5.92    0.44
   4  -2  -2    5.39    0.47
   4  -2  -2    5.13    0.52
  -4   2   2    5.17    0.52
  -4   2   2    4.98    0.51
   3  -2  -2   50.92    3.72
   3  -2  -2   49.59    3.79
   3  -2  -2   47.62    3.75
  -3   2   2   46.86    3.79
  -3   2   2   48.82    3.79
  -3   2   2   47.44    3.78
  -3   2   2   46.17    3.77
   2  -2  -2   21.87    1.54
   2  -2  -2   17.21    1.54
   2  -2  -2   19.03    1.50
   2  -2  -2   19.69    1.52
   2  -2  -2   19.38    1.53
  -2   2   2   21.40    1.55
  -2   2   2   19.90    1.54
  -2   2   2   18.70    1.54
  -2   2   2   18.05    1.55
   1  -2  -2   37.06    2.95
   1  -2  -2   36.53    2.95
   1  -2  -2   42.04    2.96
  -1   2   2   35.32    2.95
  -1   2   2   40.20    2.95
  -1   2   2   35.36    2.97
  -1   2   2   39.74    2.96
   0  -2  -2   30.06    2.26
   0  -2  -2   28.88    2.25
   0  -2  -2   28.16    2.26
   0   2   2   27.47    2.27
   0   2   2   29.37    2.26
   0   2   2   30.36    2.25
   0   2   2   28.00    2.26
   0   2   2   30.64    2.26
  -1  -2  -2   67.86    5.87
  -1  -2  -2   74.95    5.86
  -1  -2  -2   69.43    5.86
   1   2   2   83.55    5.86
   1   2   2   72.18    5.87
   1   2   2   88.22    5.87
   1   2   2   76.24    5.86
  -2  -2  -2    0.34    0.07
  -2  -2  -2    0.37    0.08
  -2  -2  -2    0.40    0.08
   2   2   2    0.40    0.04
   2   2   2    0.33    0.07
   2   2   2    0.36    0.07
   2   2   2    0.51    0.07
  -3  -2  -2    7.82    0.68
  -3  -2  -2    7.54    0.67
   3   2   2    7.48    0.68
   3   2   2    8.38    0.68
   3   2   2    9.83    0.70
   3   2   2    7.81    0.68
  -4  -2  -2   32.90    2.49
  -4  -2  -2   29.12    2.55
   4   2   2   33.02    2.56
   4   2   2   30.56    2.55
   4   2   2   35.49    2.57
  -5  -2  -2   10.47    0.96
  -5  -2  -2   11.79    0.89
   5   2   2   11.48    0.97
   5   2   2   10.66    0.95
  -6  -2  -2    9.68    0.92
  -6  -2  -2   10.76    0.83
   6   2   2    9.23    0.90
   6   2   2   11.28    0.93
  -7  -2  -2    0.56    0.17
   7   2   2    0.73    0.18
   7   2   2    0.87    0.19
  -8  -2  -2    0.76    0.22
   8   2   2    0.68    0.21
   8   2   2    0.60    0.17
   7  -3  -2    2.59    0.38
  -7   3   2    2.81    0.40
  -7   3   2    2.63    0.39
   6  -3  -2    1.11    0.23
   6  -3  -2    1.21    0.18
  -6   3   2    0.91    0.21
  -6   3   2    0.61    0.20
   5  -3  -2    1.53    0.20
   5  -3  -2    1.78    0.25
  -5   3   2    1.98    0.26
  -5   3   2    1.89    0.29
   4  -3  -2    0.55    0.14
   4  -3  -2    0.53    0.06
   4  -3  -2    0.43    0.10
  -4   3   2    0.50    0.14
  -4   3   2    0.45    0.13
   3  -3  -2   15.95    1.19
   3  -3  -2   14.89    1.25
   3  -3  -2   14.62    1.21
  -3   3   2   16.60    1.26
  -3   3   2   14.07    1.24
   2  -3  -2   82.96    6.35
   2  -3  -2   81.92    6.36
   2  -3  -2   81.32    6.37
  -2   3   2   78.59    6.36
  -2   3   2   84.26    6.39
  -2   3   2   90.45    6.36
  -2   3   2   77.80    6.33
  -2   3   2   80.53    6.37
   1  -3  -2  102.08    7.54
   1  -3  -2  100.93    7.52
   1  -3  -2   95.36    7.54
   1  -3  -2   97.33    7.53
   1  -3  -2   95.12    7.56
  -1   3   2   96.40    7.57
  -1   3   2   93.47    7.54
  -1   3   2   99.71    7.51
  -1   3   2   98.27    7.54
   0  -3  -2   21.20    1.58
   0  -3  -2   21.71    1.58
   0  -3  -2   19.28    1.57
   0  -3  -2   17.61    1.59
   0  -3  -2   21.16    1.58
   0   3   2   20.42    1.57
   0   3   2   20.39    1.58
   0   3   2   19.59    1.57
   0   3   2   20.59    1.57
   0   3   2   19.14    1.59
  -1  -3  -2   15.15    1.26
  -1  -3  -2   15.20    1.26
  -1  -3  -2   16.96    1.26
  -1  -3  -2   15.22    1.26
   1   3   2   17.17    1.26
   1   3   2   15.68    1.26
   1   3   2   17.75    1.27
   1   3   2   14.99    1.26
  -2  -3  -2   55.74    4.22
  -2  -3  -2   52.63    4.18
  -2  -3  -2   56.28    4.21
   2   3   2   54.91    4.21
   2   3   2   53.08    4.19
   2   3   2   47.25    4.21
   2   3   2   60.38    4.22
  -3  -3  -2   32.27    2.73
  -3  -3  -2   29.94    2.72
  -3  -3  -2   38.67    2.74
   3   3   2   34.77    2.73
   3   3   2   38.52    2.74
  -4  -3  -2    3.43    0.36
   4   3   2    4.05    0.37
   4   3   2    3.46    0.35
   4   3   2    3.42    0.35
  -5  -3  -2   11.05    0.97
   5   3   2   13.18    0.99
   5   3   2   10.35    0.95
   5   3   2   10.40    0.95
  -6  -3  -2    6.43    0.52
  -6  -3  -2    6.01    0.64
  -6  -3  -2    6.57    0.53
   6   3   2    7.33    0.63
   6   3   2    7.26    0.65
  -7  -3  -2   -0.04    0.07
   7   3   2   -0.03    0.06
   7   3   2    0.00    0.08
  -8  -3  -2    0.15    0.14
   8   3   2    0.04    0.10
   8   3   2    0.05    0.10
   7  -4  -2   -0.08    0.10
  -7   4   2    0.00    0.09
   6  -4  -2    0.04    0.10
  -6   4   2    0.12    0.09
  -6   4   2    0.16    0.12
   5  -4  -2    1.91    0.31
   5  -4  -2    2.09    0.23
  -5   4   2    2.16    0.29
  -5   4   2    1.50    0.28
   4  -4  -2    1.16    0.11
   4  -4  -2    1.27    0.21
   4  -4  -2    1.08    0.15
  -4   4   2    1.20    0.21
  -4   4   2    1.07    0.20
   3  -4  -2    0.26    0.09
   3  -4  -2    0.31    0.07
  -3   4   2    0.27    0.08
  -3   4   2    0.32    0.10
   2  -4  -2   16.12    1.27
   2  -4  -2   15.82    1.30
   2  -4  -2   16.88    1.25
  -2   4   2   15.65    1.23
  -2   4   2   16.13    1.26
  -2   4   2   14.56    1.26
  -2   4   2   14.74    1.27
   1  -4  -2   14.35    1.14
   1  -4  -2   13.71    1.12
   1  -4  -2   15.94    1.18
   1  -4  -2   13.63    1.13
   1  -4  -2   12.24    1.14
  -1   4   2   13.56    1.11
  -1   4   2   17.50    1.19
  -1   4   2   12.69    1.13
  -1   4   2   16.16    1.15
  -1   4   2   15.27    1.15
   0  -4  -2   10.68    0.92
   0  -4  -2   12.77    0.92
   0  -4  -2   13.36    0.95
   0  -4  -2   12.18    0.92
   0   4   2   12.01    0.95
   0   4   2   10.20    0.91
   0   4   2   10.65    0.92
   0   4   2   11.04    0.90
   0   4   2   10.96    0.91
  -1  -4  -2    1.68    0.18
  -1  -4  -2    1.83    0.19
  -1  -4  -2    2.21    0.20
  -1  -4  -2    1.67    0.19
   1   4   2    2.12    0.20
   1   4   2    2.20    0.20
   1   4   2    1.85    0.18
   1   4   2    1.75    0.18
  -2  -4  -2   -0.04    0.02
  -2  -4  -2   -0.01    0.02
  -2  -4  -2    0.08    0.04
  -2  -4  -2    0.02    0.03
   2   4   2    0.03    0.03
   2   4   2    0.06    0.05
   2   4   2    0.02    0.04
   2   4   2    0.02    0.03
  -3  -4  -2    8.78    0.72
  -3  -4  -2    8.08    0.67
  -3  -4  -2    9.88    0.73
  -3  -4  -2    9.93    0.73
   3   4   2    8.74    0.68
   3   4   2    7.26    0.72
   3   4   2    7.79    0.71
   3   4   2    7.23    0.71
  -4  -4  -2   25.12    1.76
  -4  -4  -2   20.86    1.66
   4   4   2   23.02    1.74
   4   4   2   19.39    1.72
   4   4   2   19.77    1.73
  -5  -4  -2   17.40    1.31
   5   4   2   13.42    1.26
   5   4   2   15.35    1.28
  -6  -4  -2    0.51    0.16
   6   4   2    0.72    0.16
   6   4   2    0.77    0.18
  -7  -4  -2    1.26    0.28
   7   4   2    1.19    0.24
   7   4   2    2.12    0.28
  -8  -4  -2    1.90    0.36
   8   4   2    2.25    0.32
   8   4   2    2.41    0.35
   6  -5  -2    0.25    0.14
  -6   5   2    0.44    0.17
  -6   5   2    0.02    0.12
   5  -5  -2    0.04    0.05
   5  -5  -2   -0.05    0.07
  -5   5   2   -0.03    0.08
  -5   5   2    0.02    0.06
   4  -5  -2    0.12    0.06
   4  -5  -2    0.14    0.09
  -4   5   2    0.10    0.08
  -4   5   2    0.15    0.09
   3  -5  -2    0.34    0.13
   3  -5  -2    0.92    0.16
  -3   5   2    1.00    0.16
  -3   5   2    0.63    0.13
  -3   5   2    0.73    0.09
   2  -5  -2    2.09    0.22
   2  -5  -2    2.46    0.26
   2  -5  -2    2.10    0.19
  -2   5   2    1.69    0.21
  -2   5   2    1.92    0.18
  -2   5   2    2.21    0.21
   1  -5  -2    2.19    0.22
   1  -5  -2    2.01    0.24
   1  -5  -2    2.00    0.20
   1  -5  -2    2.45    0.20
  -1   5   2    2.15    0.22
  -1   5   2    2.11    0.19
  -1   5   2    2.20    0.20
  -1   5   2    1.82    0.21
   0  -5  -2    2.28    0.21
   0  -5  -2    2.11    0.21
   0  -5  -2    1.85    0.20
   0  -5  -2    2.16    0.24
   0   5   2    1.83    0.21
   0   5   2    2.47    0.25
   0   5   2    1.97    0.20
   0   5   2    2.03    0.19
  -1  -5  -2    1.09    0.13
  -1  -5  -2    0.91    0.13
  -1  -5  -2    0.89    0.12
  -1  -5  -2    1.14    0.14
   1   5   2    0.92    0.13
   1   5   2    0.89    0.12
   1   5   2    1.03    0.12
   1   5   2    0.89    0.13
  -2  -5  -2    0.61    0.13
  -2  -5  -2    0.29    0.08
  -2  -5  -2    0.25    0.08
  -2  -5  -2    0.33    0.08
   2   5   2    0.35    0.08
   2   5   2    0.50    0.10
   2   5   2    0.27    0.08
   2   5   2    0.53    0.12
  -3  -5  -2    3.86    0.31
  -3  -5  -2    3.65    0.35
   3   5   2    2.95    0.33
   3   5   2    3.68    0.34
   3   5   2    3.02    0.34
   3   5   2    3.22    0.31
  -4  -5  -2    0.29    0.06
  -4  -5  -2    0.51    0.13
   4   5   2    0.61    0.13
   4   5   2    0.60    0.13
  -5  -5  -2    0.02    0.02
  -5  -5  -2   -0.02    0.07
   5   5   2    0.04    0.07
   5   5   2    0.02    0.06
  -6  -5  -2    1.80    0.26
   6   5   2    1.51    0.23
   6   5   2    1.47    0.27
  -7  -5  -2    0.15    0.11
   7   5   2   -0.05    0.09
   7   5   2   -0.12    0.05
  -8  -5  -2   -0.14    0.09
   8   5   2    0.06    0.08
   8   5   2    0.00    0.10
   6  -6  -2    0.27    0.13
  -6   6   2    0.25    0.13
  -6   6   2    0.17    0.13
   5  -6  -2    1.06    0.24
  -5   6   2    1.90    0.26
  -5   6   2    1.57    0.27
   4  -6  -2    1.80    0.22
   4  -6  -2    2.26    0.29
   4  -6  -2    1.64    0.25
  -4   6   2    1.72    0.26
  -4   6   2    1.77    0.25
   3  -6  -2    0.08    0.07
   3  -6  -2    0.06    0.06
  -3   6   2    0.06    0.06
  -3   6   2    0.01    0.06
  -3   6   2    0.01    0.03
   2  -6  -2   22.13    1.76
   2  -6  -2   19.89    1.79
   2  -6  -2   23.35    1.73
  -2   6   2   19.41    1.75
  -2   6   2   22.60    1.71
  -2   6   2   22.58    1.74
   1  -6  -2   13.30    1.11
   1  -6  -2   12.30    1.15
   1  -6  -2   13.40    1.10
   1  -6  -2   13.71    1.09
  -1   6   2   15.66    1.12
  -1   6   2   13.71    1.09
  -1   6   2   13.31    1.08
   0  -6  -2    0.02    0.03
   0  -6  -2   -0.03    0.03
   0  -6  -2    0.03    0.05
   0   6   2   -0.03    0.03
   0   6   2    0.07    0.03
  -1  -6  -2   -0.02    0.03
  -1  -6  -2    0.03    0.04
   1   6   2   -0.03    0.02
   1   6   2    0.03    0.05
   1   6   2    0.01    0.04
   1   6   2   -0.01    0.02
  -2  -6  -2    0.07    0.05
  -2  -6  -2    0.02    0.04
   2   6   2   -0.01    0.03
   2   6   2   -0.02    0.03
   2   6   2    0.08    0.06
   2   6   2    0.03    0.05
  -3  -6  -2   11.53    0.96
  -3  -6  -2   12.55    0.94
   3   6   2   10.60    0.94
   3   6   2   10.62    0.94
   3   6   2   11.25    0.96
  -4  -6  -2    0.13    0.05
  -4  -6  -2    0.09    0.08
   4   6   2    0.10    0.06
   4   6   2    0.07    0.05
   4   6   2    0.03    0.06
  -5  -6  -2   13.98    1.16
  -5  -6  -2   11.98    1.05
   5   6   2   15.42    1.15
   5   6   2   13.03    1.14
  -6  -6  -2    2.74    0.35
   6   6   2    2.93    0.34
   6   6   2    2.75    0.35
  -7  -6  -2   -0.04    0.08
   7   6   2    0.23    0.12
   7   6   2    0.01    0.08
  -8  -6  -2    1.47    0.31
   8   6   2    1.24    0.28
   8   6   2    1.14    0.25
   5  -7  -2    1.96    0.33
  -5   7   2    2.13    0.31
  -5   7   2    2.11    0.31
   4  -7  -2    0.91    0.20
   4  -7  -2    0.60    0.18
  -4   7   2    1.20    0.21
  -4   7   2    0.35    0.14
   3  -7  -2    2.25    0.29
   3  -7  -2    2.11    0.31
  -3   7   2    2.79    0.29
  -3   7   2    2.14    0.29
  -3   7   2    2.68    0.24
   2  -7  -2    0.58    0.13
   2  -7  -2    0.50    0.15
  -2   7   2    0.31    0.11
  -2   7   2    0.59    0.08
  -2   7   2    0.61    0.12
   1  -7  -2    3.59    0.43
   1  -7  -2    4.05    0.40
  -1   7   2    3.84    0.40
  -1   7   2    4.85    0.37
  -1   7   2    4.58    0.38
   0  -7  -2    0.19    0.07
   0  -7  -2    0.48    0.13
   0   7   2    0.18    0.05
   0   7   2    0.20    0.07
  -1  -7  -2    2.18    0.25
  -1  -7  -2    2.69    0.29
   1   7   2    2.15    0.22
   1   7   2    2.52    0.24
   1   7   2    2.68    0.26
  -2  -7  -2    5.30    0.47
  -2  -7  -2    5.60    0.49
   2   7   2    4.59    0.45
   2   7   2    4.95    0.46
  -3  -7  -2   20.27    1.68
  -3  -7  -2   23.43    1.71
   3   7   2   20.57    1.69
   3   7   2   21.25    1.69
   3   7   2   19.06    1.68
  -4  -7  -2   27.69    2.19
  -4  -7  -2   27.31    2.24
   4   7   2   30.04    2.23
   4   7   2   28.16    2.21
   4   7   2   24.73    2.22
  -5  -7  -2   14.35    1.15
  -5  -7  -2   13.76    1.23
   5   7   2   15.26    1.23
   5   7   2   13.63    1.21
  -6  -7  -2    1.50    0.28
   6   7   2    1.88    0.25
   6   7   2    1.04    0.22
  -7  -7  -2    0.22    0.13
   7   7   2    0.01    0.08
   7   7   2    0.05    0.09
  -8  -7  -2    0.04    0.12
   8   7   2    0.07    0.13
   8   7   2    0.00    0.07
   4  -8  -2    0.56    0.20
   4  -8  -2    0.57    0.18
  -4   8   2    0.87    0.17
  -4   8   2    0.91    0.21
   3  -8  -2    0.03    0.07
   3  -8  -2   -0.03    0.08
  -3   8   2   -0.02    0.05
  -3   8   2    0.06    0.06
   2  -8  -2    0.75    0.19
   2  -8  -2    0.43    0.13
  -2   8   2    0.58    0.10
  -2   8   2    0.37    0.09
  -2   8   2    0.26    0.11
   1  -8  -2    0.08    0.08
   1  -8  -2    0.04    0.06
  -1   8   2    0.02    0.05
  -1   8   2    0.03    0.04
  -1   8   2   -0.02    0.03
   0  -8  -2    1.32    0.18
   0  -8  -2    1.54    0.26
   0   8   2    1.17    0.18
   0   8   2    1.75    0.16
   0   8   2    1.48    0.17
  -1  -8  -2    5.66    0.57
  -1  -8  -2    6.38    0.55
   1   8   2    6.04    0.50
   1   8   2    5.71    0.54
  -2  -8  -2   13.89    1.24
  -2  -8  -2   14.23    1.22
   2   8   2   14.51    1.18
   2   8   2   15.11    1.22
   2   8   2   15.76    1.21
  -3  -8  -2   12.56    1.01
  -3  -8  -2   10.46    0.99
   3   8   2   12.13    0.99
   3   8   2   12.03    1.00
  -4  -8  -2    3.87    0.42
  -4  -8  -2    3.74    0.39
   4   8   2    3.54    0.41
   4   8   2    5.51    0.45
  -5  -8  -2    3.28    0.34
  -5  -8  -2    3.27    0.40
   5   8   2    4.30    0.42
   5   8   2    3.75    0.39
  -6  -8  -2   -0.02    0.08
   6   8   2   -0.09    0.04
   6   8   2    0.00    0.07
  -7  -8  -2    2.23    0.32
   7   8   2    1.67    0.30
   7   8   2    1.93    0.29
   3  -9  -2    0.67    0.21
   3  -9  -2    0.99    0.21
  -3   9   2    1.32    0.23
   2  -9  -2    3.73    0.47
   2  -9  -2    4.32    0.43
  -2   9   2    3.98    0.40
  -2   9   2    4.28    0.38
  -2   9   2    4.26    0.44
   1  -9  -2    3.73    0.39
   1  -9  -2    3.97    0.45
  -1   9   2    3.60    0.35
  -1   9   2    4.24    0.37
  -1   9   2    3.90    0.40
   0  -9  -2    1.47    0.20
   0  -9  -2    1.57    0.28
   0   9   2    1.46    0.20
   0   9   2    1.52    0.17
   0   9   2    1.71    0.19
  -1  -9  -2   19.51    1.62
  -1  -9  -2   18.83    1.57
   1   9   2   19.28    1.57
   1   9   2   19.05    1.52
  -2  -9  -2    4.58    0.54
  -2  -9  -2    5.18    0.52
   2   9   2    5.90    0.48
   2   9   2    7.01    0.54
   2   9   2    5.28    0.51
  -3  -9  -2   15.44    1.24
  -3  -9  -2   14.65    1.24
   3   9   2   14.03    1.21
   3   9   2   14.35    1.23
  -4  -9  -2   16.53    1.52
  -4  -9  -2   18.78    1.51
   4   9   2   19.00    1.53
   4   9   2   18.64    1.51
  -5  -9  -2    2.79    0.36
  -5  -9  -2    2.43    0.34
   5   9   2    2.68    0.33
   5   9   2    3.17    0.35
  -6  -9  -2    0.69    0.19
   6   9   2    0.24    0.12
   6   9   2    0.11    0.12
  -7  -9  -2   -0.09    0.11
   7   9   2   -0.04    0.07
   7   9   2    0.01    0.09
   2 -10  -2    0.06    0.11
   2 -10  -2   -0.07    0.06
  -2  10   2    0.07    0.10
   1 -10  -2    0.12    0.09
   1 -10  -2    0.10    0.08
  -1  10   2    0.07    0.08
  -1  10   2    0.04    0.05
   0 -10  -2    3.43    0.38
   0 -10  -2    4.34    0.46
   0  10   2    3.72    0.35
   0  10   2    3.38    0.38
  -1 -10  -2    0.66    0.19
  -1 -10  -2    0.76    0.16
   1  10   2    0.63    0.14
   1  10   2    0.72    0.11
   1  10   2    0.72    0.13
  -2 -10  -2    1.65    0.24
  -2 -10  -2    1.37    0.20
   2  10   2    1.33    0.16
   2  10   2    1.23    0.21
  -3 -10  -2    1.37    0.24
  -3 -10  -2    1.52    0.26
   3  10   2    1.56    0.22
   3  10   2    1.86    0.19
   3  10   2    1.44    0.21
  -4 -10  -2    0.09    0.10
  -4 -10  -2   -0.03    0.06
   4  10   2    0.04    0.07
   4  10   2   -0.07    0.05
  -5 -10  -2    3.45    0.39
   5  10   2    3.28    0.37
   5  10   2    2.70    0.34
  -6 -10  -2    6.37    0.62
   6  10   2    5.23    0.59
   6  10   2    5.52    0.58
   1 -11  -2    0.42    0.14
   1 -11  -2    0.98    0.23
  -1  11   2    0.63    0.17
   0 -11  -2    2.64    0.33
   0 -11  -2    2.47    0.37
   0  11   2    2.81    0.33
   0  11   2    3.23    0.31
  -1 -11  -2    1.22    0.26
  -1 -11  -2    1.56    0.23
   1  11   2    1.55    0.20
   1  11   2    1.55    0.22
  -2 -11  -2    0.38    0.13
  -2 -11  -2    0.42    0.16
   2  11   2    0.29    0.11
  -3 -11  -2    0.19    0.10
  -3 -11  -2    0.19    0.10
   3  11   2    0.34    0.12
  -4 -11  -2    3.52    0.42
  -4 -11  -2    3.35    0.42
   4  11   2    4.13    0.42
   4  11   2    4.23    0.42
  -5 -11  -2    1.53    0.30
   5  11   2    2.28    0.29
   5  11   2    1.44    0.27
   2  10  -3    0.08    0.08
   2  10  -3    0.17    0.09
  -2 -10   3    0.08    0.11
  -2 -10   3    0.12    0.07
   1  10  -3    5.71    0.51
  -1 -10   3    4.88    0.51
  -1 -10   3    4.69    0.59
   4   9  -3    0.05    0.07
   4   9  -3    0.04    0.07
  -4  -9   3    0.13    0.11
  -4  -9   3    0.05    0.09
   3   9  -3    0.02    0.07
   3   9  -3    0.06    0.06
  -3  -9   3   -0.09    0.05
  -3  -9   3    0.01    0.10
   2   9  -3    2.43    0.29
   2   9  -3    3.16    0.32
  -2  -9   3    2.53    0.31
  -2  -9   3    2.36    0.35
   1   9  -3    0.13    0.08
   1   9  -3    0.09    0.07
  -1  -9   3    0.10    0.08
  -1  -9   3    0.03    0.10
   0   9  -3    4.53    0.43
   0   9  -3    4.36    0.43
   0  -9   3    3.89    0.43
   0  -9   3    4.45    0.52
  -1   9  -3    3.15    0.32
  -1   9  -3    2.81    0.40
   1  -9   3    2.74    0.40
   1  -9   3    2.51    0.31
  -2   9  -3   -0.02    0.06
   2  -9   3    0.02    0.07
   2  -9   3    0.03    0.10
   5   8  -3   -0.02    0.06
   5   8  -3   -0.02    0.08
  -5  -8   3    0.10    0.10
  -5  -8   3    0.08    0.10
   4   8  -3    7.77    0.72
  -4  -8   3    7.77    0.72
  -4  -8   3    6.74    0.73
   3   8  -3   -0.05    0.04
   3   8  -3    0.01    0.07
  -3  -8   3   -0.03    0.08
  -3  -8   3   -0.04    0.04
   2   8  -3   14.61    1.15
   2   8  -3   12.87    1.12
  -2  -8   3   11.32    1.19
  -2  -8   3   15.09    1.16
   1   8  -3   17.36    1.43
   1   8  -3   14.77    1.41
  -1  -8   3   19.76    1.54
  -1  -8   3   19.12    1.45
   0   8  -3    0.09    0.06
   0   8  -3    0.02    0.06
   0  -8   3    0.07    0.06
   0  -8   3    0.17    0.11
  -1   8  -3    1.80    0.23
  -1   8  -3    2.04    0.23
   1  -8   3    1.77    0.33
   1  -8   3    1.62    0.22
  -2   8  -3    0.02    0.05
  -2   8  -3    0.01    0.06
   2  -8   3    0.07    0.07
   2  -8   3    0.01    0.11
  -3   8  -3    0.17    0.09
   3  -8   3    0.08    0.08
   3  -8   3   -0.06    0.10
   6   7  -3    7.12    0.67
   6   7  -3    6.89    0.72
  -6  -7   3    7.20    0.71
  -6  -7   3    7.38    0.75
   5   7  -3    7.20    0.62
   5   7  -3    5.82    0.65
  -5  -7   3    5.72    0.64
  -5  -7   3    7.98    0.70
   4   7  -3    0.12    0.10
   4   7  -3    0.12    0.07
  -4  -7   3    0.08    0.09
  -4  -7   3    0.08    0.09
   3   7  -3    0.91    0.18
  -3  -7   3    1.20    0.21
  -3  -7   3    0.86    0.21
   2   7  -3    3.00    0.28
   2   7  -3    2.43    0.29
  -2  -7   3    2.27    0.29
  -2  -7   3    2.68    0.34
   1   7  -3   10.28    0.85
   1   7  -3   10.79    0.84
  -1  -7   3   10.07    0.92
  -1  -7   3    8.52    0.84
   0   7  -3    0.36    0.10
   0   7  -3    0.55    0.11
   0  -7   3    0.22    0.09
   0  -7   3    0.43    0.16
  -1   7  -3   54.91    4.31
  -1   7  -3   58.64    4.32
   1  -7   3   56.58    4.41
   1  -7   3   50.57    4.30
  -2   7  -3    2.28    0.24
  -2   7  -3    2.04    0.23
   2  -7   3    1.67    0.22
   2  -7   3    1.40    0.29
  -3   7  -3   18.56    1.43
  -3   7  -3   17.36    1.40
   3  -7   3   16.79    1.49
   3  -7   3   15.50    1.40
  -4   7  -3   15.63    1.22
   4  -7   3   13.36    1.29
   4  -7   3   13.79    1.23
   7   6  -3    1.61    0.24
   7   6  -3    2.13    0.37
  -7  -6   3    1.97    0.37
   6   6  -3    5.94    0.54
   6   6  -3    5.43    0.60
  -6  -6   3    5.74    0.62
  -6  -6   3    4.86    0.56
   5   6  -3    2.65    0.31
   5   6  -3    2.95    0.36
  -5  -6   3    3.25    0.38
  -5  -6   3    3.03    0.36
   4   6  -3    6.67    0.61
   4   6  -3    7.29    0.65
  -4  -6   3    6.11    0.65
  -4  -6   3    7.22    0.67
   3   6  -3    4.34    0.39
   3   6  -3    4.89    0.46
  -3  -6   3    3.73    0.45
  -3  -6   3    4.71    0.46
   2   6  -3   15.19    1.17
   2   6  -3   13.72    1.23
   2   6  -3   14.60    1.21
  -2  -6   3   15.03    1.28
  -2  -6   3   15.83    1.25
   1   6  -3    1.57    0.19
   1   6  -3    1.79    0.19
  -1  -6   3    1.62    0.25
  -1  -6   3    1.40    0.19
   0   6  -3    3.06    0.30
   0   6  -3    2.99    0.30
   0  -6   3    2.72    0.30
   0  -6   3    3.58    0.38
  -1   6  -3    5.83    0.50
  -1   6  -3    5.31    0.50
   1  -6   3    5.55    0.57
   1  -6   3    5.77    0.50
  -2   6  -3    0.68    0.13
  -2   6  -3    1.01    0.17
   2  -6   3    0.99    0.16
   2  -6   3    0.74    0.20
  -3   6  -3   24.56    1.98
  -3   6  -3   23.16    1.96
   3  -6   3   23.39    2.04
   3  -6   3   26.97    1.99
  -4   6  -3    0.95    0.18
  -4   6  -3    1.26    0.22
   4  -6   3    1.07    0.24
   4  -6   3    1.14    0.20
  -5   6  -3    5.22    0.51
   5  -6   3    5.14    0.57
   5  -6   3    5.30    0.54
   7   5  -3    1.50    0.22
   7   5  -3    1.14    0.29
  -7  -5   3    1.23    0.31
   6   5  -3    7.72    0.72
   6   5  -3    6.97    0.63
  -6  -5   3    6.47    0.66
  -6  -5   3    6.01    0.69
   5   5  -3    1.25    0.18
   5   5  -3    1.48    0.26
  -5  -5   3    1.29    0.26
  -5  -5   3    1.28    0.24
   4   5  -3    1.03    0.16
   4   5  -3    1.06    0.21
  -4  -5   3    1.30    0.24
  -4  -5   3    1.25    0.23
   3   5  -3    4.36    0.40
   3   5  -3    3.13    0.33
   3   5  -3    3.95    0.36
  -3  -5   3    3.91    0.41
  -3  -5   3    4.23    0.41
   2   5  -3    5.39    0.42
   2   5  -3    5.33    0.48
  -2  -5   3    4.50    0.50
  -2  -5   3    5.06    0.49
  -2  -5   3    4.84    0.48
   1   5  -3    0.15    0.06
   1   5  -3    0.01    0.04
  -1  -5   3    0.08    0.05
  -1  -5   3    0.02    0.06
  -1  -5   3    0.04    0.06
   0   5  -3    1.74    0.20
   0   5  -3    2.16    0.21
   0  -5   3    2.09    0.21
   0  -5   3    2.12    0.23
   0  -5   3    1.66    0.25
  -1   5  -3    1.16    0.14
  -1   5  -3    1.01    0.14
   1  -5   3    1.18    0.14
   1  -5   3    0.99    0.21
   1  -5   3    1.11    0.15
  -2   5  -3    7.48    0.63
  -2   5  -3    7.27    0.62
   2  -5   3    7.50    0.64
   2  -5   3    7.42    0.57
   2  -5   3    6.98    0.69
   2  -5   3    7.01    0.62
  -3   5  -3   87.62    7.07
  -3   5  -3   94.05    7.08
   3  -5   3   93.98    7.08
   3  -5   3   88.39    7.14
  -4   5  -3    1.49    0.22
  -4   5  -3    1.73    0.21
   4  -5   3    1.87    0.27
   4  -5   3    1.58    0.22
  -5   5  -3    0.83    0.15
  -5   5  -3    0.67    0.17
   5  -5   3    0.64    0.16
   5  -5   3    0.57    0.17
   6  -5   3    1.29    0.26
   6  -5   3    1.80    0.31
   6  -5   3    1.72    0.30
   7   4  -3   10.28    1.07
   7   4  -3   11.12    1.00
  -7  -4   3   13.90    1.15
   6   4  -3    0.88    0.17
   6   4  -3    0.89    0.23
  -6  -4   3    0.92    0.21
  -6  -4   3    0.60    0.19
  -6  -4   3    1.32    0.27
   5   4  -3    3.11    0.38
   5   4  -3    3.54    0.34
  -5  -4   3    2.91    0.36
  -5  -4   3    3.11    0.39
  -5  -4   3    3.05    0.36
   4   4  -3    5.64    0.51
   4   4  -3    4.56    0.44
  -4  -4   3    4.76    0.50
  -4  -4   3    4.76    0.50
  -4  -4   3    5.01    0.48
   3   4  -3   12.02    0.91
   3   4  -3   11.94    0.90
   3   4  -3   10.12    0.94
  -3  -4   3    9.99    0.95
  -3  -4   3   10.47    0.95
  -3  -4   3   10.85    0.92
   2   4  -3   18.30    1.44
   2   4  -3   15.84    1.38
  -2  -4   3   20.12    1.46
  -2  -4   3   15.57    1.43
  -2  -4   3   20.22    1.48
   1   4  -3    0.65    0.11
   1   4  -3    0.68    0.07
   1   4  -3    0.78    0.13
  -1  -4   3    0.63    0.15
  -1  -4   3    0.78    0.13
  -1  -4   3    0.94    0.15
   0   4  -3    0.29    0.07
   0   4  -3    0.30    0.07
   0  -4   3    0.19    0.06
   0  -4   3    0.20    0.08
   0  -4   3    0.17    0.06
  -1   4  -3   -0.01    0.02
  -1   4  -3    0.02    0.04
   1  -4   3    0.00    0.06
   1  -4   3    0.02    0.03
   1  -4   3    0.02    0.03
  -2   4  -3   -0.01    0.03
  -2   4  -3   -0.02    0.03
   2  -4   3   -0.03    0.04
   2  -4   3    0.02    0.03
   2  -4   3    0.03    0.02
   2  -4   3   -0.03    0.03
  -3   4  -3   13.92    1.16
  -3   4  -3   13.07    1.15
   3  -4   3   14.39    1.12
   3  -4   3   13.58    1.20
   3  -4   3   15.58    1.16
   3  -4   3   13.82    1.15
  -4   4  -3   20.26    1.57
  -4   4  -3   17.13    1.54
   4  -4   3   20.60    1.56
   4  -4   3   18.49    1.59
  -5   4  -3    0.90    0.19
  -5   4  -3    1.15    0.19
   5  -4   3    1.60    0.25
   5  -4   3    0.78    0.19
   5  -4   3    1.27    0.21
   6  -4   3   -0.06    0.07
   6  -4   3   -0.01    0.08
   6  -4   3   -0.12    0.06
   7   3  -3    0.39    0.12
   7   3  -3    0.66    0.21
  -7  -3   3    0.34    0.17
  -7  -3   3    0.57    0.17
  -7  -3   3    0.34    0.17
   6   3  -3    2.74    0.38
   6   3  -3    2.91    0.31
  -6  -3   3    2.86    0.38
  -6  -3   3    2.97    0.36
  -6  -3   3    3.16    0.40
   5   3  -3    0.36    0.14
   5   3  -3    0.46    0.11
  -5  -3   3    0.37    0.13
  -5  -3   3    0.39    0.12
  -5  -3   3    0.13    0.11
   4   3  -3    0.71    0.13
   4   3  -3    0.80    0.18
  -4  -3   3    0.90    0.18
  -4  -3   3    0.99    0.18
  -4  -3   3    0.79    0.19
   3   3  -3   14.42    1.07
   3   3  -3   13.16    1.07
   3   3  -3   13.63    1.12
  -3  -3   3   11.69    1.10
  -3  -3   3   12.43    1.09
  -3  -3   3   14.14    1.13
  -3  -3   3   13.11    1.13
   2   3  -3   50.04    4.00
   2   3  -3   58.45    4.02
   2   3  -3   50.19    4.04
  -2  -3   3   46.17    4.02
  -2  -3   3   49.22    4.07
  -2  -3   3   49.25    4.05
  -2  -3   3   60.82    4.07
  -2  -3   3   50.08    4.02
   1   3  -3    2.13    0.18
   1   3  -3    1.99    0.25
   1   3  -3    1.77    0.22
   1   3  -3    2.10    0.20
   1   3  -3    2.03    0.21
  -1  -3   3    2.41    0.23
  -1  -3   3    1.69    0.21
  -1  -3   3    2.09    0.19
  -1  -3   3    2.56    0.26
  -1  -3   3    2.25    0.21
   0   3  -3    1.58    0.16
   0   3  -3    1.71    0.21
   0   3  -3    1.54    0.18
   0   3  -3    1.58    0.16
   0  -3   3    1.43    0.20
   0  -3   3    1.62    0.16
   0  -3   3    1.59    0.17
  -1   3  -3   60.65    5.03
  -1   3  -3   65.71    5.04
  -1   3  -3   63.83    5.02
   1  -3   3   72.88    5.09
   1  -3   3   62.72    5.03
  -2   3  -3    0.00    0.03
  -2   3  -3    0.00    0.03
   2  -3   3    0.02    0.02
   2  -3   3    0.01    0.03
   2  -3   3   -0.04    0.04
   2  -3   3    0.01    0.03
  -3   3  -3    3.59    0.34
  -3   3  -3    3.23    0.33
   3  -3   3    3.69    0.32
   3  -3   3    2.90    0.35
   3  -3   3    3.56    0.33
   3  -3   3    4.01    0.32
  -4   3  -3    2.77    0.34
  -4   3  -3    3.30    0.34
   4  -3   3    3.76    0.36
   4  -3   3    4.14    0.38
   4  -3   3    3.87    0.34
  -5   3  -3    0.24    0.10
   5  -3   3    0.29    0.11
   5  -3   3    0.31    0.12
   5  -3   3    0.35    0.12
  -6   3  -3    2.15    0.31
   6  -3   3    2.56    0.31
   6  -3   3    1.89    0.29
   6  -3   3    2.45    0.30
   7  -3   3    0.25    0.12
   7  -3   3    0.26    0.13
   7  -3   3    0.17    0.10
   7   2  -3    7.29    0.68
   7   2  -3    5.59    0.54
  -7  -2   3    4.78    0.61
   6   2  -3    0.00    0.05
   6   2  -3   -0.06    0.10
  -6  -2   3    0.07    0.10
   5   2  -3    0.59    0.18
   5   2  -3    0.71    0.13
  -5  -2   3    0.65    0.16
   4   2  -3    0.23    0.10
   4   2  -3    0.27    0.07
  -4  -2   3    0.22    0.09
   3   2  -3   32.88    2.57
   3   2  -3   32.32    2.56
   3   2  -3   34.21    2.62
  -3  -2   3   32.54    2.58
  -3  -2   3   30.63    2.61
  -3  -2   3   34.04    2.60
  -3  -2   3   32.63    2.61
   2   2  -3   25.07    2.04
   2   2  -3   26.66    2.04
   2   2  -3   27.74    2.08
   2   2  -3   22.76    2.07
  -2  -2   3   27.29    2.06
  -2  -2   3   26.33    2.05
  -2  -2   3   25.13    2.08
  -2  -2   3   28.35    2.08
  -2  -2   3   25.60    2.10
   1   2  -3    7.80    0.62
   1   2  -3    7.67    0.66
   1   2  -3    8.61    0.65
   1   2  -3    8.19    0.64
  -1  -2   3    8.39    0.66
  -1  -2   3    6.79    0.65
  -1  -2   3    6.95    0.68
  -1  -2   3    7.74    0.64
  -1  -2   3    8.02    0.63
   0   2  -3   48.06    4.03
   0   2  -3   51.23    3.99
   0   2  -3   54.70    3.98
   0   2  -3   46.68    3.98
   0  -2   3   53.62    3.99
   0  -2   3   55.03    3.96
   0  -2   3   48.63    3.98
   0  -2   3   48.89    4.03
   0  -2   3   54.90    3.99
  -1   2  -3   21.22    1.69
  -1   2  -3   18.52    1.63
  -1   2  -3   20.36    1.64
  -1   2  -3   17.22    1.64
   1  -2   3   23.28    1.64
   1  -2   3   22.38    1.64
   1  -2   3   23.15    1.69
   1  -2   3   20.91    1.62
   1  -2   3   21.80    1.63
  -2   2  -3   23.65    1.94
  -2   2  -3   23.33    1.94
  -2   2  -3   27.36    2.00
  -2   2  -3   28.54    1.96
   2  -2   3   23.26    1.94
   2  -2   3   23.73    1.94
   2  -2   3   24.08    1.94
   2  -2   3   25.25    1.94
   2  -2   3   25.40    1.99
  -3   2  -3    7.59    0.67
  -3   2  -3    9.02    0.65
  -3   2  -3    8.28    0.64
   3  -2   3    6.62    0.63
   3  -2   3    6.77    0.65
   3  -2   3    7.15    0.62
   3  -2   3    7.56    0.63
  -4   2  -3   53.39    4.29
  -4   2  -3   47.83    4.27
   4  -2   3   54.38    4.29
   4  -2   3   61.89    4.31
   4  -2   3   57.44    4.32
  -5   2  -3    6.39    0.67
   5  -2   3    7.97    0.67
   5  -2   3    8.54    0.70
   5  -2   3    6.95    0.66
  -6   2  -3   10.30    0.94
   6  -2   3   10.43    0.91
   6  -2   3   10.30    0.94
   6  -2   3   10.74    0.94
   7  -2   3    6.50    0.63
   7  -2   3    5.45    0.60
   7   1  -3    1.90    0.25
   7   1  -3    2.47    0.40
  -7  -1   3    1.83    0.35
  -7  -1   3    2.22    0.39
   6   1  -3   -0.06    0.08
   6   1  -3    0.06    0.05
  -6  -1   3   -0.07    0.07
  -6  -1   3    0.07    0.10
   5   1  -3    6.46    0.56
   5   1  -3    6.93    0.64
  -5  -1   3    5.61    0.61
  -5  -1   3    6.34    0.61
   4   1  -3    4.33    0.39
   4   1  -3    4.41    0.45
  -4  -1   3    4.36    0.45
  -4  -1   3    4.67    0.44
  -4  -1   3    4.29    0.40
   3   1  -3    3.33    0.28
   3   1  -3    3.54    0.34
  -3  -1   3    3.25    0.32
  -3  -1   3    2.91    0.31
  -3  -1   3    2.76    0.29
  -3  -1   3    3.13    0.32
   2   1  -3   10.14    0.89
   2   1  -3   10.85    0.89
   2   1  -3   10.63    0.86
   2   1  -3   10.21    0.86
  -2  -1   3   10.37    0.86
  -2  -1   3   13.37    0.90
  -2  -1   3   10.40    0.88
   1   1  -3    0.49    0.06
   1   1  -3    0.46    0.08
   1   1  -3    0.52    0.06
   1   1  -3    0.42    0.08
  -1  -1   3    0.52    0.11
  -1  -1   3    0.59    0.07
  -1  -1   3    0.45    0.08
  -1  -1   3    0.58    0.07
  -1  -1   3    0.49    0.09
   0   1  -3    0.47    0.05
   0   1  -3    0.51    0.07
   0   1  -3    0.53    0.06
   0   1  -3    0.52    0.06
   0  -1   3    0.51    0.10
   0  -1   3    0.43    0.05
   0  -1   3    0.39    0.06
   0  -1   3    0.40    0.07
   0  -1   3    0.46    0.06
  -1   1  -3  134.07   10.10
  -1   1  -3  130.04   10.13
  -1   1  -3  135.07   10.08
  -1   1  -3  134.50   10.08
   1  -1   3  115.24   10.09
   1  -1   3  130.17   10.08
   1  -1   3  139.67   10.08
   1  -1   3  128.82   10.13
  -2   1  -3    1.11    0.15
  -2   1  -3    1.09    0.11
  -2   1  -3    1.19    0.12
  -2   1  -3    1.33    0.14
   2  -1   3    1.14    0.12
   2  -1   3    1.30    0.13
   2  -1   3    1.29    0.12
   2  -1   3    1.04    0.12
   2  -1   3    1.42    0.16
  -3   1  -3   25.65    1.85
  -3   1  -3   25.12    1.83
  -3   1  -3   20.97    1.82
  -3   1  -3   20.82    1.81
   3  -1   3   23.08    1.84
   3  -1   3   24.30    1.83
   3  -1   3   23.21    1.81
   3  -1   3   20.65    1.81
   3  -1   3   24.92    1.83
  -4   1  -3   13.99    1.12
  -4   1  -3   14.07    1.11
   4  -1   3   14.22    1.11
   4  -1   3   13.23    1.12
   4  -1   3   14.15    1.09
   4  -1   3   11.07    1.09
  -5   1  -3    2.21    0.26
   5  -1   3    1.84    0.25
   5  -1   3    1.81    0.24
   5  -1   3    1.83    0.22
   5  -1   3    2.22    0.23
  -6   1  -3    4.83    0.45
   6  -1   3    3.25    0.42
   6  -1   3    3.96    0.39
   6  -1   3    4.20    0.43
  -7   1  -3    1.94    0.30
   7  -1   3    2.10    0.29
   7  -1   3    2.49    0.32
   8  -1   3    2.58    0.35
   8  -1   3    2.51    0.36
   7   0  -3    2.59    0.38
  -7   0   3    2.88    0.39
  -7   0   3    2.55    0.43
   6   0  -3    8.68    0.78
   6   0  -3   10.00    0.88
  -6   0   3    8.63    0.86
  -6   0   3    9.35    0.86
   5   0  -3    2.92    0.36
   5   0  -3    3.07    0.29
  -5   0   3    2.62    0.29
  -5   0   3    2.93    0.35
  -5   0   3    3.01    0.35
   4   0  -3    4.51    0.48
   4   0  -3    4.91    0.43
  -4   0   3    4.51    0.47
  -4   0   3    5.18    0.44
  -4   0   3    5.25    0.49
   3   0  -3    3.03    0.27
   3   0  -3    2.73    0.31
  -3   0   3    2.64    0.30
  -3   0   3    2.98    0.30
  -3   0   3    2.98    0.27
  -3   0   3    3.55    0.31
   2   0  -3    0.81    0.14
   2   0  -3    1.19    0.14
   2   0  -3    0.97    0.12
   2   0  -3    1.09    0.11
  -2   0   3    1.48    0.15
  -2   0   3    0.96    0.14
  -2   0   3    1.29    0.14
  -2   0   3    1.01    0.11
   1   0  -3   58.71    4.31
   1   0  -3   51.86    4.28
   1   0  -3   56.99    4.31
   1   0  -3   51.54    4.29
  -1   0   3   59.06    4.31
  -1   0   3   54.58    4.30
  -1   0   3   53.56    4.29
  -1   0   3   59.03    4.31
   0   0  -3    6.39    0.50
   0   0  -3    6.26    0.50
   0   0  -3    6.20    0.50
   0   0   3    6.44    0.50
   0   0   3    6.16    0.50
   0   0   3    5.53    0.49
   0   0   3    6.57    0.50
  -1   0  -3   11.63    0.91
  -1   0  -3   11.68    0.91
  -1   0  -3   12.99    0.93
   1   0   3   10.54    0.94
   1   0   3   11.93    0.91
   1   0   3   11.28    0.90
  -2   0  -3   19.32    1.54
  -2   0  -3   17.95    1.51
  -2   0  -3   22.51    1.54
  -2   0  -3   19.58    1.52
   2   0   3   19.64    1.51
   2   0   3   19.59    1.51
   2   0   3   18.99    1.53
   2   0   3   17.91    1.52
  -3   0  -3   78.22    6.08
  -3   0  -3   77.46    6.08
  -3   0  -3   70.09    6.06
   3   0   3   74.82    6.09
   3   0   3   75.51    6.07
   3   0   3   80.38    6.07
   3   0   3   85.02    6.07
   3   0   3   90.09    6.10
   3   0   3   75.01    6.07
  -4   0  -3   14.23    1.35
  -4   0  -3   17.68    1.35
   4   0   3   16.13    1.37
   4   0   3   18.52    1.35
   4   0   3   17.74    1.34
   4   0   3   15.76    1.35
  -5   0  -3   10.81    0.87
  -5   0  -3    8.91    0.88
   5   0   3   10.71    0.86
   5   0   3   11.13    0.88
   5   0   3   10.31    0.91
   5   0   3   10.06    0.89
  -6   0  -3   13.96    1.12
   6   0   3   13.89    1.12
   6   0   3   11.00    1.09
  -7   0  -3    0.03    0.09
   7   0   3    0.00    0.07
   7   0   3   -0.03    0.07
   8   0   3    0.48    0.17
   8   0   3    0.27    0.13
   7  -1  -3    0.26    0.15
  -7   1   3    0.47    0.17
  -7   1   3    0.52    0.18
   6  -1  -3    1.20    0.17
   6  -1  -3    1.01    0.26
  -6   1   3    1.45    0.26
  -6   1   3    1.20    0.25
   5  -1  -3    0.68    0.18
   5  -1  -3    0.73    0.13
  -5   1   3    1.17    0.22
  -5   1   3    0.79    0.18
   4  -1  -3    2.01    0.19
   4  -1  -3    1.23    0.24
  -4   1   3    1.91    0.24
  -4   1   3    1.99    0.19
  -4   1   3    1.69    0.23
   3  -1  -3   34.61    2.91
  -3   1   3   39.59    2.91
  -3   1   3   35.77    2.91
  -3   1   3   37.41    2.89
  -3   1   3   36.39    2.86
   2  -1  -3    4.10    0.31
   2  -1  -3    3.05    0.31
   2  -1  -3    3.00    0.29
   2  -1  -3    3.40    0.27
  -2   1   3    3.23    0.27
  -2   1   3    3.00    0.30
  -2   1   3    3.41    0.30
  -2   1   3    3.17    0.31
   1  -1  -3  169.10   13.92
   1  -1  -3  193.49   13.92
   1  -1  -3  175.38   13.92
   1  -1  -3  182.49   13.92
  -1   1   3  197.61   13.93
  -1   1   3  167.72   13.92
  -1   1   3  183.79   13.91
  -1   1   3  176.84   13.92
   0  -1  -3    0.59    0.06
   0  -1  -3    0.64    0.07
   0  -1  -3    0.54    0.07
   0   1   3    0.55    0.06
   0   1   3    0.68    0.06
   0   1   3    0.67    0.07
   0   1   3    0.48    0.06
  -1  -1  -3   21.23    1.89
   1   1   3   25.21    1.87
   1   1   3   24.49    1.87
   1   1   3   24.66    1.89
   1   1   3   25.44    1.90
  -2  -1  -3   62.58    4.66
  -2  -1  -3   63.18    4.65
   2   1   3   63.84    4.66
   2   1   3   58.65    4.67
   2   1   3   58.27    4.65
   2   1   3   60.51    4.66
   2   1   3   54.54    4.68
  -3  -1  -3    1.45    0.16
  -3  -1  -3    1.94    0.18
  -3  -1  -3    1.92    0.16
   3   1   3    1.33    0.18
   3   1   3    1.70    0.17
   3   1   3    1.24    0.16
   3   1   3    1.64    0.15
   3   1   3    1.70    0.17
  -4  -1  -3    0.21    0.06
  -4  -1  -3    0.08    0.06
   4   1   3    0.17    0.06
   4   1   3    0.16    0.04
   4   1   3    0.17    0.06
   4   1   3    0.20    0.08
  -5  -1  -3    0.68    0.10
  -5  -1  -3    0.52    0.13
   5   1   3    0.58    0.14
   5   1   3    0.74    0.14
   5   1   3    0.73    0.15
  -6  -1  -3    4.59    0.48
  -6  -1  -3    5.00    0.51
   6   1   3    5.56    0.52
   6   1   3    5.53    0.52
  -7  -1  -3    0.77    0.18
   7   1   3    0.72    0.19
   7   1   3    0.43    0.15
   8   1   3   24.72    2.08
   7  -2  -3    0.29    0.13
  -7   2   3    0.17    0.16
  -7   2   3    0.37    0.17
   6  -2  -3    0.25    0.10
   6  -2  -3    0.70    0.19
  -6   2   3    0.38    0.14
  -6   2   3    0.76    0.21
   5  -2  -3    1.36    0.25
   5  -2  -3    1.33    0.16
  -5   2   3    1.28    0.24
  -5   2   3    1.06    0.23
   4  -2  -3   13.20    1.01
   4  -2  -3   13.41    1.04
   4  -2  -3   14.13    1.11
  -4   2   3   11.10    1.10
  -4   2   3   12.23    1.09
   3  -2  -3  170.04   12.80
   3  -2  -3  162.20   12.88
   3  -2  -3  174.30   12.83
  -3   2   3  170.91   12.88
  -3   2   3  154.48   12.88
   2  -2  -3  145.77   11.43
   2  -2  -3  150.16   11.40
   2  -2  -3  159.10   11.44
   2  -2  -3  139.31   11.44
  -2   2   3  143.27   11.44
  -2   2   3  146.80   11.46
  -2   2   3  140.30   11.43
  -2   2   3  161.21   11.45
   1  -2  -3   57.94    4.43
   1  -2  -3   52.68    4.44
   1  -2  -3   58.12    4.43
  -1   2   3   62.66    4.43
  -1   2   3   54.09    4.44
  -1   2   3   58.11    4.44
   0  -2  -3   19.60    1.54
   0  -2  -3   19.46    1.53
   0  -2  -3   20.41    1.54
   0  -2  -3   19.92    1.55
   0   2   3   19.55    1.53
   0   2   3   18.68    1.53
   0   2   3   20.43    1.54
   0   2   3   19.21    1.54
   0   2   3   20.62    1.54
  -1  -2  -3   56.60    4.35
  -1  -2  -3   52.66    4.37
  -1  -2  -3   53.82    4.35
   1   2   3   56.99    4.36
   1   2   3   64.46    4.37
   1   2   3   54.52    4.35
  -2  -2  -3    2.36    0.24
  -2  -2  -3    2.61    0.22
  -2  -2  -3    2.52    0.22
   2   2   3    2.56    0.22
   2   2   3    2.63    0.22
   2   2   3    2.14    0.23
  -3  -2  -3    4.57    0.37
  -3  -2  -3    3.79    0.37
   3   2   3    4.14    0.33
   3   2   3    4.05    0.38
   3   2   3    4.14    0.37
   3   2   3    4.30    0.37
  -4  -2  -3   13.96    1.01
   4   2   3   11.29    0.99
   4   2   3   10.51    1.00
   4   2   3   12.37    1.00
  -5  -2  -3    0.43    0.12
  -5  -2  -3    0.76    0.08
   5   2   3    0.64    0.14
   5   2   3    0.53    0.12
   5   2   3    0.71    0.15
  -6  -2  -3    1.15    0.21
  -6  -2  -3    1.04    0.11
   6   2   3    1.29    0.23
   6   2   3    1.04    0.20
  -7  -2  -3    9.71    0.85
   7   2   3    8.67    0.83
   7   2   3    8.50    0.83
  -8  -2  -3    0.18    0.13
   8   2   3    0.24    0.14
   8   2   3    0.50    0.16
   7  -3  -3    3.18    0.45
  -7   3   3    3.14    0.43
  -7   3   3    3.79    0.45
   6  -3  -3    1.26    0.24
  -6   3   3    0.86    0.21
  -6   3   3    0.82    0.22
   5  -3  -3    0.03    0.05
   5  -3  -3    0.00    0.08
  -5   3   3   -0.02    0.06
  -5   3   3   -0.03    0.08
   4  -3  -3    7.17    0.52
   4  -3  -3    6.31    0.56
  -4   3   3    5.76    0.61
  -4   3   3    6.50    0.62
   3  -3  -3   10.98    0.87
   3  -3  -3   10.67    0.92
  -3   3   3   10.17    0.91
  -3   3   3   11.70    0.93
   2  -3  -3    0.07    0.02
   2  -3  -3    0.20    0.07
  -2   3   3    0.12    0.05
  -2   3   3    0.15    0.05
  -2   3   3    0.08    0.05
   1  -3  -3    4.93    0.37
   1  -3  -3    4.41    0.39
   1  -3  -3    4.98    0.39
   1  -3  -3    4.47    0.40
  -1   3   3    4.18    0.39
  -1   3   3    5.00    0.40
  -1   3   3    4.43    0.41
  -1   3   3    4.22    0.39
   0  -3  -3   37.34    2.98
   0  -3  -3   40.20    2.99
   0  -3  -3   35.80    2.98
   0  -3  -3   37.97    2.99
   0   3   3   36.59    2.98
   0   3   3   39.66    2.99
   0   3   3   44.26    3.02
   0   3   3   36.30    2.99
   0   3   3   39.44    2.99
  -1  -3  -3    5.85    0.49
  -1  -3  -3    5.91    0.48
  -1  -3  -3    6.22    0.49
   1   3   3    5.86    0.48
   1   3   3    6.43    0.50
   1   3   3    5.42    0.49
   1   3   3    6.06    0.49
  -2  -3  -3   86.99    6.70
  -2  -3  -3   89.55    6.70
  -2  -3  -3   92.18    6.71
   2   3   3   95.91    6.71
   2   3   3   73.77    6.70
   2   3   3   84.72    6.68
   2   3   3   83.82    6.69
  -3  -3  -3  173.75   12.74
  -3  -3  -3  178.88   12.75
  -3  -3  -3  154.87   12.75
   3   3   3  161.60   12.74
   3   3   3  156.57   12.75
   3   3   3  164.95   12.74
  -4  -3  -3   13.09    1.10
   4   3   3   12.05    1.09
   4   3   3   12.06    1.09
   4   3   3   16.24    1.12
  -5  -3  -3   -0.03    0.05
   5   3   3    0.04    0.05
   5   3   3   -0.03    0.05
   5   3   3   -0.01    0.05
  -6  -3  -3    6.13    0.54
   6   3   3    4.28    0.49
   6   3   3    5.03    0.51
  -7  -3  -3    2.16    0.30
   7   3   3    1.96    0.28
   7   3   3    1.75    0.30
  -8  -3  -3   16.43    1.60
   8   3   3   17.94    1.60
   8   3   3   20.94    1.61
   6  -4  -3    1.04    0.25
  -6   4   3    1.71    0.30
  -6   4   3    1.35    0.29
   5  -4  -3    0.01    0.08
   5  -4  -3    0.11    0.06
  -5   4   3    0.01    0.06
  -5   4   3   -0.09    0.07
   4  -4  -3    7.92    0.70
   4  -4  -3    8.86    0.78
  -4   4   3    8.57    0.77
  -4   4   3    9.00    0.76
   3  -4  -3   28.89    2.15
  -3   4   3   24.19    2.20
  -3   4   3   28.94    2.20
   2  -4  -3   42.85    3.12
   2  -4  -3   37.51    3.16
  -2   4   3   42.39    3.15
  -2   4   3   42.88    3.17
  -2   4   3   37.52    3.11
  -2   4   3   39.01    3.15
   1  -4  -3   37.53    2.95
   1  -4  -3   42.91    2.98
   1  -4  -3   39.86    2.97
   1  -4  -3   34.92    2.97
  -1   4   3   36.40    2.97
  -1   4   3   37.39    3.01
  -1   4   3   37.32    2.97
  -1   4   3   37.90    2.94
  -1   4   3   39.39    2.98
   0  -4  -3   27.18    1.94
   0  -4  -3   26.45    1.94
   0  -4  -3   22.03    1.96
   0  -4  -3   26.16    1.94
   0   4   3   24.98    1.92
   0   4   3   26.00    1.94
   0   4   3   23.39    1.96
   0   4   3   23.67    1.93
   0   4   3   22.52    1.93
  -1  -4  -3    9.40    0.74
  -1  -4  -3    8.18    0.73
  -1  -4  -3    8.37    0.72
  -1  -4  -3    9.75    0.74
   1   4   3    7.91    0.74
   1   4   3   10.69    0.74
   1   4   3    9.39    0.74
   1   4   3    8.50    0.72
  -2  -4  -3   21.63    1.55
  -2  -4  -3   20.23    1.53
  -2  -4  -3   17.62    1.53
   2   4   3   16.60    1.53
   2   4   3   18.87    1.54
   2   4   3   17.86    1.53
   2   4   3   22.26    1.53
  -3  -4  -3    7.63    0.65
  -3  -4  -3    7.34    0.64
   3   4   3    7.36    0.65
   3   4   3    7.52    0.60
   3   4   3    8.17    0.64
   3   4   3    6.70    0.64
  -4  -4  -3    7.74    0.73
   4   4   3    8.42    0.74
   4   4   3    8.14    0.74
   4   4   3    9.97    0.75
  -5  -4  -3    7.29    0.72
   5   4   3    7.80    0.72
   5   4   3    8.43    0.72
   5   4   3    8.56    0.72
  -6  -4  -3    9.81    0.88
   6   4   3   11.06    0.88
   6   4   3    8.15    0.85
  -7  -4  -3    0.50    0.16
   7   4   3    0.70    0.19
   7   4   3    0.74    0.19
  -8  -4  -3    0.07    0.13
   8   4   3    0.02    0.09
   8   4   3    0.03    0.07
   6  -5  -3    0.86    0.24
  -6   5   3    0.99    0.25
  -6   5   3    1.22    0.26
   5  -5  -3    0.17    0.12
  -5   5   3    0.32    0.12
  -5   5   3    0.04    0.08
   4  -5  -3    1.75    0.19
   4  -5  -3    1.81    0.25
  -4   5   3    1.46    0.23
  -4   5   3    1.81    0.24
   3  -5  -3    1.30    0.18
   3  -5  -3    1.16    0.14
  -3   5   3    1.52    0.19
  -3   5   3    0.82    0.17
   2  -5  -3    6.15    0.49
   2  -5  -3    7.30    0.55
  -2   5   3    5.81    0.48
  -2   5   3    5.19    0.53
  -2   5   3    6.03    0.52
   1  -5  -3    8.24    0.70
   1  -5  -3    8.83    0.76
   1  -5  -3    9.31    0.72
  -1   5   3    8.52    0.69
  -1   5   3    8.60    0.71
  -1   5   3    7.91    0.72
  -1   5   3    9.84    0.74
   0  -5  -3   10.09    0.90
   0  -5  -3   11.25    0.90
   0  -5  -3   13.67    0.95
   0   5   3    9.50    0.92
   0   5   3   11.15    0.90
   0   5   3   11.81    0.91
   0   5   3   11.38    0.89
   0   5   3   10.82    0.88
  -1  -5  -3    0.51    0.10
  -1  -5  -3    0.64    0.11
  -1  -5  -3    0.66    0.09
  -1  -5  -3    0.63    0.11
   1   5   3    0.66    0.11
   1   5   3    0.51    0.09
   1   5   3    0.73    0.09
   1   5   3    0.62    0.12
   1   5   3    0.50    0.09
  -2  -5  -3    2.58    0.26
  -2  -5  -3    2.41    0.25
  -2  -5  -3    2.37    0.25
   2   5   3    2.71    0.26
   2   5   3    2.46    0.27
   2   5   3    3.01    0.26
   2   5   3    2.74    0.26
  -3  -5  -3   19.42    1.59
  -3  -5  -3   21.25    1.64
   3   5   3   19.24    1.60
   3   5   3   23.39    1.65
   3   5   3   20.23    1.63
   3   5   3   19.15    1.65
  -4  -5  -3    9.93    0.82
   4   5   3    9.07    0.81
   4   5   3    9.09    0.80
  -5  -5  -3   11.63    1.06
   5   5   3   12.94    1.07
   5   5   3   12.59    1.07
  -6  -5  -3   17.67    1.59
   6   5   3   19.63    1.60
   6   5   3   19.59    1.60
  -7  -5  -3    5.21    0.61
   7   5   3    6.94    0.63
   7   5   3    6.15    0.62
  -8  -5  -3    0.59    0.20
   8   5   3    0.72    0.19
   8   5   3    0.65    0.19
   5  -6  -3    0.21    0.12
  -5   6   3    0.28    0.13
  -5   6   3    0.23    0.13
   4  -6  -3    0.03    0.07
   4  -6  -3    0.19    0.07
  -4   6   3    0.11    0.10
  -4   6   3    0.11    0.08
   3  -6  -3    0.56    0.14
   3  -6  -3    0.68    0.10
  -3   6   3    0.82    0.16
  -3   6   3    0.89    0.09
  -3   6   3    1.03    0.17
   2  -6  -3    1.42    0.15
   2  -6  -3    1.36    0.18
   2  -6  -3    1.32    0.23
  -2   6   3    1.23    0.18
  -2   6   3    1.22    0.17
  -2   6   3    1.57    0.14
   1  -6  -3    4.55    0.40
   1  -6  -3    4.98    0.43
   1  -6  -3    5.12    0.47
  -1   6   3    4.79    0.41
  -1   6   3    4.07    0.42
  -1   6   3    4.59    0.38
   0  -6  -3    3.61    0.30
   0  -6  -3    2.87    0.29
   0  -6  -3    2.80    0.32
   0   6   3    3.16    0.28
   0   6   3    2.71    0.30
   0   6   3    3.60    0.30
  -1  -6  -3    2.37    0.22
  -1  -6  -3    2.42    0.23
  -1  -6  -3    2.42    0.24
   1   6   3    1.76    0.20
   1   6   3    2.12    0.22
   1   6   3    1.75    0.23
   1   6   3    2.18    0.21
  -2  -6  -3    3.91    0.38
  -2  -6  -3    4.09    0.38
   2   6   3    3.87    0.40
   2   6   3    4.84    0.40
   2   6   3    4.77    0.39
   2   6   3    3.67    0.37
  -3  -6  -3    2.91    0.28
  -3  -6  -3    2.71    0.25
   3   6   3    2.37    0.27
   3   6   3    2.53    0.26
   3   6   3    3.26    0.31
   3   6   3    2.27    0.27
  -4  -6  -3   16.20    1.35
  -4  -6  -3   15.77    1.28
   4   6   3   17.32    1.30
   4   6   3   15.86    1.35
   4   6   3   17.03    1.35
   4   6   3   14.74    1.39
  -5  -6  -3    1.11    0.20
   5   6   3    0.76    0.17
   5   6   3    0.83    0.18
  -6  -6  -3    1.55    0.27
   6   6   3    1.25    0.23
   6   6   3    1.63    0.27
  -7  -6  -3    1.61    0.31
   7   6   3    1.71    0.26
   7   6   3    2.01    0.32
  -8  -6  -3    4.82    0.59
   8   6   3    6.05    0.61
   8   6   3    5.41    0.58
   5  -7  -3    0.49    0.18
  -5   7   3    0.34    0.14
  -5   7   3    0.40    0.17
   4  -7  -3   -0.10    0.07
  -4   7   3   -0.06    0.07
  -4   7   3    0.14    0.09
   3  -7  -3    3.53    0.38
   3  -7  -3    3.55    0.41
  -3   7   3    3.66    0.37
  -3   7   3    3.18    0.38
   2  -7  -3    9.29    0.95
   2  -7  -3   11.97    0.93
  -2   7   3   11.43    0.90
  -2   7   3   10.69    0.86
  -2   7   3   10.20    0.92
   1  -7  -3    0.02    0.06
   1  -7  -3    0.00    0.04
   1  -7  -3    0.05    0.05
  -1   7   3   -0.01    0.04
  -1   7   3    0.02    0.04
  -1   7   3    0.03    0.03
   0  -7  -3    1.09    0.19
   0  -7  -3    0.89    0.15
   0   7   3    0.90    0.13
   0   7   3    1.00    0.12
  -1  -7  -3    5.61    0.52
  -1  -7  -3    5.11    0.54
   1   7   3    6.99    0.53
   1   7   3    5.96    0.50
   1   7   3    5.86    0.51
  -2  -7  -3    0.01    0.04
  -2  -7  -3    0.02    0.04
   2   7   3    0.03    0.04
   2   7   3    0.02    0.03
  -3  -7  -3    0.13    0.06
  -3  -7  -3    0.07    0.06
   3   7   3    0.03    0.04
   3   7   3    0.09    0.06
   3   7   3    0.10    0.06
  -4  -7  -3    2.71    0.29
  -4  -7  -3    2.15    0.24
   4   7   3    2.76    0.26
   4   7   3    2.23    0.28
   4   7   3    2.64    0.29
  -5  -7  -3    2.79    0.24
  -5  -7  -3    2.20    0.31
   5   7   3    2.55    0.31
   5   7   3    2.90    0.32
  -6  -7  -3    1.25    0.24
   6   7   3    1.41    0.26
   6   7   3    1.55    0.26
  -7  -7  -3    3.60    0.46
   7   7   3    4.33    0.46
   7   7   3    3.64    0.44
  -8  -7  -3    1.11    0.28
   8   7   3    0.88    0.22
   8   7   3    0.83    0.22
   4  -8  -3   -0.01    0.09
  -4   8   3   -0.01    0.06
  -4   8   3    0.21    0.13
   3  -8  -3    0.46    0.16
   3  -8  -3    0.49    0.13
  -3   8   3    0.23    0.11
  -3   8   3    0.54    0.13
   2  -8  -3    4.21    0.41
   2  -8  -3    3.85    0.45
  -2   8   3    3.93    0.35
  -2   8   3    4.07    0.39
  -2   8   3    3.87    0.41
   1  -8  -3    2.91    0.35
   1  -8  -3    2.82    0.30
  -1   8   3    2.76    0.26
  -1   8   3    2.96    0.31
  -1   8   3    3.05    0.29
   0  -8  -3    0.08    0.06
   0  -8  -3    0.18    0.09
   0   8   3    0.13    0.07
   0   8   3    0.07    0.05
  -1  -8  -3    0.83    0.17
  -1  -8  -3    0.58    0.13
   1   8   3    0.95    0.12
   1   8   3    0.71    0.11
   1   8   3    0.79    0.14
  -2  -8  -3   30.01    2.54
  -2  -8  -3   31.66    2.53
   2   8   3   31.92    2.50
   2   8   3   30.59    2.52
   2   8   3   34.97    2.53
  -3  -8  -3   61.85    4.95
  -3  -8  -3   63.94    4.94
   3   8   3   64.43    4.95
   3   8   3   62.31    4.94
  -4  -8  -3   13.49    1.14
  -4  -8  -3   12.84    1.10
   4   8   3   12.61    1.13
   4   8   3   14.03    1.14
   4   8   3   14.01    1.12
  -5  -8  -3    0.53    0.15
  -5  -8  -3    0.65    0.11
   5   8   3    0.31    0.13
   5   8   3    0.47    0.14
  -6  -8  -3    1.29    0.26
   6   8   3    1.57    0.24
   6   8   3    1.43    0.26
  -7  -8  -3    1.83    0.32
   7   8   3    1.49    0.28
   7   8   3    1.87    0.32
   3  -9  -3    0.52    0.16
   3  -9  -3    0.40    0.14
  -3   9   3    0.35    0.11
  -3   9   3    0.42    0.14
   2  -9  -3    0.88    0.23
   2  -9  -3    0.84    0.17
  -2   9   3    0.81    0.17
  -2   9   3    0.68    0.14
   1  -9  -3    3.17    0.33
   1  -9  -3    2.09    0.34
  -1   9   3    3.01    0.29
  -1   9   3    3.04    0.28
  -1   9   3    2.92    0.32
   0  -9  -3    0.02    0.06
   0  -9  -3    0.06    0.07
   0   9   3    0.00    0.03
   0   9   3   -0.03    0.05
   0   9   3   -0.02    0.04
  -1  -9  -3    0.27    0.10
  -1  -9  -3    0.31    0.13
   1   9   3    0.20    0.08
   1   9   3    0.26    0.07
  -2  -9  -3   -0.03    0.05
  -2  -9  -3   -0.06    0.05
   2   9   3   -0.01    0.03
   2   9   3   -0.03    0.04
   2   9   3    0.08    0.07
  -3  -9  -3    1.95    0.24
  -3  -9  -3    2.92    0.28
   3   9   3    1.42    0.22
   3   9   3    1.84    0.23
  -4  -9  -3    4.33    0.45
  -4  -9  -3    3.63    0.41
   4   9   3    4.92    0.46
   4   9   3    4.91    0.46
  -5  -9  -3    3.57    0.39
   5   9   3    3.37    0.37
   5   9   3    2.91    0.37
  -6  -9  -3    2.32    0.33
   6   9   3    2.94    0.35
   6   9   3    2.52    0.33
  -7  -9  -3    6.35    0.66
   7   9   3    5.61    0.64
   7   9   3    7.27    0.66
   2 -10  -3    0.23    0.14
   2 -10  -3    0.52    0.15
  -2  10   3    0.53    0.14
   1 -10  -3    0.14    0.09
   1 -10  -3    0.33    0.14
  -1  10   3    0.15    0.06
  -1  10   3    0.16    0.09
  -1  10   3    0.08    0.06
   0 -10  -3    0.15    0.09
   0 -10  -3    0.19    0.12
   0  10   3    0.21    0.08
   0  10   3    0.19    0.09
   0  10   3    0.23    0.07
  -1 -10  -3    0.27    0.12
  -1 -10  -3    0.21    0.10
   1  10   3    0.26    0.10
   1  10   3    0.32    0.08
  -2 -10  -3   22.40    1.79
  -2 -10  -3   22.54    1.83
   2  10   3   21.68    1.74
   2  10   3   21.12    1.78
  -3 -10  -3   13.07    1.23
  -3 -10  -3   15.80    1.26
   3  10   3   14.30    1.22
   3  10   3   14.32    1.19
   3  10   3   15.88    1.24
  -4 -10  -3    5.09    0.49
  -4 -10  -3    4.77    0.51
   4  10   3    4.74    0.49
   4  10   3    5.55    0.51
  -5 -10  -3    0.25    0.12
   5  10   3    0.47    0.14
   5  10   3    0.27    0.12
  -6 -10  -3    2.30    0.35
   6  10   3    1.64    0.30
   6  10   3    1.67    0.30
   1 -11  -3    1.17    0.22
   1 -11  -3    1.40    0.29
  -1  11   3    1.03    0.23
   0 -11  -3    4.56    0.45
   0 -11  -3    4.68    0.52
   0  11   3    4.17    0.41
   0  11   3    4.43    0.46
  -1 -11  -3    0.15    0.12
  -1 -11  -3    0.04    0.07
   1  11   3   -0.01    0.06
   1  11   3    0.05    0.06
  -2 -11  -3    0.38    0.12
  -2 -11  -3    0.07    0.11
   2  11   3    0.24    0.10
  -3 -11  -3    0.18    0.11
  -3 -11  -3    0.03    0.08
   3  11   3    0.04    0.07
   3  11   3    0.01    0.05
   3  11   3   -0.04    0.05
  -4 -11  -3    1.51    0.25
  -4 -11  -3    1.45    0.22
   4  11   3    0.84    0.20
   4  11   3    1.69    0.22
  -5 -11  -3    0.23    0.14
   5  11   3    0.29    0.12
   5  11   3    0.46    0.15
  -2 -12  -3    0.09    0.09
   2  12   3    0.08    0.09
   3   9  -4    4.14    0.44
  -3  -9   4    4.32    0.53
  -3  -9   4    4.68    0.47
   2   9  -4    0.10    0.07
  -2  -9   4    0.14    0.09
  -2  -9   4    0.12    0.14
   1   9  -4    0.71    0.16
  -1  -9   4    0.65    0.21
  -1  -9   4    0.51    0.14
   0  -9   4    4.19    0.59
   0  -9   4    6.81    0.56
  -1   9  -4    0.56    0.14
   1  -9   4    0.70    0.16
   1  -9   4    0.38    0.18
   5   8  -4    1.05    0.19
   5   8  -4    0.54    0.18
  -5  -8   4    0.93    0.24
  -5  -8   4    1.55    0.28
   4   8  -4    2.65    0.34
   4   8  -4    2.70    0.31
  -4  -8   4    2.78    0.38
  -4  -8   4    2.59    0.34
   3   8  -4    1.12    0.23
   3   8  -4    1.81    0.22
  -3  -8   4    1.94    0.26
  -3  -8   4    2.09    0.35
   2   8  -4    7.81    0.67
   2   8  -4    7.03    0.65
  -2  -8   4    7.27    0.67
  -2  -8   4    7.04    0.74
   1   8  -4    0.04    0.06
   1   8  -4    0.04    0.06
  -1  -8   4    0.08    0.07
  -1  -8   4   -0.05    0.08
   0   8  -4    8.94    0.86
   0   8  -4   10.44    0.87
   0  -8   4   10.54    0.97
   0  -8   4   10.82    0.88
  -1   8  -4    4.03    0.44
   1  -8   4    4.57    0.54
   1  -8   4    5.20    0.46
  -2   8  -4   15.06    1.36
   2  -8   4   18.07    1.38
  -3   8  -4    2.38    0.28
   3  -8   4    2.41    0.29
   3  -8   4    1.84    0.36
   5   7  -4    3.36    0.39
  -5  -7   4    3.09    0.39
  -5  -7   4    2.39    0.36
   4   7  -4    0.99    0.22
   4   7  -4    1.38    0.19
  -4  -7   4    1.51    0.27
  -4  -7   4    1.34    0.28
   3   7  -4   18.38    1.31
   3   7  -4   14.44    1.31
  -3  -7   4   15.82    1.33
  -3  -7   4   13.59    1.36
   2   7  -4    2.42    0.26
   2   7  -4    2.44    0.24
  -2  -7   4    1.39    0.23
  -2  -7   4    1.60    0.31
   1   7  -4    5.08    0.46
   1   7  -4    4.65    0.45
  -1  -7   4    4.69    0.53
  -1  -7   4    4.84    0.46
   0   7  -4    1.34    0.17
   0   7  -4    1.02    0.18
   0  -7   4    1.35    0.18
   0  -7   4    1.38    0.27
  -1   7  -4    3.23    0.33
  -1   7  -4    2.92    0.33
   1  -7   4    3.09    0.40
   1  -7   4    3.50    0.33
  -2   7  -4    0.47    0.14
  -2   7  -4    0.64    0.13
   2  -7   4    0.85    0.15
   2  -7   4    0.50    0.17
  -3   7  -4    0.50    0.12
   3  -7   4    0.53    0.19
   3  -7   4    0.34    0.11
  -4   7  -4    1.93    0.25
   4  -7   4    1.88    0.34
   4  -7   4    1.43    0.26
   6   6  -4    3.57    0.42
   6   6  -4    2.76    0.33
  -6  -6   4    3.09    0.41
  -6  -6   4    2.83    0.46
   5   6  -4    0.17    0.10
   5   6  -4   -0.01    0.05
  -5  -6   4   -0.01    0.08
  -5  -6   4    0.02    0.10
   4   6  -4    0.02    0.07
  -4  -6   4    0.05    0.09
  -4  -6   4   -0.07    0.06
   3   6  -4    1.22    0.19
   3   6  -4    1.18    0.21
  -3  -6   4    0.78    0.21
  -3  -6   4    1.43    0.24
   2   6  -4   33.63    2.66
   2   6  -4   33.15    2.68
  -2  -6   4   36.37    2.70
  -2  -6   4   31.13    2.73
   1   6  -4   10.13    0.79
   1   6  -4    8.43    0.78
  -1  -6   4    9.42    0.80
  -1  -6   4    9.02    0.86
   0   6  -4   17.18    1.39
   0   6  -4   19.31    1.40
   0  -6   4   16.87    1.39
   0  -6   4   15.73    1.45
   0  -6   4   16.13    1.48
  -1   6  -4    1.91    0.23
  -1   6  -4    2.13    0.22
   1  -6   4    1.92    0.34
   1  -6   4    1.87    0.22
  -2   6  -4  102.95    7.01
  -2   6  -4   82.94    7.00
   2  -6   4   86.69    6.99
   2  -6   4   87.87    7.09
  -3   6  -4    2.22    0.27
  -3   6  -4    2.83    0.29
   3  -6   4    2.37    0.27
   3  -6   4    2.04    0.36
  -4   6  -4    1.23    0.20
   4  -6   4    0.85    0.18
   4  -6   4    1.60    0.29
  -5   6  -4    0.18    0.10
   5  -6   4    0.01    0.12
   5  -6   4    0.01    0.09
   6   5  -4    1.98    0.26
   6   5  -4    2.21    0.37
  -6  -5   4    2.26    0.32
  -6  -5   4    2.57    0.41
   5   5  -4    9.80    0.92
   5   5  -4    9.76    0.85
  -5  -5   4    9.92    0.93
  -5  -5   4   10.18    0.93
   4   5  -4    5.38    0.57
   4   5  -4    5.95    0.54
  -4  -5   4    6.90    0.61
  -4  -5   4    5.65    0.60
   3   5  -4    0.82    0.13
   3   5  -4    0.85    0.17
   3   5  -4    0.80    0.10
  -3  -5   4    0.24    0.11
  -3  -5   4    0.76    0.19
   2   5  -4    2.33    0.26
   2   5  -4    2.27    0.20
   2   5  -4    2.32    0.24
  -2  -5   4    2.22    0.26
  -2  -5   4    2.33    0.30
  -2  -5   4    2.25    0.29
   1   5  -4   13.49    1.11
   1   5  -4   14.09    1.12
  -1  -5   4   13.76    1.13
  -1  -5   4   13.93    1.15
  -1  -5   4   12.56    1.18
   0   5  -4    2.12    0.22
   0   5  -4    2.05    0.22
   0  -5   4    2.64    0.24
   0  -5   4    2.04    0.24
   0  -5   4    1.65    0.30
  -1   5  -4    0.81    0.11
  -1   5  -4    0.70    0.13
   1  -5   4    0.77    0.18
   1  -5   4    0.57    0.11
   1  -5   4    0.65    0.13
  -2   5  -4   12.82    1.14
  -2   5  -4   14.01    1.15
   2  -5   4   15.23    1.15
   2  -5   4   14.16    1.16
   2  -5   4   14.18    1.23
  -3   5  -4   30.87    2.35
  -3   5  -4   27.42    2.34
   3  -5   4   28.14    2.34
   3  -5   4   32.12    2.43
  -4   5  -4    0.02    0.06
  -4   5  -4    0.06    0.07
   4  -5   4    0.01    0.08
   4  -5   4    0.01    0.06
  -5   5  -4    3.46    0.38
   5  -5   4    3.47    0.39
   5  -5   4    3.53    0.43
   7   4  -4    2.02    0.25
   7   4  -4    1.45    0.33
  -7  -4   4    2.01    0.37
  -7  -4   4    1.99    0.35
   6   4  -4    0.58    0.14
   6   4  -4    0.57    0.19
  -6  -4   4    0.70    0.20
  -6  -4   4    0.59    0.21
  -6  -4   4    0.76    0.19
   5   4  -4    0.67    0.13
   5   4  -4    0.33    0.15
  -5  -4   4    0.12    0.11
  -5  -4   4    0.65    0.18
  -5  -4   4    0.59    0.17
   4   4  -4    0.12    0.09
   4   4  -4    0.13    0.06
  -4  -4   4    0.27    0.12
  -4  -4   4    0.31    0.11
  -4  -4   4    0.28    0.09
   3   4  -4   43.57    3.41
   3   4  -4   41.89    3.35
  -3  -4   4   45.92    3.46
  -3  -4   4   40.60    3.42
  -3  -4   4   43.68    3.39
   2   4  -4   -0.05    0.03
   2   4  -4   -0.01    0.02
   2   4  -4   -0.01    0.04
  -2  -4   4    0.03    0.04
  -2  -4   4   -0.02    0.04
  -2  -4   4    0.01    0.05
  -2  -4   4    0.04    0.07
   1   4  -4    0.64    0.06
   1   4  -4    0.56    0.11
   1   4  -4    0.65    0.12
  -1  -4   4    0.80    0.13
  -1  -4   4    0.86    0.18
  -1  -4   4    0.53    0.12
   0   4  -4   33.75    2.77
   0   4  -4   41.54    2.79
   0  -4   4   34.37    2.85
   0  -4   4   36.11    2.80
   0  -4   4   31.76    2.77
  -1   4  -4   24.39    2.04
  -1   4  -4   26.03    2.03
   1  -4   4   25.76    2.05
   1  -4   4   27.13    2.11
  -2   4  -4   96.55    7.51
  -2   4  -4   91.57    7.52
   2  -4   4   91.93    7.52
   2  -4   4  102.38    7.51
   2  -4   4   95.49    7.46
   2  -4   4  105.52    7.60
  -3   4  -4    2.86    0.32
  -3   4  -4    3.70    0.33
   3  -4   4    3.24    0.38
   3  -4   4    3.30    0.28
   3  -4   4    3.40    0.32
   3  -4   4    3.29    0.32
  -4   4  -4    2.87    0.30
  -4   4  -4    2.15    0.28
   4  -4   4    2.68    0.29
   4  -4   4    3.04    0.34
  -5   4  -4    0.36    0.11
   5  -4   4    0.24    0.10
   5  -4   4    0.22    0.12
   5  -4   4    0.50    0.16
   6  -4   4    0.10    0.09
   6  -4   4    0.25    0.11
   6  -4   4    0.04    0.08
   7   3  -4    2.86    0.42
   7   3  -4    2.74    0.32
  -7  -3   4    3.47    0.41
  -7  -3   4    2.33    0.43
  -7  -3   4    3.12    0.41
   6   3  -4    2.78    0.30
   6   3  -4    2.47    0.36
  -6  -3   4    2.59    0.37
  -6  -3   4    2.32    0.39
  -6  -3   4    3.19    0.37
   5   3  -4    0.30    0.13
   5   3  -4    0.40    0.10
  -5  -3   4    0.29    0.14
  -5  -3   4    0.37    0.14
  -5  -3   4    0.55    0.17
   4   3  -4   10.81    0.91
   4   3  -4   11.12    0.97
  -4  -3   4   10.79    0.98
  -4  -3   4   10.66    0.95
  -4  -3   4   11.79    0.99
   3   3  -4    0.52    0.09
   3   3  -4    0.19    0.10
  -3  -3   4    0.57    0.13
  -3  -3   4    0.42    0.11
  -3  -3   4    0.34    0.11
  -3  -3   4    0.50    0.15
   2   3  -4    1.25    0.16
   2   3  -4    1.56    0.15
   2   3  -4    1.73    0.20
  -2  -3   4    1.66    0.23
  -2  -3   4    1.81    0.18
  -2  -3   4    1.55    0.20
  -2  -3   4    1.50    0.20
   1   3  -4    1.81    0.15
   1   3  -4    1.65    0.18
   1   3  -4    1.51    0.17
  -1  -3   4    1.58    0.22
  -1  -3   4    1.51    0.19
  -1  -3   4    1.69    0.16
  -1  -3   4    1.45    0.19
   0   3  -4    3.81    0.32
   0   3  -4    3.52    0.33
   0  -3   4    3.89    0.33
   0  -3   4    3.42    0.38
   0  -3   4    3.55    0.34
  -1   3  -4    1.04    0.11
  -1   3  -4    0.74    0.13
   1  -3   4    1.07    0.13
   1  -3   4    0.92    0.18
   1  -3   4    1.14    0.12
  -2   3  -4    5.87    0.46
   2  -3   4    5.06    0.42
   2  -3   4    5.25    0.51
   2  -3   4    4.55    0.43
   2  -3   4    5.37    0.44
  -3   3  -4   18.29    1.49
   3  -3   4   18.68    1.47
   3  -3   4   17.35    1.54
   3  -3   4   18.77    1.49
   3  -3   4   19.44    1.48
  -4   3  -4   13.16    1.06
  -4   3  -4   10.37    1.04
   4  -3   4   12.52    1.03
   4  -3   4   15.15    1.11
   4  -3   4   14.63    1.04
   4  -3   4   10.75    1.04
  -5   3  -4   23.00    1.74
  -5   3  -4   24.84    1.77
   5  -3   4   20.18    1.76
   5  -3   4   17.89    1.75
   5  -3   4   20.95    1.75
   6  -3   4    2.32    0.31
   6  -3   4    2.45    0.30
   6  -3   4    2.31    0.30
   7  -3   4    2.60    0.34
   7  -3   4    2.02    0.35
   7   2  -4   -0.09    0.10
  -7  -2   4   -0.09    0.07
  -7  -2   4   -0.11    0.10
   6   2  -4    4.43    0.41
   6   2  -4    3.80    0.49
  -6  -2   4    4.01    0.48
  -6  -2   4    4.59    0.52
   5   2  -4    1.39    0.18
   5   2  -4    1.36    0.26
  -5  -2   4    1.54    0.30
  -5  -2   4    1.34    0.25
   4   2  -4    2.94    0.30
   4   2  -4    3.48    0.37
  -4  -2   4    3.27    0.35
  -4  -2   4    3.67    0.39
   3   2  -4   77.76    6.70
   3   2  -4   79.06    6.65
  -3  -2   4   91.78    6.72
  -3  -2   4   90.98    6.68
  -3  -2   4   92.15    6.70
  -3  -2   4   73.69    6.72
  -3  -2   4   97.39    6.71
   2   2  -4    2.02    0.19
   2   2  -4    1.90    0.20
   2   2  -4    1.99    0.23
  -2  -2   4    2.20    0.22
  -2  -2   4    1.99    0.23
  -2  -2   4    2.09    0.21
  -2  -2   4    2.29    0.23
  -2  -2   4    2.48    0.27
   1   2  -4    0.02    0.02
   1   2  -4    0.06    0.04
   1   2  -4    0.00    0.03
  -1  -2   4    0.06    0.04
  -1  -2   4    0.01    0.04
  -1  -2   4    0.06    0.06
  -1  -2   4    0.04    0.04
  -1  -2   4    0.06    0.03
   0   2  -4  105.11    8.41
   0   2  -4  106.08    8.36
   0   2  -4  113.23    8.34
   0   2  -4  104.01    8.35
   0  -2   4  104.56    8.36
   0  -2   4  112.34    8.41
   0  -2   4  113.21    8.33
   0  -2   4  111.26    8.35
   0  -2   4  103.41    8.35
  -1   2  -4   10.38    0.83
  -1   2  -4   10.92    0.84
  -1   2  -4    9.34    0.88
  -1   2  -4    9.96    0.82
   1  -2   4   10.86    0.82
   1  -2   4   10.41    0.80
   1  -2   4   10.36    0.89
   1  -2   4    9.73    0.83
  -2   2  -4    6.10    0.54
  -2   2  -4    6.46    0.52
  -2   2  -4    6.89    0.53
   2  -2   4    5.44    0.57
   2  -2   4    6.58    0.53
   2  -2   4    6.22    0.52
   2  -2   4    6.22    0.52
  -3   2  -4    7.28    0.71
  -3   2  -4    7.70    0.70
   3  -2   4    9.22    0.75
   3  -2   4    9.38    0.71
   3  -2   4    8.86    0.69
   3  -2   4    8.31    0.70
  -4   2  -4    4.64    0.42
  -4   2  -4    4.02    0.41
   4  -2   4    3.92    0.42
   4  -2   4    5.01    0.40
   4  -2   4    4.19    0.41
  -5   2  -4    0.11    0.08
   5  -2   4    0.16    0.08
   5  -2   4    0.02    0.05
   5  -2   4    0.08    0.08
  -6   2  -4    4.01    0.49
   6  -2   4    4.39    0.46
   6  -2   4    4.73    0.48
   6  -2   4    4.27    0.44
   7  -2   4    2.90    0.38
   7  -2   4    3.59    0.42
   7   1  -4    7.96    0.80
  -7  -1   4    7.61    0.78
  -7  -1   4    6.92    0.77
   6   1  -4    5.84    0.68
   6   1  -4    7.54    0.61
  -6  -1   4    7.16    0.70
  -6  -1   4    6.23    0.68
   5   1  -4    8.32    0.68
   5   1  -4    7.75    0.76
  -5  -1   4    8.05    0.76
  -5  -1   4    7.50    0.74
   4   1  -4    3.24    0.27
   4   1  -4    2.54    0.33
  -4  -1   4    2.46    0.32
  -4  -1   4    2.82    0.32
  -4  -1   4    2.88    0.29
   3   1  -4    2.76    0.32
   3   1  -4    3.11    0.27
  -3  -1   4    3.28    0.33
  -3  -1   4    3.05    0.31
  -3  -1   4    2.74    0.28
  -3  -1   4    2.98    0.31
   2   1  -4    3.29    0.29
   2   1  -4    3.45    0.32
   2   1  -4    3.38    0.28
  -2  -1   4    2.97    0.29
  -2  -1   4    2.96    0.32
  -2  -1   4    3.14    0.31
  -2  -1   4    3.24    0.30
   1   1  -4    0.63    0.08
   1   1  -4    0.65    0.08
   1   1  -4    0.59    0.10
   1   1  -4    0.74    0.10
  -1  -1   4    0.79    0.15
  -1  -1   4    0.55    0.11
  -1  -1   4    0.69    0.09
  -1  -1   4    0.77    0.09
  -1  -1   4    0.82    0.10
   0   1  -4    0.01    0.02
   0   1  -4    0.01    0.03
   0   1  -4    0.02    0.03
   0  -1   4    0.00    0.02
   0  -1   4    0.04    0.03
   0  -1   4    0.06    0.03
   0  -1   4    0.06    0.05
   0  -1   4    0.03    0.02
  -1   1  -4    2.77    0.24
  -1   1  -4    2.86    0.26
  -1   1  -4    2.91    0.30
   1  -1   4    2.57    0.29
   1  -1   4    3.21    0.25
   1  -1   4    2.88    0.25
   1  -1   4    2.62    0.23
  -2   1  -4  136.09   10.52
  -2   1  -4  136.34   10.59
  -2   1  -4  127.42   10.53
  -2   1  -4  115.37   10.54
   2  -1   4  142.94   10.58
   2  -1   4  148.55   10.53
   2  -1   4  149.25   10.57
   2  -1   4  138.18   10.53
  -3   1  -4    9.62    0.84
  -3   1  -4   10.07    0.81
  -3   1  -4    8.67    0.81
   3  -1   4   10.60    0.79
   3  -1   4   10.01    0.84
   3  -1   4   10.69    0.83
   3  -1   4    9.24    0.80
  -4   1  -4    2.59    0.28
  -4   1  -4    2.48    0.26
   4  -1   4    2.15    0.25
   4  -1   4    2.50    0.24
   4  -1   4    2.61    0.27
   4  -1   4    2.54    0.28
  -5   1  -4   33.24    2.64
   5  -1   4   38.24    2.67
   5  -1   4   31.17    2.62
   5  -1   4   30.14    2.62
  -6   1  -4    0.04    0.09
   6  -1   4    0.14    0.09
   6  -1   4    0.14    0.09
   6  -1   4   -0.03    0.05
   7  -1   4    6.05    0.64
   7  -1   4    6.63    0.64
   7   0  -4    0.74    0.21
  -7   0   4    0.43    0.18
  -7   0   4    0.37    0.16
   6   0  -4    4.64    0.41
   6   0  -4    3.99    0.49
  -6   0   4    4.82    0.51
  -6   0   4    4.14    0.50
   5   0  -4    5.79    0.58
   5   0  -4    5.52    0.49
  -5   0   4    5.88    0.51
  -5   0   4    5.87    0.58
  -5   0   4    5.46    0.58
   4   0  -4    3.86    0.37
   4   0  -4    2.93    0.27
  -4   0   4    3.49    0.35
  -4   0   4    2.96    0.34
  -4   0   4    2.66    0.28
   3   0  -4   14.27    1.21
   3   0  -4   14.69    1.15
  -3   0   4   14.01    1.19
  -3   0   4   14.85    1.21
  -3   0   4   15.03    1.16
  -3   0   4   14.00    1.19
   2   0  -4   60.25    5.02
   2   0  -4   65.24    5.05
   2   0  -4   69.43    5.05
   2   0  -4   63.83    5.01
  -2   0   4   61.38    5.04
  -2   0   4   69.50    5.06
  -2   0   4   63.05    5.04
  -2   0   4   66.81    5.02
   1   0  -4    0.65    0.10
   1   0  -4    0.61    0.08
   1   0  -4    0.75    0.10
   1   0  -4    0.68    0.08
  -1   0   4    0.70    0.10
  -1   0   4    0.61    0.08
  -1   0   4    0.74    0.09
  -1   0   4    0.76    0.08
   0   0  -4   12.68    1.04
   0   0  -4   14.32    1.05
   0   0  -4   13.45    1.04
   0   0   4   13.32    1.04
   0   0   4   12.88    1.04
   0   0   4   12.77    1.04
   0   0   4   13.17    1.04
  -1   0  -4   10.09    0.80
  -1   0  -4   10.17    0.83
  -1   0  -4   10.28    0.80
   1   0   4   12.20    0.83
   1   0   4    8.90    0.86
   1   0   4   10.15    0.80
   1   0   4   10.49    0.81
  -2   0  -4   78.09    5.58
  -2   0  -4   74.55    5.59
  -2   0  -4   70.94    5.54
   2   0   4   68.06    5.54
   2   0   4   64.08    5.58
   2   0   4   80.91    5.57
   2   0   4   67.51    5.55
  -3   0  -4   43.05    3.50
  -3   0  -4   46.03    3.47
  -3   0  -4   44.39    3.49
  -3   0  -4   45.33    3.51
   3   0   4   46.99    3.51
   3   0   4   46.20    3.49
   3   0   4   43.44    3.47
   3   0   4   43.64    3.52
   3   0   4   43.96    3.51
  -4   0  -4    0.29    0.08
  -4   0  -4    0.18    0.07
   4   0   4    0.17    0.06
   4   0   4    0.29    0.10
   4   0   4    0.27    0.07
   4   0   4    0.26    0.06
  -5   0  -4   25.08    2.04
  -5   0  -4   26.34    2.06
   5   0   4   29.03    2.10
   5   0   4   25.29    2.03
   5   0   4   25.36    2.03
   5   0   4   23.11    2.05
  -6   0  -4    6.52    0.61
   6   0   4    6.88    0.56
   6   0   4    5.62    0.60
   6   0   4    6.13    0.62
   7   0   4   31.82    2.66
   7   0   4   33.57    2.67
   8   0   4   13.52    1.26
   8   0   4   14.61    1.26
   7  -1  -4    3.06    0.43
  -7   1   4    2.54    0.39
  -7   1   4    3.34    0.43
   6  -1  -4    7.11    0.65
  -6   1   4    6.06    0.62
  -6   1   4    4.81    0.60
   5  -1  -4    0.96    0.13
   5  -1  -4    1.23    0.24
  -5   1   4    0.65    0.18
  -5   1   4    0.88    0.21
   4  -1  -4   32.63    2.39
   4  -1  -4   29.33    2.47
  -4   1   4   28.16    2.46
  -4   1   4   32.12    2.40
  -4   1   4   28.92    2.46
   3  -1  -4   32.43    2.60
   3  -1  -4   31.42    2.67
   3  -1  -4   34.04    2.60
  -3   1   4   36.37    2.62
  -3   1   4   33.40    2.65
  -3   1   4   31.18    2.66
  -3   1   4   35.80    2.68
   2  -1  -4    6.86    0.64
   2  -1  -4    7.90    0.66
   2  -1  -4    8.37    0.61
   2  -1  -4    7.96    0.63
  -2   1   4    7.70    0.66
  -2   1   4    7.27    0.64
  -2   1   4    7.87    0.61
  -2   1   4    6.99    0.64
   1  -1  -4    3.34    0.30
   1  -1  -4    3.55    0.29
   1  -1  -4    3.62    0.32
   1  -1  -4    3.35    0.30
  -1   1   4    3.05    0.30
  -1   1   4    4.33    0.32
  -1   1   4    3.50    0.28
  -1   1   4    3.42    0.30
   0  -1  -4   22.21    1.74
   0  -1  -4   20.35    1.74
   0  -1  -4   22.00    1.73
   0   1   4   23.26    1.73
   0   1   4   23.42    1.74
   0   1   4   22.34    1.74
   0   1   4   22.65    1.74
  -1  -1  -4   49.21    4.09
   1   1   4   56.39    4.09
  -2  -1  -4  114.00    8.93
   2   1   4  114.17    8.98
   2   1   4  133.47    8.97
   2   1   4  115.50    8.94
   2   1   4  102.30    8.97
   2   1   4  117.61    8.94
  -3  -1  -4   40.18    3.04
  -3  -1  -4   40.36    3.06
   3   1   4   36.53    3.08
   3   1   4   40.04    3.06
   3   1   4   42.29    3.06
   3   1   4   38.21    3.05
   3   1   4   36.14    3.08
  -4  -1  -4    5.08    0.45
  -4  -1  -4    4.68    0.46
   4   1   4    5.30    0.47
   4   1   4    4.55    0.45
   4   1   4    7.04    0.52
   4   1   4    5.55    0.45
  -5  -1  -4    5.18    0.45
  -5  -1  -4    5.02    0.49
   5   1   4    5.18    0.51
   5   1   4    4.93    0.47
   5   1   4    5.22    0.49
   5   1   4    5.39    0.44
  -6  -1  -4    5.57    0.54
   6   1   4    5.33    0.51
   6   1   4    6.38    0.56
   6   1   4    5.00    0.53
  -7  -1  -4    2.73    0.31
   7   1   4    1.39    0.28
   8   1   4    2.51    0.35
   8   1   4    2.50    0.36
   7  -2  -4    1.81    0.34
  -7   2   4    1.53    0.34
  -7   2   4    1.70    0.35
   6  -2  -4    1.62    0.29
  -6   2   4    1.78    0.33
  -6   2   4    1.18    0.26
   5  -2  -4   13.07    1.27
   5  -2  -4   14.64    1.18
  -5   2   4   14.56    1.28
  -5   2   4   16.96    1.30
   4  -2  -4   11.59    0.90
   4  -2  -4   11.40    0.88
   4  -2  -4   12.17    1.00
  -4   2   4   10.17    0.98
  -4   2   4   10.71    0.97
   3  -2  -4   15.43    1.29
   3  -2  -4   15.96    1.21
  -3   2   4   14.84    1.26
  -3   2   4   15.33    1.28
  -3   2   4   16.03    1.30
   2  -2  -4   46.20    3.52
  -2   2   4   42.74    3.51
  -2   2   4   46.80    3.50
  -2   2   4   43.59    3.49
   1  -2  -4   28.56    2.23
   1  -2  -4   31.39    2.23
   1  -2  -4   26.05    2.24
  -1   2   4   27.09    2.23
  -1   2   4   27.55    2.24
  -1   2   4   29.80    2.20
  -1   2   4   29.26    2.24
   0  -2  -4   29.89    2.18
   0  -2  -4   28.39    2.16
   0  -2  -4   28.56    2.17
   0   2   4   27.79    2.17
   0   2   4   27.22    2.17
   0   2   4   26.45    2.16
   0   2   4   27.21    2.17
   0   2   4   28.01    2.16
  -1  -2  -4   14.38    1.13
  -1  -2  -4   13.94    1.13
   1   2   4   14.29    1.13
   1   2   4   16.03    1.16
   1   2   4   14.35    1.13
   1   2   4   14.84    1.15
  -2  -2  -4   48.63    3.30
  -2  -2  -4   41.67    3.26
   2   2   4   40.89    3.26
   2   2   4   39.90    3.27
   2   2   4   44.66    3.28
   2   2   4   38.00    3.29
  -3  -2  -4    3.32    0.34
  -3  -2  -4    3.77    0.32
  -3  -2  -4    3.53    0.33
   3   2   4    4.67    0.37
   3   2   4    3.64    0.33
   3   2   4    3.42    0.31
   3   2   4    3.49    0.32
   3   2   4    4.28    0.34
   4   2   4    3.19    0.32
   4   2   4    4.18    0.36
   4   2   4    3.17    0.31
   4   2   4    3.26    0.28
  -5  -2  -4    0.13    0.07
   5   2   4    0.08    0.07
   5   2   4    0.25    0.09
   5   2   4    0.06    0.05
  -6  -2  -4    1.56    0.23
   6   2   4    1.41    0.26
   6   2   4    1.76    0.22
   6   2   4    1.71    0.23
  -7  -2  -4   69.10    5.52
   7   2   4   60.00    5.51
   7   2   4   81.54    5.54
   8   2   4    1.00    0.23
   8   2   4    1.30    0.27
   6  -3  -4    0.38    0.15
  -6   3   4    0.19    0.11
  -6   3   4    0.44    0.17
   5  -3  -4    2.87    0.40
  -5   3   4    3.98    0.42
  -5   3   4    3.92    0.43
   4  -3  -4   90.03    7.59
   4  -3  -4  100.57    7.50
  -4   3   4  106.71    7.60
  -4   3   4   91.11    7.59
   3  -3  -4   72.19    5.96
   3  -3  -4   75.86    6.04
  -3   3   4   78.64    6.04
  -3   3   4   84.03    6.04
   2  -3  -4    0.84    0.14
  -2   3   4    0.96    0.13
  -2   3   4    0.81    0.12
  -2   3   4    0.93    0.12
   1  -3  -4    0.06    0.03
   1  -3  -4    0.15    0.05
   1  -3  -4    0.04    0.04
  -1   3   4    0.08    0.05
  -1   3   4    0.14    0.05
  -1   3   4    0.11    0.02
  -1   3   4    0.05    0.03
  -1   3   4    0.11    0.04
   0  -3  -4   36.14    2.79
   0  -3  -4   36.83    2.78
   0  -3  -4   35.73    2.80
   0   3   4   36.61    2.78
   0   3   4   34.04    2.79
   0   3   4   35.23    2.79
   0   3   4   38.94    2.80
   0   3   4   34.42    2.78
  -1  -3  -4   12.66    0.94
  -1  -3  -4   11.93    0.92
   1   3   4   11.75    0.92
   1   3   4   10.58    0.93
   1   3   4   11.75    0.93
   1   3   4   11.17    0.92
  -2  -3  -4    1.74    0.17
  -2  -3  -4    1.74    0.16
  -2  -3  -4    1.86    0.19
   2   3   4    1.80    0.17
   2   3   4    1.69    0.19
   2   3   4    1.65    0.17
  -3  -3  -4   54.64    3.81
  -3  -3  -4   44.90    3.78
  -3  -3  -4   44.99    3.78
   3   3   4   46.42    3.76
   3   3   4   48.39    3.78
   3   3   4   56.98    3.82
   3   3   4   45.65    3.78
  -4  -3  -4    0.49    0.11
   4   3   4    0.59    0.11
   4   3   4    0.57    0.13
   4   3   4    0.38    0.10
  -5  -3  -4   34.91    2.74
   5   3   4   33.64    2.72
   5   3   4   31.85    2.73
   5   3   4   37.11    2.76
  -6  -3  -4    9.61    0.81
   6   3   4    7.49    0.78
   6   3   4    9.42    0.78
  -7  -3  -4    3.06    0.38
   7   3   4    3.06    0.37
   7   3   4    3.17    0.38
   8   3   4    7.19    0.75
   8   3   4    8.06    0.76
   6  -4  -4   -0.09    0.08
  -6   4   4   -0.11    0.08
  -6   4   4   -0.01    0.10
   5  -4  -4    2.10    0.30
  -5   4   4    2.02    0.29
  -5   4   4    1.95    0.28
   4  -4  -4    0.12    0.09
   4  -4  -4    0.21    0.05
  -4   4   4    0.40    0.12
  -4   4   4    0.34    0.11
   3  -4  -4    9.77    0.85
   3  -4  -4   11.72    0.85
   3  -4  -4   10.99    0.94
  -3   4   4   10.59    0.93
  -3   4   4   11.30    0.93
   2  -4  -4   10.95    0.86
   2  -4  -4    9.98    0.92
   2  -4  -4   11.05    0.87
  -2   4   4   11.83    0.94
  -2   4   4   11.14    0.92
  -2   4   4   12.15    0.91
   1  -4  -4    5.35    0.50
   1  -4  -4    5.83    0.46
  -1   4   4    5.68    0.50
  -1   4   4    6.02    0.49
  -1   4   4    6.15    0.50
   0  -4  -4    0.16    0.04
   0  -4  -4    0.17    0.05
   0  -4  -4    0.18    0.05
   0   4   4    0.11    0.04
   0   4   4    0.15    0.05
   0   4   4    0.17    0.06
   0   4   4    0.22    0.05
   0   4   4    0.19    0.04
  -1  -4  -4   32.71    2.52
  -1  -4  -4   33.01    2.54
  -1  -4  -4   32.74    2.53
   1   4   4   30.00    2.54
   1   4   4   35.29    2.54
   1   4   4   30.55    2.52
   1   4   4   31.53    2.53
   1   4   4   33.46    2.53
  -2  -4  -4  231.75   15.80
  -2  -4  -4  208.69   15.77
  -2  -4  -4  202.12   15.78
   2   4   4  199.45   15.79
   2   4   4  208.54   15.79
   2   4   4  185.73   15.77
   2   4   4  197.98   15.77
  -3  -4  -4   31.85    2.43
  -3  -4  -4   27.67    2.42
   3   4   4   33.70    2.45
   3   4   4   29.86    2.39
   3   4   4   30.81    2.42
   3   4   4   31.28    2.44
  -4  -4  -4    2.73    0.29
   4   4   4    3.02    0.31
   4   4   4    2.82    0.29
   4   4   4    2.81    0.29
  -5  -4  -4   15.62    1.37
   5   4   4   18.54    1.40
   5   4   4   15.44    1.36
   5   4   4   16.86    1.37
  -6  -4  -4    1.35    0.25
   6   4   4    1.18    0.23
   6   4   4    1.83    0.24
   6   4   4    2.02    0.24
  -7  -4  -4    4.28    0.46
   7   4   4    4.09    0.46
   7   4   4    3.87    0.44
   8   4   4   10.83    1.01
   6  -5  -4    0.11    0.12
  -6   5   4    0.19    0.16
  -6   5   4    0.07    0.14
   5  -5  -4    0.06    0.11
  -5   5   4    0.11    0.08
  -5   5   4    0.10    0.09
   4  -5  -4    4.50    0.45
  -4   5   4    4.46    0.44
  -4   5   4    3.39    0.42
   3  -5  -4   18.46    1.47
   3  -5  -4   20.15    1.56
   3  -5  -4   19.35    1.46
  -3   5   4   17.89    1.55
  -3   5   4   17.79    1.53
   2  -5  -4    2.45    0.25
   2  -5  -4    2.06    0.19
  -2   5   4    2.48    0.24
  -2   5   4    1.86    0.24
   1  -5  -4    0.25    0.05
   1  -5  -4    0.27    0.07
  -1   5   4    0.27    0.08
  -1   5   4    0.43    0.08
  -1   5   4    0.19    0.06
   0  -5  -4   22.40    1.71
   0  -5  -4   19.49    1.71
   0   5   4   21.42    1.71
   0   5   4   22.16    1.69
   0   5   4   21.75    1.72
   0   5   4   22.99    1.72
  -1  -5  -4   41.52    3.22
  -1  -5  -4   40.39    3.21
   1   5   4   37.77    3.21
   1   5   4   47.94    3.25
   1   5   4   38.60    3.21
   1   5   4   41.86    3.22
  -2  -5  -4   17.11    1.49
  -2  -5  -4   19.66    1.48
   2   5   4   19.39    1.50
   2   5   4   18.92    1.48
   2   5   4   18.10    1.49
   2   5   4   18.28    1.47
  -3  -5  -4    3.03    0.30
   3   5   4    3.10    0.27
   3   5   4    2.94    0.31
   3   5   4    2.84    0.29
   3   5   4    3.22    0.32
  -4  -5  -4    0.14    0.07
   4   5   4    0.13    0.07
   4   5   4    0.14    0.06
   4   5   4    0.18    0.03
  -5  -5  -4   14.88    1.26
   5   5   4   15.41    1.25
   5   5   4   14.92    1.25
   5   5   4   14.45    1.26
  -6  -5  -4    0.18    0.09
   6   5   4    0.15    0.10
   6   5   4    0.25    0.11
  -7  -5  -4    5.59    0.53
   7   5   4    4.21    0.49
   7   5   4    4.77    0.51
   8   5   4    4.08    0.49
   8   5   4    4.85    0.51
   5  -6  -4    2.15    0.30
  -5   6   4    2.04    0.29
  -5   6   4    1.16    0.27
   4  -6  -4    1.58    0.27
  -4   6   4    1.48    0.25
  -4   6   4    1.84    0.25
   3  -6  -4    7.70    0.62
   3  -6  -4    6.66    0.68
  -3   6   4    7.24    0.67
  -3   6   4    8.28    0.70
   2  -6  -4    2.21    0.20
   2  -6  -4    1.97    0.25
  -2   6   4    2.25    0.24
  -2   6   4    1.97    0.25
  -2   6   4    2.30    0.19
   1  -6  -4    0.50    0.10
   1  -6  -4    0.43    0.08
  -1   6   4    0.34    0.09
  -1   6   4    0.54    0.11
  -1   6   4    0.44    0.06
   0  -6  -4    0.61    0.10
   0  -6  -4    0.31    0.08
   0  -6  -4    0.40    0.10
   0   6   4    0.24    0.07
   0   6   4    0.41    0.08
   0   6   4    0.40    0.09
  -1  -6  -4    7.17    0.64
  -1  -6  -4    6.94    0.61
  -1  -6  -4    7.04    0.62
   1   6   4    7.99    0.62
   1   6   4    7.29    0.63
   1   6   4    7.24    0.61
   1   6   4    7.48    0.61
  -2  -6  -4   18.64    1.40
  -2  -6  -4   16.59    1.40
   2   6   4   16.04    1.40
   2   6   4   16.20    1.42
   2   6   4   19.31    1.42
   2   6   4   17.76    1.39
  -3  -6  -4    0.10    0.05
   3   6   4    0.05    0.06
   3   6   4   -0.01    0.03
   3   6   4    0.04    0.06
   3   6   4    0.12    0.06
  -4  -6  -4    3.11    0.32
   4   6   4    2.89    0.32
   4   6   4    3.09    0.27
   4   6   4    3.22    0.32
   4   6   4    2.60    0.32
  -5  -6  -4    8.29    0.65
   5   6   4    5.76    0.62
   5   6   4    6.48    0.61
  -6  -6  -4    0.90    0.20
   6   6   4    1.08    0.21
   6   6   4    0.81    0.18
  -7  -6  -4    4.09    0.48
   7   6   4    5.25    0.51
   7   6   4    3.87    0.46
   8   6   4    3.09    0.39
   8   6   4    2.87    0.38
   5  -7  -4    0.24    0.15
  -5   7   4    0.21    0.13
  -5   7   4    0.34    0.14
   4  -7  -4    0.31    0.12
  -4   7   4    0.24    0.13
  -4   7   4    0.35    0.13
   3  -7  -4    6.52    0.68
  -3   7   4    8.48    0.71
  -3   7   4    7.43    0.68
   2  -7  -4   20.00    1.73
  -2   7   4   21.71    1.74
  -2   7   4   20.50    1.71
  -2   7   4   22.25    1.66
   1  -7  -4   18.99    1.54
   1  -7  -4   18.93    1.57
   1  -7  -4   18.55    1.61
  -1   7   4   20.62    1.56
  -1   7   4   19.65    1.52
   0  -7  -4    9.91    0.84
   0  -7  -4   11.55    0.91
   0  -7  -4    9.51    0.84
   0   7   4    9.53    0.85
   0   7   4   10.82    0.84
  -1  -7  -4   -0.01    0.04
  -1  -7  -4    0.01    0.04
   1   7   4    0.04    0.04
   1   7   4    0.01    0.03
   1   7   4   -0.04    0.03
  -2  -7  -4   40.53    3.34
  -2  -7  -4   43.51    3.33
   2   7   4   39.22    3.33
   2   7   4   40.83    3.36
   2   7   4   48.32    3.34
  -3  -7  -4   11.46    0.92
  -3  -7  -4   11.30    0.93
   3   7   4   10.60    0.92
   3   7   4    9.78    0.93
   3   7   4   11.34    0.96
   3   7   4   11.77    0.93
  -4  -7  -4    8.27    0.76
   4   7   4    9.30    0.77
   4   7   4    9.13    0.73
   4   7   4    8.10    0.77
  -5  -7  -4    0.09    0.08
   5   7   4    0.09    0.07
   5   7   4    0.08    0.07
  -6  -7  -4    1.51    0.26
   6   7   4    1.22    0.24
   6   7   4    1.16    0.22
  -7  -7  -4   15.48    1.32
   7   7   4   14.92    1.31
   7   7   4   14.21    1.29
   8   7   4   -0.10    0.06
   8   7   4    0.00    0.10
   4  -8  -4    8.72    0.82
  -4   8   4    8.37    0.82
  -4   8   4    8.39    0.79
   3  -8  -4   -0.02    0.08
  -3   8   4    0.07    0.08
  -3   8   4    0.12    0.08
   2  -8  -4    0.18    0.10
  -2   8   4    0.53    0.13
  -2   8   4    0.59    0.14
   1  -8  -4    4.88    0.47
   1  -8  -4    3.97    0.40
  -1   8   4    4.82    0.43
  -1   8   4    4.09    0.39
  -1   8   4    3.92    0.36
   0  -8  -4    3.91    0.38
   0  -8  -4    3.64    0.42
   0   8   4    3.97    0.38
   0   8   4    4.12    0.36
  -1  -8  -4    0.53    0.11
  -1  -8  -4    0.59    0.14
   1   8   4    0.39    0.09
   1   8   4    0.62    0.11
   1   8   4    0.52    0.11
  -2  -8  -4    4.52    0.38
  -2  -8  -4    3.59    0.39
   2   8   4    3.68    0.37
   2   8   4    3.73    0.36
   2   8   4    3.71    0.36
  -3  -8  -4   33.85    2.78
  -3  -8  -4   35.55    2.79
   3   8   4   34.78    2.79
   3   8   4   36.24    2.78
  -4  -8  -4    5.82    0.58
  -4  -8  -4    5.78    0.54
   4   8   4    6.73    0.59
   4   8   4    6.03    0.57
   4   8   4    6.91    0.57
  -5  -8  -4   10.76    0.97
   5   8   4   10.58    0.97
   5   8   4   11.86    0.99
  -6  -8  -4    3.01    0.38
   6   8   4    3.74    0.40
   6   8   4    3.13    0.38
  -7  -8  -4    3.16    0.41
   7   8   4    2.96    0.38
   7   8   4    3.70    0.42
   3  -9  -4    0.78    0.19
  -3   9   4    1.11    0.20
  -3   9   4    1.18    0.23
   2  -9  -4    1.09    0.24
   2  -9  -4    0.65    0.17
  -2   9   4    1.21    0.19
  -2   9   4    0.81    0.18
   1  -9  -4    1.62    0.22
   1  -9  -4    2.03    0.28
  -1   9   4    1.33    0.19
  -1   9   4    1.68    0.22
  -1   9   4    1.74    0.17
   0  -9  -4    2.37    0.27
   0  -9  -4    2.32    0.31
   0   9   4    2.42    0.25
   0   9   4    2.66    0.28
  -1  -9  -4   66.11    5.18
  -1  -9  -4   64.10    5.22
   1   9   4   66.63    5.18
   1   9   4   67.88    5.15
  -2  -9  -4   44.32    3.38
  -2  -9  -4   40.60    3.34
   2   9   4   40.22    3.34
   2   9   4   40.24    3.32
   2   9   4   46.82    3.34
  -3  -9  -4    0.91    0.17
  -3  -9  -4    0.84    0.17
   3   9   4    0.54    0.13
   3   9   4    0.97    0.17
  -4  -9  -4    4.35    0.39
  -4  -9  -4    3.68    0.41
   4   9   4    4.02    0.41
   4   9   4    3.87    0.41
  -5  -9  -4    8.63    0.81
   5   9   4    7.91    0.79
   5   9   4   10.16    0.82
  -6  -9  -4    0.26    0.13
   6   9   4    0.18    0.11
   6   9   4    0.07    0.08
  -7  -9  -4    0.93    0.23
   7   9   4    0.71    0.20
   7   9   4    0.97    0.22
   2 -10  -4    0.62    0.19
   2 -10  -4    0.75    0.19
  -2  10   4    0.81    0.18
  -2  10   4    0.91    0.17
   1 -10  -4    0.85    0.21
   1 -10  -4    0.87    0.17
  -1  10   4    0.99    0.17
   0 -10  -4   -0.09    0.06
   0 -10  -4    0.09    0.08
   0  10   4   -0.03    0.04
   0  10   4   -0.01    0.07
   0  10   4   -0.02    0.05
  -1 -10  -4    0.16    0.08
  -1 -10  -4    0.11    0.11
   1  10   4    0.13    0.06
   1  10   4    0.14    0.08
  -2 -10  -4   14.11    1.14
  -2 -10  -4   13.22    1.16
   2  10   4   13.55    1.10
   2  10   4   12.91    1.11
  -3 -10  -4    2.05    0.26
  -3 -10  -4    2.41    0.28
   3  10   4    2.10    0.24
   3  10   4    2.19    0.26
   3  10   4    2.22    0.27
  -4 -10  -4    3.74    0.41
  -4 -10  -4    3.65    0.39
   4  10   4    3.64    0.40
   4  10   4    4.67    0.43
  -5 -10  -4    0.06    0.07
   5  10   4    0.29    0.12
   5  10   4    0.12    0.09
  -6 -10  -4    6.63    0.63
   6  10   4    6.19    0.61
   6  10   4    5.39    0.60
   1 -11  -4    0.09    0.12
   1 -11  -4    0.47    0.14
  -1  11   4    0.44    0.14
   0 -11  -4    0.08    0.08
   0 -11  -4    0.05    0.12
   0  11   4    0.03    0.06
   0  11   4    0.07    0.08
   0  11   4    0.06    0.08
  -1 -11  -4   12.71    1.10
  -1 -11  -4   11.58    1.03
   1  11   4   12.67    0.99
   1  11   4   10.97    1.03
  -2 -11  -4    5.20    0.50
  -2 -11  -4    6.25    0.55
   2  11   4    4.10    0.43
   2  11   4    5.16    0.49
  -3 -11  -4    0.66    0.17
  -3 -11  -4    0.63    0.16
   3  11   4    0.71    0.16
   3  11   4    0.60    0.13
   3  11   4    0.37    0.12
  -4 -11  -4    0.00    0.08
   4  11   4   -0.03    0.06
   4  11   4    0.08    0.07
  -5 -11  -4    1.54    0.26
   5  11   4    1.29    0.23
   5  11   4    0.98    0.22
  -2 -12  -4    8.05    0.75
  -2 -12  -4    7.69    0.71
   2  12   4    7.02    0.70
  -3 -12  -4    0.18    0.11
  -3 -12  -4    0.29    0.12
   3  12   4    0.23    0.11
   4   8  -5    4.57    0.48
  -4  -8   5    5.18    0.53
  -4  -8   5    5.13    0.58
   3   8  -5    0.50    0.14
  -3  -8   5    0.57    0.15
  -3  -8   5    0.60    0.19
   2   8  -5    0.96    0.18
  -2  -8   5    0.89    0.24
  -2  -8   5    1.04    0.19
   1   8  -5    2.12    0.26
  -1  -8   5    2.22    0.39
  -1  -8   5    2.29    0.27
   0   8  -5    0.20    0.09
   0  -8   5    0.16    0.08
   0  -8   5    0.27    0.15
  -1   8  -5    0.39    0.13
   1  -8   5    0.20    0.13
   1  -8   5    0.11    0.08
  -2   8  -5    0.12    0.08
   2  -8   5   -0.06    0.06
   2  -8   5   -0.09    0.10
   5   7  -5    2.73    0.32
  -5  -7   5    2.55    0.39
  -5  -7   5    3.50    0.41
   4   7  -5    3.79    0.39
   4   7  -5    3.07    0.46
  -4  -7   5    4.02    0.44
  -4  -7   5    4.06    0.48
   3   7  -5    6.71    0.58
   3   7  -5    5.84    0.59
  -3  -7   5    6.19    0.60
  -3  -7   5    5.92    0.66
   2   7  -5    0.02    0.04
   2   7  -5    0.05    0.06
  -2  -7   5    0.03    0.10
  -2  -7   5    0.05    0.07
   1   7  -5    0.96    0.17
   1   7  -5    1.23    0.17
  -1  -7   5    0.94    0.24
  -1  -7   5    1.33    0.18
   0   7  -5    0.15    0.08
   0  -7   5    0.08    0.06
   0  -7   5    0.02    0.10
  -1   7  -5   14.77    1.34
   1  -7   5   17.21    1.33
   1  -7   5   16.71    1.45
  -2   7  -5    0.38    0.11
   2  -7   5    0.09    0.12
   2  -7   5    0.25    0.09
  -3   7  -5    0.34    0.11
   3  -7   5    0.22    0.10
   3  -7   5    0.30    0.16
   5   6  -5    0.09    0.10
   5   6  -5    0.01    0.06
  -5  -6   5    0.07    0.12
  -5  -6   5    0.10    0.09
   4   6  -5    5.05    0.55
   4   6  -5    5.15    0.50
  -4  -6   5    5.43    0.59
  -4  -6   5    6.25    0.58
   3   6  -5    0.47    0.13
   3   6  -5    0.50    0.11
  -3  -6   5    0.48    0.14
  -3  -6   5    0.40    0.16
   2   6  -5    2.19    0.23
   2   6  -5    2.10    0.25
  -2  -6   5    1.67    0.32
  -2  -6   5    1.80    0.25
   1   6  -5    3.80    0.39
   1   6  -5    4.82    0.41
  -1  -6   5    4.03    0.40
  -1  -6   5    3.96    0.47
   0   6  -5    1.09    0.18
   0   6  -5    1.42    0.16
   0  -6   5    0.77    0.15
   0  -6   5    0.88    0.22
  -1   6  -5    1.26    0.18
  -1   6  -5    1.08    0.16
   1  -6   5    1.30    0.27
   1  -6   5    1.42    0.17
  -2   6  -5    9.73    0.84
   2  -6   5    9.72    0.82
   2  -6   5    9.55    0.92
  -3   6  -5    0.06    0.06
   3  -6   5    0.09    0.12
   3  -6   5   -0.02    0.05
  -4   6  -5   -0.01    0.07
   4  -6   5    0.05    0.09
   4  -6   5    0.04    0.06
   6   5  -5    0.94    0.25
   6   5  -5    0.87    0.17
  -6  -5   5    1.25    0.27
  -6  -5   5    0.91    0.23
   5   5  -5    0.18    0.11
  -5  -5   5    0.45    0.18
  -5  -5   5    0.39    0.15
   4   5  -5    1.30    0.17
   4   5  -5    1.35    0.23
  -4  -5   5    0.90    0.22
  -4  -5   5    1.42    0.28
   3   5  -5    5.54    0.50
   3   5  -5    4.73    0.52
  -3  -5   5    5.25    0.54
  -3  -5   5    7.11    0.62
   2   5  -5    0.17    0.08
   2   5  -5    0.02    0.04
  -2  -5   5    0.11    0.10
  -2  -5   5    0.17    0.11
  -2  -5   5    0.05    0.06
   1   5  -5    0.21    0.07
   1   5  -5    0.17    0.07
  -1  -5   5    0.20    0.08
  -1  -5   5    0.09    0.09
  -1  -5   5    0.20    0.10
   0   5  -5   15.45    1.23
   0   5  -5   14.36    1.24
   0  -5   5   17.76    1.28
   0  -5   5   14.55    1.32
   0  -5   5   14.35    1.23
  -1   5  -5   34.88    2.62
  -1   5  -5   31.47    2.63
   1  -5   5   32.44    2.72
   1  -5   5   34.94    2.62
   1  -5   5   31.93    2.67
  -2   5  -5    2.68    0.29
  -2   5  -5    3.17    0.29
   2  -5   5    2.66    0.36
   2  -5   5    2.67    0.28
  -3   5  -5    0.54    0.13
   3  -5   5    0.45    0.11
   3  -5   5    0.50    0.17
  -4   5  -5    0.97    0.18
   4  -5   5    0.92    0.17
   4  -5   5    0.81    0.22
  -5   5  -5    1.73    0.27
   5  -5   5    2.51    0.30
   5  -5   5    2.71    0.34
   6   4  -5    2.68    0.31
   6   4  -5    2.83    0.39
  -6  -4   5    2.85    0.41
  -6  -4   5    3.29    0.40
  -6  -4   5    3.47    0.42
   5   4  -5    0.00    0.10
   5   4  -5   -0.02    0.04
  -5  -4   5    0.09    0.08
  -5  -4   5   -0.08    0.06
  -5  -4   5    0.03    0.10
   4   4  -5    0.54    0.17
   4   4  -5    0.96    0.13
  -4  -4   5    0.88    0.19
  -4  -4   5    0.73    0.21
  -4  -4   5    1.17    0.22
   3   4  -5    3.22    0.31
   3   4  -5    3.36    0.35
  -3  -4   5    3.20    0.39
  -3  -4   5    3.15    0.33
  -3  -4   5    3.02    0.35
   2   4  -5    4.07    0.37
   2   4  -5    3.81    0.34
   2   4  -5    3.96    0.39
  -2  -4   5    4.96    0.42
  -2  -4   5    4.24    0.37
  -2  -4   5    3.49    0.40
  -2  -4   5    3.96    0.45
   1   4  -5    4.72    0.41
   1   4  -5    4.53    0.36
   1   4  -5    4.75    0.40
  -1  -4   5    4.05    0.37
  -1  -4   5    4.23    0.43
  -1  -4   5    4.24    0.41
  -1  -4   5    4.65    0.49
   0   4  -5    2.46    0.24
   0   4  -5    2.26    0.22
   0  -4   5    2.08    0.22
   0  -4   5    2.00    0.29
   0  -4   5    1.96    0.24
  -1   4  -5   23.54    1.81
  -1   4  -5   21.58    1.83
   1  -4   5   24.10    1.84
   1  -4   5   22.05    1.90
  -2   4  -5   43.89    3.32
  -2   4  -5   43.67    3.34
   2  -4   5   42.03    3.33
   2  -4   5   38.48    3.31
   2  -4   5   45.34    3.42
  -3   4  -5    2.12    0.23
  -3   4  -5    2.26    0.25
   3  -4   5    2.15    0.23
   3  -4   5    1.87    0.28
  -4   4  -5    6.05    0.58
   4  -4   5    6.85    0.58
   4  -4   5    5.77    0.61
  -5   4  -5    2.21    0.26
   5  -4   5    1.82    0.25
   5  -4   5    1.82    0.31
   6  -4   5    1.56    0.29
   6  -4   5    1.60    0.30
   6  -4   5    1.95    0.27
   7   3  -5   -0.09    0.11
  -7  -3   5    0.05    0.09
   6   3  -5    0.10    0.12
   6   3  -5    0.09    0.07
  -6  -3   5    0.01    0.10
  -6  -3   5    0.00    0.08
  -6  -3   5    0.36    0.15
   5   3  -5    0.22    0.08
   5   3  -5    0.29    0.14
  -5  -3   5    0.23    0.12
  -5  -3   5    0.30    0.14
  -5  -3   5    0.31    0.13
   4   3  -5   30.35    2.62
  -4  -3   5   34.62    2.61
  -4  -3   5   34.33    2.67
  -4  -3   5   30.26    2.63
   3   3  -5    0.27    0.10
   3   3  -5    0.25    0.07
  -3  -3   5    0.36    0.12
  -3  -3   5    0.17    0.09
  -3  -3   5    0.35    0.14
  -3  -3   5    0.27    0.09
   2   3  -5   18.91    1.46
   2   3  -5   16.59    1.50
   2   3  -5   19.54    1.48
  -2  -3   5   17.64    1.52
  -2  -3   5   17.88    1.49
  -2  -3   5   19.34    1.52
  -2  -3   5   20.69    1.59
   1   3  -5   17.81    1.47
   1   3  -5   18.81    1.48
   1   3  -5   19.06    1.44
  -1  -3   5   17.31    1.55
  -1  -3   5   18.87    1.46
  -1  -3   5   17.62    1.50
  -1  -3   5   19.16    1.49
   0   3  -5   30.46    2.32
   0   3  -5   30.18    2.34
   0  -3   5   30.36    2.30
   0  -3   5   29.26    2.34
   0  -3   5   28.16    2.41
   0  -3   5   28.69    2.32
  -1   3  -5    7.66    0.65
  -1   3  -5    8.40    0.63
   1  -3   5    7.12    0.63
   1  -3   5    8.12    0.72
   1  -3   5    7.32    0.64
  -2   3  -5    0.04    0.04
  -2   3  -5   -0.03    0.03
   2  -3   5    0.01    0.03
   2  -3   5    0.00    0.02
   2  -3   5    0.02    0.04
   2  -3   5    0.02    0.06
  -3   3  -5    6.38    0.53
  -3   3  -5    5.53    0.53
   3  -3   5    5.32    0.51
   3  -3   5    6.20    0.50
   3  -3   5    5.63    0.51
   3  -3   5    7.20    0.60
  -4   3  -5   -0.03    0.05
  -4   3  -5    0.07    0.06
   4  -3   5    0.03    0.05
   4  -3   5    0.04    0.08
  -5   3  -5    0.23    0.10
   5  -3   5    0.61    0.17
   5  -3   5    0.56    0.14
   5  -3   5    0.43    0.12
   6  -3   5   -0.01    0.07
   6  -3   5   -0.10    0.06
   6  -3   5   -0.03    0.05
   7   2  -5    6.21    0.69
  -7  -2   5    5.59    0.68
  -7  -2   5    6.77    0.70
   6   2  -5    7.56    0.75
   6   2  -5    7.00    0.63
  -6  -2   5    7.52    0.75
  -6  -2   5    7.41    0.73
   5   2  -5    1.90    0.21
   5   2  -5    1.95    0.33
  -5  -2   5    2.01    0.34
  -5  -2   5    1.63    0.29
   4   2  -5    7.61    0.65
   4   2  -5    8.58    0.74
  -4  -2   5    7.73    0.71
  -4  -2   5    7.48    0.73
   3   2  -5    0.25    0.10
   3   2  -5    0.18    0.06
  -3  -2   5    0.30    0.10
  -3  -2   5    0.35    0.11
  -3  -2   5    0.20    0.08
  -3  -2   5    0.30    0.13
   2   2  -5    8.27    0.61
   2   2  -5    8.40    0.65
   2   2  -5    7.47    0.60
  -2  -2   5    7.22    0.64
  -2  -2   5    6.66    0.64
  -2  -2   5    6.12    0.67
  -2  -2   5    6.86    0.62
   1   2  -5    0.90    0.13
   1   2  -5    1.13    0.11
   1   2  -5    1.12    0.13
  -1  -2   5    1.33    0.13
  -1  -2   5    0.89    0.14
  -1  -2   5    0.93    0.14
  -1  -2   5    1.01    0.20
   0   2  -5    0.47    0.09
   0   2  -5    0.58    0.08
   0   2  -5    0.57    0.10
   0  -2   5    0.70    0.16
   0  -2   5    0.68    0.11
   0  -2   5    0.58    0.07
   0  -2   5    0.48    0.09
  -1   2  -5   95.52    6.61
  -1   2  -5   83.77    6.60
  -1   2  -5   85.61    6.58
   1  -2   5   89.71    6.67
   1  -2   5   80.72    6.59
   1  -2   5   80.41    6.58
   1  -2   5   82.62    6.57
  -2   2  -5    0.65    0.12
  -2   2  -5    0.74    0.09
   2  -2   5    0.80    0.09
   2  -2   5    0.66    0.15
   2  -2   5    0.84    0.10
   2  -2   5    0.71    0.09
  -3   2  -5    1.05    0.15
  -3   2  -5    1.31    0.14
   3  -2   5    1.08    0.13
   3  -2   5    0.94    0.13
   3  -2   5    0.86    0.18
   3  -2   5    1.21    0.13
  -4   2  -5   34.20    3.00
  -4   2  -5   41.15    3.03
   4  -2   5   38.12    2.98
   4  -2   5   37.75    3.05
   4  -2   5   39.89    3.01
  -5   2  -5    2.33    0.27
   5  -2   5    2.04    0.27
   5  -2   5    2.21    0.29
   6  -2   5    0.01    0.06
   6  -2   5    0.13    0.10
   6  -2   5    0.11    0.08
   7  -2   5    0.60    0.18
   7  -2   5    0.79    0.19
   7   1  -5    0.30    0.17
  -7  -1   5    0.16    0.15
   6   1  -5    0.32    0.15
  -6  -1   5    0.05    0.11
  -6  -1   5    0.20    0.13
   5   1  -5    9.60    0.74
   5   1  -5    8.41    0.84
  -5  -1   5    9.05    0.83
  -5  -1   5    7.62    0.82
   4   1  -5    5.73    0.58
   4   1  -5    5.82    0.50
  -4  -1   5    6.88    0.59
  -4  -1   5    5.77    0.52
   3   1  -5    0.10    0.04
   3   1  -5    0.12    0.08
  -3  -1   5    0.05    0.06
  -3  -1   5    0.12    0.07
  -3  -1   5    0.11    0.05
   2   1  -5    1.01    0.16
   2   1  -5    1.05    0.11
   2   1  -5    1.02    0.11
  -2  -1   5    1.02    0.12
  -2  -1   5    0.83    0.15
  -2  -1   5    0.93    0.13
  -2  -1   5    0.87    0.13
   1   1  -5   18.11    1.48
   1   1  -5   19.05    1.46
   1   1  -5   19.25    1.48
   1   1  -5   18.80    1.46
  -1  -1   5   17.32    1.53
  -1  -1   5   17.31    1.46
  -1  -1   5   18.04    1.48
  -1  -1   5   18.39    1.46
  -1  -1   5   20.39    1.48
   0   1  -5   30.97    2.38
   0   1  -5   29.03    2.37
   0   1  -5   28.74    2.38
   0  -1   5   30.49    2.45
   0  -1   5   30.57    2.37
   0  -1   5   33.07    2.38
   0  -1   5   30.76    2.38
   0  -1   5   30.16    2.37
  -1   1  -5   43.78    3.37
  -1   1  -5   41.41    3.35
  -1   1  -5   43.37    3.39
   1  -1   5   43.79    3.36
   1  -1   5   43.07    3.36
   1  -1   5   47.14    3.45
   1  -1   5   42.51    3.37
  -2   1  -5    0.17    0.10
  -2   1  -5    0.26    0.05
  -2   1  -5    0.21    0.07
   2  -1   5    0.33    0.05
   2  -1   5    0.37    0.11
   2  -1   5    0.35    0.06
  -3   1  -5    7.05    0.60
  -3   1  -5    7.51    0.57
   3  -1   5    6.71    0.59
   3  -1   5    6.25    0.61
   3  -1   5    6.93    0.56
   3  -1   5    6.31    0.57
  -4   1  -5    0.23    0.08
  -4   1  -5    0.21    0.07
   4  -1   5    0.20    0.08
   4  -1   5    0.15    0.05
   4  -1   5    0.01    0.04
   4  -1   5    0.19    0.09
  -5   1  -5    8.64    0.72
   5  -1   5    7.60    0.70
   5  -1   5    8.24    0.71
   5  -1   5    7.36    0.73
   6  -1   5   13.92    1.12
   6  -1   5   12.34    1.16
   6  -1   5   13.32    1.14
   7  -1   5   12.97    1.02
   7  -1   5    9.44    1.00
   7   0  -5    3.07    0.42
  -7   0   5    2.31    0.42
  -7   0   5    2.84    0.40
   6   0  -5    1.72    0.32
  -6   0   5    1.75    0.32
  -6   0   5    1.74    0.32
   5   0  -5    0.93    0.22
   5   0  -5    1.00    0.12
  -5   0   5    0.72    0.20
  -5   0   5    1.08    0.22
   4   0  -5    2.32    0.27
   4   0  -5    1.63    0.17
   4   0  -5    1.83    0.17
  -4   0   5    2.04    0.25
  -4   0   5    1.57    0.27
  -4   0   5    1.80    0.19
   3   0  -5    0.17    0.04
   3   0  -5    0.30    0.09
  -3   0   5    0.29    0.09
  -3   0   5    0.27    0.07
  -3   0   5    0.28    0.09
  -3   0   5    0.26    0.09
   2   0  -5    3.54    0.35
   2   0  -5    3.50    0.30
  -2   0   5    3.22    0.33
  -2   0   5    3.25    0.34
  -2   0   5    3.87    0.34
  -2   0   5    3.64    0.31
   1   0  -5    1.90    0.20
   1   0  -5    2.08    0.21
   1   0  -5    2.31    0.20
   1   0  -5    2.08    0.19
  -1   0   5    2.31    0.21
  -1   0   5    2.03    0.19
  -1   0   5    1.95    0.20
   0   0  -5    0.56    0.09
   0   0  -5    0.95    0.09
   0   0   5    0.89    0.09
   0   0   5    0.83    0.09
   0   0   5    0.87    0.10
   0   0   5    0.85    0.09
  -1   0  -5   71.64    5.55
  -1   0  -5   73.61    5.54
  -1   0  -5   74.78    5.59
   1   0   5   72.05    5.58
   1   0   5   67.21    5.63
   1   0   5   73.63    5.57
   1   0   5   71.55    5.55
   1   0   5   71.83    5.55
  -2   0  -5   14.64    1.00
  -2   0  -5   12.02    0.96
  -2   0  -5   12.13    0.95
   2   0   5   11.93    0.96
   2   0   5   10.98    1.01
   2   0   5   12.08    0.95
  -3   0  -5    0.07    0.03
  -3   0  -5    0.09    0.05
  -3   0  -5    0.08    0.03
  -3   0  -5    0.13    0.07
   3   0   5    0.04    0.02
   3   0   5    0.12    0.06
   3   0   5    0.00    0.04
   3   0   5    0.13    0.04
  -4   0  -5    6.41    0.53
  -4   0  -5    5.49    0.50
   4   0   5    5.22    0.51
   4   0   5    5.14    0.53
   4   0   5    5.90    0.48
   4   0   5    6.10    0.50
  -5   0  -5    0.19    0.08
  -5   0  -5    0.24    0.09
   5   0   5    0.23    0.09
   5   0   5    0.25    0.08
   5   0   5    0.29    0.08
   5   0   5    0.36    0.12
  -6   0  -5   18.13    1.58
   6   0   5   17.50    1.53
   6   0   5   20.04    1.50
   6   0   5   17.74    1.57
   7   0   5    1.98    0.31
   7   0   5    2.34    0.30
   8   0   5    0.09    0.09
   8   0   5   -0.04    0.09
   7  -1  -5    1.17    0.28
  -7   1   5    0.97    0.27
  -7   1   5    1.10    0.28
   6  -1  -5    5.74    0.64
  -6   1   5    5.58    0.62
  -6   1   5    6.64    0.65
   5  -1  -5   12.12    0.95
   5  -1  -5   11.04    1.05
  -5   1   5   11.78    1.06
  -5   1   5   11.48    1.05
   4  -1  -5    9.05    0.75
   4  -1  -5    9.84    0.75
   4  -1  -5    8.61    0.85
  -4   1   5   10.51    0.85
  -4   1   5    8.76    0.77
  -4   1   5   10.92    0.87
   3  -1  -5    2.43    0.28
   3  -1  -5    2.19    0.19
  -3   1   5    2.30    0.26
  -3   1   5    2.37    0.21
  -3   1   5    2.28    0.25
  -3   1   5    2.19    0.27
   2  -1  -5    0.34    0.05
   2  -1  -5    0.29    0.09
  -2   1   5    0.39    0.05
  -2   1   5    0.30    0.08
  -2   1   5    0.29    0.08
  -2   1   5    0.32    0.08
   1  -1  -5    0.51    0.08
   1  -1  -5    0.48    0.08
   1  -1  -5    0.40    0.06
   1  -1  -5    0.73    0.10
  -1   1   5    0.50    0.09
  -1   1   5    0.51    0.09
  -1   1   5    0.41    0.06
  -1   1   5    0.48    0.06
  -1   1   5    0.51    0.08
   0  -1  -5    0.51    0.07
   0  -1  -5    0.35    0.06
   0  -1  -5    0.42    0.08
   0  -1  -5    0.59    0.06
   0   1   5    0.60    0.06
   0   1   5    0.50    0.07
   0   1   5    0.58    0.07
   0   1   5    0.47    0.07
  -1  -1  -5  114.65    8.15
   1   1   5  101.98    8.13
   1   1   5  100.00    8.13
   2   1   5   19.55    1.76
   2   1   5   23.56    1.78
   2   1   5   22.15    1.71
   2   1   5   22.74    1.75
   2   1   5   22.89    1.72
  -3  -1  -5    3.92    0.33
   3   1   5    5.18    0.41
   3   1   5    3.98    0.37
   3   1   5    3.76    0.33
   3   1   5    4.03    0.35
  -4  -1  -5    0.28    0.07
   4   1   5    0.17    0.06
   4   1   5    0.18    0.08
   4   1   5    0.15    0.05
   4   1   5    0.10    0.05
  -5  -1  -5    1.00    0.14
  -5  -1  -5    0.92    0.16
   5   1   5    0.91    0.13
   5   1   5    1.02    0.20
   5   1   5    1.19    0.13
   5   1   5    1.09    0.15
  -6  -1  -5   23.27    1.87
   6   1   5   23.09    1.81
   6   1   5   23.39    1.87
   6   1   5   21.44    1.89
   7   1   5    0.65    0.16
   7   1   5    0.37    0.14
   8   1   5    3.19    0.41
   8   1   5    3.84    0.45
   6  -2  -5    0.80    0.22
  -6   2   5    0.52    0.18
  -6   2   5    0.56    0.19
   5  -2  -5   25.66    2.03
  -5   2   5   20.77    1.99
  -5   2   5   26.72    2.03
   4  -2  -5   37.25    2.82
   4  -2  -5   36.52    2.94
  -4   2   5   32.51    2.92
  -4   2   5   39.23    2.93
   3  -2  -5    0.82    0.17
  -3   2   5    0.87    0.17
  -3   2   5    1.16    0.19
  -3   2   5    1.15    0.14
   2  -2  -5    7.37    0.66
   2  -2  -5    8.09    0.60
  -2   2   5    7.90    0.64
  -2   2   5    7.23    0.66
  -2   2   5    7.01    0.65
   1  -2  -5   57.49    4.34
   1  -2  -5   51.95    4.35
   1  -2  -5   55.59    4.32
  -1   2   5   55.44    4.32
  -1   2   5   54.17    4.31
  -1   2   5   55.42    4.34
  -1   2   5   55.87    4.35
  -1   2   5   60.60    4.32
  -1   2   5   56.99    4.35
   0  -2  -5    0.15    0.04
   0  -2  -5    0.13    0.03
   0  -2  -5    0.11    0.03
   0   2   5    0.13    0.04
   0   2   5    0.14    0.04
   0   2   5    0.13    0.03
   0   2   5    0.13    0.03
   0   2   5    0.10    0.04
  -1  -2  -5    3.27    0.27
  -1  -2  -5    3.62    0.27
   1   2   5    3.24    0.27
   1   2   5    3.15    0.29
   1   2   5    3.16    0.30
   1   2   5    3.28    0.29
   1   2   5    3.38    0.27
  -2  -2  -5   26.78    2.39
  -2  -2  -5   31.17    2.39
   2   2   5   31.05    2.42
   2   2   5   32.80    2.40
   2   2   5   31.77    2.39
   2   2   5   32.75    2.45
  -3  -2  -5    6.90    0.53
   3   2   5    5.74    0.57
   3   2   5    6.47    0.53
   3   2   5    6.39    0.53
   3   2   5    6.57    0.55
  -4  -2  -5    0.65    0.12
   4   2   5    0.76    0.10
   4   2   5    0.98    0.11
   4   2   5    0.95    0.17
   4   2   5    0.64    0.12
   5   2   5    1.76    0.24
   5   2   5    2.10    0.23
   5   2   5    1.80    0.21
  -6  -2  -5    8.71    0.72
   6   2   5    7.83    0.71
   6   2   5    6.79    0.71
   7   2   5   32.13    2.86
   7   2   5   39.42    2.91
   8   2   5    0.81    0.22
   8   2   5    1.17    0.25
   6  -3  -5   -0.11    0.09
  -6   3   5    0.00    0.08
  -6   3   5   -0.02    0.08
   5  -3  -5    0.05    0.10
  -5   3   5    0.05    0.09
  -5   3   5    0.20    0.12
   4  -3  -5   58.77    4.62
  -4   3   5   55.19    4.60
  -4   3   5   61.54    4.63
   3  -3  -5    3.52    0.39
  -3   3   5    4.03    0.40
  -3   3   5    4.10    0.39
   2  -3  -5   -0.02    0.04
  -2   3   5   -0.01    0.04
  -2   3   5    0.02    0.03
  -2   3   5    0.02    0.04
   1  -3  -5    2.79    0.25
  -1   3   5    2.66    0.25
  -1   3   5    2.44    0.23
  -1   3   5    2.47    0.21
  -1   3   5    2.60    0.25
   0  -3  -5    8.28    0.71
   0  -3  -5    8.80    0.73
   0  -3  -5    9.32    0.71
   0   3   5    8.96    0.70
   0   3   5    9.16    0.72
   0   3   5    8.72    0.71
   0   3   5    8.50    0.72
   0   3   5    9.10    0.71
  -1  -3  -5   21.44    1.76
   1   3   5   24.76    1.79
   1   3   5   21.07    1.76
   1   3   5   22.74    1.77
   1   3   5   23.97    1.79
   1   3   5   22.52    1.78
  -2  -3  -5   41.10    2.87
  -2  -3  -5   34.70    2.84
   2   3   5   33.01    2.86
   2   3   5   38.77    2.86
   2   3   5   35.42    2.83
   2   3   5   36.85    2.84
  -3  -3  -5    0.06    0.04
  -3  -3  -5    0.02    0.03
   3   3   5   -0.01    0.02
   3   3   5    0.02    0.03
   3   3   5   -0.02    0.03
   3   3   5   -0.01    0.02
  -4  -3  -5   24.25    1.94
   4   3   5   25.72    1.94
   4   3   5   21.90    1.93
   4   3   5   24.06    1.90
   4   3   5   26.87    1.99
  -5  -3  -5   26.13    1.98
   5   3   5   24.02    1.96
   5   3   5   24.69    1.97
   5   3   5   23.00    1.99
  -6  -3  -5    9.52    0.90
   6   3   5   10.81    0.91
   6   3   5   10.80    0.94
   7   3   5    9.12    0.84
   8   3   5    0.07    0.11
   8   3   5    0.14    0.10
   6  -4  -5    3.50    0.51
  -6   4   5    5.58    0.57
  -6   4   5    5.06    0.55
   5  -4  -5   10.93    1.07
  -5   4   5   14.65    1.13
  -5   4   5   11.04    1.07
   4  -4  -5   26.65    2.10
  -4   4   5   23.93    2.09
  -4   4   5   25.90    2.08
   3  -4  -5    7.42    0.64
  -3   4   5    6.75    0.62
  -3   4   5    6.66    0.63
   2  -4  -5    3.88    0.39
  -2   4   5    4.47    0.37
  -2   4   5    4.02    0.38
  -2   4   5    3.68    0.38
   1  -4  -5    1.24    0.15
  -1   4   5    1.27    0.15
  -1   4   5    1.18    0.10
  -1   4   5    0.98    0.13
  -1   4   5    1.26    0.14
   0  -4  -5   27.14    2.19
   0  -4  -5   28.78    2.21
   0  -4  -5   27.87    2.18
   0   4   5   28.28    2.20
   0   4   5   26.72    2.18
   0   4   5   29.19    2.19
   0   4   5   28.05    2.18
   0   4   5   28.49    2.20
  -1  -4  -5   47.36    3.98
  -1  -4  -5   51.47    3.97
  -1  -4  -5   50.37    3.97
   1   4   5   51.13    3.97
   1   4   5   49.77    3.98
   1   4   5   49.12    3.98
   1   4   5   52.67    3.98
   1   4   5   58.86    4.01
  -2  -4  -5    0.18    0.06
  -2  -4  -5    0.11    0.05
  -2  -4  -5    0.12    0.04
   2   4   5    0.27    0.06
   2   4   5    0.12    0.06
   2   4   5    0.06    0.03
   2   4   5    0.15    0.05
  -3  -4  -5   14.66    1.13
  -3  -4  -5   13.94    1.16
   3   4   5   14.63    1.12
   3   4   5   12.36    1.15
   3   4   5   13.35    1.13
   3   4   5   15.16    1.15
  -4  -4  -5   32.07    2.50
   4   4   5   30.64    2.49
   4   4   5   31.85    2.50
   4   4   5   31.85    2.44
   4   4   5   31.38    2.44
  -5  -4  -5    0.68    0.14
   5   4   5    0.61    0.15
   5   4   5    0.98    0.16
   5   4   5    0.41    0.11
  -6  -4  -5    8.92    0.78
   6   4   5    8.13    0.79
   6   4   5    8.70    0.77
   7   4   5   11.65    1.05
   7   4   5   12.17    1.08
   8   4   5    2.63    0.35
   8   4   5    2.26    0.32
   5  -5  -5    6.86    0.77
  -5   5   5    8.93    0.80
  -5   5   5    8.51    0.78
   4  -5  -5   11.12    1.08
  -4   5   5   13.04    1.09
  -4   5   5   13.17    1.10
   3  -5  -5   11.42    1.02
  -3   5   5   11.66    1.02
  -3   5   5   12.21    1.01
   2  -5  -5   10.26    0.79
  -2   5   5    8.63    0.76
  -2   5   5    8.26    0.77
   1  -5  -5    0.39    0.05
   1  -5  -5    0.53    0.10
  -1   5   5    0.44    0.09
  -1   5   5    0.50    0.09
  -1   5   5    0.46    0.10
   0  -5  -5   10.68    0.87
   0  -5  -5   10.37    0.85
   0   5   5   11.16    0.87
   0   5   5   10.41    0.87
   0   5   5   10.95    0.87
   0   5   5   10.65    0.85
  -1  -5  -5   45.33    3.49
  -1  -5  -5   41.70    3.50
   1   5   5   47.54    3.53
   1   5   5   44.39    3.50
   1   5   5   45.96    3.51
   1   5   5   43.02    3.50
   1   5   5   46.73    3.49
  -2  -5  -5   12.32    1.04
  -2  -5  -5   13.57    1.07
   2   5   5   13.53    1.07
   2   5   5   12.39    1.04
   2   5   5   13.56    1.06
   2   5   5   13.08    1.07
  -3  -5  -5    3.95    0.35
   3   5   5    3.87    0.35
   3   5   5    4.06    0.34
   3   5   5    3.32    0.36
   3   5   5    3.73    0.37
  -4  -5  -5   10.56    0.89
   4   5   5   10.93    0.84
   4   5   5    9.24    0.88
   4   5   5   10.90    0.92
   4   5   5   11.28    0.90
  -5  -5  -5    3.25    0.36
   5   5   5    3.62    0.36
   5   5   5    3.32    0.38
   5   5   5    3.97    0.37
  -6  -5  -5   12.87    1.01
   6   5   5   11.07    0.99
   6   5   5   10.50    1.00
   7   5   5    0.12    0.10
   7   5   5    0.15    0.11
   8   5   5    0.02    0.08
   8   5   5    0.07    0.09
   5  -6  -5    0.16    0.13
  -5   6   5    0.24    0.14
  -5   6   5    0.20    0.10
   4  -6  -5    1.10    0.22
  -4   6   5    0.94    0.21
  -4   6   5    1.04    0.21
   3  -6  -5    4.30    0.47
  -3   6   5    5.22    0.47
  -3   6   5    4.34    0.47
   2  -6  -5   10.50    0.84
   2  -6  -5   10.71    0.91
  -2   6   5   11.08    0.90
  -2   6   5   10.19    0.91
   1  -6  -5   20.77    1.81
   1  -6  -5   22.56    1.77
  -1   6   5   24.15    1.81
  -1   6   5   23.40    1.84
  -1   6   5   22.51    1.81
   0  -6  -5    0.06    0.04
   0  -6  -5    0.03    0.04
   0   6   5    0.02    0.04
   0   6   5    0.04    0.03
   0   6   5    0.02    0.04
   0   6   5    0.07    0.04
  -1  -6  -5   45.43    3.56
  -1  -6  -5   45.77    3.55
   1   6   5   44.85    3.55
   1   6   5   47.78    3.56
   1   6   5   45.08    3.57
   1   6   5   44.61    3.56
  -2  -6  -5    3.96    0.38
   2   6   5    4.59    0.41
   2   6   5    4.42    0.38
   2   6   5    4.39    0.40
   2   6   5    4.16    0.40
  -3  -6  -5    0.55    0.11
   3   6   5    0.69    0.14
   3   6   5    0.82    0.11
   3   6   5    0.50    0.13
   3   6   5    0.89    0.12
  -4  -6  -5    2.40    0.27
   4   6   5    2.61    0.23
   4   6   5    1.98    0.27
   4   6   5    2.86    0.30
   4   6   5    2.70    0.27
  -5  -6  -5    3.03    0.31
   5   6   5    2.39    0.31
   5   6   5    2.81    0.31
   5   6   5    2.35    0.29
  -6  -6  -5    4.09    0.47
   6   6   5    4.74    0.47
   6   6   5    5.35    0.51
   7   6   5    0.94    0.22
   7   6   5    1.00    0.21
   8   6   5    2.41    0.34
   8   6   5    2.58    0.36
   4  -7  -5    1.44    0.27
  -4   7   5    1.51    0.27
  -4   7   5    1.02    0.22
   3  -7  -5    0.82    0.19
  -3   7   5    1.22    0.22
  -3   7   5    1.04    0.19
   2  -7  -5    1.51    0.20
  -2   7   5    0.88    0.19
  -2   7   5    1.49    0.18
   1  -7  -5    0.38    0.10
   1  -7  -5    0.43    0.08
  -1   7   5    0.43    0.11
  -1   7   5    0.51    0.06
  -1   7   5    0.58    0.12
   0  -7  -5    0.36    0.10
   0  -7  -5    0.25    0.07
   0   7   5    0.25    0.08
   0   7   5    0.30    0.08
  -1  -7  -5    0.82    0.13
  -1  -7  -5    0.81    0.13
   1   7   5    0.73    0.14
   1   7   5    0.74    0.12
   1   7   5    0.64    0.11
   1   7   5    0.68    0.10
  -2  -7  -5    2.11    0.23
   2   7   5    2.35    0.24
   2   7   5    2.12    0.25
   2   7   5    2.13    0.23
   2   7   5    2.22    0.23
  -3  -7  -5    7.22    0.60
   3   7   5    7.60    0.63
   3   7   5    6.67    0.61
   3   7   5    6.30    0.59
   3   7   5    6.35    0.59
  -4  -7  -5    0.28    0.09
   4   7   5    0.23    0.08
   4   7   5    0.31    0.12
   4   7   5    0.15    0.08
   4   7   5    0.43    0.09
  -5  -7  -5    1.14    0.20
   5   7   5    0.89    0.18
   5   7   5    0.75    0.17
  -6  -7  -5   25.85    2.01
   6   7   5   23.90    1.98
   6   7   5   23.05    2.01
   7   7   5    0.00    0.06
   7   7   5    0.03    0.08
   8   7   5    0.80    0.21
   8   7   5    1.05    0.24
   4  -8  -5    8.62    0.77
  -4   8   5    6.83    0.71
  -4   8   5    7.33    0.74
   3  -8  -5    0.04    0.09
  -3   8   5    0.08    0.08
  -3   8   5    0.21    0.11
   2  -8  -5    7.46    0.71
  -2   8   5    8.72    0.73
  -2   8   5    7.38    0.69
   1  -8  -5   10.67    0.94
  -1   8   5   11.50    0.88
  -1   8   5   10.64    0.92
  -1   8   5   10.90    0.94
   0  -8  -5   12.66    0.99
   0   8   5   12.16    0.97
   0   8   5   10.39    0.97
  -1  -8  -5   14.58    1.24
   1   8   5   15.33    1.22
   1   8   5   15.08    1.23
   1   8   5   15.85    1.24
  -2  -8  -5   10.66    0.95
   2   8   5   11.33    0.96
   2   8   5   11.17    0.96
   2   8   5   12.77    0.96
  -3  -8  -5    2.84    0.31
   3   8   5    3.72    0.34
   3   8   5    2.94    0.31
  -4  -8  -5    6.96    0.62
   4   8   5    6.52    0.63
   4   8   5    6.98    0.62
  -5  -8  -5    0.71    0.16
   5   8   5    1.16    0.21
   5   8   5    0.88    0.18
  -6  -8  -5    1.35    0.24
   6   8   5    1.58    0.23
   6   8   5    1.24    0.25
   7   8   5    2.39    0.31
   7   8   5    2.22    0.33
   3  -9  -5    0.03    0.09
  -3   9   5    0.05    0.10
  -3   9   5    0.12    0.10
   2  -9  -5    2.29    0.28
  -2   9   5    1.71    0.24
  -2   9   5    2.03    0.26
   1  -9  -5    0.18    0.09
  -1   9   5    0.31    0.11
  -1   9   5    0.27    0.09
   0  -9  -5    2.10    0.24
   0   9   5    2.36    0.25
   0   9   5    1.78    0.22
  -1  -9  -5   58.49    4.46
  -1  -9  -5   54.55    4.40
   1   9   5   56.26    4.38
   1   9   5   53.23    4.40
   1   9   5   58.79    4.39
  -2  -9  -5    9.94    0.99
  -2  -9  -5   12.16    0.98
   2   9   5   12.38    0.97
   2   9   5   11.62    0.96
  -3  -9  -5    6.11    0.53
  -3  -9  -5    5.35    0.53
   3   9   5    6.05    0.53
   3   9   5    5.74    0.52
   3   9   5    5.45    0.53
  -4  -9  -5    0.27    0.09
   4   9   5    0.37    0.11
   4   9   5    0.14    0.08
  -5  -9  -5    3.58    0.38
   5   9   5    3.41    0.37
   5   9   5    2.95    0.37
  -6  -9  -5    3.35    0.42
   6   9   5    4.13    0.43
   6   9   5    4.13    0.45
   7   9   5    2.42    0.34
   7   9   5    3.14    0.38
   2 -10  -5    2.24    0.30
  -2  10   5    1.68    0.30
  -2  10   5    2.32    0.27
   1 -10  -5    0.31    0.12
  -1  10   5    0.38    0.12
  -1  10   5    0.38    0.13
   0 -10  -5   36.76    2.97
   0 -10  -5   39.20    3.05
   0  10   5   39.59    2.98
   0  10   5   37.12    2.92
   0  10   5   34.76    2.94
  -1 -10  -5    0.53    0.17
  -1 -10  -5    0.70    0.15
   1  10   5    0.83    0.16
   1  10   5    0.81    0.14
  -2 -10  -5    0.07    0.07
  -2 -10  -5    0.04    0.07
   2  10   5    0.01    0.04
   2  10   5    0.02    0.05
   2  10   5    0.01    0.05
  -3 -10  -5    0.50    0.14
  -3 -10  -5    0.86    0.18
   3  10   5    0.69    0.14
   3  10   5    0.81    0.16
   3  10   5    0.77    0.15
  -4 -10  -5   10.05    0.91
  -4 -10  -5    9.31    0.89
   4  10   5   12.20    0.94
   4  10   5   10.63    0.91
  -5 -10  -5    0.32    0.12
   5  10   5    0.38    0.13
   5  10   5    0.20    0.10
   6  10   5    1.39    0.25
   6  10   5    1.24    0.25
   1 -11  -5    0.32    0.13
  -1  11   5    0.28    0.11
  -1  11   5    0.79    0.16
   0 -11  -5    0.32    0.15
   0 -11  -5    0.16    0.10
   0  11   5    0.21    0.09
   0  11   5    0.19    0.12
  -1 -11  -5   37.39    2.87
   1  11   5   33.59    2.86
   1  11   5   36.55    2.83
  -2 -11  -5    2.61    0.30
   2  11   5    2.39    0.29
   2  11   5    2.40    0.26
  -3 -11  -5    1.78    0.24
  -3 -11  -5    1.34    0.26
   3  11   5    1.50    0.20
   3  11   5    1.95    0.24
   3  11   5    1.78    0.23
  -4 -11  -5    0.94    0.19
   4  11   5    0.79    0.16
   4  11   5    0.76    0.17
   4  11   5    0.76    0.17
  -5 -11  -5   10.38    1.02
   5  11   5   10.81    1.00
   5  11   5   12.21    1.00
  -2 -12  -5    0.03    0.10
  -2 -12  -5    0.16    0.09
   2  12   5   -0.11    0.06
   2  12   5    0.05    0.07
  -3 -12  -5    0.43    0.15
  -3 -12  -5    0.37    0.13
   3  12   5    0.21    0.10
   3  12   5    0.09    0.08
   3  12   5    0.32    0.10
   2   8  -6    1.82    0.25
  -2  -8   6    2.16    0.27
  -2  -8   6    2.32    0.42
   1   8  -6    0.18    0.10
  -1  -8   6    0.11    0.13
  -1  -8   6    0.02    0.07
   0   8  -6    2.43    0.30
   0  -8   6    2.77    0.47
   4   7  -6    0.64    0.14
  -4  -7   6    0.74    0.23
  -4  -7   6    0.48    0.16
   3   7  -6    0.10    0.07
  -3  -7   6    0.36    0.12
  -3  -7   6    0.29    0.15
   2   7  -6   -0.04    0.05
  -2  -7   6    0.21    0.13
  -2  -7   6    0.05    0.07
   1   7  -6    0.05    0.06
  -1  -7   6    0.10    0.07
  -1  -7   6    0.05    0.09
   0   7  -6    0.02    0.06
   0  -7   6    0.08    0.11
   0  -7   6    0.02    0.05
  -1   7  -6    0.35    0.11
   1  -7   6    0.53    0.12
   1  -7   6    0.24    0.15
  -2   7  -6    1.38    0.22
   2  -7   6    1.41    0.19
   2  -7   6    0.97    0.26
   5   6  -6    3.30    0.38
  -5  -6   6    4.02    0.47
  -5  -6   6    5.14    0.55
   4   6  -6    3.54    0.38
  -4  -6   6    3.93    0.50
  -4  -6   6    4.29    0.45
   3   6  -6    0.89    0.17
  -3  -6   6    1.00    0.25
  -3  -6   6    1.38    0.24
   2   6  -6    0.09    0.07
  -2  -6   6    0.08    0.07
  -2  -6   6    0.18    0.12
   1   6  -6    4.66    0.43
  -1  -6   6    2.93    0.47
  -1  -6   6    5.32    0.44
   0   6  -6    0.17    0.08
   0  -6   6    0.00    0.08
   0  -6   6    0.12    0.06
  -1   6  -6    0.17    0.08
   1  -6   6    0.21    0.08
   1  -6   6   -0.02    0.08
  -2   6  -6    1.20    0.20
   2  -6   6    1.33    0.28
   2  -6   6    1.39    0.18
  -3   6  -6    0.94    0.20
   3  -6   6    1.20    0.27
   3  -6   6    1.56    0.19
  -4   6  -6   -0.05    0.07
   4  -6   6   -0.02    0.05
   4  -6   6    0.35    0.17
   5   5  -6    0.03    0.06
  -5  -5   6    0.00    0.10
  -5  -5   6    0.11    0.11
  -5  -5   6   -0.10    0.09
   4   5  -6    2.03    0.23
   4   5  -6    1.72    0.38
  -4  -5   6    1.98    0.36
  -4  -5   6    2.00    0.28
  -4  -5   6    1.72    0.25
   3   5  -6    0.90    0.20
   3   5  -6    1.12    0.16
  -3  -5   6    0.78    0.23
  -3  -5   6    0.99    0.20
   2   5  -6    8.59    0.67
   2   5  -6    6.48    0.67
  -2  -5   6    8.39    0.70
  -2  -5   6    7.33    0.76
   1   5  -6    6.08    0.53
   1   5  -6    5.54    0.53
  -1  -5   6    6.93    0.65
  -1  -5   6    5.69    0.54
   0   5  -6   10.41    0.92
   0   5  -6   12.28    0.95
   0  -5   6   10.65    0.92
   0  -5   6   12.00    1.04
  -1   5  -6   29.61    2.21
   1  -5   6   25.22    2.29
   1  -5   6   27.39    2.18
  -2   5  -6    4.60    0.48
   2  -5   6    5.41    0.46
   2  -5   6    5.31    0.57
  -3   5  -6    0.50    0.14
   3  -5   6    0.43    0.17
   3  -5   6    0.58    0.12
  -4   5  -6   -0.02    0.07
   4  -5   6    0.00    0.05
   4  -5   6   -0.04    0.09
  -5   5  -6    0.25    0.12
   5  -5   6    0.11    0.09
   5  -5   6    0.19    0.14
   6   4  -6   -0.01    0.05
  -6  -4   6    0.26    0.15
  -6  -4   6    0.06    0.14
  -6  -4   6   -0.02    0.08
   5   4  -6    1.13    0.24
   5   4  -6    0.92    0.16
  -5  -4   6    1.42    0.30
  -5  -4   6    1.14    0.26
  -5  -4   6    0.89    0.20
   4   4  -6    2.98    0.29
   4   4  -6    3.21    0.37
  -4  -4   6    2.81    0.34
  -4  -4   6    3.02    0.40
  -4  -4   6    2.39    0.34
   3   4  -6    7.42    0.64
   3   4  -6    7.30    0.68
  -3  -4   6    8.00    0.70
  -3  -4   6    6.46    0.73
  -3  -4   6    7.84    0.67
   2   4  -6    5.68    0.50
   2   4  -6    5.08    0.46
  -2  -4   6    4.65    0.55
  -2  -4   6    5.52    0.50
  -2  -4   6    4.96    0.46
   1   4  -6   10.13    0.86
   1   4  -6   10.27    0.86
  -1  -4   6    9.80    0.87
  -1  -4   6   10.20    0.83
  -1  -4   6   10.27    0.90
  -1  -4   6   11.99    0.98
   0   4  -6    6.67    0.54
   0   4  -6    6.13    0.56
   0  -4   6    6.21    0.57
   0  -4   6    6.52    0.65
   0  -4   6    6.07    0.54
  -1   4  -6    0.96    0.16
  -1   4  -6    0.96    0.12
   1  -4   6    1.11    0.13
   1  -4   6    1.10    0.23
  -2   4  -6    3.48    0.35
  -2   4  -6    3.65    0.34
   2  -4   6    3.44    0.32
   2  -4   6    3.14    0.40
  -3   4  -6    0.22    0.09
   3  -4   6    0.27    0.13
   3  -4   6    0.38    0.10
  -4   4  -6    8.67    0.89
   4  -4   6   11.46    0.98
   4  -4   6   11.29    0.89
  -5   4  -6    2.85    0.34
   5  -4   6    2.63    0.32
   5  -4   6    3.05    0.37
   6   3  -6    0.25    0.17
  -6  -3   6    0.07    0.11
  -6  -3   6    0.16    0.12
  -6  -3   6    0.00    0.11
   5   3  -6    0.06    0.06
   5   3  -6    0.10    0.10
  -5  -3   6    0.14    0.12
  -5  -3   6    0.14    0.12
  -5  -3   6    0.21    0.10
   4   3  -6    0.16    0.09
   4   3  -6    0.17    0.06
  -4  -3   6    0.20    0.09
  -4  -3   6    0.10    0.11
  -4  -3   6    0.19    0.11
   3   3  -6    0.56    0.14
   3   3  -6    0.60    0.10
  -3  -3   6    0.34    0.11
  -3  -3   6    0.63    0.16
  -3  -3   6    0.34    0.13
  -3  -3   6    0.33    0.15
   2   3  -6    0.42    0.09
   2   3  -6    0.38    0.10
   2   3  -6    0.48    0.08
  -2  -3   6    0.39    0.10
  -2  -3   6    0.27    0.10
  -2  -3   6    0.49    0.12
  -2  -3   6    0.65    0.18
   1   3  -6   11.63    0.97
   1   3  -6   12.53    0.97
   1   3  -6   11.86    0.93
  -1  -3   6   12.38    0.98
  -1  -3   6   11.98    0.95
  -1  -3   6   10.91    0.99
  -1  -3   6   10.35    1.04
   0   3  -6   50.60    4.18
   0   3  -6   53.38    4.16
   0  -3   6   52.24    4.17
   0  -3   6   53.39    4.14
   0  -3   6   57.04    4.28
   0  -3   6   55.79    4.19
  -1   3  -6   23.10    2.18
  -1   3  -6   29.48    2.16
   1  -3   6   28.18    2.16
   1  -3   6   28.15    2.19
   1  -3   6   29.74    2.14
   1  -3   6   25.20    2.26
  -2   3  -6    1.04    0.12
  -2   3  -6    0.87    0.15
   2  -3   6    1.09    0.11
   2  -3   6    1.03    0.13
   2  -3   6    0.62    0.17
   2  -3   6    0.86    0.11
   2  -3   6    0.97    0.09
  -3   3  -6    1.40    0.18
  -3   3  -6    1.20    0.15
   3  -3   6    1.05    0.22
   3  -3   6    0.86    0.13
  -4   3  -6    0.11    0.08
   4  -3   6    0.16    0.09
   4  -3   6    0.04    0.05
  -5   3  -6    2.68    0.33
   5  -3   6    3.18    0.33
   5  -3   6    3.50    0.38
   5  -3   6    2.30    0.34
   6  -3   6    2.19    0.32
   6  -3   6    2.45    0.32
   6  -3   6    2.10    0.29
   6   2  -6    3.68    0.51
  -6  -2   6    4.59    0.54
  -6  -2   6    5.04    0.53
   5   2  -6    2.64    0.35
   5   2  -6    2.46    0.25
  -5  -2   6    2.72    0.34
  -5  -2   6    2.27    0.40
  -5  -2   6    2.35    0.39
   4   2  -6    0.34    0.13
   4   2  -6    0.32    0.07
  -4  -2   6    0.24    0.12
  -4  -2   6    0.18    0.08
  -4  -2   6    0.33    0.14
   3   2  -6    0.59    0.10
   3   2  -6    0.59    0.14
  -3  -2   6    0.69    0.19
  -3  -2   6    0.56    0.14
  -3  -2   6    0.56    0.15
  -3  -2   6    0.33    0.10
   2   2  -6    7.52    0.65
   2   2  -6    7.62    0.68
  -2  -2   6    9.57    0.78
  -2  -2   6    7.21    0.68
  -2  -2   6    7.50    0.68
  -2  -2   6    7.87    0.66
   1   2  -6    2.39    0.23
   1   2  -6    2.16    0.22
   1   2  -6    2.26    0.20
  -1  -2   6    2.24    0.22
  -1  -2   6    2.13    0.23
  -1  -2   6    1.90    0.23
  -1  -2   6    1.77    0.28
   0   2  -6    0.76    0.09
   0   2  -6    0.58    0.11
   0  -2   6    0.52    0.15
   0  -2   6    0.57    0.08
   0  -2   6    0.78    0.10
   0  -2   6    0.92    0.12
  -1   2  -6    0.28    0.08
  -1   2  -6    0.31    0.05
   1  -2   6    0.18    0.06
   1  -2   6    0.19    0.10
   1  -2   6    0.22    0.05
   1  -2   6    0.29    0.05
  -2   2  -6    0.04    0.06
  -2   2  -6    0.11    0.04
   2  -2   6    0.14    0.03
   2  -2   6    0.07    0.08
   2  -2   6    0.11    0.05
   2  -2   6    0.10    0.04
  -3   2  -6    3.58    0.34
  -3   2  -6    4.24    0.38
   3  -2   6    3.78    0.41
   3  -2   6    3.36    0.33
   3  -2   6    4.07    0.35
   3  -2   6    3.59    0.33
  -4   2  -6    0.61    0.14
   4  -2   6    0.61    0.15
   4  -2   6    0.92    0.14
   5  -2   6    7.84    0.74
   5  -2   6    9.12    0.78
   5  -2   6    7.64    0.71
   6  -2   6    9.80    0.88
   6  -2   6   10.62    0.92
   6  -2   6    9.06    0.86
   7  -2   6    0.34    0.17
   7  -2   6    0.19    0.12
   6   1  -6    3.17    0.45
  -6  -1   6    4.10    0.47
   5   1  -6    5.28    0.53
   5   1  -6    4.81    0.40
  -5  -1   6    3.78    0.48
   4   1  -6    3.72    0.35
   4   1  -6    4.05    0.44
  -4  -1   6    3.85    0.42
  -4  -1   6    4.76    0.46
   3   1  -6    4.83    0.39
   3   1  -6    4.98    0.46
  -3  -1   6    4.61    0.44
  -3  -1   6    4.21    0.40
  -3  -1   6    4.13    0.43
  -3  -1   6    3.91    0.44
   2   1  -6    0.99    0.16
   2   1  -6    1.01    0.12
  -2  -1   6    0.94    0.14
  -2  -1   6    0.70    0.14
  -2  -1   6    0.84    0.16
  -2  -1   6    0.89    0.12
   1   1  -6    3.73    0.31
   1   1  -6    3.42    0.30
   1   1  -6    3.20    0.31
  -1  -1   6    3.54    0.30
  -1  -1   6    2.88    0.37
  -1  -1   6    3.01    0.31
  -1  -1   6    3.30    0.30
  -1  -1   6    3.48    0.32
   0   1  -6    1.10    0.14
   0   1  -6    1.33    0.14
   0  -1   6    1.38    0.14
   0  -1   6    1.06    0.21
   0  -1   6    1.27    0.14
   0  -1   6    1.32    0.13
  -1   1  -6    0.30    0.04
  -1   1  -6    0.28    0.06
  -1   1  -6    0.26    0.08
   1  -1   6    0.32    0.11
   1  -1   6    0.35    0.06
   1  -1   6    0.18    0.05
   1  -1   6    0.39    0.05
  -2   1  -6   -0.01    0.02
  -2   1  -6    0.02    0.04
  -2   1  -6    0.02    0.02
   2  -1   6   -0.01    0.02
   2  -1   6    0.03    0.03
   2  -1   6   -0.01    0.04
  -3   1  -6    0.93    0.16
   3  -1   6    0.98    0.10
   3  -1   6    0.96    0.11
   3  -1   6    0.61    0.15
  -4   1  -6    0.22    0.07
  -4   1  -6    0.20    0.08
   4  -1   6    0.21    0.05
   4  -1   6    0.08    0.08
   4  -1   6    0.21    0.07
   4  -1   6    0.22    0.10
   5  -1   6    0.16    0.08
   5  -1   6   -0.03    0.06
   5  -1   6    0.04    0.06
   6  -1   6    0.02    0.07
   6  -1   6    0.07    0.08
   6  -1   6    0.00    0.06
   7  -1   6    0.04    0.09
   7  -1   6    0.34    0.13
   6   0  -6    9.68    0.88
  -6   0   6    7.37    0.83
  -6   0   6    9.35    0.86
   5   0  -6    1.51    0.30
  -5   0   6    2.04    0.34
  -5   0   6    1.88    0.28
   4   0  -6    3.68    0.29
   4   0  -6    3.46    0.39
  -4   0   6    2.66    0.35
  -4   0   6    2.78    0.37
   3   0  -6    8.21    0.69
   3   0  -6    7.98    0.61
  -3   0   6    6.31    0.65
  -3   0   6    6.52    0.66
  -3   0   6    8.05    0.69
  -3   0   6    7.89    0.63
   2   0  -6   13.57    1.05
   2   0  -6   12.46    1.09
  -2   0   6   12.53    1.05
  -2   0   6   12.64    1.08
  -2   0   6   14.83    1.09
   1   0  -6    5.44    0.47
   1   0  -6    5.92    0.48
   1   0  -6    5.10    0.49
  -1   0   6    5.98    0.49
  -1   0   6    5.76    0.50
  -1   0   6    6.12    0.49
  -1   0   6    5.47    0.47
   0   0  -6   20.16    1.76
   0   0  -6   21.62    1.74
   0   0  -6   23.03    1.75
   0   0   6   22.06    1.75
   0   0   6   23.57    1.84
   0   0   6   23.11    1.75
   0   0   6   21.73    1.75
   0   0   6   23.81    1.75
  -1   0  -6   11.52    0.87
   1   0   6   10.37    0.84
   1   0   6   10.46    0.82
   1   0   6    9.99    0.81
   1   0   6   11.04    0.92
  -2   0  -6   -0.01    0.01
  -2   0  -6    0.01    0.01
  -2   0  -6    0.12    0.05
   2   0   6   -0.05    0.03
   2   0   6    0.01    0.01
   2   0   6    0.00    0.01
  -3   0  -6   11.59    0.91
  -3   0  -6   11.70    0.92
  -3   0  -6   13.77    0.98
   3   0   6   11.20    0.92
   3   0   6   10.79    0.98
   3   0   6   10.98    0.91
   3   0   6   11.58    0.98
  -4   0  -6    3.94    0.38
   4   0   6    4.13    0.43
   4   0   6    4.32    0.41
   4   0   6    4.79    0.39
   4   0   6    4.04    0.36
  -5   0  -6    0.57    0.13
   5   0   6    0.51    0.15
   5   0   6    0.61    0.13
   5   0   6    0.75    0.14
   6   0   6    0.13    0.07
   6   0   6    0.06    0.06
   6   0   6    0.08    0.08
   7   0   6    7.81    0.69
   7   0   6    6.41    0.71
   6  -1  -6    3.33    0.44
  -6   1   6    3.93    0.45
  -6   1   6    2.96    0.42
   5  -1  -6    0.34    0.14
  -5   1   6    1.10    0.23
  -5   1   6    0.90    0.20
   4  -1  -6    2.22    0.19
   4  -1  -6    2.14    0.29
  -4   1   6    2.26    0.29
  -4   1   6    1.80    0.27
   3  -1  -6    1.84    0.15
   3  -1  -6    1.44    0.24
  -3   1   6    1.46    0.15
  -3   1   6    1.78    0.22
  -3   1   6    1.40    0.21
  -3   1   6    1.32    0.19
   2  -1  -6    0.12    0.03
   2  -1  -6    0.13    0.07
  -2   1   6    0.06    0.04
  -2   1   6    0.06    0.05
  -2   1   6    0.03    0.04
  -2   1   6    0.03    0.03
   1  -1  -6    4.42    0.39
   1  -1  -6    4.91    0.42
  -1   1   6    4.71    0.39
  -1   1   6    5.02    0.41
  -1   1   6    4.41    0.41
  -1   1   6    4.55    0.39
  -1   1   6    5.12    0.42
   0  -1  -6    5.14    0.41
   0  -1  -6    4.66    0.38
   0  -1  -6    4.79    0.40
   0   1   6    4.89    0.40
   0   1   6    4.48    0.40
   0   1   6    4.71    0.39
  -1  -1  -6    3.44    0.33
   1   1   6    3.54    0.32
   1   1   6    3.72    0.37
   1   1   6    3.74    0.32
  -2  -1  -6    7.23    0.64
   2   1   6    7.89    0.65
   2   1   6    7.50    0.67
  -3  -1  -6    3.79    0.32
  -3  -1  -6    4.39    0.33
   3   1   6    3.72    0.38
   3   1   6    3.42    0.38
   3   1   6    3.93    0.33
   3   1   6    4.24    0.32
   4   1   6   15.85    1.27
   4   1   6   18.49    1.36
   4   1   6   14.87    1.30
   4   1   6   15.90    1.29
  -5  -1  -6    8.77    0.73
   5   1   6    8.70    0.78
   5   1   6    8.70    0.72
   5   1   6    9.01    0.73
   5   1   6    7.71    0.70
   6   1   6   22.49    1.81
   6   1   6   21.89    1.71
   6   1   6   19.95    1.74
   7   1   6    7.29    0.70
   7   1   6    7.76    0.74
   8   1   6    0.09    0.09
   8   1   6   -0.07    0.07
   6  -2  -6    2.36    0.39
  -6   2   6    2.51    0.40
  -6   2   6    2.10    0.37
   5  -2  -6   13.10    1.26
  -5   2   6   16.14    1.27
  -5   2   6   13.68    1.26
   4  -2  -6    0.91    0.19
  -4   2   6    0.68    0.16
  -4   2   6    0.41    0.14
   3  -2  -6    0.04    0.07
   3  -2  -6   -0.02    0.01
  -3   2   6    0.00    0.05
  -3   2   6    0.04    0.05
  -3   2   6    0.05    0.06
   2  -2  -6    0.09    0.03
   2  -2  -6    0.05    0.05
  -2   2   6    0.07    0.05
  -2   2   6    0.06    0.04
  -2   2   6    0.05    0.04
   1  -2  -6   -0.01    0.02
   1  -2  -6    0.01    0.04
  -1   2   6    0.05    0.02
  -1   2   6    0.04    0.03
  -1   2   6    0.03    0.03
  -1   2   6    0.05    0.04
  -1   2   6    0.04    0.02
  -1   2   6    0.03    0.02
   0  -2  -6   48.85    3.76
   0  -2  -6   48.87    3.75
   0   2   6   47.68    3.75
   0   2   6   47.86    3.77
   0   2   6   47.57    3.75
   0   2   6   49.53    3.76
   0   2   6   49.10    3.76
   1   2   6   21.79    1.58
   1   2   6   18.63    1.60
   1   2   6   20.35    1.55
   1   2   6   19.90    1.55
   1   2   6   19.80    1.59
   2   2   6    0.84    0.15
   2   2   6    0.70    0.13
  -3  -2  -6   12.93    1.00
   3   2   6   12.57    1.05
   3   2   6   13.27    1.00
   3   2   6   11.93    1.07
   3   2   6   12.71    1.01
  -4  -2  -6    0.11    0.05
   4   2   6    0.35    0.08
   4   2   6    0.26    0.07
   4   2   6    0.41    0.12
   4   2   6    0.31    0.06
  -5  -2  -6    0.16    0.08
   5   2   6    0.12    0.08
   5   2   6    0.16    0.07
   5   2   6    0.16    0.06
   5   2   6    0.23    0.06
   6   2   6    1.22    0.23
   6   2   6    1.18    0.20
   7   2   6    2.15    0.29
   7   2   6    2.45    0.32
   8   2   6    0.41    0.16
   8   2   6    0.55    0.15
   6  -3  -6   11.53    1.08
  -6   3   6   10.89    1.06
  -6   3   6   11.53    1.07
   5  -3  -6    2.41    0.37
  -5   3   6    2.82    0.37
  -5   3   6    3.37    0.38
   4  -3  -6    5.66    0.61
  -4   3   6    6.71    0.63
  -4   3   6    6.72    0.62
   3  -3  -6    1.01    0.19
  -3   3   6    1.29    0.18
  -3   3   6    1.59    0.21
  -3   3   6    1.38    0.19
   2  -3  -6    2.17    0.25
  -2   3   6    2.22    0.22
  -2   3   6    2.08    0.24
  -2   3   6    2.37    0.25
   1  -3  -6    0.45    0.09
  -1   3   6    0.50    0.07
  -1   3   6    0.45    0.05
  -1   3   6    0.41    0.09
  -1   3   6    0.34    0.08
   0  -3  -6    0.80    0.10
   0  -3  -6    0.69    0.08
   0   3   6    0.66    0.10
   0   3   6    0.76    0.09
   0   3   6    0.70    0.09
   0   3   6    0.65    0.08
   0   3   6    0.62    0.08
  -1  -3  -6    2.43    0.20
  -1  -3  -6    2.38    0.20
   1   3   6    2.44    0.23
   1   3   6    2.51    0.23
   1   3   6    2.30    0.22
   1   3   6    2.26    0.21
   1   3   6    2.36    0.20
  -2  -3  -6    0.35    0.04
  -2  -3  -6    0.29    0.05
   2   3   6    0.26    0.08
   2   3   6    0.41    0.09
   2   3   6    0.39    0.04
   2   3   6    0.35    0.06
  -3  -3  -6    4.37    0.38
  -3  -3  -6    4.84    0.39
   3   3   6    4.27    0.43
   3   3   6    4.71    0.39
   3   3   6    4.61    0.39
   3   3   6    4.94    0.42
  -4  -3  -6    4.50    0.38
   4   3   6    4.44    0.38
   4   3   6    3.84    0.37
   4   3   6    3.89    0.42
   4   3   6    4.43    0.38
  -5  -3  -6   17.08    1.44
   5   3   6   16.60    1.48
   5   3   6   19.05    1.43
   5   3   6   18.05    1.39
   5   3   6   17.35    1.44
   6   3   6   52.97    4.19
   6   3   6   53.33    4.24
   7   3   6    4.51    0.47
   7   3   6    4.39    0.50
   8   3   6   -0.04    0.10
   8   3   6   -0.04    0.07
   6  -4  -6    9.07    0.92
  -6   4   6   10.00    0.93
  -6   4   6    8.81    0.90
   5  -4  -6   20.88    1.69
  -5   4   6   16.64    1.65
  -5   4   6   22.05    1.71
   4  -4  -6    1.13    0.24
  -4   4   6    1.75    0.25
  -4   4   6    1.59    0.23
   3  -4  -6    1.77    0.25
  -3   4   6    2.19    0.26
  -3   4   6    2.03    0.24
   2  -4  -6    1.91    0.21
  -2   4   6    1.65    0.20
  -2   4   6    1.48    0.19
  -2   4   6    1.51    0.18
   1  -4  -6    0.32    0.08
  -1   4   6    0.25    0.07
  -1   4   6    0.30    0.06
  -1   4   6    0.35    0.04
  -1   4   6    0.25    0.08
   0  -4  -6   10.41    0.85
   0   4   6   10.42    0.85
   0   4   6   10.44    0.83
   0   4   6   10.34    0.83
   0   4   6   10.42    0.84
   0   4   6   10.66    0.85
  -1  -4  -6    0.70    0.09
  -1  -4  -6    0.63    0.08
   1   4   6    0.68    0.09
   1   4   6    0.75    0.10
   1   4   6    0.65    0.11
   1   4   6    0.80    0.09
   1   4   6    0.66    0.08
  -2  -4  -6    0.39    0.05
  -2  -4  -6    0.54    0.10
  -2  -4  -6    0.42    0.08
   2   4   6    0.53    0.10
   2   4   6    0.41    0.06
   2   4   6    0.40    0.09
   2   4   6    0.37    0.07
  -3  -4  -6    1.96    0.19
  -3  -4  -6    1.80    0.17
   3   4   6    1.58    0.21
   3   4   6    1.59    0.17
  -4  -4  -6   18.93    1.45
   4   4   6   16.67    1.49
   4   4   6   17.85    1.43
   4   4   6   18.29    1.44
   4   4   6   18.21    1.45
  -5  -4  -6    0.04    0.06
   5   4   6    0.03    0.04
   5   4   6    0.05    0.05
   5   4   6    0.00    0.06
  -6  -4  -6    3.56    0.44
   6   4   6    4.10    0.42
   6   4   6    5.21    0.49
   7   4   6    0.18    0.12
   7   4   6    0.29    0.12
   8   4   6    0.44    0.17
   8   4   6    0.40    0.14
   5  -5  -6   -0.06    0.11
  -5   5   6    0.07    0.10
  -5   5   6    0.06    0.10
   4  -5  -6    0.13    0.10
  -4   5   6    0.00    0.06
  -4   5   6   -0.08    0.06
   3  -5  -6    3.02    0.34
  -3   5   6    2.89    0.32
  -3   5   6    2.72    0.32
   2  -5  -6   14.20    1.12
  -2   5   6   13.37    1.12
  -2   5   6   13.59    1.11
  -2   5   6   12.16    1.10
   1  -5  -6   10.74    0.80
  -1   5   6    9.39    0.73
  -1   5   6    8.93    0.78
  -1   5   6    8.64    0.79
   0  -5  -6   51.12    3.84
   0  -5  -6   52.56    3.87
   0   5   6   52.50    3.87
   0   5   6   46.37    3.84
   0   5   6   47.88    3.86
   0   5   6   48.44    3.87
   0   5   6   48.69    3.83
  -1  -5  -6   15.21    1.18
  -1  -5  -6   15.03    1.19
   1   5   6   15.17    1.19
   1   5   6   14.62    1.18
   1   5   6   13.67    1.19
   1   5   6   15.29    1.19
  -2  -5  -6    0.04    0.05
  -2  -5  -6    0.05    0.03
   2   5   6    0.13    0.06
   2   5   6    0.01    0.04
   2   5   6    0.04    0.03
   2   5   6    0.02    0.04
  -3  -5  -6   15.72    1.25
   3   5   6   15.64    1.25
   3   5   6   16.12    1.27
   3   5   6   15.81    1.25
   3   5   6   14.74    1.28
  -4  -5  -6    1.86    0.21
   4   5   6    1.81    0.21
   4   5   6    1.99    0.22
   4   5   6    1.39    0.22
   4   5   6    2.27    0.19
  -5  -5  -6    4.69    0.45
   5   5   6    4.65    0.45
   5   5   6    4.93    0.49
   5   5   6    4.77    0.45
  -6  -5  -6    0.58    0.14
   6   5   6    0.29    0.13
   6   5   6    0.54    0.14
   7   5   6    0.19    0.12
   7   5   6    0.13    0.09
   8   5   6    0.18    0.13
   8   5   6    0.13    0.10
   5  -6  -6    1.73    0.35
  -5   6   6    2.68    0.37
  -5   6   6    2.79    0.35
   4  -6  -6    1.38    0.26
  -4   6   6    1.19    0.25
  -4   6   6    1.31    0.25
   3  -6  -6    0.84    0.18
  -3   6   6    1.11    0.20
  -3   6   6    0.82    0.17
   2  -6  -6   -0.09    0.04
  -2   6   6    0.03    0.05
  -2   6   6   -0.05    0.05
   1  -6  -6    4.21    0.41
   1  -6  -6    4.27    0.35
  -1   6   6    3.77    0.40
  -1   6   6    4.56    0.41
  -1   6   6    5.01    0.41
  -1   6   6    4.28    0.35
   0  -6  -6    1.88    0.20
   0  -6  -6    1.71    0.18
   0   6   6    1.81    0.20
   0   6   6    1.92    0.17
   0   6   6    1.67    0.19
   0   6   6    1.83    0.20
  -1  -6  -6    0.26    0.07
  -1  -6  -6    0.26    0.07
   1   6   6    0.29    0.08
   1   6   6    0.28    0.07
   1   6   6    0.22    0.07
   1   6   6    0.24    0.07
  -2  -6  -6   37.14    2.73
   2   6   6   35.63    2.75
   2   6   6   33.45    2.75
   2   6   6   35.63    2.79
   2   6   6   34.04    2.72
   2   6   6   33.06    2.75
  -3  -6  -6    0.19    0.06
   3   6   6    0.26    0.07
   3   6   6    0.16    0.06
   3   6   6    0.16    0.08
   3   6   6    0.15    0.07
  -4  -6  -6   -0.02    0.04
   4   6   6    0.17    0.09
   4   6   6    0.07    0.04
   4   6   6    0.15    0.06
   4   6   6    0.11    0.07
  -5  -6  -6    1.02    0.18
   5   6   6    1.21    0.22
   5   6   6    1.16    0.19
  -6  -6  -6    0.15    0.14
   6   6   6    0.02    0.06
   6   6   6    0.14    0.10
   7   6   6    0.20    0.12
   7   6   6    0.44    0.14
   8   6   6    4.58    0.52
   8   6   6    4.25    0.48
   4  -7  -6    1.67    0.30
  -4   7   6    1.41    0.26
  -4   7   6    1.54    0.29
   3  -7  -6    0.91    0.21
  -3   7   6    1.16    0.23
  -3   7   6    1.41    0.20
   2  -7  -6    8.16    0.73
  -2   7   6    7.69    0.72
  -2   7   6    8.08    0.71
   1  -7  -6   17.85    1.53
  -1   7   6   18.59    1.53
  -1   7   6   18.35    1.52
  -1   7   6   19.82    1.46
   0  -7  -6    2.42    0.23
   0  -7  -6    1.93    0.23
   0   7   6    2.13    0.23
   0   7   6    2.38    0.25
   0   7   6    2.26    0.24
  -1  -7  -6   27.57    2.07
  -1  -7  -6   25.74    2.07
   1   7   6   26.94    2.06
   1   7   6   27.69    2.09
   1   7   6   23.80    2.06
   1   7   6   25.12    2.07
  -2  -7  -6   10.77    0.84
   2   7   6   11.28    0.88
   2   7   6    8.06    0.83
   2   7   6   11.27    0.86
   2   7   6   10.16    0.85
  -3  -7  -6    4.95    0.48
   3   7   6    5.94    0.50
   3   7   6    5.81    0.49
   3   7   6    5.27    0.51
   3   7   6    5.40    0.52
  -4  -7  -6    2.04    0.24
   4   7   6    2.17    0.26
   4   7   6    2.33    0.24
   4   7   6    1.83    0.26
   4   7   6    2.22    0.22
  -5  -7  -6    1.15    0.19
   5   7   6    0.95    0.20
   5   7   6    1.03    0.18
   6   7   6    1.45    0.27
   6   7   6    1.25    0.21
   7   7   6    0.05    0.10
   7   7   6    0.10    0.09
   8   7   6    3.71    0.41
   8   7   6    2.89    0.41
   3  -8  -6    0.03    0.09
  -3   8   6    0.45    0.13
  -3   8   6    0.20    0.10
   2  -8  -6    0.43    0.13
  -2   8   6    0.58    0.13
  -2   8   6    0.37    0.12
   1  -8  -6    3.05    0.32
  -1   8   6    2.78    0.31
  -1   8   6    2.97    0.31
   0  -8  -6    9.48    0.81
   0   8   6    9.77    0.82
   0   8   6    9.22    0.80
  -1  -8  -6    2.22    0.24
   1   8   6    2.44    0.24
   1   8   6    2.25    0.24
   1   8   6    2.15    0.22
  -2  -8  -6    5.60    0.49
   2   8   6    5.50    0.49
   2   8   6    5.08    0.49
   2   8   6    5.39    0.53
   2   8   6    5.77    0.49
  -3  -8  -6    0.04    0.05
   3   8   6    0.11    0.06
   3   8   6    0.19    0.09
   3   8   6    0.06    0.05
  -4  -8  -6    0.30    0.09
   4   8   6    0.27    0.09
   4   8   6    0.38    0.12
  -5  -8  -6    8.74    0.80
   5   8   6    9.60    0.81
   6   8   6    3.55    0.41
   6   8   6    4.65    0.47
   7   8   6    1.58    0.30
   7   8   6    1.37    0.25
   3  -9  -6    0.93    0.23
  -3   9   6    1.11    0.21
  -3   9   6    1.02    0.23
   2  -9  -6    0.37    0.13
  -2   9   6    0.52    0.13
  -2   9   6    0.41    0.14
   1  -9  -6   11.82    1.03
  -1   9   6   12.86    1.02
  -1   9   6   11.21    1.03
   0  -9  -6    0.79    0.16
   0   9   6    0.90    0.16
   0   9   6    1.03    0.18
  -1  -9  -6    1.94    0.23
   1   9   6    2.01    0.24
   1   9   6    1.97    0.21
   1   9   6    2.13    0.23
  -2  -9  -6    0.13    0.07
   2   9   6    0.15    0.07
   2   9   6    0.13    0.06
   2   9   6    0.05    0.06
  -3  -9  -6    3.76    0.36
   3   9   6    3.34    0.35
   3   9   6    3.48    0.35
   3   9   6    3.62    0.36
  -4  -9  -6    0.71    0.15
   4   9   6    1.04    0.19
   4   9   6    0.89    0.16
  -5  -9  -6    1.31    0.25
   5   9   6    1.46    0.26
   5   9   6    2.01    0.24
   6   9   6    1.16    0.24
   6   9   6    1.08    0.21
   7   9   6    3.45    0.40
   7   9   6    3.31    0.42
   2 -10  -6    0.44    0.14
  -2  10   6    0.32    0.14
  -2  10   6    0.57    0.14
   1 -10  -6    0.29    0.10
  -1  10   6    0.26    0.10
  -1  10   6    0.32    0.11
   0 -10  -6   49.73    4.03
   0  10   6   49.06    4.01
   0  10   6   55.06    4.05
  -1 -10  -6    0.98    0.18
   1  10   6    0.91    0.18
   1  10   6    1.18    0.16
  -2 -10  -6    0.72    0.15
   2  10   6    0.58    0.13
   2  10   6    0.51    0.12
   2  10   6    0.52    0.13
  -3 -10  -6    1.38    0.20
   3  10   6    1.39    0.19
   3  10   6    1.70    0.21
   3  10   6    1.19    0.18
  -4 -10  -6    0.18    0.09
   4  10   6    0.05    0.06
   4  10   6    0.10    0.08
   5  10   6    0.44    0.14
   5  10   6    0.43    0.12
   6  10   6    0.11    0.08
   6  10   6    0.18    0.13
   0 -11  -6    3.97    0.43
   0  11   6    3.92    0.40
   0  11   6    4.35    0.44
  -1 -11  -6    0.07    0.09
   1  11   6    0.44    0.11
   1  11   6    0.10    0.09
  -2 -11  -6    0.30    0.10
   2  11   6    0.38    0.11
   2  11   6    0.55    0.12
   2  11   6    0.29    0.10
  -3 -11  -6    0.13    0.09
   3  11   6    0.05    0.07
   3  11   6    0.22    0.09
   3  11   6    0.20    0.09
   4  11   6    0.64    0.16
   4  11   6    0.58    0.15
   4  11   6    0.76    0.16
   5  11   6    8.77    0.81
   5  11   6    9.09    0.83
   2   7  -7    0.26    0.11
  -2  -7   7   -0.04    0.12
  -2  -7   7    0.18    0.09
   1   7  -7    0.55    0.13
  -1  -7   7    0.49    0.13
  -1  -7   7    0.56    0.21
   0   7  -7    3.70    0.39
   0  -7   7    3.62    0.37
   0  -7   7    3.33    0.47
  -1   7  -7    0.58    0.15
   1  -7   7    0.60    0.22
   1  -7   7    0.72    0.14
   4   6  -7    3.42    0.32
  -4  -6   7    2.38    0.35
  -4  -6   7    2.35    0.44
   3   6  -7    0.12    0.08
  -3  -6   7    0.02    0.11
  -3  -6   7    0.23    0.11
   2   6  -7    1.54    0.20
  -2  -6   7    1.33    0.23
  -2  -6   7    1.16    0.30
   1   6  -7    2.49    0.27
  -1  -6   7    2.01    0.25
  -1  -6   7    1.73    0.36
   0   6  -7    0.03    0.07
   0  -6   7   -0.02    0.09
   0  -6   7    0.06    0.06
  -1   6  -7    2.07    0.25
   1  -6   7    1.77    0.22
   1  -6   7    2.45    0.35
  -2   6  -7   -0.06    0.07
   2  -6   7    0.03    0.12
   2  -6   7    0.05    0.05
  -3   6  -7    6.07    0.66
   3  -6   7    7.77    0.65
   3  -6   7    7.30    0.76
   4   5  -7    3.08    0.32
  -4  -5   7    3.02    0.38
  -4  -5   7    2.73    0.43
   3   5  -7    2.07    0.22
  -3  -5   7    1.17    0.25
  -3  -5   7    2.34    0.40
   2   5  -7    8.98    0.76
  -2  -5   7    9.38    0.90
  -2  -5   7    8.38    0.78
   1   5  -7    0.03    0.05
  -1  -5   7    0.05    0.09
  -1  -5   7    0.04    0.05
   0   5  -7    0.11    0.08
   0  -5   7    0.05    0.05
   0  -5   7    0.06    0.09
  -1   5  -7    0.56    0.14
   1  -5   7    0.94    0.13
   1  -5   7    1.08    0.25
  -2   5  -7   -0.01    0.05
   2  -5   7    0.20    0.13
   2  -5   7    0.14    0.06
  -3   5  -7   -0.03    0.06
   3  -5   7    0.05    0.09
   3  -5   7   -0.06    0.04
  -4   5  -7    1.77    0.25
   4  -5   7    1.51    0.22
   4  -5   7    1.76    0.34
   5   4  -7    8.40    0.70
  -5  -4   7    7.90    0.77
  -5  -4   7    8.12    0.80
  -5  -4   7    7.52    0.84
   4   4  -7    0.06    0.06
  -4  -4   7    0.00    0.06
  -4  -4   7   -0.01    0.07
  -4  -4   7   -0.10    0.11
   3   4  -7    3.85    0.35
  -3  -4   7    3.06    0.39
  -3  -4   7    3.62    0.38
  -3  -4   7    3.77    0.48
   2   4  -7   15.23    1.30
  -2  -4   7   15.37    1.30
  -2  -4   7   17.87    1.45
  -2  -4   7   16.58    1.34
   1   4  -7   13.85    1.15
  -1  -4   7   13.58    1.27
  -1  -4   7   14.24    1.15
   0   4  -7   29.55    2.42
   0  -4   7   30.67    2.52
   0  -4   7   30.83    2.39
  -1   4  -7   29.90    2.42
   1  -4   7   28.67    2.39
   1  -4   7   34.22    2.54
  -2   4  -7    3.30    0.37
   2  -4   7    3.75    0.34
   2  -4   7    3.99    0.45
  -3   4  -7    0.01    0.06
   3  -4   7    0.16    0.10
   3  -4   7    0.09    0.05
  -4   4  -7    0.62    0.15
   4  -4   7    0.98    0.16
   4  -4   7    0.33    0.14
  -5   4  -7    1.82    0.28
   5  -4   7    1.42    0.24
   5  -4   7    1.56    0.29
   5   3  -7    2.39    0.27
  -5  -3   7    2.78    0.37
  -5  -3   7    2.99    0.41
  -5  -3   7    3.20    0.37
   4   3  -7    3.77    0.36
  -4  -3   7    4.31    0.43
  -4  -3   7    4.19    0.50
  -4  -3   7    3.36    0.42
   3   3  -7    3.10    0.30
   3   3  -7    2.59    0.39
  -3  -3   7    2.50    0.34
  -3  -3   7    3.68    0.44
  -3  -3   7    3.33    0.34
   2   3  -7    2.36    0.26
   2   3  -7    2.47    0.28
  -2  -3   7    3.01    0.28
  -2  -3   7    3.08    0.39
  -2  -3   7    2.40    0.29
   1   3  -7   23.74    1.87
   1   3  -7   23.41    1.87
  -1  -3   7   23.63    1.85
  -1  -3   7   25.18    1.99
  -1  -3   7   21.80    1.87
   0   3  -7    5.01    0.47
   0   3  -7    6.35    0.51
   0  -3   7    5.75    0.46
   0  -3   7    5.10    0.57
   0  -3   7    5.30    0.47
  -1   3  -7    9.83    0.78
  -1   3  -7    8.94    0.76
   1  -3   7    8.97    0.73
   1  -3   7    8.17    0.84
   1  -3   7    8.88    0.71
  -2   3  -7    3.58    0.32
   2  -3   7    2.93    0.24
   2  -3   7    2.57    0.26
   2  -3   7    2.63    0.35
  -3   3  -7    9.17    0.88
   3  -3   7   10.41    0.95
   3  -3   7   10.74    0.84
  -4   3  -7    6.30    0.65
   4  -3   7    7.37    0.63
   4  -3   7    7.92    0.71
  -5   3  -7    4.34    0.43
   5  -3   7    3.53    0.45
   5  -3   7    3.87    0.45
   5  -3   7    3.80    0.39
  -6  -2   7    2.11    0.39
  -6  -2   7    1.68    0.32
  -6  -2   7    1.15    0.27
  -5  -2   7    0.25    0.14
  -5  -2   7    0.49    0.18
  -5  -2   7    0.42    0.18
   4   2  -7    0.18    0.10
   4   2  -7    0.05    0.04
  -4  -2   7    0.03    0.10
  -4  -2   7    0.09    0.08
  -4  -2   7   -0.04    0.05
   3   2  -7    1.56    0.22
   3   2  -7    1.46    0.17
  -3  -2   7    1.25    0.24
  -3  -2   7    1.46    0.20
  -3  -2   7    1.58    0.31
   2   2  -7   24.91    1.91
   2   2  -7   23.02    1.88
  -2  -2   7   21.03    1.91
  -2  -2   7   28.04    2.03
  -2  -2   7   22.74    1.89
  -2  -2   7   24.86    2.05
   1   2  -7   22.63    1.71
   1   2  -7   22.03    1.69
   1   2  -7   20.00    1.71
  -1  -2   7   20.52    1.71
  -1  -2   7   21.15    1.72
  -1  -2   7   22.52    1.83
   0   2  -7   19.66    1.41
   0   2  -7   16.84    1.37
   0  -2   7   17.22    1.38
   0  -2   7   17.56    1.37
   0  -2   7   15.66    1.48
   0  -2   7   16.90    1.40
  -1   2  -7    0.20    0.08
   1  -2   7    0.34    0.08
   1  -2   7    0.42    0.06
   1  -2   7    0.36    0.13
   1  -2   7    0.28    0.06
  -2   2  -7    3.63    0.33
  -2   2  -7    3.40    0.37
   2  -2   7    4.13    0.35
   2  -2   7    3.63    0.32
   2  -2   7    3.79    0.33
   2  -2   7    5.47    0.47
  -3   2  -7    1.06    0.19
   3  -2   7    1.17    0.14
   3  -2   7    1.12    0.22
  -4   2  -7    5.76    0.50
   4  -2   7    4.79    0.52
   4  -2   7    4.62    0.45
  -5   2  -7    7.53    0.63
   5  -2   7    6.24    0.59
   5  -2   7    5.63    0.64
   5  -2   7    6.72    0.64
   6  -2   7    0.14    0.10
   6  -2   7    0.09    0.07
   6  -2   7    0.32    0.14
  -6  -1   7    0.18    0.14
  -6  -1   7    0.43    0.18
  -5  -1   7    0.10    0.09
  -5  -1   7    0.03    0.08
   4   1  -7    1.01    0.13
   4   1  -7    1.31    0.25
  -4  -1   7    1.28    0.24
  -4  -1   7    1.30    0.23
   3   1  -7    0.70    0.10
   3   1  -7    0.70    0.16
  -3  -1   7    0.82    0.17
  -3  -1   7    0.76    0.16
   2   1  -7    1.97    0.24
   2   1  -7    2.30    0.23
  -2  -1   7    2.21    0.26
  -2  -1   7    2.62    0.26
  -2  -1   7    1.72    0.32
  -2  -1   7    2.18    0.25
   1   1  -7    3.66    0.34
   1   1  -7    4.43    0.36
  -1  -1   7    3.56    0.34
  -1  -1   7    3.81    0.35
  -1  -1   7    3.42    0.35
  -1  -1   7    4.11    0.44
   0   1  -7    1.74    0.20
   0   1  -7    2.28    0.23
   0  -1   7    2.76    0.22
   0  -1   7    2.49    0.21
   0  -1   7    2.45    0.22
   0  -1   7    1.77    0.28
  -1   1  -7    0.06    0.03
  -1   1  -7    0.13    0.03
  -1   1  -7    0.09    0.06
   1  -1   7    0.13    0.09
   1  -1   7    0.07    0.04
   1  -1   7    0.08    0.04
   1  -1   7    0.09    0.03
  -2   1  -7    5.15    0.42
  -2   1  -7    5.21    0.41
  -2   1  -7    4.80    0.46
   2  -1   7    4.91    0.51
   2  -1   7    5.07    0.42
   2  -1   7    4.95    0.42
   2  -1   7    4.88    0.41
  -3   1  -7    4.37    0.36
  -3   1  -7    3.17    0.39
   3  -1   7    3.97    0.35
   3  -1   7    4.59    0.36
   3  -1   7    4.04    0.43
  -4   1  -7    2.83    0.33
   4  -1   7    3.19    0.30
   4  -1   7    4.40    0.39
   4  -1   7    2.65    0.35
   5  -1   7   12.51    1.08
   5  -1   7   12.23    1.10
   5  -1   7   12.34    1.03
   6  -1   7    0.03    0.07
   6  -1   7   -0.07    0.06
   6  -1   7    0.03    0.08
   7  -1   7   -0.04    0.07
   7  -1   7    0.08    0.12
  -6   0   7    4.33    0.51
  -6   0   7    4.02    0.50
   5   0  -7    1.15    0.25
  -5   0   7    0.87    0.21
  -5   0   7    1.16    0.24
   4   0  -7    0.13    0.05
   4   0  -7    0.08    0.10
  -4   0   7   -0.02    0.07
  -4   0   7    0.18    0.09
   3   0  -7    4.77    0.40
   3   0  -7    4.00    0.45
  -3   0   7    4.26    0.42
  -3   0   7    4.64    0.45
  -3   0   7    6.34    0.55
   2   0  -7    1.85    0.19
   2   0  -7    2.49    0.25
  -2   0   7    2.07    0.23
  -2   0   7    2.07    0.20
  -2   0   7    1.92    0.22
  -2   0   7    1.83    0.24
   1   0  -7    2.86    0.28
   1   0  -7    2.82    0.27
  -1   0   7    3.32    0.29
  -1   0   7    2.77    0.27
  -1   0   7    2.80    0.29
  -1   0   7    3.13    0.28
   0   0  -7    0.28    0.06
   0   0  -7    0.37    0.08
   0   0  -7    0.40    0.06
   0   0   7    0.31    0.06
   0   0   7    0.19    0.10
   0   0   7    0.46    0.07
   0   0   7    0.34    0.07
  -1   0  -7   19.21    1.62
   1   0   7   20.29    1.57
   1   0   7   19.70    1.56
   1   0   7   21.13    1.69
   1   0   7   21.38    1.60
  -2   0  -7   13.47    1.14
   2   0   7   14.48    1.11
   2   0   7   13.45    1.18
  -3   0  -7    0.42    0.12
  -3   0  -7    0.65    0.07
  -3   0  -7    0.87    0.08
   3   0   7    0.89    0.17
   3   0   7    0.91    0.18
   3   0   7    0.69    0.08
   3   0   7    0.79    0.09
   4   0   7    2.04    0.19
   4   0   7    2.56    0.28
   4   0   7    1.87    0.21
   4   0   7    2.21    0.26
   5   0   7    1.40    0.18
   5   0   7    1.64    0.28
   5   0   7    1.58    0.21
   6   0   7    1.60    0.31
   6   0   7    1.63    0.22
   6   0   7    1.59    0.22
   7   0   7    0.07    0.07
   7   0   7    0.18    0.13
  -6   1   7    0.12    0.13
  -6   1   7    0.43    0.17
   5  -1  -7    1.56    0.28
  -5   1   7    1.31    0.26
  -5   1   7    1.17    0.26
   4  -1  -7    1.40    0.25
  -4   1   7    1.44    0.26
  -4   1   7    1.19    0.24
   3  -1  -7   -0.11    0.04
   3  -1  -7   -0.01    0.02
  -3   1   7   -0.01    0.05
  -3   1   7   -0.04    0.04
  -3   1   7   -0.07    0.05
   2  -1  -7    1.45    0.15
   2  -1  -7    1.93    0.21
  -2   1   7    1.48    0.15
  -2   1   7    1.58    0.18
  -2   1   7    1.51    0.19
  -2   1   7    1.23    0.18
   1  -1  -7   10.15    0.79
   1  -1  -7    9.14    0.76
  -1   1   7    9.48    0.75
  -1   1   7   10.08    0.78
  -1   1   7    9.22    0.78
  -1   1   7    8.58    0.76
   0  -1  -7   15.93    1.39
   0  -1  -7   18.18    1.37
   0  -1  -7   17.90    1.38
   0   1   7   17.40    1.37
   0   1   7   18.09    1.39
   0   1   7   17.07    1.39
   0   1   7   17.86    1.38
  -1  -1  -7    1.71    0.20
   1   1   7    2.04    0.19
   1   1   7    1.82    0.24
  -2  -1  -7    0.29    0.08
   2   1   7    0.14    0.08
   2   1   7    0.17    0.07
   2   1   7    0.11    0.04
   3   1   7   30.63    2.28
   3   1   7   29.14    2.28
   3   1   7   30.12    2.37
   3   1   7   27.82    2.37
   4   1   7   19.34    1.51
   4   1   7   18.07    1.57
   4   1   7   18.48    1.52
   4   1   7   21.92    1.61
   5   1   7    0.74    0.18
   5   1   7    0.72    0.13
   5   1   7    0.77    0.14
   6   1   7    0.39    0.12
   6   1   7    0.26    0.14
   7   1   7    0.56    0.17
   7   1   7    0.52    0.15
  -6   2   7    0.34    0.14
  -6   2   7    0.87    0.23
   5  -2  -7    0.14    0.13
  -5   2   7    0.20    0.12
  -5   2   7    0.13    0.12
   4  -2  -7    0.11    0.09
  -4   2   7    0.08    0.08
  -4   2   7    0.29    0.11
   3  -2  -7    6.15    0.48
   3  -2  -7    6.46    0.58
  -3   2   7    5.78    0.56
  -3   2   7    6.55    0.58
  -3   2   7    5.17    0.53
   2  -2  -7    3.08    0.26
   2  -2  -7    3.20    0.33
  -2   2   7    2.78    0.31
  -2   2   7    3.16    0.25
  -2   2   7    2.96    0.29
  -2   2   7    3.02    0.31
   1  -2  -7    3.25    0.30
   1  -2  -7    2.72    0.26
  -1   2   7    2.91    0.29
  -1   2   7    3.17    0.26
  -1   2   7    2.93    0.25
  -1   2   7    2.68    0.26
  -1   2   7    3.22    0.29
   0  -2  -7   21.51    1.90
   0  -2  -7   24.03    1.89
   0  -2  -7   25.35    1.87
   0   2   7   23.86    1.90
   0   2   7   24.64    1.88
   0   2   7   26.12    1.90
   0   2   7   23.31    1.89
   0   2   7   23.91    1.89
  -1  -2  -7   20.87    1.72
   1   2   7   22.57    1.73
   1   2   7   21.74    1.72
   2   2   7    4.69    0.43
   2   2   7    3.94    0.38
   2   2   7    4.33    0.40
   3   2   7    0.76    0.16
   3   2   7    1.23    0.17
  -4  -2  -7   16.59    1.29
   4   2   7   16.67    1.29
   4   2   7   16.31    1.28
   4   2   7   15.51    1.36
   4   2   7   15.93    1.33
   5   2   7   36.34    3.10
   5   2   7   39.78    3.04
   5   2   7   39.40    3.04
   6   2   7   30.40    2.47
   6   2   7   29.91    2.41
   7   2   7    0.39    0.15
   7   2   7    0.23    0.10
   5  -3  -7    2.53    0.36
  -5   3   7    2.32    0.33
  -5   3   7    2.52    0.34
   4  -3  -7    0.10    0.11
  -4   3   7   -0.04    0.07
  -4   3   7   -0.09    0.05
   3  -3  -7    0.60    0.16
  -3   3   7    0.84    0.18
  -3   3   7    0.96    0.17
   2  -3  -7    8.74    0.75
  -2   3   7    7.81    0.74
  -2   3   7    8.79    0.71
  -2   3   7    8.64    0.74
   1  -3  -7   13.57    1.11
  -1   3   7   13.55    1.05
  -1   3   7   14.10    1.11
  -1   3   7   14.46    1.11
  -1   3   7   13.60    1.05
  -1   3   7   13.09    1.08
  -1   3   7   12.80    1.06
   0  -3  -7    5.02    0.45
   0   3   7    5.47    0.45
   0   3   7    5.44    0.47
   0   3   7    4.86    0.45
   0   3   7    5.41    0.44
   0   3   7    5.88    0.45
  -1  -3  -7    3.95    0.33
  -1  -3  -7    4.10    0.32
   1   3   7    3.72    0.33
   1   3   7    4.12    0.36
   1   3   7    3.91    0.33
   1   3   7    4.17    0.37
   1   3   7    3.93    0.35
   2   3   7    0.22    0.08
   2   3   7    0.18    0.07
   2   3   7    0.15    0.02
   2   3   7    0.19    0.02
  -3  -3  -7    9.68    0.76
  -3  -3  -7   10.18    0.76
   3   3   7    8.93    0.83
   3   3   7    9.57    0.77
   3   3   7    9.06    0.76
   3   3   7   12.43    0.87
  -4  -3  -7    0.20    0.05
   4   3   7    0.31    0.08
   4   3   7    0.31    0.10
   4   3   7    0.26    0.05
   4   3   7    0.23    0.06
   5   3   7    2.10    0.22
   5   3   7    1.91    0.26
   5   3   7    1.96    0.20
   6   3   7   16.31    1.30
   6   3   7   13.74    1.22
   7   3   7    4.21    0.44
   7   3   7    4.17    0.48
   8   3   7    4.34    0.47
   8   3   7    4.21    0.52
   5  -4  -7    6.37    0.62
  -5   4   7    4.67    0.57
  -5   4   7    5.73    0.61
   4  -4  -7    0.07    0.10
  -4   4   7    0.03    0.08
  -4   4   7   -0.02    0.08
   3  -4  -7    0.33    0.13
  -3   4   7    0.74    0.16
  -3   4   7    0.81    0.16
   2  -4  -7    4.15    0.40
  -2   4   7    4.22    0.37
  -2   4   7    3.53    0.39
  -2   4   7    3.84    0.38
   1  -4  -7    2.60    0.29
  -1   4   7    3.33    0.30
  -1   4   7    2.87    0.27
  -1   4   7    2.93    0.30
  -1   4   7    3.05    0.24
   0  -4  -7    0.03    0.04
   0   4   7    0.03    0.03
   0   4   7    0.04    0.03
   0   4   7    0.06    0.03
   0   4   7    0.06    0.03
   0   4   7    0.03    0.04
  -1  -4  -7    4.12    0.34
   1   4   7    3.45    0.34
   1   4   7    4.14    0.34
   1   4   7    4.54    0.37
   1   4   7    3.88    0.34
   1   4   7    3.86    0.36
  -2  -4  -7    0.20    0.04
  -2  -4  -7    0.18    0.05
   2   4   7    0.19    0.04
   2   4   7    0.21    0.05
   2   4   7    0.23    0.07
   2   4   7    0.18    0.07
  -3  -4  -7    0.66    0.08
  -3  -4  -7    0.71    0.09
   3   4   7    0.70    0.09
   3   4   7    0.72    0.08
   3   4   7    0.73    0.15
   4   4   7   50.98    4.23
   4   4   7   54.05    4.19
   4   4   7   56.09    4.17
   4   4   7   53.01    4.17
  -5  -4  -7   19.00    1.67
   5   4   7   20.22    1.61
   5   4   7   23.59    1.73
   5   4   7   20.15    1.64
   6   4   7    4.46    0.48
   6   4   7    4.27    0.42
   7   4   7    0.42    0.16
   7   4   7    0.65    0.16
   8   4   7    0.30    0.12
   8   4   7    0.03    0.12
  -5   5   7    3.42    0.45
  -5   5   7    3.68    0.44
   4  -5  -7    0.37    0.15
  -4   5   7    0.29    0.13
  -4   5   7    0.37    0.14
   3  -5  -7    0.85    0.19
  -3   5   7    1.11    0.20
  -3   5   7    0.81    0.18
   2  -5  -7    1.56    0.21
  -2   5   7    1.43    0.18
  -2   5   7    1.51    0.21
  -2   5   7    1.57    0.20
   1  -5  -7    3.37    0.31
  -1   5   7    3.07    0.24
  -1   5   7    3.11    0.31
  -1   5   7    3.18    0.30
  -1   5   7    2.30    0.27
   0  -5  -7    0.09    0.04
   0   5   7    0.06    0.04
   0   5   7    0.11    0.04
   0   5   7    0.09    0.03
   0   5   7    0.03    0.03
   0   5   7    0.12    0.05
  -1  -5  -7    0.16    0.05
   1   5   7    0.18    0.06
   1   5   7    0.17    0.06
   1   5   7    0.14    0.05
   1   5   7    0.08    0.03
   1   5   7    0.10    0.05
  -2  -5  -7   12.93    1.00
  -2  -5  -7   12.75    1.04
   2   5   7   12.27    1.04
   2   5   7   12.01    1.00
   2   5   7   12.87    1.03
   2   5   7   13.14    1.05
  -3  -5  -7    0.00    0.02
   3   5   7    0.00    0.03
   3   5   7    0.00    0.04
   3   5   7    0.02    0.04
   3   5   7   -0.03    0.03
  -4  -5  -7    7.00    0.60
   4   5   7    7.01    0.66
   4   5   7    7.22    0.59
   4   5   7    6.85    0.61
   4   5   7    7.34    0.60
  -5  -5  -7    1.65    0.24
   5   5   7    1.64    0.20
   5   5   7    1.89    0.25
   6   5   7    8.68    0.74
   6   5   7    7.78    0.79
   7   5   7    0.77    0.20
   7   5   7    0.46    0.14
   8   5   7    0.38    0.14
   8   5   7    0.28    0.15
   4  -6  -7   -0.03    0.08
  -4   6   7   -0.08    0.07
  -4   6   7    0.05    0.07
   3  -6  -7    2.97    0.36
  -3   6   7    2.71    0.32
  -3   6   7    2.91    0.34
   2  -6  -7   16.92    1.41
  -2   6   7   16.44    1.40
  -2   6   7   17.19    1.39
   1  -6  -7   27.39    2.29
  -1   6   7   29.03    2.28
  -1   6   7   27.40    2.29
  -1   6   7   31.31    2.30
   0  -6  -7   15.40    1.35
   0   6   7   16.29    1.35
   0   6   7   17.34    1.32
   0   6   7   16.19    1.35
   0   6   7   17.80    1.35
   0   6   7   17.21    1.31
  -1  -6  -7    5.33    0.48
  -1  -6  -7    5.65    0.49
   1   6   7    5.32    0.49
   1   6   7    6.20    0.49
   1   6   7    5.78    0.50
   1   6   7    5.47    0.48
  -2  -6  -7    3.93    0.35
   2   6   7    4.09    0.38
   2   6   7    3.86    0.35
   2   6   7    4.18    0.38
   2   6   7    4.28    0.39
  -3  -6  -7    0.71    0.10
   3   6   7    0.88    0.16
   3   6   7    0.91    0.13
   3   6   7    0.93    0.16
   3   6   7    0.86    0.11
  -4  -6  -7    1.17    0.14
   4   6   7    0.85    0.19
   4   6   7    1.17    0.15
   4   6   7    1.07    0.14
   5   6   7    0.34    0.12
   5   6   7    0.43    0.11
   6   6   7    0.63    0.14
   6   6   7    0.62    0.17
   7   6   7    6.32    0.59
   7   6   7    6.02    0.64
   8   6   7    2.83    0.38
   8   6   7    2.18    0.31
   4  -7  -7    0.67    0.31
  -4   7   7    0.35    0.15
  -4   7   7    0.24    0.12
   3  -7  -7    0.71    0.18
  -3   7   7    0.90    0.20
  -3   7   7    0.96    0.19
   2  -7  -7   -0.02    0.07
  -2   7   7   -0.02    0.06
  -2   7   7    0.02    0.06
   1  -7  -7    0.16    0.08
  -1   7   7    0.25    0.08
  -1   7   7   -0.01    0.04
   0  -7  -7    1.05    0.15
   0   7   7    1.05    0.15
   0   7   7    1.07    0.15
   0   7   7    1.23    0.15
  -1  -7  -7   11.82    0.94
  -1  -7  -7   11.22    0.93
   1   7   7   11.01    0.93
   1   7   7   11.32    0.95
   1   7   7   11.41    0.92
   1   7   7   10.96    0.94
  -2  -7  -7    3.48    0.32
   2   7   7    3.56    0.36
   2   7   7    3.68    0.34
   2   7   7    3.50    0.34
   2   7   7    3.32    0.32
  -3  -7  -7    0.01    0.04
   3   7   7   -0.02    0.06
   3   7   7   -0.01    0.04
   3   7   7   -0.02    0.04
  -4  -7  -7    1.48    0.18
   4   7   7    1.33    0.21
   4   7   7    1.95    0.20
   5   7   7    3.34    0.33
   5   7   7    2.83    0.35
   6   7   7    1.45    0.27
   6   7   7    1.34    0.22
   7   7   7    0.20    0.10
   7   7   7    0.16    0.12
   3  -8  -7    0.39    0.16
  -3   8   7    0.22    0.11
  -3   8   7    0.32    0.11
   2  -8  -7    0.14    0.11
  -2   8   7    0.29    0.10
  -2   8   7    0.38    0.12
   1  -8  -7    0.08    0.08
  -1   8   7    0.17    0.09
  -1   8   7    0.08    0.06
   0  -8  -7    8.41    0.78
   0   8   7   10.05    0.79
   0   8   7    8.94    0.77
  -1  -8  -7    4.34    0.38
   1   8   7    3.78    0.38
   1   8   7    3.97    0.36
   1   8   7    4.14    0.39
  -2  -8  -7    5.23    0.43
   2   8   7    4.34    0.43
   2   8   7    5.13    0.44
   2   8   7    4.26    0.43
  -3  -8  -7    9.77    0.82
   3   8   7    9.91    0.82
   3   8   7    9.41    0.84
   3   8   7    9.70    0.83
  -4  -8  -7    3.04    0.32
   4   8   7    3.22    0.31
   5   8   7    1.77    0.27
   5   8   7    2.16    0.24
   6   8   7    4.02    0.46
   6   8   7    4.22    0.43
   7   8   7    0.87    0.22
   7   8   7    0.83    0.18
   2  -9  -7    0.02    0.08
  -2   9   7    0.15    0.09
  -2   9   7    0.07    0.08
   1  -9  -7    4.77    0.48
  -1   9   7    5.17    0.48
  -1   9   7    4.35    0.45
   0  -9  -7    3.63    0.38
   0   9   7    3.96    0.38
   0   9   7    3.79    0.39
  -1  -9  -7    2.59    0.28
   1   9   7    2.70    0.29
   1   9   7    2.71    0.26
   1   9   7    2.67    0.29
  -2  -9  -7    1.62    0.19
   2   9   7    1.50    0.18
   2   9   7    1.30    0.18
   2   9   7    1.35    0.19
  -3  -9  -7    0.16    0.07
   3   9   7    0.27    0.09
   3   9   7    0.55    0.12
   3   9   7    0.29    0.10
   4   9   7   11.74    1.10
   4   9   7   13.82    1.08
   5   9   7    5.10    0.47
   5   9   7    4.32    0.49
   6   9   7    1.00    0.19
   6   9   7    0.58    0.18
   7   9   7    0.00    0.10
   7   9   7    0.76    0.17
  -1  10   7    0.65    0.16
  -1  10   7    0.88    0.17
   0 -10  -7    6.60    0.66
   0  10   7    6.66    0.62
   0  10   7    6.61    0.60
  -1 -10  -7    0.01    0.07
   1  10   7    0.02    0.05
   1  10   7    0.05    0.06
   2  10   7    3.24    0.34
   2  10   7    3.41    0.35
   2  10   7    3.43    0.33
   3  10   7    0.12    0.09
   3  10   7    0.03    0.06
   3  10   7    0.08    0.07
   4  10   7    0.03    0.07
   4  10   7   -0.01    0.06
   4  10   7    0.00    0.05
   5  10   7    0.12    0.10
   5  10   7    0.09    0.07
   6  10   7    2.01    0.28
   6  10   7    2.58    0.33
   0  11   7    3.26    0.37
   0  11   7    3.24    0.35
   1  11   7   10.40    0.86
   1  11   7    8.91    0.82
   2  11   7    0.39    0.12
   2  11   7    0.26    0.10
   2  11   7    0.42    0.11
   3  11   7    1.72    0.23
   3  11   7    1.69    0.23
   3  11   7    2.12    0.24
   4  11   7    0.46    0.13
   4  11   7    0.40    0.13
   4  11   7    0.48    0.13
   5  11   7    0.47    0.14
   5  11   7    0.58    0.15
   2   6  -8    0.45    0.12
  -2  -6   8    0.50    0.13
  -2  -6   8    0.63    0.23
   1   6  -8    3.66    0.41
  -1  -6   8    4.54    0.54
  -1  -6   8    4.09    0.40
   0   6  -8    1.94    0.24
   0  -6   8    1.84    0.22
   0  -6   8    2.05    0.40
  -1   6  -8    0.37    0.13
   1  -6   8    0.31    0.16
   1  -6   8    0.37    0.09
   3   5  -8    0.51    0.13
  -3  -5   8    0.81    0.26
  -3  -5   8    0.76    0.18
   2   5  -8    2.73    0.30
  -2  -5   8    2.53    0.30
  -2  -5   8    3.00    0.42
   1   5  -8    4.32    0.44
  -1  -5   8    4.23    0.42
  -1  -5   8    5.32    0.58
   0   5  -8    4.08    0.41
   0  -5   8    3.85    0.50
   0  -5   8    4.04    0.38
  -1   5  -8    0.30    0.11
   1  -5   8    0.50    0.10
   1  -5   8    0.34    0.16
  -2   5  -8    1.48    0.23
   2  -5   8    0.86    0.25
   2  -5   8    1.00    0.14
  -3   5  -8    0.72    0.18
   3  -5   8    0.79    0.15
   3  -5   8    1.17    0.27
   4   4  -8    0.02    0.06
  -4  -4   8   -0.15    0.09
  -4  -4   8   -0.02    0.07
   3   4  -8   18.55    1.44
  -3  -4   8   17.30    1.48
  -3  -4   8   16.08    1.56
   2   4  -8    1.91    0.24
  -2  -4   8    1.64    0.35
  -2  -4   8    2.25    0.26
   1   4  -8    2.40    0.27
  -1  -4   8    2.35    0.26
  -1  -4   8    2.06    0.38
   0   4  -8    6.32    0.60
   0  -4   8    7.30    0.72
   0  -4   8    6.65    0.57
  -1   4  -8    0.08    0.07
   1  -4   8    0.19    0.06
   1  -4   8    0.43    0.16
  -2   4  -8    3.56    0.39
   2  -4   8    3.58    0.33
   2  -4   8    3.90    0.46
  -3   4  -8    0.09    0.08
   3  -4   8    0.15    0.06
   3  -4   8    0.08    0.10
  -4   4  -8    0.21    0.10
   4  -4   8    0.24    0.09
   4  -4   8    0.10    0.11
   4   3  -8    1.75    0.22
  -4  -3   8    2.53    0.44
  -4  -3   8    2.17    0.30
  -4  -3   8    2.51    0.30
   3   3  -8    3.23    0.32
  -3  -3   8    2.90    0.35
  -3  -3   8    3.15    0.44
  -3  -3   8    3.32    0.36
   2   3  -8   12.11    1.03
  -2  -3   8   12.48    1.05
  -2  -3   8   12.69    1.03
  -2  -3   8   11.71    1.15
   1   3  -8   51.02    3.83
  -1  -3   8   47.74    3.82
  -1  -3   8   48.27    3.94
  -1  -3   8   47.76    3.80
   0   3  -8    0.02    0.06
   0  -3   8    0.03    0.09
   0  -3   8    0.06    0.04
  -1   3  -8    2.17    0.28
   1  -3   8    2.85    0.25
   1  -3   8    3.01    0.38
  -2   3  -8    1.29    0.23
   2  -3   8    1.07    0.25
   2  -3   8    1.53    0.15
  -3   3  -8    0.07    0.08
   3  -3   8    0.14    0.06
   3  -3   8    0.16    0.11
  -4   3  -8    0.28    0.13
   4  -3   8    0.50    0.18
   4  -3   8    0.51    0.11
  -5   3  -8    7.31    0.64
   5  -3   8    6.30    0.65
   5  -3   8    5.28    0.64
  -5  -2   8    1.04    0.23
  -5  -2   8    0.94    0.28
  -5  -2   8    1.04    0.24
   4   2  -8    3.51    0.33
  -4  -2   8    2.73    0.38
  -4  -2   8    3.69    0.40
  -4  -2   8    3.93    0.48
   3   2  -8    0.33    0.08
  -3  -2   8    0.12    0.08
  -3  -2   8    0.14    0.08
  -3  -2   8    0.18    0.14
   2   2  -8    4.92    0.40
  -2  -2   8    3.94    0.50
  -2  -2   8    3.79    0.41
  -2  -2   8    3.76    0.39
   1   2  -8   19.80    1.52
  -1  -2   8   18.62    1.51
  -1  -2   8   17.32    1.62
  -1  -2   8   18.68    1.50
   0   2  -8    7.47    0.68
   0  -2   8    7.70    0.65
   0  -2   8    8.22    0.65
   0  -2   8    8.31    0.79
  -1   2  -8    1.06    0.19
   1  -2   8    1.50    0.14
   1  -2   8    1.25    0.14
   1  -2   8    1.22    0.26
  -2   2  -8    6.18    0.61
   2  -2   8    5.84    0.66
   2  -2   8    7.17    0.55
   2  -2   8    6.77    0.55
  -3   2  -8    0.18    0.09
   3  -2   8    0.14    0.10
   3  -2   8    0.09    0.04
   3  -2   8    0.10    0.04
  -4   2  -8   14.62    1.40
   4  -2   8   17.41    1.36
   4  -2   8   18.36    1.46
  -5   2  -8    0.00    0.06
   5  -2   8    0.06    0.08
   5  -2   8   -0.03    0.05
   5  -2   8    0.03    0.08
   6  -2   8    0.28    0.15
   6  -2   8    0.17    0.09
  -5  -1   8    1.12    0.24
  -5  -1   8    0.62    0.21
  -4  -1   8    0.73    0.23
  -4  -1   8    0.81    0.20
  -4  -1   8    0.91    0.22
   3   1  -8    0.92    0.13
  -3  -1   8    1.29    0.28
  -3  -1   8    0.66    0.17
  -3  -1   8    0.94    0.18
   2   1  -8   11.04    0.88
  -2  -1   8   10.99    0.90
  -2  -1   8   10.52    1.00
  -2  -1   8    9.56    0.90
   1   1  -8   16.06    1.27
   1   1  -8   17.55    1.34
  -1  -1   8   16.41    1.28
  -1  -1   8   14.13    1.26
  -1  -1   8   14.50    1.37
   0   1  -8   34.06    2.86
   0   1  -8   36.36    2.83
   0  -1   8   38.35    2.98
   0  -1   8   36.79    2.84
   0  -1   8   37.45    2.85
   0  -1   8   35.78    2.84
  -1   1  -8    1.33    0.19
  -1   1  -8    1.60    0.14
  -1   1  -8    1.55    0.13
   1  -1   8    1.17    0.25
   1  -1   8    1.53    0.15
   1  -1   8    1.38    0.15
   1  -1   8    1.30    0.13
  -2   1  -8    0.14    0.07
  -2   1  -8    0.24    0.04
   2  -1   8    0.19    0.04
   2  -1   8    0.24    0.04
   2  -1   8    0.22    0.06
   2  -1   8    0.43    0.14
  -3   1  -8    4.21    0.40
   3  -1   8    3.99    0.44
   3  -1   8    3.77    0.35
  -4   1  -8    0.38    0.13
   4  -1   8    0.32    0.13
   4  -1   8    0.39    0.08
   4  -1   8    0.63    0.17
   5  -1   8    0.03    0.07
   5  -1   8    0.02    0.04
   5  -1   8    0.17    0.09
   6  -1   8    0.35    0.11
   6  -1   8    0.25    0.15
  -5   0   8    1.00    0.23
  -4   0   8    0.14    0.10
   3   0  -8    0.09    0.05
  -3   0   8    0.06    0.06
  -3   0   8    0.08    0.08
   2   0  -8    3.15    0.31
   2   0  -8    2.61    0.26
  -2   0   8    2.35    0.29
  -2   0   8    2.86    0.29
  -2   0   8    2.64    0.27
   1   0  -8    0.83    0.13
   1   0  -8    0.94    0.13
  -1   0   8    0.97    0.13
  -1   0   8    0.86    0.14
  -1   0   8    0.82    0.21
  -1   0   8    0.99    0.13
   0   0  -8    0.95    0.13
   0   0  -8    0.99    0.10
   0   0   8    1.12    0.11
   0   0   8    1.30    0.26
   0   0   8    0.92    0.12
   0   0   8    0.94    0.11
  -1   0  -8    1.93    0.22
   1   0   8    2.13    0.29
   1   0   8    1.92    0.19
  -2   0  -8    8.51    0.79
   2   0   8    9.28    0.76
   2   0   8   10.22    0.86
  -3   0  -8    1.48    0.22
   3   0   8    1.82    0.25
   3   0   8    2.06    0.25
   4   0   8   20.14    1.72
   4   0   8   21.11    1.72
   4   0   8   20.77    1.63
   5   0   8    0.73    0.16
   5   0   8    0.43    0.15
   5   0   8    0.61    0.11
   6   0   8   -0.07    0.06
   6   0   8    0.05    0.06
  -5   1   8    0.11    0.11
  -5   1   8    0.00    0.08
  -4   1   8    1.85    0.26
  -4   1   8    1.71    0.25
   3  -1  -8   14.50    1.19
  -3   1   8   14.89    1.26
  -3   1   8   15.89    1.28
   2  -1  -8    0.29    0.10
   2  -1  -8    0.34    0.07
  -2   1   8    0.25    0.08
  -2   1   8    0.28    0.10
   1  -1  -8    0.94    0.14
   1  -1  -8    1.16    0.13
  -1   1   8    0.80    0.11
  -1   1   8    1.01    0.14
  -1   1   8    1.00    0.14
  -1   1   8    1.08    0.12
   0  -1  -8   52.27    3.97
   0  -1  -8   51.29    4.00
   0  -1  -8   49.49    3.96
   0   1   8   51.24    3.99
   0   1   8   50.09    3.98
   0   1   8   53.38    3.96
  -1  -1  -8    3.78    0.38
   1   1   8    4.60    0.45
   1   1   8    4.07    0.36
  -2  -1  -8    7.51    0.70
   2   1   8    8.54    0.68
   2   1   8    8.59    0.76
   2   1   8    8.03    0.72
   3   1   8    4.70    0.48
   3   1   8    5.34    0.51
   4   1   8   17.96    1.42
   4   1   8   19.87    1.53
   4   1   8   17.16    1.50
   4   1   8   17.87    1.41
   5   1   8    3.82    0.44
   5   1   8    4.36    0.37
   5   1   8    3.86    0.41
   6   1   8    2.05    0.36
   6   1   8    2.58    0.27
   7   1   8    1.75    0.26
   7   1   8    2.70    0.35
  -5   2   8    0.04    0.10
  -5   2   8   -0.02    0.09
  -4   2   8    0.47    0.14
  -4   2   8    0.45    0.14
   3  -2  -8    0.07    0.07
  -3   2   8    0.01    0.05
  -3   2   8    0.09    0.07
   2  -2  -8   13.60    1.21
   2  -2  -8   14.56    1.16
  -2   2   8   14.54    1.21
  -2   2   8   16.09    1.23
   1  -2  -8    2.25    0.25
   1  -2  -8    2.76    0.24
  -1   2   8    2.48    0.22
  -1   2   8    2.52    0.26
  -1   2   8    2.72    0.26
  -1   2   8    2.45    0.23
   0  -2  -8    0.17    0.04
   0  -2  -8    0.18    0.05
   0  -2  -8    0.28    0.07
   0   2   8    0.18    0.06
   0   2   8    0.16    0.06
   0   2   8    0.22    0.04
  -1  -2  -8    2.29    0.24
   1   2   8    2.36    0.25
   1   2   8    2.36    0.23
   2   2   8   56.24    4.05
   2   2   8   50.57    4.11
   2   2   8   48.54    4.07
   3   2   8   21.88    1.94
   3   2   8   25.86    1.95
   4   2   8    0.06    0.02
   4   2   8    0.08    0.03
   4   2   8    0.01    0.06
   4   2   8    0.06    0.07
   5   2   8    3.66    0.33
   5   2   8    3.68    0.36
   5   2   8    3.50    0.41
   6   2   8    1.03    0.15
   6   2   8    1.05    0.24
   7   2   8    0.06    0.07
   7   2   8    0.13    0.11
  -5   3   8    2.84    0.39
  -5   3   8    3.22    0.41
  -4   3   8    0.09    0.09
  -4   3   8    0.04    0.09
   3  -3  -8    2.18    0.28
  -3   3   8    2.14    0.26
  -3   3   8    2.11    0.28
   2  -3  -8    1.08    0.19
  -2   3   8    1.06    0.19
  -2   3   8    1.26    0.18
   1  -3  -8   20.96    1.68
  -1   3   8   20.67    1.62
  -1   3   8   21.41    1.63
  -1   3   8   20.35    1.64
  -1   3   8   20.69    1.62
  -1   3   8   20.37    1.67
  -1   3   8   21.47    1.68
   0  -3  -8    2.48    0.27
   0   3   8    3.13    0.29
   0   3   8    3.03    0.28
   0   3   8    3.11    0.27
   0   3   8    3.24    0.28
   0   3   8    3.19    0.26
   1   3   8   17.09    1.45
   1   3   8   18.75    1.44
   1   3   8   17.67    1.40
   1   3   8   18.30    1.40
   2   3   8    8.01    0.71
   2   3   8    8.14    0.68
   3   3   8   14.65    1.21
   3   3   8   14.12    1.21
  -4  -3  -8   56.76    4.08
  -4  -3  -8   52.45    4.08
   4   3   8   49.72    4.19
   4   3   8   52.27    4.09
   4   3   8   51.98    4.16
   4   3   8   53.49    4.09
   5   3   8   15.78    1.35
   5   3   8   16.45    1.34
   5   3   8   18.71    1.44
   6   3   8   -0.04    0.06
   6   3   8    0.00    0.05
   7   3   8    0.34    0.15
   7   3   8    0.34    0.12
  -5   4   8    0.48    0.16
  -5   4   8    0.32    0.15
  -4   4   8    0.53    0.16
  -4   4   8    0.45    0.15
   3  -4  -8    4.03    0.57
  -3   4   8    4.51    0.46
  -3   4   8    4.25    0.44
   2  -4  -8    4.06    0.42
  -2   4   8    3.90    0.42
  -2   4   8    4.98    0.43
   1  -4  -8    0.21    0.08
  -1   4   8    0.19    0.06
  -1   4   8    0.15    0.07
  -1   4   8    0.12    0.03
  -1   4   8    0.04    0.05
   0  -4  -8    0.22    0.06
   0   4   8    0.29    0.08
   0   4   8    0.33    0.08
   0   4   8    0.28    0.06
   0   4   8    0.30    0.06
   0   4   8    0.32    0.06
  -1  -4  -8    0.02    0.02
   1   4   8    0.00    0.04
   1   4   8    0.03    0.03
   1   4   8    0.04    0.05
   1   4   8    0.07    0.03
  -2  -4  -8    4.18    0.33
  -2  -4  -8    3.97    0.34
   2   4   8    4.58    0.40
   2   4   8    4.13    0.35
   2   4   8    4.34    0.39
   2   4   8    4.04    0.34
  -3  -4  -8    5.98    0.47
  -3  -4  -8    5.92    0.47
   3   4   8    6.01    0.48
   3   4   8    6.77    0.57
   3   4   8    5.81    0.48
   4   4   8   44.96    3.46
   4   4   8   40.89    3.41
   4   4   8   43.91    3.36
   4   4   8   43.65    3.37
   5   4   8   21.35    1.67
   5   4   8   20.88    1.76
   5   4   8   20.93    1.68
   6   4   8    6.17    0.59
   6   4   8    5.08    0.49
   7   4   8    6.35    0.63
   7   4   8    5.40    0.54
  -4   5   8    1.89    0.34
  -4   5   8    2.53    0.32
  -3   5   8    0.06    0.07
  -3   5   8   -0.01    0.06
   2  -5  -8    8.83    0.78
  -2   5   8    7.70    0.77
  -2   5   8    9.83    0.78
   1  -5  -8    3.45    0.35
  -1   5   8    3.36    0.35
  -1   5   8    3.80    0.36
   0  -5  -8    1.35    0.17
   0   5   8    1.40    0.13
   0   5   8    1.26    0.15
   0   5   8    1.32    0.14
   0   5   8    1.75    0.19
   0   5   8    1.63    0.18
  -1  -5  -8    0.03    0.03
   1   5   8    0.05    0.05
   1   5   8    0.04    0.04
   1   5   8    0.04    0.03
   1   5   8    0.00    0.03
  -2  -5  -8    0.32    0.06
   2   5   8    0.28    0.09
   2   5   8    0.36    0.09
   2   5   8    0.31    0.07
   2   5   8    0.41    0.07
  -3  -5  -8   23.73    1.68
   3   5   8   21.91    1.68
   3   5   8   17.79    1.74
   4   5   8    9.34    0.76
   4   5   8    8.12    0.83
   4   5   8   10.02    0.81
   4   5   8    9.83    0.80
   5   5   8    8.10    0.70
   5   5   8    6.59    0.60
   6   5   8    0.34    0.15
   6   5   8    0.53    0.12
   7   5   8    0.77    0.15
   7   5   8    0.48    0.18
  -4   6   8    0.23    0.14
  -4   6   8    0.17    0.13
  -3   6   8   -0.02    0.06
  -3   6   8    0.03    0.06
   2  -6  -8    0.64    0.17
  -2   6   8    0.54    0.14
  -2   6   8    0.42    0.12
   1  -6  -8   -0.02    0.04
  -1   6   8    0.05    0.06
  -1   6   8   -0.01    0.05
   0  -6  -8    1.39    0.17
   0   6   8    1.23    0.17
   0   6   8    1.35    0.17
   0   6   8    1.31    0.12
  -1  -6  -8    4.94    0.44
   1   6   8    5.24    0.46
   1   6   8    4.95    0.44
   1   6   8    5.43    0.47
  -2  -6  -8    4.84    0.41
   2   6   8    4.67    0.41
   2   6   8    4.84    0.44
   2   6   8    4.86    0.45
   2   6   8    4.97    0.44
  -3  -6  -8    3.58    0.30
   3   6   8    3.58    0.30
   3   6   8    2.86    0.34
   3   6   8    3.20    0.35
   3   6   8    3.57    0.35
   4   6   8   17.05    1.60
   4   6   8   21.23    1.55
   5   6   8   -0.01    0.05
   5   6   8    0.05    0.05
   6   6   8    2.38    0.26
   6   6   8    2.15    0.30
   7   6   8    0.25    0.13
   7   6   8    0.22    0.10
  -3   7   8    0.11    0.09
  -3   7   8    0.00    0.08
  -2   7   8   14.79    1.24
  -2   7   8   14.13    1.22
   1  -7  -8    7.45    0.74
  -1   7   8    8.04    0.70
  -1   7   8    7.86    0.69
   0  -7  -8    1.02    0.15
   0   7   8    0.95    0.17
   0   7   8    0.89    0.15
  -1  -7  -8    0.63    0.11
   1   7   8    0.48    0.09
   1   7   8    0.51    0.11
   1   7   8    0.67    0.12
  -2  -7  -8    4.45    0.39
   2   7   8    4.53    0.42
   2   7   8    4.31    0.39
   2   7   8    4.38    0.42
   3   7   8    1.31    0.16
   3   7   8    1.71    0.20
   3   7   8    1.38    0.20
   4   7   8    0.77    0.12
   4   7   8    0.89    0.18
   5   7   8   26.86    2.08
   5   7   8   24.92    2.14
   6   7   8    0.66    0.19
   6   7   8    0.89    0.16
   7   7   8    2.21    0.29
   7   7   8    2.84    0.37
  -3   8   8   -0.02    0.09
  -3   8   8    0.13    0.08
  -2   8   8    0.85    0.19
  -2   8   8    1.03    0.20
  -1   8   8    0.45    0.12
  -1   8   8    0.24    0.10
   0   8   8   -0.01    0.05
   0   8   8    0.13    0.06
   1   8   8    0.26    0.08
   1   8   8    0.27    0.07
   1   8   8    0.33    0.10
   2   8   8    5.24    0.46
   2   8   8    5.32    0.48
   2   8   8    4.67    0.46
   3   8   8    2.92    0.30
   3   8   8    3.83    0.35
   3   8   8    2.86    0.33
   4   8   8    7.01    0.63
   4   8   8    7.91    0.69
   5   8   8    2.87    0.31
   5   8   8    3.29    0.37
   6   8   8    1.20    0.25
   6   8   8    1.51    0.20
   7   8   8    2.45    0.28
   7   8   8    1.45    0.30
  -2   9   8    0.54    0.14
  -2   9   8    0.39    0.14
  -1   9   8    0.07    0.08
  -1   9   8    0.08    0.08
   0   9   8    0.07    0.06
   0   9   8    0.08    0.07
   1   9   8    0.02    0.06
   1   9   8    0.09    0.07
   2   9   8    3.13    0.31
   2   9   8    2.79    0.30
   2   9   8    3.32    0.33
   3   9   8    2.98    0.32
   3   9   8    2.69    0.30
   3   9   8    3.37    0.33
   4   9   8    1.77    0.21
   4   9   8    1.63    0.23
   5   9   8    6.71    0.62
   5   9   8    7.23    0.68
   6   9   8   13.64    1.24
   6   9   8   16.60    1.33
  -1  10   8   11.50    0.99
  -1  10   8   11.03    1.00
   0  10   8    1.72    0.23
   0  10   8    1.78    0.24
   1  10   8    0.01    0.07
   1  10   8    0.15    0.07
   2  10   8    0.46    0.11
   2  10   8    0.39    0.11
   2  10   8    0.36    0.10
   3  10   8   15.95    1.29
   3  10   8   15.86    1.30
   3  10   8   14.97    1.29
   4  10   8    0.11    0.08
   4  10   8    0.04    0.06
   4  10   8    0.10    0.08
   5  10   8    1.20    0.23
   5  10   8    0.75    0.16
   6  10   8    0.00    0.08
   6  10   8    0.02    0.07
   1  11   8    4.18    0.44
   1  11   8    5.19    0.48
   2  11   8    0.26    0.10
   2  11   8    0.10    0.07
   3  11   8   -0.08    0.05
   3  11   8    0.01    0.06
   3  11   8   -0.04    0.06
   4  11   8    0.10    0.09
   4  11   8    0.21    0.10
   4  11   8    0.08    0.07
   1   5  -9    0.89    0.17
  -1  -5   9    0.51    0.12
  -1  -5   9    0.31    0.17
   0   5  -9    0.09    0.07
   0  -5   9    0.02    0.10
   0  -5   9    0.21    0.07
  -1   5  -9    2.07    0.30
   1  -5   9    2.69    0.26
   1  -5   9    3.24    0.42
   3   4  -9    0.08    0.07
  -3  -4   9    0.02    0.07
  -3  -4   9    0.00    0.12
   2   4  -9   17.33    1.36
  -2  -4   9   15.31    1.49
  -2  -4   9   16.09    1.36
   1   4  -9    0.07    0.06
  -1  -4   9    0.05    0.11
  -1  -4   9    0.09    0.06
   0   4  -9    2.02    0.24
   0  -4   9    1.58    0.19
   0  -4   9    1.80    0.36
  -1   4  -9    0.40    0.13
   1  -4   9    0.32    0.17
   1  -4   9    0.52    0.09
  -2   4  -9    0.25    0.11
   2  -4   9    0.15    0.12
   2  -4   9    0.17    0.06
  -3   4  -9    4.32    0.47
   3  -4   9    4.69    0.41
   3  -4   9    3.98    0.53
   3   3  -9    0.33    0.10
  -3  -3   9    0.36    0.19
  -3  -3   9    0.09    0.09
   2   3  -9   21.58    1.82
  -2  -3   9   23.41    1.84
  -2  -3   9   22.98    1.98
   1   3  -9    1.94    0.24
  -1  -3   9    2.13    0.23
  -1  -3   9    2.47    0.36
   0   3  -9    0.32    0.11
   0  -3   9    0.31    0.07
   0  -3   9    0.37    0.16
  -1   3  -9    4.88    0.49
   1  -3   9    4.69    0.57
   1  -3   9    5.32    0.43
  -2   3  -9    0.30    0.11
   2  -3   9    0.23    0.06
   2  -3   9    0.17    0.13
  -3   3  -9    2.16    0.30
   3  -3   9    2.89    0.37
   3  -3   9    2.51    0.25
  -4   3  -9    0.01    0.10
   4  -3   9   -0.02    0.10
   4  -3   9   -0.07    0.04
  -4  -2   9    0.17    0.12
  -4  -2   9    0.17    0.15
  -4  -2   9    0.09    0.12
   3   2  -9    5.96    0.53
  -3  -2   9    6.44    0.70
  -3  -2   9    5.87    0.57
  -3  -2   9    5.59    0.58
   2   2  -9   20.92    1.63
  -2  -2   9   19.29    1.64
  -2  -2   9   20.64    1.65
  -2  -2   9   19.27    1.77
   1   2  -9   28.22    2.19
  -1  -2   9   30.34    2.35
  -1  -2   9   25.10    2.18
  -1  -2   9   27.52    2.18
   0   2  -9    0.36    0.12
   0  -2   9    0.48    0.18
   0  -2   9    0.59    0.10
   0  -2   9    0.34    0.07
  -1   2  -9    3.31    0.37
   1  -2   9    3.80    0.31
   1  -2   9    3.44    0.44
  -2   2  -9    0.05    0.07
   2  -2   9    0.15    0.10
   2  -2   9    0.18    0.05
  -3   2  -9    1.67    0.27
   3  -2   9    2.09    0.31
   3  -2   9    2.47    0.22
  -4   2  -9   -0.04    0.07
   4  -2   9    0.00    0.04
   4  -2   9    0.05    0.11
  -5   2  -9    0.02    0.09
   5  -2   9    0.13    0.11
   5  -2   9    0.07    0.06
   5  -2   9    0.07    0.12
  -4  -1   9    1.27    0.31
  -4  -1   9    1.26    0.24
  -4  -1   9    1.23    0.26
   3   1  -9    5.54    0.50
  -3  -1   9    5.97    0.56
  -3  -1   9    5.46    0.56
  -3  -1   9    6.32    0.67
   2   1  -9   21.12    1.70
  -2  -1   9   19.09    1.83
  -2  -1   9   22.09    1.74
  -2  -1   9   22.20    1.74
   1   1  -9    0.45    0.11
  -1  -1   9    0.32    0.14
  -1  -1   9    0.33    0.09
  -1  -1   9    0.22    0.08
   0   1  -9    1.29    0.19
   0  -1   9    0.96    0.13
   0  -1   9    1.44    0.29
   0  -1   9    1.02    0.12
  -1   1  -9    0.26    0.10
   1  -1   9    0.07    0.09
   1  -1   9    0.11    0.03
   1  -1   9    0.20    0.06
  -2   1  -9    1.10    0.19
   2  -1   9    0.76    0.21
   2  -1   9    1.14    0.13
  -3   1  -9   13.16    1.23
   3  -1   9   15.02    1.29
   3  -1   9   14.85    1.17
   3  -1   9   14.94    1.14
  -4   1  -9    0.44    0.14
   4  -1   9    0.30    0.07
   4  -1   9    0.24    0.12
   4  -1   9    0.40    0.14
   5  -1   9    0.46    0.16
   5  -1   9    0.45    0.16
   5  -1   9    0.57    0.11
  -4   0   9    0.06    0.09
  -4   0   9    0.12    0.12
  -3   0   9    2.03    0.27
  -3   0   9    2.19    0.28
   2   0  -9    0.42    0.09
  -2   0   9    0.37    0.12
  -2   0   9    0.19    0.12
  -2   0   9    0.42    0.12
   1   0  -9   21.91    1.70
  -1   0   9   20.86    1.71
  -1   0   9   18.67    1.81
  -1   0   9   22.51    1.71
   0   0  -9    6.83    0.63
   0   0   9    7.66    0.62
   0   0   9    6.60    0.72
   0   0   9    7.44    0.59
  -1   0  -9    7.91    0.65
   1   0   9    7.01    0.72
   1   0   9    6.99    0.61
  -2   0  -9    0.64    0.14
   2   0   9    0.33    0.13
   2   0   9    0.50    0.09
  -3   0  -9   16.92    1.38
   3   0   9   15.86    1.42
   3   0   9   15.52    1.32
   3   0   9   18.21    1.41
   4   0   9    2.57    0.33
   4   0   9    3.04    0.35
   5   0   9    0.06    0.09
   5   0   9    0.16    0.11
   5   0   9    0.20    0.06
   6   0   9    0.08    0.11
   6   0   9   -0.04    0.06
  -4   1   9    0.26    0.11
  -3   1   9    8.41    0.77
   2  -1  -9    0.75    0.13
  -2   1   9    1.07    0.18
  -2   1   9    0.79    0.15
   1  -1  -9    0.85    0.13
  -1   1   9    0.71    0.13
  -1   1   9    0.66    0.13
   0  -1  -9    0.29    0.09
   0   1   9    0.32    0.08
   0   1   9    0.30    0.06
   0   1   9    0.42    0.16
   0   1   9    0.28    0.05
  -1  -1  -9   21.08    1.61
   1   1   9   19.81    1.69
   1   1   9   18.76    1.57
  -2  -1  -9    0.65    0.15
   2   1   9    1.03    0.13
   2   1   9    1.37    0.18
   2   1   9    0.91    0.21
   3   1   9    0.90    0.19
   3   1   9    0.89    0.13
   3   1   9    0.77    0.17
   4   1   9    0.16    0.10
   4   1   9    0.32    0.11
   5   1   9    0.55    0.17
   5   1   9    0.61    0.09
   5   1   9    0.67    0.16
   6   1   9    3.34    0.44
   6   1   9    4.09    0.37
  -4   2   9    4.80    0.51
  -4   2   9    4.51    0.50
  -3   2   9    0.31    0.11
  -3   2   9    0.38    0.13
   2  -2  -9    5.18    0.45
  -2   2   9    5.19    0.49
  -2   2   9    4.99    0.49
   1  -2  -9    3.32    0.31
  -1   2   9    3.03    0.33
  -1   2   9    3.44    0.30
   0  -2  -9    0.48    0.10
   0   2   9    0.53    0.08
   0   2   9    0.51    0.11
   0   2   9    0.51    0.06
   0   2   9    0.33    0.09
  -1  -2  -9   15.27    1.16
   1   2   9   13.47    1.16
   1   2   9   13.64    1.14
   2   2   9    4.22    0.36
   2   2   9    3.56    0.42
   2   2   9    3.56    0.38
   3   2   9   10.47    1.00
   3   2   9   12.34    0.98
   3   2   9   12.47    1.04
   4   2   9   11.48    1.03
   4   2   9   11.94    1.02
   5   2   9    0.15    0.09
   5   2   9    0.18    0.10
   5   2   9    0.14    0.04
   6   2   9    0.70    0.12
   6   2   9    0.85    0.21
   7   2   9    0.10    0.08
   7   2   9    0.08    0.10
  -4   3   9    0.28    0.14
  -4   3   9    0.24    0.12
  -3   3   9    5.81    0.56
  -3   3   9    5.46    0.56
  -2   3   9    0.18    0.08
  -2   3   9    0.21    0.09
  -1   3   9    6.68    0.63
  -1   3   9    7.18    0.64
  -1   3   9    8.03    0.63
   0   3   9    0.08    0.04
   0   3   9    0.13    0.07
   0   3   9    0.12    0.06
   0   3   9    0.04    0.03
   1   3   9   25.71    1.97
   1   3   9   23.66    1.96
   2   3   9    0.89    0.14
   2   3   9    1.20    0.17
   3   3   9   61.22    4.62
   3   3   9   55.09    4.57
   3   3   9   59.81    4.63
   4   3   9    3.06    0.33
   4   3   9    2.28    0.29
   5   3   9    0.29    0.09
   5   3   9    0.07    0.08
   5   3   9    0.32    0.05
   6   3   9    0.42    0.14
   6   3   9    0.38    0.09
   7   3   9    0.11    0.11
   7   3   9    0.04    0.07
  -4   4   9    0.30    0.13
  -4   4   9    0.20    0.11
  -3   4   9    1.79    0.25
  -3   4   9    1.69    0.25
  -2   4   9    6.47    0.58
  -2   4   9    5.82    0.57
  -1   4   9    2.17    0.26
  -1   4   9    2.58    0.27
   0   4   9    0.26    0.06
   0   4   9    0.25    0.07
   0   4   9    0.28    0.08
   0   4   9    0.37    0.07
   1   4   9    3.15    0.25
   1   4   9    2.92    0.26
   1   4   9    2.85    0.29
   1   4   9    2.30    0.27
   2   4   9    2.63    0.28
   2   4   9    2.94    0.30
   3   4   9   11.75    0.93
   3   4   9   10.12    0.95
   3   4   9   10.78    0.94
   4   4   9    0.25    0.10
   4   4   9    0.12    0.08
   5   4   9    2.86    0.34
   5   4   9    2.59    0.24
   6   4   9    5.89    0.62
   6   4   9    5.95    0.52
   7   4   9    0.15    0.11
   7   4   9    0.08    0.07
  -4   5   9    0.23    0.14
  -4   5   9    0.10    0.10
  -3   5   9    0.09    0.08
  -3   5   9    0.11    0.07
  -2   5   9    0.16    0.08
  -2   5   9   -0.01    0.06
  -1   5   9    0.93    0.16
  -1   5   9    0.83    0.15
   0   5   9    0.87    0.12
   0   5   9    1.02    0.14
   0   5   9    0.92    0.16
   1   5   9    2.88    0.28
   1   5   9    3.06    0.27
   1   5   9    2.70    0.29
   2   5   9    1.52    0.16
   2   5   9    1.30    0.14
   2   5   9    1.49    0.18
   3   5   9  140.41   10.39
   3   5   9  139.83   10.47
   3   5   9  138.01   10.44
   3   5   9  121.81   10.37
   4   5   9    0.54    0.15
   4   5   9    0.61    0.08
   4   5   9    0.67    0.14
   5   5   9    0.29    0.07
   5   5   9    0.28    0.12
   6   5   9    0.18    0.07
   6   5   9    0.26    0.13
   7   5   9    0.04    0.06
   7   5   9    0.05    0.10
  -3   6   9    5.33    0.55
  -3   6   9    5.60    0.57
  -2   6   9    0.71    0.17
  -2   6   9    1.00    0.18
  -1   6   9    0.00    0.06
  -1   6   9   -0.04    0.05
   0   6   9    5.80    0.48
   0   6   9    4.60    0.47
   1   6   9    4.72    0.40
   1   6   9    4.31    0.40
   1   6   9    4.38    0.42
   2   6   9    1.55    0.16
   2   6   9    1.84    0.21
   2   6   9    1.39    0.19
   3   6   9    0.05    0.06
   3   6   9    0.07    0.04
   3   6   9    0.05    0.06
   4   6   9   22.08    1.65
   4   6   9   19.06    1.72
   5   6   9    0.41    0.08
   5   6   9    0.16    0.11
   6   6   9    0.06    0.05
   6   6   9    0.06    0.09
   7   6   9    3.90    0.38
   7   6   9    3.20    0.43
  -3   7   9    0.73    0.18
  -3   7   9    0.72    0.20
  -2   7   9    5.25    0.53
  -2   7   9    5.29    0.52
  -1   7   9    2.82    0.33
  -1   7   9    3.14    0.34
   0   7   9    0.04    0.05
   0   7   9    0.08    0.06
   1   7   9    3.27    0.33
   1   7   9    3.72    0.36
   1   7   9    3.81    0.34
   2   7   9    1.72    0.22
   2   7   9    1.53    0.19
   2   7   9    2.19    0.22
   3   7   9   17.00    1.35
   3   7   9   14.98    1.38
   3   7   9   18.98    1.41
   4   7   9    6.17    0.57
   4   7   9    5.44    0.49
   5   7   9   10.79    0.88
   5   7   9   10.46    0.97
   6   7   9    0.11    0.09
   6   7   9   -0.01    0.05
   7   7   9    1.95    0.24
   7   7   9    1.75    0.33
  -2   8   9    0.49    0.13
  -2   8   9    0.21    0.09
  -1   8   9    2.33    0.27
  -1   8   9    1.50    0.24
   0   8   9    1.23    0.18
   0   8   9    1.26    0.19
   1   8   9    0.32    0.10
   1   8   9    0.30    0.09
   2   8   9    0.62    0.11
   2   8   9    0.32    0.11
   2   8   9    0.62    0.12
   3   8   9    0.05    0.06
   3   8   9    0.01    0.04
   3   8   9   -0.04    0.06
   4   8   9    8.69    0.71
   4   8   9    7.90    0.68
   4   8   9    6.26    0.62
   5   8   9    1.12    0.23
   5   8   9    0.97    0.14
   6   8   9   14.08    1.24
   6   8   9   16.61    1.34
  -1   9   9    0.09    0.08
  -1   9   9   -0.08    0.06
   0   9   9    0.31    0.10
   0   9   9    0.44    0.13
   1   9   9    3.73    0.39
   1   9   9    4.25    0.40
   2   9   9    5.54    0.56
   2   9   9    6.60    0.55
   3   9   9    0.41    0.11
   3   9   9    0.67    0.15
   3   9   9    0.61    0.14
   4   9   9    7.67    0.65
   4   9   9    7.49    0.70
   4   9   9    7.12    0.68
   5   9   9    0.00    0.08
   5   9   9   -0.07    0.04
   6   9   9    0.57    0.17
   6   9   9    0.70    0.14
   0  10   9    0.66    0.15
   0  10   9    0.48    0.13
   1  10   9    0.09    0.07
   1  10   9    0.20    0.09
   2  10   9    3.25    0.34
   2  10   9    2.97    0.32
   3  10   9    5.95    0.54
   3  10   9    5.37    0.54
   3  10   9    5.72    0.52
   4  10   9    2.75    0.32
   4  10   9    2.87    0.30
   4  10   9    2.59    0.32
   5  10   9    6.55    0.68
   5  10   9    7.42    0.64
   0   4 -10    3.69    0.39
   0  -4  10    3.86    0.33
   0  -4  10    2.10    0.47
   2   3 -10    1.08    0.18
  -2  -3  10    1.06    0.28
  -2  -3  10    1.00    0.18
   1   3 -10    0.40    0.12
  -1  -3  10    0.69    0.12
  -1  -3  10    0.25    0.16
   0   3 -10    0.52    0.14
   0  -3  10    0.76    0.24
   0  -3  10    0.77    0.10
  -1   3 -10   -0.01    0.08
   1  -3  10    0.14    0.05
   1  -3  10    0.06    0.11
  -2   3 -10    1.38    0.24
   2  -3  10    1.30    0.30
  -3   3 -10    0.54    0.15
   3  -3  10    0.22    0.13
  -3  -2  10   19.47    1.70
  -3  -2  10   17.85    1.55
   2   2 -10    6.40    0.59
  -2  -2  10    6.46    0.60
  -2  -2  10    6.66    0.74
   1   2 -10    0.00    0.06
  -1  -2  10    0.06    0.11
  -1  -2  10    0.07    0.05
   0   2 -10   -0.06    0.06
   0  -2  10    0.02    0.03
   0  -2  10   -0.06    0.08
  -1   2 -10    0.57    0.14
   1  -2  10    0.58    0.11
   1  -2  10    0.59    0.19
  -2   2 -10    1.60    0.27
   2  -2  10    1.68    0.32
  -3   2 -10    0.04    0.07
   3  -2  10    0.09    0.10
  -4   2 -10    2.15    0.36
   4  -2  10    2.91    0.37
   4  -2  10    2.50    0.36
  -3  -1  10    1.36    0.23
  -3  -1  10    1.30    0.23
  -3  -1  10    0.65    0.24
   2   1 -10    7.45    0.66
  -2  -1  10    7.92    0.69
  -2  -1  10    7.56    0.69
  -2  -1  10    7.48    0.81
   1   1 -10    1.25    0.18
  -1  -1  10    1.20    0.29
  -1  -1  10    1.31    0.16
  -1  -1  10    1.07    0.18
   0   1 -10    0.08    0.08
   0  -1  10    0.05    0.04
   0  -1  10    0.02    0.03
   0  -1  10    0.11    0.12
  -1   1 -10    6.13    0.63
   1  -1  10    6.83    0.72
   1  -1  10    7.39    0.59
  -2   1 -10    2.86    0.32
   2  -1  10    2.55    0.37
  -3   1 -10    5.52    0.53
   3  -1  10    4.69    0.56
  -4   1 -10    1.24    0.23
   4  -1  10    0.81    0.22
   4  -1  10    0.77    0.21
   5  -1  10    2.68    0.36
   5  -1  10    2.37    0.35
  -3   0  10    6.44    0.65
  -3   0  10    7.25    0.65
  -3   0  10    6.29    0.74
   2   0 -10    0.53    0.12
  -2   0  10    0.28    0.17
  -2   0  10    0.43    0.12
  -2   0  10    0.30    0.10
   1   0 -10    0.40    0.11
  -1   0  10    0.31    0.10
  -1   0  10    0.23    0.14
  -1   0  10    0.29    0.08
   0   0 -10    6.84    0.60
   0   0  10    6.57    0.54
   0   0  10    6.96    0.58
   0   0  10    6.06    0.69
  -1   0 -10    8.45    0.81
   1   0  10    9.50    0.77
   1   0  10   10.32    0.92
  -2   0 -10    7.26    0.72
   2   0  10    7.00    0.77
   2   0  10    9.09    0.68
  -3   0 -10    0.24    0.10
   3   0  10    0.15    0.09
   3   0  10    0.18    0.10
   3   0  10    0.14    0.06
   4   0  10    1.13    0.15
   4   0  10    1.49    0.26
   4   0  10    1.07    0.23
   5   0  10    0.23    0.12
   5   0  10    0.04    0.09
  -3   1  10    2.25    0.29
  -3   1  10    1.63    0.28
  -2   1  10    0.59    0.13
  -2   1  10    0.34    0.11
   1  -1 -10    0.65    0.13
  -1   1  10    0.67    0.22
  -1   1  10    0.60    0.12
  -1   1  10    0.96    0.16
   0  -1 -10    8.28    0.77
   0   1  10    9.05    0.77
   0   1  10    9.45    0.72
   0   1  10    9.43    0.89
  -1  -1 -10   18.35    1.49
   1   1  10   17.46    1.45
   1   1  10   18.90    1.58
  -2  -1 -10    5.33    0.54
   2   1  10    6.05    0.62
   2   1  10    6.00    0.51
   2   1  10    5.90    0.56
   3   1  10    4.94    0.53
   3   1  10    5.47    0.48
   3   1  10    6.03    0.58
   4   1  10    0.81    0.19
   4   1  10    0.49    0.16
   4   1  10    0.84    0.14
   5   1  10    1.73    0.26
   5   1  10    1.61    0.30
   6   1  10   -0.02    0.09
  -3   2  10    0.43    0.14
  -3   2  10    0.29    0.12
  -2   2  10    1.42    0.21
   1  -2 -10    1.91    0.21
  -1   2  10    1.75    0.20
  -1   2  10    1.54    0.21
   0  -2 -10    3.21    0.31
   0   2  10    2.90    0.30
   0   2  10    3.08    0.26
   0   2  10    2.52    0.29
   1   2  10    2.32    0.36
   1   2  10    2.95    0.28
   1   2  10    2.82    0.30
   2   2  10    6.24    0.66
   2   2  10    7.25    0.62
   2   2  10    6.41    0.58
   3   2  10    0.84    0.14
   3   2  10    0.60    0.18
   3   2  10    0.55    0.16
   4   2  10    2.73    0.33
   4   2  10    2.59    0.33
   5   2  10    9.67    0.91
   6   2  10    0.62    0.20
  -3   3  10    6.27    0.57
  -3   3  10    4.89    0.54
  -2   3  10    1.77    0.23
  -2   3  10    1.59    0.22
  -1   3  10    2.85    0.29
  -1   3  10    2.63    0.30
   0   3  10    5.37    0.49
   0   3  10    5.87    0.51
   1   3  10    0.04    0.04
   1   3  10    0.01    0.04
   2   3  10    0.13    0.11
   2   3  10    0.14    0.08
   2   3  10    0.12    0.07
   3   3  10    4.16    0.39
   3   3  10    4.37    0.46
   3   3  10    3.88    0.43
   4   3  10    0.77    0.18
   4   3  10    0.48    0.14
   5   3  10    1.42    0.26
   6   3  10    0.13    0.10
  -3   4  10    0.77    0.18
  -3   4  10    0.61    0.17
  -2   4  10    6.02    0.57
  -2   4  10    5.95    0.57
  -1   4  10    0.17    0.07
  -1   4  10    0.15    0.08
   0   4  10    0.01    0.06
   0   4  10    0.10    0.05
   1   4  10    0.48    0.11
   1   4  10    0.60    0.11
   1   4  10    0.47    0.06
   2   4  10   62.64    5.20
   2   4  10   70.25    5.19
   3   4  10    5.94    0.52
   3   4  10    5.92    0.57
   3   4  10    5.06    0.53
   4   4  10    1.67    0.23
   4   4  10    1.13    0.23
   5   4  10    0.36    0.12
   6   4  10    2.42    0.34
  -3   5  10    2.60    0.35
  -3   5  10    3.39    0.38
  -2   5  10    1.30    0.23
  -2   5  10    1.47    0.24
  -1   5  10    5.48    0.54
  -1   5  10    6.06    0.54
   0   5  10    0.78    0.14
   0   5  10    0.77    0.15
   1   5  10    0.05    0.05
   1   5  10    0.01    0.05
   1   5  10    0.05    0.04
   2   5  10    1.91    0.24
   2   5  10    2.44    0.26
   2   5  10    2.06    0.18
   3   5  10    8.68    0.80
   3   5  10    9.17    0.78
   4   5  10    0.69    0.15
   4   5  10    0.47    0.15
   5   5  10    1.50    0.28
   6   5  10    0.76    0.20
  -2   6  10    0.10    0.08
  -2   6  10   -0.01    0.07
  -1   6  10    0.05    0.07
  -1   6  10    0.09    0.07
   0   6  10    2.20    0.25
   0   6  10    1.79    0.23
   1   6  10   14.75    1.21
   1   6  10   15.23    1.24
   2   6  10   44.74    3.46
   2   6  10   42.24    3.45
   2   6  10   44.45    3.41
   3   6  10    2.44    0.22
   3   6  10    2.16    0.27
   3   6  10    2.81    0.30
   4   6  10    5.52    0.55
   4   6  10    5.35    0.44
   4   6  10    5.32    0.51
   5   6  10    0.10    0.04
   5   6  10    0.05    0.09
   6   6  10   -0.01    0.08
   6   6  10    0.01    0.04
  -2   7  10    0.05    0.08
  -2   7  10    0.06    0.08
  -1   7  10    0.59    0.15
  -1   7  10    0.97    0.17
   0   7  10    1.68    0.22
   0   7  10    1.93    0.23
   1   7  10    1.00    0.18
   1   7  10    1.16    0.15
   2   7  10    5.80    0.49
   2   7  10    4.82    0.51
   2   7  10    6.16    0.52
   3   7  10    4.57    0.43
   3   7  10    4.17    0.38
   3   7  10    4.37    0.44
   4   7  10    3.40    0.40
   4   7  10    3.76    0.33
   4   7  10    3.95    0.40
   5   7  10    9.16    0.71
   5   7  10    7.59    0.80
   6   7  10    2.94    0.38
   6   7  10    3.00    0.29
  -1   8  10    0.11    0.08
  -1   8  10    0.00    0.05
   0   8  10    0.04    0.05
   0   8  10   -0.02    0.06
   1   8  10    4.82    0.46
   1   8  10    4.94    0.47
   2   8  10    0.15    0.06
   2   8  10    0.10    0.06
   3   8  10    0.03    0.06
   3   8  10    0.03    0.04
   3   8  10    0.14    0.07
   4   8  10    0.05    0.04
   4   8  10    0.00    0.05
   4   8  10    0.04    0.06
   5   8  10    1.60    0.28
   5   8  10    1.65    0.19
   6   8  10    1.64    0.32
   6   8  10    2.53    0.25
   0   9  10    0.04    0.07
   0   9  10    0.05    0.07
   1   9  10    0.53    0.13
   1   9  10    0.66    0.15
   2   9  10    1.61    0.21
   2   9  10    1.92    0.23
   3   9  10    0.33    0.11
   3   9  10    0.31    0.08
   4   9  10   -0.08    0.07
   4   9  10    0.18    0.10
   4   9  10   -0.04    0.04
   5   9  10   17.31    1.50
   5   9  10   17.69    1.48
   1  10  10    0.48    0.13
   1  10  10    0.20    0.09
   2  10  10    3.61    0.35
   2  10  10    2.86    0.35
   3  10  10    1.25    0.22
   3  10  10    1.30    0.18
   4  10  10    3.55    0.35
   4  10  10    3.70    0.39
   4  10  10    3.30    0.38
   1   2 -11    0.60    0.14
  -1  -2  11    0.54    0.22
  -1  -2  11    0.65    0.12
   0   2 -11    1.31    0.23
   0  -2  11    1.14    0.30
  -1   2 -11    1.46    0.25
   1  -2  11    1.78    0.37
  -2   2 -11    1.13    0.22
   2  -2  11    1.43    0.32
  -2  -1  11    0.03    0.13
  -2  -1  11   -0.03    0.07
   1   1 -11    0.09    0.09
  -1  -1  11    0.06    0.05
  -1  -1  11    0.04    0.12
   0   1 -11    1.80    0.25
   0  -1  11    2.23    0.40
  -1   1 -11   -0.08    0.07
   1  -1  11    0.10    0.13
  -2   1 -11    0.08    0.10
   2  -1  11    0.07    0.12
  -3   1 -11    2.48    0.33
   3  -1  11    2.48    0.37
  -2   0  11   -0.02    0.11
  -2   0  11    0.02    0.06
  -2   0  11    0.09    0.10
   1   0 -11    0.79    0.14
  -1   0  11    0.49    0.10
  -1   0  11    0.75    0.24
  -1   0  11    0.49    0.12
   0   0 -11    7.40    0.69
   0   0  11    7.65    0.67
   0   0  11    8.00    0.82
  -1   0 -11    7.18    0.66
   1   0  11    6.85    0.75
   1   0  11    7.13    0.61
  -2   0 -11    2.92    0.36
   2   0  11    3.63    0.44
  -3   0 -11    1.57    0.27
   3   0  11    1.75    0.32
   3   0  11    1.71    0.30
   4   0  11    5.28    0.52
   4   0  11    3.69    0.48
  -2   1  11    0.08    0.07
  -2   1  11    0.13    0.14
  -2   1  11    0.01    0.07
   1  -1 -11   -0.01    0.07
  -1   1  11   -0.13    0.08
  -1   1  11    0.09    0.07
  -1   1  11    0.08    0.05
   0  -1 -11    0.68    0.14
   0   1  11    0.69    0.14
   0   1  11    0.53    0.19
  -1  -1 -11    1.79    0.24
   1   1  11    1.58    0.23
   1   1  11    2.03    0.36
   1   1  11    1.87    0.20
  -2  -1 -11    0.02    0.07
   2   1  11    0.04    0.05
   2   1  11    0.09    0.11
   2   1  11    0.05    0.07
   3   1  11    0.74    0.21
   3   1  11    0.49    0.11
   3   1  11    0.76    0.18
   4   1  11    0.74    0.21
   4   1  11    0.85    0.21
   4   1  11    0.54    0.12
   5   1  11    0.15    0.10
  -2   2  11    2.11    0.27
  -2   2  11    1.99    0.26
  -1   2  11    1.09    0.15
  -1   2  11    1.10    0.20
   0  -2 -11    0.92    0.16
   0   2  11    1.09    0.18
   0   2  11    0.96    0.25
   1   2  11    3.64    0.37
   1   2  11    3.46    0.35
   1   2  11    3.75    0.46
   2   2  11    0.29    0.14
   2   2  11    0.33    0.11
   2   2  11    0.39    0.10
   3   2  11    0.23    0.08
   3   2  11    0.12    0.09
   3   2  11    0.20    0.11
   4   2  11    3.65    0.39
   4   2  11    2.64    0.37
   4   2  11    2.81    0.31
   5   2  11    3.02    0.39
  -2   3  11    4.44    0.46
  -1   3  11    1.98    0.25
   0   3  11    5.51    0.47
   0   3  11    5.65    0.52
   1   3  11    2.81    0.28
   1   3  11    2.34    0.28
   2   3  11    0.08    0.09
   2   3  11    0.00    0.05
   2   3  11   -0.03    0.04
   3   3  11    1.61    0.25
   3   3  11    2.13    0.29
   3   3  11    1.67    0.21
   4   3  11    2.96    0.39
   4   3  11    3.81    0.42
   4   3  11    3.55    0.36
   5   3  11    3.52    0.42
  -2   4  11    0.07    0.09
  -2   4  11    0.10    0.08
  -1   4  11    4.54    0.44
  -1   4  11    4.54    0.45
   0   4  11   11.47    0.95
   0   4  11   10.78    0.90
   1   4  11    0.38    0.10
   2   4  11    0.48    0.11
   2   4  11    0.32    0.10
   3   4  11    0.07    0.07
   3   4  11    0.11    0.08
   3   4  11    0.03    0.07
   4   4  11    1.69    0.24
   4   4  11    1.49    0.27
   4   4  11    1.63    0.22
   5   4  11    0.57    0.17
   6   4  11    3.00    0.39
  -2   5  11    0.16    0.09
  -2   5  11    0.19    0.10
  -1   5  11    1.78    0.22
  -1   5  11    1.01    0.19
   0   5  11   10.43    0.83
   0   5  11    9.11    0.84
   1   5  11   16.39    1.38
   1   5  11   17.03    1.33
   2   5  11   22.90    1.88
   2   5  11   23.83    1.90
   3   5  11    5.33    0.46
   3   5  11    4.19    0.50
   3   5  11    4.56    0.48
   4   5  11    1.03    0.20
   4   5  11    1.29    0.24
   4   5  11    1.28    0.24
   5   5  11    8.46    0.81
   6   5  11    8.27    0.82
  -1   6  11    0.61    0.15
  -1   6  11    0.50    0.14
   0   6  11    0.27    0.10
   0   6  11    0.23    0.08
   1   6  11    6.16    0.59
   1   6  11    6.89    0.57
   2   6  11   14.55    1.16
   2   6  11   13.38    1.10
   3   6  11    1.30    0.20
   3   6  11    1.69    0.23
   4   6  11    0.89    0.21
   4   6  11    1.39    0.22
   5   6  11    1.13    0.25
  -1   7  11    0.03    0.07
  -1   7  11   -0.02    0.06
   0   7  11   12.59    1.11
   0   7  11   13.62    1.11
   1   7  11    2.49    0.28
   1   7  11    2.36    0.25
   2   7  11    4.77    0.40
   2   7  11    3.91    0.42
   3   7  11    0.43    0.08
   3   7  11    0.54    0.13
   3   7  11    0.39    0.11
   4   7  11    1.35    0.25
   4   7  11    1.74    0.23
   5   7  11    0.20    0.12
   5   7  11    0.05    0.08
   0   8  11    0.07    0.08
   0   8  11    0.09    0.08
   1   8  11    0.50    0.12
   1   8  11    0.37    0.10
   2   8  11    0.38    0.09
   2   8  11    0.69    0.15
   3   8  11    0.57    0.10
   3   8  11    0.39    0.13
   4   8  11    1.42    0.25
   4   8  11    1.47    0.16
   4   8  11    1.32    0.23
   5   8  11    2.58    0.36
   5   8  11    3.35    0.36
   1   9  11    0.43    0.11
   1   9  11    0.34    0.11
   2   9  11    0.08    0.06
   2   9  11    0.37    0.12
   3   9  11    4.98    0.49
   3   9  11    4.70    0.44
   4   9  11    5.67    0.54
   4   9  11    5.25    0.48
   0   0 -12    0.16    0.09
   0   0  12    0.01    0.13
  -1   0 -12   -0.01    0.07
   1   0  12   -0.14    0.08
  -2   0 -12    1.65    0.22
   2   0  12    0.88    0.21
   2   0  12    0.98    0.27
  -1   1  12    0.27    0.15
  -1   1  12    0.11    0.08
   0  -1 -12    8.58    0.77
   0   1  12    9.32    0.92
   0   1  12    8.51    0.76
  -1  -1 -12    1.99    0.26
   1   1  12    1.81    0.37
   1   1  12    2.16    0.24
   1   1  12    1.81    0.26
  -2  -1 -12    0.34    0.12
   2   1  12    0.41    0.14
   2   1  12    0.32    0.09
   2   1  12    0.37    0.16
   3   1  12    0.26    0.14
   3   1  12    0.18    0.11
  -1   2  12    0.58    0.14
  -1   2  12    0.52    0.22
   0   2  12    0.06    0.12
   0   2  12   -0.01    0.04
   1   2  12    1.12    0.27
   1   2  12    0.90    0.16
   2   2  12    0.00    0.04
   2   2  12    0.01    0.07
   2   2  12   -0.12    0.07
   3   2  12    0.84    0.14
   3   2  12    0.63    0.18
   3   2  12    0.47    0.16
   4   2  12    3.53    0.43
   4   2  12    3.04    0.33
   4   2  12    3.17    0.39
  -1   3  12    3.13    0.35
   0   3  12    1.44    0.20
   1   3  12    0.51    0.17
   1   3  12    0.41    0.11
   2   3  12    1.04    0.20
   2   3  12    1.37    0.18
   2   3  12    1.12    0.27
   3   3  12    0.34    0.13
   3   3  12    0.33    0.16
   3   3  12    0.56    0.13
   4   3  12    6.48    0.66
   4   3  12    6.78    0.58
   4   3  12    5.51    0.62
  -1   4  12    0.89    0.20
   0   4  12    1.82    0.24
   1   4  12    8.71    0.76
   2   4  12    0.94    0.17
   2   4  12    0.61    0.20
   3   4  12    0.68    0.21
   3   4  12    1.15    0.21
   3   4  12    0.88    0.17
   4   4  12    0.05    0.08
   4   4  12    0.20    0.09
  -1   5  12    7.47    0.69
  -1   5  12    8.05    0.72
   0   5  12    1.23    0.22
   1   5  12    1.11    0.19
   2   5  12    4.02    0.41
   3   5  12    0.43    0.17
   3   5  12    0.53    0.13
   3   5  12    0.62    0.16
   4   5  12    0.45    0.16
   4   5  12    0.63    0.14
   0   6  12   15.17    1.23
   0   6  12   13.89    1.19
   1   6  12   11.50    0.99
   2   6  12    1.25    0.21
   3   6  12   -0.04    0.06
   4   6  12    1.98    0.28
   4   6  12    1.53    0.23
   1   7  12    8.01    0.81
   1   7  12    9.37    0.79
   2   7  12    0.88    0.17
   3   7  12    7.32    0.67
   4   7  12    0.49    0.14
   4   7  12    0.32    0.13
   0   0   0    0.00    0.00
;
_shelx_hkl_checksum              7360
_shelx_shelxl_version_number     2014/7
_olex2_submission_special_instructions 'No special instructions were received'
loop_
_space_group_symop_operation_xyz
'x, y, z'
'-x, -y, -z'
loop_
_atom_site_label
_atom_site_type_symbol
_atom_site_fract_x
_atom_site_fract_y
_atom_site_fract_z
_atom_site_U_iso_or_equiv
_atom_site_adp_type
_atom_site_occupancy
_atom_site_site_symmetry_order
_atom_site_calc_flag
_atom_site_refinement_flags_posn
O1 O 0.45042(14) 0.13602(9) 0.36245(9) 0.0226(2) Uani 1 1 d .
O2 O 0.41545(13) 0.34038(9) 0.18336(9) 0.0210(2) Uani 1 1 d .
N1 N 0.75998(16) 0.35349(11) 0.48681(10) 0.0187(3) Uani 1 1 d .
N2 N 0.66204(18) 0.13805(12) 0.53526(12) 0.0247(3) Uani 1 1 d .
N3 N 0.58066(15) 0.33589(11) 0.33907(10) 0.0179(2) Uani 1 1 d .
C1 C 1.0326(2) 0.18437(15) 0.60377(14) 0.0237(3) Uani 1 1 d .
H1 H 1.0874 0.1556 0.5244 0.028 Uiso 1 1 calc R
C2 C 1.1255(2) 0.12040(15) 0.71910(15) 0.0280(3) Uani 1 1 d .
H2 H 1.2433 0.0468 0.7191 0.034 Uiso 1 1 calc R
C3 C 1.0469(2) 0.16362(15) 0.83422(14) 0.0270(3) Uani 1 1 d .
H3 H 1.1096 0.1187 0.9136 0.032 Uiso 1 1 calc R
C4 C 0.8764(2) 0.27262(15) 0.83366(13) 0.0246(3) Uani 1 1 d .
H4 H 0.8244 0.3038 0.9121 0.030 Uiso 1 1 calc R
C5 C 0.78136(19) 0.33635(13) 0.71938(13) 0.0203(3) Uani 1 1 d .
H5 H 0.6642 0.4105 0.7194 0.024 Uiso 1 1 calc R
C6 C 0.85907(18) 0.29072(13) 0.60481(12) 0.0177(3) Uani 1 1 d .
C7 C 0.7641(2) 0.50577(13) 0.40848(13) 0.0211(3) Uani 1 1 d .
H7A H 0.8993 0.5125 0.3717 0.032 Uiso 1 1 calc GR
H7B H 0.7104 0.5694 0.4672 0.032 Uiso 1 1 calc GR
H7C H 0.6855 0.5374 0.3341 0.032 Uiso 1 1 calc GR
C8 C 0.66424(18) 0.27363(13) 0.45182(12) 0.0174(3) Uani 1 1 d .
C9 C 0.48227(18) 0.25899(13) 0.30300(12) 0.0170(3) Uani 1 1 d .
C10 C 0.31224(19) 0.28092(13) 0.11583(12) 0.0190(3) Uani 1 1 d .
C11 C 0.2796(2) 0.40351(14) -0.01580(13) 0.0247(3) Uani 1 1 d .
H11A H 0.1984 0.4933 0.0041 0.037 Uiso 1 1 calc GR
H11B H 0.2136 0.3744 -0.0711 0.037 Uiso 1 1 calc GR
H11C H 0.4059 0.4219 -0.0652 0.037 Uiso 1 1 calc GR
C12 C 0.1175(2) 0.25683(15) 0.19815(13) 0.0254(3) Uani 1 1 d .
H12A H 0.1407 0.1761 0.2816 0.038 Uiso 1 1 calc GR
H12B H 0.0427 0.2319 0.1452 0.038 Uiso 1 1 calc GR
H12C H 0.0437 0.3469 0.2207 0.038 Uiso 1 1 calc GR
C13 C 0.4398(2) 0.14099(15) 0.08646(14) 0.0251(3) Uani 1 1 d .
H13A H 0.5704 0.1566 0.0452 0.038 Uiso 1 1 calc GR
H13B H 0.3812 0.1160 0.0242 0.038 Uiso 1 1 calc GR
H13C H 0.4500 0.0603 0.1710 0.038 Uiso 1 1 calc GR
H2A H 0.595(2) 0.0889(18) 0.5158(16) 0.030 Uiso 1 1 d R
H2B H 0.717(2) 0.1053(17) 0.6115(17) 0.030 Uiso 1 1 d R
loop_
_atom_site_aniso_label
_atom_site_aniso_U_11
_atom_site_aniso_U_22
_atom_site_aniso_U_33
_atom_site_aniso_U_23
_atom_site_aniso_U_13
_atom_site_aniso_U_12
O1 0.0292(5) 0.0178(5) 0.0228(5) -0.0013(4) -0.0097(4) -0.0097(4)
O2 0.0288(5) 0.0186(4) 0.0184(5) -0.0024(4) -0.0099(4) -0.0086(4)
N1 0.0223(6) 0.0169(5) 0.0186(5) -0.0028(4) -0.0066(4) -0.0071(4)
N2 0.0342(7) 0.0192(6) 0.0238(6) 0.0011(5) -0.0147(5) -0.0119(5)
N3 0.0210(6) 0.0171(5) 0.0174(5) -0.0043(4) -0.0055(4) -0.0060(4)
C1 0.0221(7) 0.0264(7) 0.0251(7) -0.0109(6) -0.0043(5) -0.0046(5)
C2 0.0235(7) 0.0252(7) 0.0359(8) -0.0089(6) -0.0118(6) -0.0007(5)
C3 0.0312(8) 0.0270(7) 0.0256(7) -0.0037(6) -0.0135(6) -0.0087(6)
C4 0.0299(7) 0.0279(7) 0.0207(7) -0.0089(5) -0.0033(5) -0.0117(6)
C5 0.0214(7) 0.0180(6) 0.0230(7) -0.0062(5) -0.0028(5) -0.0067(5)
C6 0.0186(6) 0.0182(6) 0.0185(6) -0.0039(5) -0.0042(5) -0.0083(5)
C7 0.0256(7) 0.0176(6) 0.0215(6) -0.0036(5) -0.0043(5) -0.0086(5)
C8 0.0175(6) 0.0174(6) 0.0181(6) -0.0061(5) -0.0006(5) -0.0054(5)
C9 0.0174(6) 0.0166(6) 0.0164(6) -0.0050(5) -0.0026(5) -0.0021(5)
C10 0.0220(7) 0.0201(6) 0.0179(6) -0.0062(5) -0.0067(5) -0.0057(5)
C11 0.0317(8) 0.0246(7) 0.0199(7) -0.0042(5) -0.0092(6) -0.0081(6)
C12 0.0233(7) 0.0308(7) 0.0228(7) -0.0065(6) -0.0049(5) -0.0073(6)
C13 0.0261(7) 0.0268(7) 0.0256(7) -0.0120(6) -0.0063(6) -0.0036(6)
loop_
_atom_type_symbol
_atom_type_description
_atom_type_scat_dispersion_real
_atom_type_scat_dispersion_imag
_atom_type_scat_source
C C 0.0033 0.0016 'International Tables Vol C Tables 4.2.6.8 and 6.1.1.4'
H H 0.0000 0.0000 'International Tables Vol C Tables 4.2.6.8 and 6.1.1.4'
N N 0.0061 0.0033 'International Tables Vol C Tables 4.2.6.8 and 6.1.1.4'
O O 0.0106 0.0060 'International Tables Vol C Tables 4.2.6.8 and 6.1.1.4'
loop_
_geom_angle_atom_site_label_1
_geom_angle_atom_site_label_2
_geom_angle_atom_site_label_3
_geom_angle
C9 O2 C10 120.93(9)
C6 N1 C7 117.37(10)
C8 N1 C6 120.50(10)
C8 N1 C7 122.12(10)
C8 N2 H2A 116.9(11)
C8 N2 H2B 120.4(10)
H2A N2 H2B 122.4(15)
C8 N3 C9 118.83(10)
C2 C1 H1 120.1
C2 C1 C6 119.75(12)
C6 C1 H1 120.1
C1 C2 H2 120.0
C3 C2 C1 120.09(13)
C3 C2 H2 120.0
C2 C3 H3 120.0
C2 C3 C4 119.96(12)
C4 C3 H3 120.0
C3 C4 H4 119.8
C5 C4 C3 120.43(12)
C5 C4 H4 119.8
C4 C5 H5 120.3
C4 C5 C6 119.39(12)
C6 C5 H5 120.3
C1 C6 N1 119.68(11)
C5 C6 N1 119.97(11)
C5 C6 C1 120.35(12)
N1 C7 H7A 109.5
N1 C7 H7B 109.5
N1 C7 H7C 109.5
H7A C7 H7B 109.5
H7A C7 H7C 109.5
H7B C7 H7C 109.5
N2 C8 N1 116.67(11)
N3 C8 N1 117.78(11)
N3 C8 N2 125.55(12)
O1 C9 O2 121.45(11)
O1 C9 N3 129.54(11)
O2 C9 N3 109.01(10)
O2 C10 C11 102.27(9)
O2 C10 C12 110.91(10)
O2 C10 C13 111.04(10)
C11 C10 C13 110.05(10)
C12 C10 C11 110.35(11)
C12 C10 C13 111.83(11)
C10 C11 H11A 109.5
C10 C11 H11B 109.5
C10 C11 H11C 109.5
H11A C11 H11B 109.5
H11A C11 H11C 109.5
H11B C11 H11C 109.5
C10 C12 H12A 109.5
C10 C12 H12B 109.5
C10 C12 H12C 109.5
H12A C12 H12B 109.5
H12A C12 H12C 109.5
H12B C12 H12C 109.5
C10 C13 H13A 109.5
C10 C13 H13B 109.5
C10 C13 H13C 109.5
H13A C13 H13B 109.5
H13A C13 H13C 109.5
H13B C13 H13C 109.5
loop_
_geom_bond_atom_site_label_1
_geom_bond_atom_site_label_2
_geom_bond_distance
O1 C9 1.2316(15)
O2 C9 1.3556(15)
O2 C10 1.4711(15)
N1 C6 1.4349(16)
N1 C7 1.4638(15)
N1 C8 1.3605(16)
N2 C8 1.3402(16)
N2 H2A 0.867(18)
N2 H2B 0.893(17)
N3 C8 1.3287(16)
N3 C9 1.3574(17)
C1 H1 0.9500
C1 C2 1.3871(19)
C1 C6 1.3898(18)
C2 H2 0.9500
C2 C3 1.384(2)
C3 H3 0.9500
C3 C4 1.387(2)
C4 H4 0.9500
C4 C5 1.3861(18)
C5 H5 0.9500
C5 C6 1.3897(18)
C7 H7A 0.9800
C7 H7B 0.9800
C7 H7C 0.9800
C10 C11 1.5210(17)
C10 C12 1.5207(18)
C10 C13 1.5229(18)
C11 H11A 0.9800
C11 H11B 0.9800
C11 H11C 0.9800
C12 H12A 0.9800
C12 H12B 0.9800
C12 H12C 0.9800
C13 H13A 0.9800
C13 H13B 0.9800
C13 H13C 0.9800
loop_
_geom_torsion_atom_site_label_1
_geom_torsion_atom_site_label_2
_geom_torsion_atom_site_label_3
_geom_torsion_atom_site_label_4
_geom_torsion
C1 C2 C3 C4 -1.0(2)
C2 C1 C6 N1 -178.07(11)
C2 C1 C6 C5 1.9(2)
C2 C3 C4 C5 1.5(2)
C3 C4 C5 C6 -0.39(19)
C4 C5 C6 N1 178.65(11)
C4 C5 C6 C1 -1.34(19)
C6 N1 C8 N2 2.42(17)
C6 N1 C8 N3 -177.82(10)
C6 C1 C2 C3 -0.8(2)
C7 N1 C6 C1 -108.25(13)
C7 N1 C6 C5 71.76(15)
C7 N1 C8 N2 -176.58(11)
C7 N1 C8 N3 3.18(18)
C8 N1 C6 C1 72.71(16)
C8 N1 C6 C5 -107.29(14)
C8 N3 C9 O1 2.6(2)
C8 N3 C9 O2 -177.80(10)
C9 O2 C10 C11 -176.08(10)
C9 O2 C10 C12 66.27(14)
C9 O2 C10 C13 -58.72(14)
C9 N3 C8 N1 -179.20(10)
C9 N3 C8 N2 0.54(19)
C10 O2 C9 O1 -3.75(17)
C10 O2 C9 N3 176.61(10)
