#------------------------------------------------------------------------------
#$Date: 2019-11-25 23:01:00 +0200 (Mon, 25 Nov 2019) $
#$Revision: 242010 $
#$URL: file:///home/coder/svn-repositories/cod/cif/4/13/19/4131932.cif $
#------------------------------------------------------------------------------
#
# This file is available in the Crystallography Open Database (COD),
# http://www.crystallography.net/
#
# All data on this site have been placed in the public domain by the
# contributors.
#
data_4131932
loop_
_publ_author_name
'Wurzenberger, Maximilian H. H.'
'Szimhardt, Norbert'
'Stierstorfer, J\"org'
_publ_section_title
;
 Copper(II) Chlorate Complexes: The Renaissance of a Forgotten and
 Misjudged Energetic Anion.
;
_journal_issue                   9
_journal_name_full               'Journal of the American Chemical Society'
_journal_page_first              3206
_journal_page_last               3209
_journal_paper_doi               10.1021/jacs.7b13230
_journal_volume                  140
_journal_year                    2018
_chemical_formula_moiety         'C4 H14 Cl2 Cu N10 O8'
_chemical_formula_sum            'C4 H14 Cl2 Cu N10 O8'
_chemical_formula_weight         464.69
_chemical_name_common
'diaqua dichlorato bis(2-methyl-5-aminotetrazolyl) copper(II)'
_chemical_name_systematic
;
diaqua dichlorato bis(2-methyl-5-aminotetrazolyl) copper(II)
;
_space_group_crystal_system      triclinic
_space_group_IT_number           2
_space_group_name_Hall           '-P 1'
_space_group_name_H-M_alt        'P -1'
_symmetry_cell_setting           triclinic
_symmetry_Int_Tables_number      2
_symmetry_space_group_name_Hall  '-P 1'
_symmetry_space_group_name_H-M   'P -1'
_atom_sites_solution_hydrogens   difmap
_audit_creation_method           SHELXL-2013
_audit_update_record             13.07.2017
_cell_angle_alpha                111.762(2)
_cell_angle_beta                 98.711(2)
_cell_angle_gamma                104.197(2)
_cell_formula_units_Z            1
_cell_length_a                   6.5617(3)
_cell_length_b                   7.5260(4)
_cell_length_c                   9.0097(4)
_cell_measurement_reflns_used    4714
_cell_measurement_temperature    100(2)
_cell_measurement_theta_max      28.2726
_cell_measurement_theta_min      3.0446
_cell_volume                     385.81(3)
_computing_cell_refinement       'APEX2 v2012.4-3 (Bruker AXS)'
_computing_data_collection       'Bruker Instrument Service v3.0.21'
_computing_data_reduction        'SAINT V8.18C (Bruker AXS Inc., 2011)'
_computing_structure_refinement  'SHELXL-2013 (Sheldrick, 2013)'
_diffrn_ambient_temperature      100(2)
_diffrn_detector_area_resol_mean 7.4074
_diffrn_measured_fraction_theta_full 0.998
_diffrn_measured_fraction_theta_max 0.996
_diffrn_measurement_device_type  'D8 Venture'
_diffrn_measurement_method       'mix of omega and phi scans'
_diffrn_radiation_type           MoK\a
_diffrn_radiation_wavelength     0.71073
_diffrn_reflns_av_unetI/netI     0.0303
_diffrn_reflns_Laue_measured_fraction_full 0.998
_diffrn_reflns_Laue_measured_fraction_max 0.996
_diffrn_reflns_limit_h_max       7
_diffrn_reflns_limit_h_min       -8
_diffrn_reflns_limit_k_max       8
_diffrn_reflns_limit_k_min       -9
_diffrn_reflns_limit_l_max       11
_diffrn_reflns_limit_l_min       0
_diffrn_reflns_number            1500
_diffrn_reflns_point_group_measured_fraction_full 0.998
_diffrn_reflns_point_group_measured_fraction_max 0.996
_diffrn_reflns_theta_full        25.242
_diffrn_reflns_theta_max         25.992
_diffrn_reflns_theta_min         3.045
_diffrn_source                   'rotating anode generator'
_exptl_absorpt_coefficient_mu    1.826
_exptl_absorpt_correction_T_max  0.7457
_exptl_absorpt_correction_T_min  0.6732
_exptl_absorpt_correction_type   multi-scan
_exptl_absorpt_process_details
'TWINABS - Bruker AXS scaling for twinned crystals - Version 2012/1'
_exptl_crystal_colour            colourless
_exptl_crystal_density_diffrn    2.000
_exptl_crystal_density_method    'not measured'
_exptl_crystal_description       block
_exptl_crystal_F_000             235
_exptl_crystal_size_max          0.040
_exptl_crystal_size_mid          0.030
_exptl_crystal_size_min          0.030
_refine_diff_density_max         0.408
_refine_diff_density_min         -0.330
_refine_diff_density_rms         0.089
_refine_ls_extinction_method     none
_refine_ls_goodness_of_fit_ref   1.117
_refine_ls_hydrogen_treatment    refall
_refine_ls_matrix_type           full
_refine_ls_number_parameters     144
_refine_ls_number_reflns         1500
_refine_ls_number_restraints     0
_refine_ls_restrained_S_all      1.117
_refine_ls_R_factor_all          0.0335
_refine_ls_R_factor_gt           0.0295
_refine_ls_shift/su_max          0.001
_refine_ls_shift/su_mean         0.000
_refine_ls_structure_factor_coef Fsqd
_refine_ls_weighting_details
'w=1/[\s^2^(Fo^2^)+0.7908P] where P=(Fo^2^+2Fc^2^)/3'
_refine_ls_weighting_scheme      calc
_refine_ls_wR_factor_gt          0.0619
_refine_ls_wR_factor_ref         0.0635
_reflns_Friedel_coverage         0.000
_reflns_number_gt                1392
_reflns_number_total             1500
_reflns_threshold_expression     'I > 2\s(I)'
_cod_data_source_file            ja7b13230_si_002.cif
_cod_data_source_block           vv348
_cod_depositor_comments
;
The following automatic conversions were performed:

data item '_exptl_absorpt_correction_type' value 'Multi-Scan' was
changed to 'multi-scan' in accordance with the
/home/saulius/struct/COD-crude-data/automatic-downloads/DataCite-retrospective/ACS/depositions/lib/dictionaries/cif_core.dic
dictionary named 'cif_core.dic' version 2.4.2 last updated on
2011-04-26.

Automatic conversion script
Id: cif_fix_values 6909 2019-04-08 15:41:33Z antanas 
;
_cod_database_code               4131932
_shelx_space_group_comment
;
The symmetry employed for this shelxl refinement is uniquely defined
by the following loop, which should always be used as a source of
symmetry information in preference to the above space-group names.
They are only intended as comments.
;
_shelx_estimated_absorpt_t_min   0.931
_shelx_estimated_absorpt_t_max   0.947
_shelxl_version_number           2013-4
_shelx_res_file
;
TITL v1 in P-1
CELL  0.71073   6.5617   7.5260   9.0097  111.762   98.711  104.197
ZERR     1.00   0.0003   0.0004   0.0004    0.002    0.002    0.002
LATT   1
SFAC  C    H    N    O    CL   CU
UNIT  4    14   10   8    2    1
MERG   0
OMIT    -2.00  52.00
OMIT     0   0   1
OMIT    -1  -8   7
OMIT     0   1   0
OMIT     1  -9   3
OMIT     7   0   2
HTAB N5 O1
EQIV $1 -x+1, -y+1, -z+3
HTAB N5 O2_$1
EQIV $2 x, y+1, z
HTAB N5 Cl1_$2
HTAB N5 O3_$2
EQIV $3 -x, -y+1, -z+2
HTAB O4 N1_$3
EQIV $4 x-1, y, z
HTAB O4 Cl1_$4
HTAB O4 O3_$4
EQIV $5 x-1, y, z-1
HTAB C2 O2_$5
HTAB N5 O1
HTAB N5 O2_$1
HTAB N5 Cl1_$2
HTAB N5 O3_$2
HTAB O4 N1_$3
HTAB O4 Cl1_$4
HTAB O4 O3_$4
HTAB C2 O2_$5
FMAP   2
PLAN   25
SIZE     0.030   0.030   0.040
ACTA
BOND   $H
CONF
L.S.   4
TEMP  -173.00
WGHT    0.000000    0.790800
BASF   0.37104
FVAR       1.21195
CU1   6    0.000000    0.000000    1.000000    10.50000    0.01027    0.00533 =
         0.00811    0.00399    0.00423    0.00313
CL1   5    0.418079    0.094411    1.339850    11.00000    0.01029    0.01060 =
         0.00937    0.00523    0.00259    0.00262
O1    4    0.319563    0.181945    1.235558    11.00000    0.01944    0.01231 =
         0.01458    0.00801   -0.00201    0.00571
O2    4    0.599659    0.260395    1.473510    11.00000    0.01839    0.01908 =
         0.01272    0.00327   -0.00295    0.00000
O3    4    0.512179   -0.049674    1.231634    11.00000    0.01895    0.01131 =
         0.02065    0.00559    0.01133    0.00654
C2    1    0.124826    0.348737    0.593939    11.00000    0.01738    0.01591 =
         0.01118    0.01055    0.00649    0.00482
O4    4   -0.162036    0.156699    1.134406    11.00000    0.01510    0.00973 =
         0.01473    0.00821    0.00852    0.00581
N1    3    0.239455    0.499550    0.898142    11.00000    0.01085    0.00818 =
         0.00957    0.00404    0.00335    0.00329
N5    3    0.270269    0.526969    1.171903    11.00000    0.01380    0.00947 =
         0.00759    0.00364    0.00174    0.00143
N3    3    0.067499    0.167762    0.763910    11.00000    0.01027    0.01028 =
         0.00866    0.00550    0.00338    0.00273
N2    3    0.147203    0.336191    0.752980    11.00000    0.01201    0.00891 =
         0.00967    0.00666    0.00483    0.00398
N4    3    0.106873    0.217209    0.926587    11.00000    0.01031    0.00680 =
         0.00596    0.00328    0.00152    0.00212
C1    1    0.212657    0.419967    1.007147    11.00000    0.00599    0.00688 =
         0.01394    0.00672    0.00328    0.00389
H5B   2    0.290440    0.474293    1.233473    11.00000    0.01555
H5A   2    0.357177    0.652785    1.209932    11.00000    0.01963
H4A   2   -0.208900    0.226624    1.105380    11.00000    0.03918
H4B   2   -0.256212    0.095701    1.162317    11.00000    0.03093
H2A   2    0.261038    0.422998    0.589540    11.00000    0.01696
H2C   2    0.015945    0.421852    0.590813    11.00000    0.01937
H2B   2    0.073698    0.216820    0.509098    11.00000    0.02191
HKLF    5

REM  v1 in P-1
REM R1 =  0.0295 for    1392 Fo > 4sig(Fo)  and  0.0335 for all    1500 data
REM    144 parameters refined using      0 restraints

END

WGHT      0.0000      0.7908

REM Highest difference peak  0.408,  deepest hole -0.330,  1-sigma level  0.089
Q1    1   0.0076  0.0457  0.6792  11.00000  0.05    0.41
Q2    1  -0.2399  0.1530  0.9629  11.00000  0.05    0.37
Q3    1   0.3036  0.0562  1.3743  11.00000  0.05    0.33
Q4    1   0.2730  0.5816  0.9040  11.00000  0.05    0.33
Q5    1   0.1184  0.1378  0.9445  11.00000  0.05    0.33
Q6    1   0.0365  0.1941  0.9800  11.00000  0.05    0.33
Q7    1   0.2262  0.2119  0.9723  11.00000  0.05    0.32
Q8    1   0.4647 -0.1529  1.1956  11.00000  0.05    0.32
Q9    1   0.0314  0.0700  0.4412  11.00000  0.05    0.31
Q10   1  -0.1842  0.1036  1.3224  11.00000  0.05    0.30
Q11   1   0.3493  0.2537  1.0819  11.00000  0.05    0.30
Q12   1   0.0201  0.4233  1.1236  11.00000  0.05    0.30
Q13   1   0.0787  0.1958  0.8572  11.00000  0.05    0.30
Q14   1   0.2517  0.2008  0.6820  11.00000  0.05    0.30
Q15   1  -0.1228  0.0511  0.4059  11.00000  0.05    0.29
Q16   1   0.1679  0.3154  0.9851  11.00000  0.05    0.29
Q17   1   0.0097  0.1056  0.3358  11.00000  0.05    0.29
Q18   1  -0.2403  0.0381  0.9883  11.00000  0.05    0.28
Q19   1   0.3018  0.1001  1.1943  11.00000  0.05    0.28
Q20   1   0.2228  0.4669  0.9557  11.00000  0.05    0.28
Q21   1   0.1951  0.4658  1.0785  11.00000  0.05    0.27
Q22   1   0.0325  0.1954  1.1274  11.00000  0.05    0.27
Q23   1   0.6877  0.2396  1.4890  11.00000  0.05    0.26
Q24   1   0.6003  0.1038  1.3326  11.00000  0.05    0.26
Q25   1   0.5990 -0.0437  1.2955  11.00000  0.05    0.26
;
_shelx_res_checksum              99117
_shelx_hkl_file
;
   1   0   0 191.249 3.08342   1
   2   0   0 257.055 4.45019   1
   3   0   0 4.87139 1.24030   1
   4   0   0 24.0972 1.94598   1
  -5   3   2 482.869 15.1733  -2
   5   0   0 482.869 15.1733   1
   6   0   0 11.3454 3.58236   1
  -7   4   3 369.666 15.6119  -2
   7   0   0 369.666 15.6119   1
   8   0   0 33.7244 7.01958   1
  -8   1   0 11.1552 6.38979   1
  -7   3   3 247.090 11.5006  -2
  -7   1   0 247.090 11.5006   1
  -6   1   0 15.9037 4.65604   1
  -5   2   2 437.378 16.1650  -2
  -5   1   0 437.378 16.1650   1
  -4   1   0 199.271 6.26198   1
  -3   1   0 1323.85 15.2111   1
  -2   1   0 7435.18 71.6201   1
  -1   1   0 439.973 4.40435   1
   0   1   0 1102.74 19.0834  -2
   0   1   0 1102.74 19.0834   1
   1   1   0 1018.21 13.6263   1
   2   1   0 2437.19 23.9198   1
   3   1   0 0.38183 1.11510   1
   4   1   0 5.79048 2.09904   1
  -5   4   2 698.203 16.6450  -2
   5   1   0 698.203 16.6450   1
   6   1   0 223.465 12.5306   1
  -7   5   3 259.560 21.2846  -2
   7   1   0 259.560 21.2846   1
  -8   2   0 162.120 7.88796   1
  -7   2   3 118.613 7.49099  -2
  -7   2   0 118.613 7.49099   1
  -6   2   0 33.3227 3.71974   1
  -5   1   2 1524.07 23.1341  -2
  -5   2   0 1524.07 23.1341   1
  -4   2   0 2994.47 28.6297   1
  -3   2   0 1541.50 16.9925   1
  -2   2   0 1016.64 11.6394   1
  -1   2   0 2.49322 0.72407   1
   0   2   0 739.675 9.86623  -2
   0   2   0 739.675 9.86623   1
   1   2   0 1.13990 0.98384   1
   2   2   0 2356.91 30.4994   1
   3   2   0 46.6867 4.85283   1
   4   2   0 1026.95 19.7449   1
  -5   5   2 350.728 13.9235  -2
   5   2   0 350.728 13.9235   1
   6   2   0 35.8636 5.81965   1
  -7   6   3 182.023 17.8438  -2
   7   2   0 182.023 17.8438   1
  -8   3   0 402.674 35.7165   1
  -7   1   3 156.428 6.59132  -2
  -7   3   0 156.428 6.59132   1
  -6   3   0 734.953 13.6688   1
  -5   0   2 888.318 15.0475  -2
  -5   3   0 888.318 15.0475   1
  -4   3   0 215.800 6.63728   1
  -3   3   0 709.348 8.98734   1
  -2  -2   1 239.938 14.2317  -2
  -2   3   0 239.938 14.2317   1
  -1   3   0 723.005 9.77418   1
   0   3   0 171.141 5.50613  -2
   0   3   0 171.141 5.50613   1
   1   3   0 6.58845 1.77359   1
  -2   4   1 3236.86 40.3797  -2
   2   3   0 3236.86 40.3797   1
   3   3   0 101.401 6.06520   1
   4   3   0 823.259 25.9643   1
  -5   6   2 107.934 15.5725  -2
   5   3   0 107.934 15.5725   1
   6   3   0 137.172 10.9969   1
  -8   4   0 844.019 47.2028   1
  -7   0   3 253.859 8.52055  -2
  -7   4   0 253.859 8.52055   1
  -6   4   0 6.55515 2.43868   1
  -5  -1   2 52.5399 4.95821  -2
  -5   4   0 52.5399 4.95821   1
  -4   4   0 59.2405 2.92017   1
  -3   4   0 1180.79 13.3498   1
  -2  -3   1 798.331 14.0422  -2
  -2   4   0 798.331 14.0422   1
  -1   4   0 299.771 7.39674   1
   0   4   0 237.901 8.45309  -2
   0   4   0 237.901 8.45309   1
   1   4   0 147.992 6.59334   1
  -2   5   1 696.335 17.1028  -2
   2   4   0 696.335 17.1028   1
   3   4   0 120.729 9.44040   1
   4   4   0 1226.49 29.1184   1
  -5   7   2 205.210 17.4596  -2
   5   4   0 205.210 17.4596   1
   6   4   0 148.420 18.9093   1
  -8   5   0 30.0124 5.21318   1
  -7  -1   3 310.369 10.0908  -2
  -7   5   0 310.369 10.0908   1
  -6   5   0 772.177 15.3662   1
  -5  -2   2 108.899 6.13870  -2
  -5   5   0 108.899 6.13870   1
  -4   5   0 19.6877 1.97255   1
  -3   5   0 202.537 9.81217   1
  -2  -4   1 1039.87 16.4170  -2
  -2   5   0 1039.87 16.4170   1
  -1   5   0 875.483 14.8239   1
   0   5   0 53.4655 5.56616  -2
   0   5   0 53.4655 5.56616   1
   1   5   0 1267.08 21.7238   1
  -2   6   1 331.620 14.9701  -2
   2   5   0 331.620 14.9701   1
   3   5   0 212.714 12.7316   1
   4   5   0 287.116 18.3857   1
  -8   6   0 78.5240 8.35768   1
  -7  -2   3 139.901 8.53570  -2
  -7   6   0 139.901 8.53570   1
  -6   6   0 283.820 7.09140   1
  -5  -3   2 51.6013 9.51290  -2
  -5   6   0 51.6013 9.51290   1
  -4   6   0 438.726 17.6728   1
  -3   6   0 135.345 11.8801   1
  -2  -5   1 356.460 9.98171  -2
  -2   6   0 356.460 9.98171   1
  -1   6   0 1840.17 26.6283   1
   0   6   0 369.486 14.2090  -2
   0   6   0 369.486 14.2090   1
   1   6   0 547.265 15.5538   1
  -2   7   1 356.610 20.6008  -2
   2   6   0 356.610 20.6008   1
   3   6   0 103.521 10.7572   1
   4   6   0 78.4578 20.7875   1
  -7  -3   3 127.028 14.6211  -2
  -7   7   0 127.028 14.6211   1
  -6   7   0 273.636 20.8495   1
  -5  -4   2 139.629 14.7134  -2
  -5   7   0 139.629 14.7134   1
  -4   7   0 635.302 26.7250   1
  -3   7   0 200.887 13.4675   1
  -2  -6   1 240.024 12.5021  -2
  -2   7   0 240.024 12.5021   1
  -1   7   0 234.033 10.7105   1
   0   7   0 -0.8320 7.56010  -2
   0   7   0 -0.8320 7.56010   1
   1   7   0 256.984 15.1498   1
  -2   8   1 134.115 19.2466  -2
   2   7   0 134.115 19.2466   1
   3   7   0 111.970 18.4610   1
  -6   8   0 76.8577 12.9628   1
  -5  -5   2 463.243 38.1358  -2
  -5   8   0 463.243 38.1358   1
  -4  -6   2 590.339 43.2888  -2
  -4   8   0 590.339 43.2888   1
  -3   8   0 29.6567 7.51246   1
  -2  -7   1 176.676 11.9124  -2
  -2   8   0 176.676 11.9124   1
  -1   8   0 -0.9875 5.34956   1
   0   8   0 50.0409 11.6803  -2
   0   8   0 50.0409 11.6803   1
   1   8   0 295.359 24.0523   1
  -4  -7   2 8.05626 19.6041  -2
  -4   9   0 8.05626 19.6041   1
  -3   9   0 23.8604 14.8375   1
  -2  -8   1 411.808 42.4275  -2
  -2   9   0 411.808 42.4275   1
  -1   9   0 -5.3909 7.85554   1
   0  -9   1 55.7018 15.4450  -2
   0  -9   1 55.7018 15.4450   1
   1  -9   1 190.891 16.5133   1
  -2  -8   2 242.598 30.6991  -2
   2  -9   1 242.598 30.6991   1
   3  -9   1 164.219 24.1415   1
   4  -9   1 178.537 48.0917   1
  -5  -6   3 73.3923 20.2732  -2
   5  -9   1 73.3923 20.2732   1
  -2   9   0 208.968 20.4495  -2
  -2  -8   1 208.968 20.4495   1
  -1  -8   1 239.974 17.9277   1
   0  -8   1 35.3091 10.5098  -2
   0  -8   1 35.3091 10.5098   1
   1  -8   1 852.526 21.7201   1
  -2  -7   2 380.296 16.8762  -2
   2  -8   1 380.296 16.8762   1
   3  -8   1 56.7546 4.58008   1
   4  -8   1 88.3359 15.9187   1
  -5  -5   3 18.0143 9.39715  -2
   5  -8   1 18.0143 9.39715   1
   6  -8   1 371.429 22.6046   1
  -3  -7   1 16.1993 7.29594   1
  -2   8   0 168.851 27.2733  -2
  -2  -7   1 168.851 27.2733   1
  -1  -7   1 283.978 13.8712   1
   0  -7   1 5.66131 11.9411  -2
   0  -7   1 5.66131 11.9411   1
   1  -7   1 299.058 11.4341   1
  -2  -6   2 85.2760 9.13647  -2
   2  -7   1 85.2760 9.13647   1
   3  -7   1 525.250 11.4479   1
   4  -7   1 46.3809 3.79865   1
  -5  -4   3 376.422 20.8394  -2
   5  -7   1 376.422 20.8394   1
   6  -7   1 584.129 11.2565   1
  -7  -3   4 214.651 10.1625  -2
   7  -7   1 214.651 10.1625   1
  -4  -6   1 378.097 19.8901   1
  -3  -6   1 31.9914 5.98587   1
  -2   7   0 151.829 14.5845  -2
  -2  -6   1 151.829 14.5845   1
  -1  -6   1 18.4344 3.71803   1
   0  -6   1 493.620 14.4070  -2
   0  -6   1 493.620 14.4070   1
   1  -6   1 533.643 13.5124   1
  -2  -5   2 195.097 8.56666  -2
   2  -6   1 195.097 8.56666   1
   3  -6   1 2051.55 25.4124   1
   4  -6   1 -0.5874 2.14898   1
  -5  -3   3 553.388 12.9117  -2
   5  -6   1 553.388 12.9117   1
   6  -6   1 21.7212 3.90092   1
  -7  -2   4 109.692 9.92617  -2
   7  -6   1 109.692 9.92617   1
   8  -6   1 191.012 20.9143   1
  -5   8   1 492.902 42.1909  -2
  -5  -5   1 492.902 42.1909   1
  -4  -5   1 41.3969 7.60068   1
  -3  -5   1 54.4915 7.74157   1
  -2   6   0 578.575 18.9949  -2
  -2  -5   1 578.575 18.9949   1
  -1  -5   1 68.7089 5.82876   1
   0  -5   1 1034.96 21.1286  -2
   0  -5   1 1034.96 21.1286   1
   1  -5   1 1219.97 17.5928   1
  -2  -4   2 844.069 14.1744  -2
   2  -5   1 844.069 14.1744   1
   3  -5   1 1471.49 17.3958   1
   4  -5   1 451.990 9.96561   1
  -5  -2   3 1002.77 20.3518  -2
   5  -5   1 1002.77 20.3518   1
   6  -5   1 5.13889 2.44001   1
  -7  -1   4 103.581 7.08059  -2
   7  -5   1 103.581 7.08059   1
   8  -5   1 90.4567 18.8080   1
  -6  -4   1 199.124 19.3138   1
  -5   7   1 361.228 17.4085  -2
  -5  -4   1 361.228 17.4085   1
  -4  -4   1 235.241 14.3394   1
  -3  -4   1 346.369 11.4429   1
  -2   5   0 1506.99 25.0634  -2
  -2  -4   1 1506.99 25.0634   1
  -1  -4   1 737.477 14.3653   1
   0  -4   1 868.779 16.0743  -2
   0  -4   1 868.779 16.0743   1
   1  -4   1 238.269 6.55334   1
  -2  -3   2 357.422 9.61697  -2
   2  -4   1 357.422 9.61697   1
   3  -4   1 768.410 10.4993   1
   4  -4   1 134.287 6.59332   1
  -5  -1   3 1465.57 20.4949  -2
   5  -4   1 1465.57 20.4949   1
   6  -4   1 205.337 6.34380   1
  -7   0   4 188.019 25.7740  -2
   7  -4   1 188.019 25.7740   1
   8  -4   1 18.7931 14.3749   1
  -6  -3   1 10.4758 5.77546   1
  -5   6   1 1033.50 29.6512  -2
  -5  -3   1 1033.50 29.6512   1
  -4  -3   1 5.22978 2.72202   1
  -3  -3   1 1694.74 24.7127   1
  -2   4   0 1227.82 25.9978  -2
  -2  -3   1 1227.82 25.9978   1
  -1  -3   1 102.873 4.72794   1
   0  -3   1 5.54089 1.55809  -2
   0  -3   1 5.54089 1.55809   1
   1  -3   1 26.6829 2.43377   1
  -2  -2   2 1474.02 24.9001  -2
   2  -3   1 1474.02 24.9001   1
   3  -3   1 5.65827 1.51829   1
   4  -3   1 136.119 4.62929   1
  -5   0   3 1234.28 32.8299  -2
   5  -3   1 1234.28 32.8299   1
   6  -3   1 29.3297 7.66056   1
   8  -3   1 26.6638 14.6010   1
  -7   6   2 261.125 29.5622  -2
  -7  -2   1 261.125 29.5622   1
  -6  -2   1 85.7629 7.66832   1
  -5   5   1 953.842 43.6005  -2
  -5  -2   1 953.842 43.6005   1
  -4  -2   1 76.3048 5.02891   1
  -3  -2   1 1053.69 18.0301   1
  -2   3   0 126.749 8.73513  -2
  -2  -2   1 126.749 8.73513   1
  -1  -2   1 553.325 9.36278   1
   0  -2   1 9999.99 90.1435  -2
   0  -2   1 9999.99 90.1435   1
   1  -2   1 524.955 6.81810   1
   2  -2   1 82.6079 3.01689   1
   3  -2   1 12.5602 1.05558   1
   4  -2   1 870.328 25.5827   1
  -5   1   3 1028.60 15.8644  -2
   5  -2   1 1028.60 15.8644   1
   6  -2   1 8.86776 2.07516   1
  -7   2   4 777.519 20.6456  -2
   7  -2   1 777.519 20.6456   1
   8  -2   1 22.7437 15.9134   1
  -8  -1   1 134.145 18.5107   1
  -7   5   2 325.460 16.7574  -2
  -7  -1   1 325.460 16.7574   1
  -6  -1   1 292.585 12.2385   1
  -5   4   1 258.690 10.2918  -2
  -5  -1   1 258.690 10.2918   1
  -4  -1   1 65.5040 3.79287   1
  -3  -1   1 1187.46 15.2653   1
  -2  -1   1 253.623 6.57646   1
  -1  -1   1 238.921 4.92228   1
   0  -1   1 113.333 3.84736  -2
   0  -1   1 113.333 3.84736   1
   1  -1   1 14.2534 0.77975   1
   2  -1   1 1009.16 12.3733   1
   3  -1   1 459.482 7.66228   1
   4  -1   1 512.148 10.1668   1
  -5   2   3 560.889 13.9102  -2
   5  -1   1 560.889 13.9102   1
   6  -1   1 507.224 15.1736   1
  -7   3   4 270.334 11.6360  -2
   7  -1   1 270.334 11.6360   1
   8  -1   1 30.2085 5.25407   1
  -8   0   1 318.505 15.1676   1
  -7   4   2 386.068 16.2688  -2
  -7   0   1 386.068 16.2688   1
  -6   0   1 309.623 13.1522   1
  -5   3   1 205.481 7.45157  -2
  -5   0   1 205.481 7.45157   1
  -4   0   1 1081.50 13.5131   1
  -3   0   1 7.93124 1.38832   1
  -2   0   1 5059.71 32.3029   1
  -1   0   1 2831.90 20.4663   1
   0   0   1 0.65448 0.60387  -2
   0   0   1 0.65448 0.60387   1
   1   0   1 3499.09 22.5136   1
   2   0   1 2389.14 18.5946   1
   3   0   1 139.025 3.89967   1
   4   0   1 889.276 10.5141   1
  -5   3   3 224.759 14.3527  -2
   5   0   1 224.759 14.3527   1
   6   0   1 262.537 12.2213   1
  -7   4   4 149.968 11.6537  -2
   7   0   1 149.968 11.6537   1
  -8   1   1 236.448 16.2072   1
  -7   3   2 145.811 9.85840  -2
  -7   1   1 145.811 9.85840   1
  -6   1   1 784.528 18.6451   1
  -5   2   1 61.4352 5.96529  -2
  -5   1   1 61.4352 5.96529   1
  -4   1   1 19.1154 1.79786   1
  -3   1   1 527.182 7.43501   1
  -2   1   1 702.171 8.05541   1
  -1   1   1 6227.41 69.9640   1
   0   1   1 57.8099 2.98406  -2
   0   1   1 57.8099 2.98406   1
   1   1   1 2973.05 26.5422   1
   2   1   1 3032.03 28.6974   1
   3   1   1 44.5515 3.56800   1
   4   1   1 260.808 7.75873   1
  -5   4   3 88.8374 8.92335  -2
   5   1   1 88.8374 8.92335   1
   6   1   1 261.285 14.1365   1
  -7   5   4 182.713 22.9200  -2
   7   1   1 182.713 22.9200   1
  -8   2   1 323.691 16.2962   1
  -7   2   2 372.816 13.4512  -2
  -7   2   1 372.816 13.4512   1
  -6   2   1 19.0151 3.42498   1
  -5   1   1 66.2613 7.04629  -2
  -5   2   1 66.2613 7.04629   1
  -4   2   1 3081.60 22.4341   1
  -3   2   1 1362.34 13.3695   1
  -2   2   1 2303.44 17.1024   1
  -1   2   1 556.836 6.84721   1
   0   2   1 5.93842 1.80435  -2
   0   2   1 5.93842 1.80435   1
   1   2   1 368.354 9.12760   1
  -2   3   2 392.942 22.7329  -2
   2   2   1 392.942 22.7329   1
   3   2   1 165.378 7.34128   1
   4   2   1 515.260 15.4897   1
  -5   5   3 319.073 15.4040  -2
   5   2   1 319.073 15.4040   1
   6   2   1 224.843 12.0169   1
  -8   3   1 2.31455 3.45771   1
  -7   1   2 221.108 9.18563  -2
  -7   3   1 221.108 9.18563   1
  -6   3   1 1625.54 28.8113   1
  -5   0   1 156.577 6.85264  -2
  -5   3   1 156.577 6.85264   1
  -4   3   1 1377.48 15.8722   1
  -3   3   1 27.2539 1.45799   1
  -2   3   1 3216.56 35.3096   1
  -1   3   1 78.9112 3.55872   1
   0   3   1 87.8354 4.65940  -2
   0   3   1 87.8354 4.65940   1
   1   3   1 942.765 19.2696   1
  -2   4   2 66.0900 6.33004  -2
   2   3   1 66.0900 6.33004   1
   3   3   1 1089.44 19.5301   1
   4   3   1 292.841 15.2519   1
  -5   6   3 -15.526 12.4585  -2
   5   3   1 -15.526 12.4585   1
   6   3   1 92.6158 12.9930   1
  -8   4   1 302.931 11.9608   1
  -7   0   2 416.712 12.4096  -2
  -7   4   1 416.712 12.4096   1
  -6   4   1 497.685 12.5466   1
  -5  -1   1 239.873 5.69798  -2
  -5   4   1 239.873 5.69798   1
  -4   4   1 968.644 17.4566   1
  -3   4   1 85.0147 6.17613   1
   2   3   0 2444.50 38.1402  -2
  -2   4   1 2444.50 38.1402   1
  -1   4   1 183.226 6.39538   1
   0   4   1 1195.58 19.7130  -2
   0   4   1 1195.58 19.7130   1
   1   4   1 489.769 13.4923   1
  -2   5   2 94.4229 7.48704  -2
   2   4   1 94.4229 7.48704   1
   3   4   1 301.033 14.3585   1
   4   4   1 11.3991 4.42914   1
  -5   7   3 157.182 24.2999  -2
   5   4   1 157.182 24.2999   1
  -8   5   1 -2.6207 4.04534   1
  -7  -1   2 381.918 13.4501  -2
  -7   5   1 381.918 13.4501   1
  -6   5   1 185.532 6.87780   1
  -5  -2   1 541.110 19.2338  -2
  -5   5   1 541.110 19.2338   1
  -4   5   1 272.889 12.2048   1
  -3   5   1 3.30547 2.38873   1
   2   4   0 999.083 13.9892  -2
  -2   5   1 999.083 13.9892   1
  -1   5   1 71.4299 5.07982   1
   0   5   1 1295.86 29.9487  -2
   0   5   1 1295.86 29.9487   1
   1   5   1 1.42809 2.00838   1
  -2   6   2 88.1886 9.75953  -2
   2   5   1 88.1886 9.75953   1
   3   5   1 245.506 14.1563   1
   4   5   1 50.4273 7.90614   1
  -8   6   1 15.7169 7.22066   1
  -7  -2   2 384.673 30.1360  -2
  -7   6   1 384.673 30.1360   1
  -6   6   1 -4.4491 4.82044   1
  -5  -3   1 857.832 23.4382  -2
  -5   6   1 857.832 23.4382   1
  -4   6   1 368.120 19.2167   1
  -3   6   1 42.3801 7.34045   1
   2   5   0 479.288 10.4958  -2
  -2   6   1 479.288 10.4958   1
  -1   6   1 27.0724 3.83151   1
   0   6   1 1453.65 31.1363  -2
   0   6   1 1453.65 31.1363   1
   1   6   1 34.7535 5.76198   1
  -2   7   2 467.365 23.5287  -2
   2   6   1 467.365 23.5287   1
   3   6   1 130.731 19.4968   1
  -7  -3   2 217.864 17.3370  -2
  -7   7   1 217.864 17.3370   1
  -6   7   1 -0.7501 5.65115   1
  -5  -4   1 454.970 19.6620  -2
  -5   7   1 454.970 19.6620   1
  -4   7   1 83.9944 9.87910   1
  -3   7   1 19.9951 5.82821   1
   2   6   0 540.716 12.7661  -2
  -2   7   1 540.716 12.7661   1
  -1   7   1 4.60980 3.73030   1
   0   7   1 1139.37 33.7906  -2
   0   7   1 1139.37 33.7906   1
   1   7   1 78.0237 10.2024   1
  -2   8   2 194.278 31.7187  -2
   2   7   1 194.278 31.7187   1
  -6   8   1 13.3866 9.31439   1
  -4  -6   1 265.158 31.1959  -2
  -4   8   1 265.158 31.1959   1
  -3   8   1 391.296 23.7168   1
   2   7   0 230.270 9.49268  -2
  -2   8   1 230.270 9.49268   1
  -1   8   1 12.0099 5.96399   1
   0   8   1 141.308 15.3931  -2
   0   8   1 141.308 15.3931   1
   1   8   1 26.1944 20.9248   1
   0  -9   2 586.229 26.9824  -2
   0  -9   2 586.229 26.9824   1
   1  -9   2 106.386 13.3526   1
  -2  -8   3 63.3641 14.5665  -2
   2  -9   2 63.3641 14.5665   1
   3  -9   2 252.433 12.3803   1
   4  -9   2 66.7605 7.93460   1
  -5  -6   4 175.033 20.7554  -2
   5  -9   2 175.033 20.7554   1
   2  -9   1 263.712 24.3892  -2
  -2  -8   2 263.712 24.3892   1
  -1  -8   2 -4.1291 6.40852   1
   0  -8   2 1797.86 43.5634  -2
   0  -8   2 1797.86 43.5634   1
   1  -8   2 31.1349 5.88230   1
  -2  -7   3 184.911 13.2956  -2
   2  -8   2 184.911 13.2956   1
   3  -8   2 64.2013 6.71088   1
   4  -8   2 44.8437 4.32137   1
  -5  -5   4 240.496 11.9709  -2
   5  -8   2 240.496 11.9709   1
   6  -8   2 53.9118 10.3715   1
  -4  -7   2 23.5380 12.7357   1
  -3  -7   2 46.8484 9.90880   1
   2  -8   1 375.944 21.7301  -2
  -2  -7   2 375.944 21.7301   1
  -1  -7   2 3.08289 4.34606   1
   0  -7   2 1301.09 29.6542  -2
   0  -7   2 1301.09 29.6542   1
   1  -7   2 60.4896 6.47966   1
  -2  -6   3 477.837 16.3081  -2
   2  -7   2 477.837 16.3081   1
   3  -7   2 48.8419 5.19910   1
   4  -7   2 -0.3117 2.57686   1
  -5  -4   4 541.165 20.3030  -2
   5  -7   2 541.165 20.3030   1
   6  -7   2 31.8930 6.00007   1
  -7  -3   5 332.573 24.6279  -2
   7  -7   2 332.573 24.6279   1
  -5  -6   2 203.977 24.4098   1
  -4  -6   2 117.265 12.7681   1
  -3  -6   2 325.476 16.4334   1
   2  -7   1 73.1395 9.45568  -2
  -2  -6   2 73.1395 9.45568   1
  -1  -6   2 7.52622 2.94121   1
   0  -6   2 68.9538 5.55362  -2
   0  -6   2 68.9538 5.55362   1
   1  -6   2 9.91294 2.94669   1
  -2  -5   3 1354.30 25.8993  -2
   2  -6   2 1354.30 25.8993   1
   3  -6   2 114.734 6.80672   1
   4  -6   2 324.396 9.08597   1
  -5  -3   4 554.921 16.4338  -2
   5  -6   2 554.921 16.4338   1
   6  -6   2 75.0661 6.25607   1
  -7  -2   5 277.685 9.87736  -2
   7  -6   2 277.685 9.87736   1
  -5   8   0 734.072 34.7459  -2
  -5  -5   2 734.072 34.7459   1
  -4  -5   2 6.98034 4.58751   1
  -3  -5   2 458.648 18.8817   1
   2  -6   1 128.072 8.54815  -2
  -2  -5   2 128.072 8.54815   1
  -1  -5   2 195.750 8.08267   1
   0  -5   2 35.8318 3.61185  -2
   0  -5   2 35.8318 3.61185   1
   1  -5   2 325.708 8.88565   1
  -2  -4   3 2961.29 35.0935  -2
   2  -5   2 2961.29 35.0935   1
   3  -5   2 14.2820 2.43882   1
   4  -5   2 1604.24 23.1412   1
  -5  -2   4 366.386 12.7245  -2
   5  -5   2 366.386 12.7245   1
   6  -5   2 5.38610 2.28585   1
  -7  -1   5 207.316 25.8394  -2
   7  -5   2 207.316 25.8394   1
   8  -5   2 -0.6508 10.0074   1
  -6  -4   2 53.8665 11.4045   1
  -5   7   0 120.378 14.2139  -2
  -5  -4   2 120.378 14.2139   1
  -4  -4   2 255.524 12.9058   1
  -3  -4   2 894.303 18.2249   1
   2  -5   1 525.966 12.9825  -2
  -2  -4   2 525.966 12.9825   1
  -1  -4   2 1759.06 25.0246   1
   0  -4   2 1009.43 15.5691  -2
   0  -4   2 1009.43 15.5691   1
   1  -4   2 460.696 10.7410   1
  -2  -3   3 1132.04 14.4919  -2
   2  -4   2 1132.04 14.4919   1
   3  -4   2 61.2590 3.53878   1
   4  -4   2 1290.31 18.3801   1
  -5  -1   4 204.006 8.18472  -2
   5  -4   2 204.006 8.18472   1
   6  -4   2 58.6859 10.3079   1
  -7   0   5 242.464 27.8544  -2
   7  -4   2 242.464 27.8544   1
   8  -4   2 -10.628 13.3137   1
  -7   7   1 126.590 17.9611  -2
  -7  -3   2 126.590 17.9611   1
  -6  -3   2 89.8576 9.85254   1
  -5   6   0 46.2777 9.73280  -2
  -5  -3   2 46.2777 9.73280   1
  -4  -3   2 17.4878 3.69360   1
  -3  -3   2 2206.46 27.3207   1
   2  -4   1 611.464 12.7025  -2
  -2  -3   2 611.464 12.7025   1
  -1  -3   2 2678.18 26.5865   1
   0  -3   2 638.083 10.7324  -2
   0  -3   2 638.083 10.7324   1
   1  -3   2 1381.15 16.8978   1
  -2  -2   3 1423.77 18.7835  -2
   2  -3   2 1423.77 18.7835   1
   3  -3   2 246.357 6.60976   1
   4  -3   2 617.520 9.30101   1
  -5   0   4 39.4684 8.63327  -2
   5  -3   2 39.4684 8.63327   1
   6  -3   2 513.150 36.3071   1
  -7   1   5 135.341 23.3515  -2
   7  -3   2 135.341 23.3515   1
   8  -3   2 44.3264 17.4123   1
  -7   6   1 217.719 20.2662  -2
  -7  -2   2 217.719 20.2662   1
  -6  -2   2 727.250 19.9511   1
  -5   5   0 153.378 10.8572  -2
  -5  -2   2 153.378 10.8572   1
  -4  -2   2 1029.09 19.3250   1
  -3  -2   2 514.812 11.2342   1
   2  -3   1 891.993 23.7833  -2
  -2  -2   2 891.993 23.7833   1
  -1  -2   2 5372.87 38.4178   1
   0  -2   2 119.967 3.93274  -2
   0  -2   2 119.967 3.93274   1
   1  -2   2 1922.17 16.3376   1
  -2  -1   3 1189.74 22.8896  -2
   2  -2   2 1189.74 22.8896   1
   3  -2   2 511.108 9.05791   1
   4  -2   2 195.919 6.14552   1
  -5   1   4 -10.360 8.17270  -2
   5  -2   2 -10.360 8.17270   1
   6  -2   2 933.499 16.0851   1
  -7   2   5 153.190 25.9047  -2
   7  -2   2 153.190 25.9047   1
   8  -2   2 25.2691 20.1985   1
  -8  -1   2 95.8039 11.7683   1
  -7   5   1 333.549 21.9186  -2
  -7  -1   2 333.549 21.9186   1
  -6  -1   2 980.380 20.9537   1
  -5   4   0 32.9547 9.10182  -2
  -5  -1   2 32.9547 9.10182   1
  -4  -1   2 588.381 11.7263   1
  -3  -1   2 236.434 7.57967   1
   2  -2   1 389.398 19.4845  -2
  -2  -1   2 389.398 19.4845   1
  -1  -1   2 3367.53 25.3408   1
   0  -1   2 501.607 7.33929  -2
   0  -1   2 501.607 7.33929   1
   1  -1   2 3747.25 25.1343   1
   2  -1   2 59.2352 1.94641   1
   3  -1   2 452.163 8.92369   1
   4  -1   2 32.0353 3.58787   1
  -5   2   4 108.838 7.04661  -2
   5  -1   2 108.838 7.04661   1
   6  -1   2 407.193 13.1604   1
  -7   3   5 137.019 9.07975  -2
   7  -1   2 137.019 9.07975   1
  -8   0   2 69.9834 9.82722   1
  -7   4   1 280.467 14.6027  -2
  -7   0   2 280.467 14.6027   1
  -6   0   2 40.2480 5.02462   1
  -5   3   0 803.928 13.4598  -2
  -5   0   2 803.928 13.4598   1
  -4   0   2 1206.10 15.7284   1
  -3   0   2 2.81667 1.04907   1
  -2   0   2 118.429 4.25432   1
  -1   0   2 376.271 6.32041   1
   0   0   2 98.1974 3.25077  -2
   0   0   2 98.1974 3.25077   1
   1   0   2 2960.70 25.2201   1
  -2   1   3 216.775 11.8302  -2
   2   0   2 216.775 11.8302   1
   3   0   2 1004.66 12.9840   1
   4   0   2 22.7672 2.17601   1
  -5   3   4 838.231 33.3563  -2
   5   0   2 838.231 33.3563   1
   6   0   2 59.2306 7.87183   1
  -7   4   5 161.502 20.3096  -2
   7   0   2 161.502 20.3096   1
  -8   1   2 28.5638 9.28335   1
  -7   3   1 318.204 16.4355  -2
  -7   1   2 318.204 16.4355   1
  -6   1   2 63.1251 7.29635   1
  -5   2   0 974.859 17.6672  -2
  -5   1   2 974.859 17.6672   1
  -4   1   2 359.690 7.64478   1
  -3   1   2 5.82632 1.34263   1
  -2   1   2 2553.24 22.1326   1
  -1   1   2 212.416 4.75042   1
   0   1   2 7.83905 1.64277  -2
   0   1   2 7.83905 1.64277   1
   1   1   2 2831.74 27.5526   1
  -2   2   3 11.4863 3.22024  -2
   2   1   2 11.4863 3.22024   1
   3   1   2 2742.19 27.7350   1
   4   1   2 2.43896 1.80791   1
  -5   4   4 248.242 10.7266  -2
   5   1   2 248.242 10.7266   1
   6   1   2 8.03491 4.64124   1
  -7   5   5 141.405 14.4970  -2
   7   1   2 141.405 14.4970   1
  -8   2   2 12.2690 4.59399   1
  -7   2   1 376.837 14.7399  -2
  -7   2   2 376.837 14.7399   1
  -6   2   2 14.9537 3.81849   1
  -5   1   0 273.950 11.2062  -2
  -5   2   2 273.950 11.2062   1
  -4   2   2 296.873 7.57938   1
  -3   2   2 304.657 6.20567   1
  -2   2   2 2707.34 20.5133   1
  -1   2   2 167.791 5.86111   1
   0   2   2 1028.06 14.2214  -2
   0   2   2 1028.06 14.2214   1
   1   2   2 1280.62 17.4715   1
  -2   3   3 13.4038 3.96711  -2
   2   2   2 13.4038 3.96711   1
   3   2   2 580.326 14.6369   1
   4   2   2 5.47309 3.53833   1
  -5   5   4 857.685 22.1732  -2
   5   2   2 857.685 22.1732   1
   6   2   2 44.9962 16.8821   1
  -8   3   2 21.3265 4.93934   1
  -7   1   1 250.991 11.9556  -2
  -7   3   2 250.991 11.9556   1
  -6   3   2 21.3136 4.43085   1
   5   0   0 465.537 11.4469  -2
  -5   3   2 465.537 11.4469   1
  -4   3   2 71.2565 3.12988   1
  -3   3   2 1280.19 24.3882   1
   2   2   1 1145.65 40.9502  -2
  -2   3   2 1145.65 40.9502   1
  -1   3   2 425.752 8.55035   1
   0   3   2 1798.59 24.6750  -2
   0   3   2 1798.59 24.6750   1
   1   3   2 262.865 8.50582   1
  -2   4   3 66.4355 6.81690  -2
   2   3   2 66.4355 6.81690   1
   3   3   2 684.553 19.7765   1
   4   3   2 190.792 13.2181   1
  -5   6   4 357.351 17.4711  -2
   5   3   2 357.351 17.4711   1
   6   3   2 57.9701 14.8245   1
  -8   4   2 74.5697 8.61984   1
  -7   0   1 616.609 15.3549  -2
  -7   4   2 616.609 15.3549   1
  -6   4   2 51.6416 3.47712   1
   5   1   0 1039.18 23.0387  -2
  -5   4   2 1039.18 23.0387   1
  -4   4   2 70.9849 6.34592   1
  -3   4   2 419.250 13.1792   1
   2   3   1 144.146 9.44172  -2
  -2   4   2 144.146 9.44172   1
  -1   4   2 3.11351 1.49382   1
   0   4   2 2163.30 35.1189  -2
   0   4   2 2163.30 35.1189   1
   1   4   2 10.5567 2.85898   1
  -2   5   3 1078.39 26.2616  -2
   2   4   2 1078.39 26.2616   1
   3   4   2 39.9356 8.14710   1
   4   4   2 12.4691 5.44187   1
  -5   7   4 605.389 35.0355  -2
   5   4   2 605.389 35.0355   1
  -8   5   2 188.091 14.2959   1
  -7  -1   1 388.646 8.72646  -2
  -7   5   2 388.646 8.72646   1
  -6   5   2 92.4662 7.93764   1
   5   2   0 581.687 24.6766  -2
  -5   5   2 581.687 24.6766   1
  -4   5   2 0.75825 3.99571   1
  -3   5   2 5.74242 3.23704   1
   2   4   1 125.018 4.54101  -2
  -2   5   2 125.018 4.54101   1
  -1   5   2 650.979 13.5222   1
   0   5   2 1702.69 28.8639  -2
   0   5   2 1702.69 28.8639   1
   1   5   2 0.48526 3.17301   1
  -2   6   3 409.760 21.1241  -2
   2   5   2 409.760 21.1241   1
   3   5   2 1.11370 5.53379   1
   4   5   2 76.0712 20.5040   1
  -7  -2   1 160.550 25.7806  -2
  -7   6   2 160.550 25.7806   1
  -6   6   2 81.9609 10.8233   1
   5   3   0 148.796 15.1732  -2
  -5   6   2 148.796 15.1732   1
  -4   6   2 102.486 10.0893   1
  -3   6   2 635.584 23.3900   1
   2   5   1 125.896 5.61258  -2
  -2   6   2 125.896 5.61258   1
  -1   6   2 135.616 7.67409   1
   0   6   2 0.91304 5.91215  -2
   0   6   2 0.91304 5.91215   1
   1   6   2 82.7728 9.82265   1
  -2   7   3 570.161 23.8437  -2
   2   6   2 570.161 23.8437   1
   3   6   2 97.8401 23.8160   1
  -6   7   2 313.472 19.4544   1
   5   4   0 254.576 29.5813  -2
  -5   7   2 254.576 29.5813   1
   4   5   0 326.248 31.3385  -2
  -4   7   2 326.248 31.3385   1
  -3   7   2 261.859 16.5737   1
   2   6   1 345.870 9.64588  -2
  -2   7   2 345.870 9.64588   1
  -1   7   2 135.533 9.08749   1
   0   7   2 84.5954 10.8031  -2
   0   7   2 84.5954 10.8031   1
   1   7   2 59.9447 10.7060   1
   4   6   0 126.569 24.4819  -2
  -4   8   2 126.569 24.4819   1
   3   6   1 310.489 36.0689  -2
  -3   8   2 310.489 36.0689   1
   2   7   1 298.362 24.3110  -2
  -2   8   2 298.362 24.3110   1
  -1   8   2 147.526 13.5833   1
  -1  -9   3 89.5384 13.3887   1
   0  -9   3 1004.08 34.6798  -2
   0  -9   3 1004.08 34.6798   1
   1  -9   3 11.2694 6.31745   1
  -2  -8   4 480.528 26.7998  -2
   2  -9   3 480.528 26.7998   1
   3  -9   3 72.0026 7.12407   1
   4  -9   3 432.917 18.9560   1
  -5  -6   5 228.940 27.6260  -2
   5  -9   3 228.940 27.6260   1
  -3  -8   3 196.027 18.7420   1
   2  -9   2 68.6066 14.4123  -2
  -2  -8   3 68.6066 14.4123   1
  -1  -8   3 299.638 18.6919   1
   0  -8   3 399.261 20.6071  -2
   0  -8   3 399.261 20.6071   1
   1  -8   3 214.909 11.3543   1
  -2  -7   4 1386.17 31.7380  -2
   2  -8   3 1386.17 31.7380   1
   3  -8   3 3.24036 3.85576   1
   4  -8   3 47.3888 5.10134   1
  -5  -5   5 287.039 17.0409  -2
   5  -8   3 287.039 17.0409   1
   6  -8   3 201.652 14.5267   1
  -4  -7   3 223.118 25.2972   1
  -3  -7   3 232.730 16.1613   1
   2  -8   2 111.616 13.8002  -2
  -2  -7   3 111.616 13.8002   1
  -1  -7   3 814.976 21.9382   1
   0  -7   3 182.256 9.06771  -2
   0  -7   3 182.256 9.06771   1
   1  -7   3 197.356 9.75982   1
  -2  -6   4 1603.34 30.2512  -2
   2  -7   3 1603.34 30.2512   1
   3  -7   3 104.755 6.62851   1
   4  -7   3 705.528 15.0738   1
  -5  -4   5 149.926 12.6932  -2
   5  -7   3 149.926 12.6932   1
   6  -7   3 139.079 11.7884   1
  -7  -3   6 66.1621 10.9359  -2
   7  -7   3 66.1621 10.9359   1
  -4  -6   3 230.128 14.6692   1
  -3  -6   3 488.216 19.6353   1
   2  -7   2 461.837 16.6967  -2
  -2  -6   3 461.837 16.6967   1
  -1  -6   3 241.097 10.0932   1
   0  -6   3 245.209 10.1706  -2
   0  -6   3 245.209 10.1706   1
   1  -6   3 123.997 6.46367   1
  -2  -5   4 829.714 19.0320  -2
   2  -6   3 829.714 19.0320   1
   3  -6   3 25.7856 3.65339   1
   4  -6   3 662.546 13.4165   1
  -5  -3   5 155.520 11.8963  -2
   5  -6   3 155.520 11.8963   1
   6  -6   3 386.963 13.8583   1
  -6  -5   3 299.403 24.8405   1
   5  -8   1 35.6492 11.8318  -2
  -5  -5   3 35.6492 11.8318   1
  -4  -5   3 542.782 20.5830   1
  -3  -5   3 68.3834 8.18623   1
   2  -6   2 914.415 18.8612  -2
  -2  -5   3 914.415 18.8612   1
  -1  -5   3 15.5107 3.03760   1
   0  -5   3 151.247 6.72154  -2
   0  -5   3 151.247 6.72154   1
   1  -5   3 523.728 11.6216   1
  -2  -4   4 499.896 13.2993  -2
   2  -5   3 499.896 13.2993   1
   3  -5   3 627.034 12.5364   1
   4  -5   3 1113.62 19.5352   1
   6  -5   3 245.989 19.9675   1
  -7  -1   6 350.416 33.2880  -2
   7  -5   3 350.416 33.2880   1
  -6  -4   3 545.323 20.9908   1
   5  -7   1 306.193 16.3242  -2
  -5  -4   3 306.193 16.3242   1
  -4  -4   3 266.350 12.7656   1
  -3  -4   3 38.2922 4.76207   1
   2  -5   2 2283.44 28.4703  -2
  -2  -4   3 2283.44 28.4703   1
  -1  -4   3 278.955 9.27950   1
   0  -4   3 246.945 8.49575  -2
   0  -4   3 246.945 8.49575   1
   1  -4   3 1065.74 16.6551   1
  -2  -3   4 152.173 5.97885  -2
   2  -4   3 152.173 5.97885   1
   3  -4   3 1108.71 12.1719   1
   4  -4   3 141.055 6.37976   1
  -5  -1   5 45.6045 4.81212  -2
   5  -4   3 45.6045 4.81212   1
   6  -4   3 909.241 50.4714   1
  -7   0   6 218.580 30.8054  -2
   7  -4   3 218.580 30.8054   1
   8  -4   3 229.471 29.6803   1
  -7   7   0 196.215 21.7021  -2
  -7  -3   3 196.215 21.7021   1
  -6  -3   3 92.6342 11.3413   1
   5  -6   1 341.621 15.4455  -2
  -5  -3   3 341.621 15.4455   1
  -4  -3   3 633.060 15.1264   1
  -3  -3   3 30.1476 3.78756   1
   2  -4   2 841.334 15.1362  -2
  -2  -3   3 841.334 15.1362   1
  -1  -3   3 1178.19 16.9529   1
   0  -3   3 3890.77 36.0686  -2
   0  -3   3 3890.77 36.0686   1
   1  -3   3 547.455 11.5586   1
  -2  -2   4 677.849 11.3088  -2
   2  -3   3 677.849 11.3088   1
   3  -3   3 625.670 12.1864   1
   4  -3   3 130.981 5.01595   1
  -5   0   5 329.868 19.7786  -2
   5  -3   3 329.868 19.7786   1
   6  -3   3 335.493 32.6461   1
  -7   1   6 271.210 32.4165  -2
   7  -3   3 271.210 32.4165   1
  -7   6   0 186.796 14.7679  -2
  -7  -2   3 186.796 14.7679   1
  -6  -2   3 19.8816 4.32977   1
   5  -5   1 777.157 23.7305  -2
  -5  -2   3 777.157 23.7305   1
  -4  -2   3 447.267 12.9756   1
  -3  -2   3 19.0682 2.95953   1
   2  -3   2 2346.29 35.3834  -2
  -2  -2   3 2346.29 35.3834   1
  -1  -2   3 289.691 7.34511   1
   0  -2   3 3360.50 28.0578  -2
   0  -2   3 3360.50 28.0578   1
   1  -2   3 295.845 6.37941   1
  -2  -1   4 1609.25 24.9162  -2
   2  -2   3 1609.25 24.9162   1
   3  -2   3 273.504 7.79632   1
   4  -2   3 86.2345 5.02987   1
  -5   1   5 1023.86 18.8898  -2
   5  -2   3 1023.86 18.8898   1
   6  -2   3 39.9090 4.08574   1
  -7   2   6 21.3213 4.36937  -2
   7  -2   3 21.3213 4.36937   1
  -8  -1   3 20.6657 7.76595   1
  -7   5   0 462.759 20.2635  -2
  -7  -1   3 462.759 20.2635   1
  -6  -1   3 13.2242 4.05832   1
   5  -4   1 1879.06 30.4173  -2
  -5  -1   3 1879.06 30.4173   1
  -4  -1   3 1010.41 18.0618   1
  -3  -1   3 30.8218 3.26147   1
   2  -2   2 1729.75 33.6615  -2
  -2  -1   3 1729.75 33.6615   1
  -1  -1   3 259.089 6.42043   1
   0  -1   3 3386.29 27.5149  -2
   0  -1   3 3386.29 27.5149   1
   1  -1   3 287.219 6.96602   1
  -2   0   4 724.169 15.8536  -2
   2  -1   3 724.169 15.8536   1
   3  -1   3 881.617 10.6519   1
   4  -1   3 5.02459 2.46461   1
  -5   2   5 520.043 23.4805  -2
   5  -1   3 520.043 23.4805   1
   6  -1   3 16.5148 4.04748   1
  -8   0   3 8.58529 5.96623   1
  -7   4   0 427.801 18.3500  -2
  -7   0   3 427.801 18.3500   1
  -6   0   3 27.4360 4.39053   1
   5  -3   1 1513.59 23.1359  -2
  -5   0   3 1513.59 23.1359   1
  -4   0   3 40.9536 3.74426   1
  -3   0   3 700.160 14.4055   1
   2  -1   2 1594.26 40.8060  -2
  -2   0   3 1594.26 40.8060   1
  -1   0   3 248.811 6.08590   1
   0   0   3 254.662 6.25672  -2
   0   0   3 254.662 6.25672   1
   1   0   3 1415.47 18.0173   1
  -2   1   4 1081.85 33.1832  -2
   2   0   3 1081.85 33.1832   1
   3   0   3 66.2714 4.25552   1
   4   0   3 134.006 5.14742   1
  -5   3   5 962.502 25.2607  -2
   5   0   3 962.502 25.2607   1
   6   0   3 19.9385 5.22526   1
  -7   4   6 6.82028 15.0697  -2
   7   0   3 6.82028 15.0697   1
  -8   1   3 158.276 12.9317   1
  -7   3   0 242.370 21.7113  -2
  -7   1   3 242.370 21.7113   1
  -6   1   3 4.79850 2.19331   1
   5  -2   1 1042.11 20.7745  -2
  -5   1   3 1042.11 20.7745   1
  -4   1   3 36.9397 3.44674   1
  -3   1   3 2845.71 27.7026   1
  -2   1   3 25.6784 2.65027   1
  -1   1   3 994.645 13.1039   1
   0   1   3 1239.61 17.6264  -2
   0   1   3 1239.61 17.6264   1
   1   1   3 262.251 7.41751   1
  -2   2   4 821.471 17.7128  -2
   2   1   3 821.471 17.7128   1
   3   1   3 275.293 8.55389   1
   4   1   3 478.683 16.6740   1
  -5   4   5 162.592 13.0457  -2
   5   1   3 162.592 13.0457   1
   6   1   3 28.7707 6.37479   1
  -8   2   3 160.265 15.2850   1
  -7   2   0 193.865 14.6635  -2
  -7   2   3 193.865 14.6635   1
  -6   2   3 18.3217 3.78599   1
   5  -1   1 643.198 15.2883  -2
  -5   2   3 643.198 15.2883   1
  -4   2   3 245.834 6.76519   1
  -3   2   3 3150.86 26.4683   1
   2   1   2 -2.7733 2.93757  -2
  -2   2   3 -2.7733 2.93757   1
  -1   2   3 329.251 7.71509   1
   0   2   3 857.128 17.7799  -2
   0   2   3 857.128 17.7799   1
   1   2   3 9.69719 2.05555   1
  -2   3   4 791.643 19.3390  -2
   2   2   3 791.643 19.3390   1
   3   2   3 17.8579 4.91989   1
   4   2   3 154.438 9.92213   1
  -5   5   5 604.661 20.0918  -2
   5   2   3 604.661 20.0918   1
   6   2   3 157.705 15.5235   1
  -8   3   3 184.008 12.3321   1
  -7   1   0 214.792 14.5354  -2
  -7   3   3 214.792 14.5354   1
  -6   3   3 79.3300 5.14377   1
   5   0   1 371.245 12.9276  -2
  -5   3   3 371.245 12.9276   1
  -4   3   3 0.49401 1.00729   1
  -3   3   3 342.459 13.7371   1
   2   2   2 22.0565 3.61438  -2
  -2   3   3 22.0565 3.61438   1
  -1   3   3 3105.24 29.6996   1
   0   3   3 415.716 13.0878  -2
   0   3   3 415.716 13.0878   1
   1   3   3 0.83013 1.83760   1
  -2   4   4 290.777 13.3493  -2
   2   3   3 290.777 13.3493   1
   3   3   3 241.490 12.5956   1
   4   3   3 499.045 19.4323   1
  -8   4   3 119.094 9.92646   1
   7   0   0 211.404 21.3811  -2
  -7   4   3 211.404 21.3811   1
  -6   4   3 306.005 7.06117   1
   5   1   1 53.9242 15.0647  -2
  -5   4   3 53.9242 15.0647   1
  -4   4   3 143.360 10.0175   1
  -3   4   3 747.340 19.3321   1
   2   3   2 58.4301 3.80394  -2
  -2   4   3 58.4301 3.80394   1
  -1   4   3 911.827 15.7685   1
   0   4   3 219.838 9.24553  -2
   0   4   3 219.838 9.24553   1
   1   4   3 1494.11 25.1939   1
  -2   5   4 547.080 19.9896  -2
   2   4   3 547.080 19.9896   1
   3   4   3 2.61814 4.22858   1
   4   4   3 161.655 13.5227   1
  -8   5   3 125.780 15.5916   1
  -6   5   3 525.910 18.6637   1
   5   2   1 396.265 20.8228  -2
  -5   5   3 396.265 20.8228   1
  -4   5   3 250.794 14.7156   1
  -3   5   3 46.4574 8.14696   1
   2   4   2 658.685 11.8291  -2
  -2   5   3 658.685 11.8291   1
  -1   5   3 1295.40 21.0268   1
   0   5   3 36.0335 5.58877  -2
   0   5   3 36.0335 5.58877   1
   1   5   3 681.499 19.1124   1
  -2   6   4 344.492 17.4143  -2
   2   5   3 344.492 17.4143   1
   3   5   3 89.0651 11.1988   1
   7   2   0 118.908 17.1332  -2
  -7   6   3 118.908 17.1332   1
  -6   6   3 293.167 15.8013   1
   5   3   1 -20.399 16.1797  -2
  -5   6   3 -20.399 16.1797   1
  -4   6   3 141.748 12.0927   1
  -3   6   3 427.740 22.5656   1
   2   5   2 501.263 10.6969  -2
  -2   6   3 501.263 10.6969   1
  -1   6   3 101.804 8.17742   1
   0   6   3 2.56515 10.2734  -2
   0   6   3 2.56515 10.2734   1
   1   6   3 629.840 25.0726   1
  -2   7   4 95.5217 15.5083  -2
   2   6   3 95.5217 15.5083   1
  -6   7   3 45.9363 17.3856   1
   5   4   1 93.7355 22.5582  -2
  -5   7   3 93.7355 22.5582   1
  -4   7   3 785.369 29.6609   1
   3   5   2 44.1622 21.2658  -2
  -3   7   3 44.1622 21.2658   1
   2   6   2 532.357 30.7957  -2
  -2   7   3 532.357 30.7957   1
  -1   7   3 87.4292 9.13211   1
   0   7   3 49.6405 12.4339  -2
   0   7   3 49.6405 12.4339   1
   1   7   3 56.4568 10.5175   1
  -4   8   3 295.028 41.9573   1
   3   6   2 87.0302 28.7860  -2
  -3   8   3 87.0302 28.7860   1
  -2   8   3 228.395 29.0875   1
   2 -10   4 81.5066 25.0586   1
  -1  -9   4 472.847 24.7128   1
   0  -9   4 5.32294 13.1685  -2
   0  -9   4 5.32294 13.1685   1
   1  -9   4 369.116 18.9814   1
  -2  -8   5 308.349 19.5568  -2
   2  -9   4 308.349 19.5568   1
   3  -9   4 146.934 9.60889   1
   4  -9   4 191.911 15.9128   1
  -5  -6   6 42.8075 16.6331  -2
   5  -9   4 42.8075 16.6331   1
  -3  -8   4 41.8236 11.6254   1
   2  -9   3 341.508 22.2591  -2
  -2  -8   4 341.508 22.2591   1
  -1  -8   4 134.016 12.6068   1
   0  -8   4 163.267 14.5555  -2
   0  -8   4 163.267 14.5555   1
   1  -8   4 859.422 21.9296   1
  -2  -7   5 341.032 13.9822  -2
   2  -8   4 341.032 13.9822   1
   3  -8   4 343.604 16.1477   1
   4  -8   4 13.0790 3.88534   1
  -5  -5   6 87.9013 17.3221  -2
   5  -8   4 87.9013 17.3221   1
   6  -8   4 213.421 20.5057   1
  -4  -7   4 408.867 24.0058   1
  -3  -7   4 2.41105 6.30791   1
   2  -8   3 986.732 32.9715  -2
  -2  -7   4 986.732 32.9715   1
  -1  -7   4 72.1067 8.65487   1
   0  -7   4 522.304 16.5478  -2
   0  -7   4 522.304 16.5478   1
   1  -7   4 760.447 19.0749   1
  -2  -6   5 48.1212 8.88587  -2
   2  -7   4 48.1212 8.88587   1
   3  -7   4 978.749 19.8405   1
   4  -7   4 89.0290 6.31933   1
  -5  -4   6 47.1324 8.04456  -2
   5  -7   4 47.1324 8.04456   1
   6  -7   4 24.2149 5.01796   1
  -7  -3   7 120.167 9.80721  -2
   7  -7   4 120.167 9.80721   1
   5  -9   2 111.376 31.6703  -2
  -5  -6   4 111.376 31.6703   1
  -4  -6   4 236.052 14.7775   1
  -3  -6   4 91.8850 10.4241   1
   2  -7   3 2346.24 59.5574  -2
  -2  -6   4 2346.24 59.5574   1
  -1  -6   4 6.54534 3.12164   1
   0  -6   4 182.549 9.14303  -2
   0  -6   4 182.549 9.14303   1
   1  -6   4 452.148 12.1971   1
  -2  -5   5 -0.2259 5.66631  -2
   2  -6   4 -0.2259 5.66631   1
   3  -6   4 744.055 16.1429   1
   4  -6   4 9.28000 3.33950   1
  -5  -3   6 480.967 19.8989  -2
   5  -6   4 480.967 19.8989   1
   6  -6   4 201.414 11.7026   1
  -7  -2   7 28.1832 23.0942  -2
   7  -6   4 28.1832 23.0942   1
  -6  -5   4 34.1468 12.6499   1
   5  -8   2 232.937 19.5639  -2
  -5  -5   4 232.937 19.5639   1
  -4  -5   4 726.357 24.0186   1
  -3  -5   4 69.2379 8.13889   1
   2  -6   3 744.492 17.2085  -2
  -2  -5   4 744.492 17.2085   1
  -1  -5   4 55.2007 5.43933   1
   0  -5   4 2293.92 28.2451  -2
   0  -5   4 2293.92 28.2451   1
   1  -5   4 41.1782 4.15939   1
  -2  -4   5 77.0785 5.56760  -2
   2  -5   4 77.0785 5.56760   1
   3  -5   4 793.596 12.6805   1
   4  -5   4 323.514 10.7584   1
  -5  -2   6 618.687 20.0473  -2
   5  -5   4 618.687 20.0473   1
   6  -5   4 7.48803 7.68745   1
  -7  -1   7 152.754 28.5670  -2
   7  -5   4 152.754 28.5670   1
  -6  -4   4 153.722 11.9758   1
   5  -7   2 499.837 20.0691  -2
  -5  -4   4 499.837 20.0691   1
  -4  -4   4 9.22235 3.93532   1
  -3  -4   4 70.9136 6.48151   1
   2  -5   3 801.255 20.3541  -2
  -2  -4   4 801.255 20.3541   1
  -1  -4   4 1.66807 1.71117   1
   0  -4   4 2624.58 31.0324  -2
   0  -4   4 2624.58 31.0324   1
   1  -4   4 51.2987 4.16139   1
  -2  -3   5 2442.74 27.6148  -2
   2  -4   4 2442.74 27.6148   1
   3  -4   4 50.8251 2.69678   1
   4  -4   4 64.1198 5.23174   1
  -5  -1   6 534.651 13.6949  -2
   5  -4   4 534.651 13.6949   1
   6  -4   4 3.83102 9.18146   1
  -7   0   7 222.348 31.5526  -2
   7  -4   4 222.348 31.5526   1
   7  -7   1 273.866 37.3943  -2
  -7  -3   4 273.866 37.3943   1
  -6  -3   4 32.6870 7.60940   1
   5  -6   2 770.117 25.8700  -2
  -5  -3   4 770.117 25.8700   1
  -4  -3   4 152.077 7.84552   1
  -3  -3   4 7.27679 2.54099   1
   2  -4   3 247.953 9.51860  -2
  -2  -3   4 247.953 9.51860   1
  -1  -3   4 121.315 5.59843   1
   0  -3   4 7725.20 60.6795  -2
   0  -3   4 7725.20 60.6795   1
   1  -3   4 81.4100 4.45473   1
  -2  -2   5 1012.73 13.9062  -2
   2  -3   4 1012.73 13.9062   1
   3  -3   4 47.7518 4.36511   1
   4  -3   4 31.5547 3.84977   1
  -5   0   6 1191.27 21.2739  -2
   5  -3   4 1191.27 21.2739   1
   6  -3   4 52.8348 4.14520   1
  -7   1   7 635.127 51.5211  -2
   7  -3   4 635.127 51.5211   1
   7  -6   1 62.9234 11.8067  -2
  -7  -2   4 62.9234 11.8067   1
  -6  -2   4 112.266 9.65938   1
   5  -5   2 526.883 20.4016  -2
  -5  -2   4 526.883 20.4016   1
  -4  -2   4 6.49108 2.46545   1
  -3  -2   4 285.990 8.94745   1
   2  -3   3 1160.39 21.5068  -2
  -2  -2   4 1160.39 21.5068   1
  -1  -2   4 13.4402 2.21545   1
   0  -2   4 39.0851 3.31567  -2
   0  -2   4 39.0851 3.31567   1
   1  -2   4 211.742 7.23919   1
  -2  -1   5 2375.35 23.0745  -2
   2  -2   4 2375.35 23.0745   1
   3  -2   4 56.4507 2.58086   1
   4  -2   4 972.108 18.6218   1
  -5   1   6 661.716 22.8156  -2
   5  -2   4 661.716 22.8156   1
   6  -2   4 88.5309 6.70427   1
  -7   2   7 93.8310 11.0167  -2
   7  -2   4 93.8310 11.0167   1
  -8  -1   4 306.941 24.8427   1
   7  -5   1 105.346 11.7520  -2
  -7  -1   4 105.346 11.7520   1
  -6  -1   4 96.5281 9.69487   1
   5  -4   2 401.830 14.8711  -2
  -5  -1   4 401.830 14.8711   1
  -4  -1   4 335.857 9.73374   1
  -3  -1   4 1230.32 18.0974   1
   2  -2   3 957.085 20.7982  -2
  -2  -1   4 957.085 20.7982   1
  -1  -1   4 266.156 7.47808   1
   0  -1   4 872.323 14.5974  -2
   0  -1   4 872.323 14.5974   1
   1  -1   4 220.233 7.98828   1
  -2   0   5 2874.09 27.3352  -2
   2  -1   4 2874.09 27.3352   1
   3  -1   4 40.7298 3.42125   1
   4  -1   4 1585.59 38.3061   1
  -5   2   6 207.811 15.5665  -2
   5  -1   4 207.811 15.5665   1
   6  -1   4 76.5235 8.71606   1
  -7   3   7 306.665 19.0340  -2
   7  -1   4 306.665 19.0340   1
  -8   0   4 202.487 15.6987   1
   7  -4   1 153.424 11.8577  -2
  -7   0   4 153.424 11.8577   1
  -6   0   4 617.565 15.8870   1
   5  -3   2 46.1601 5.81810  -2
  -5   0   4 46.1601 5.81810   1
  -4   0   4 6.51845 2.09963   1
  -3   0   4 2364.30 25.3747   1
   2  -1   3 576.631 19.9503  -2
  -2   0   4 576.631 19.9503   1
  -1   0   4 294.218 7.66909   1
   0   0   4 1191.84 17.8319  -2
   0   0   4 1191.84 17.8319   1
   1   0   4 281.071 7.83807   1
  -2   1   5 2058.63 25.6323  -2
   2   0   4 2058.63 25.6323   1
   3   0   4 5.53895 2.18542   1
   4   0   4 776.737 19.9890   1
  -5   3   6 60.8581 9.27480  -2
   5   0   4 60.8581 9.27480   1
   6   0   4 182.122 12.1302   1
  -8   1   4 403.287 18.7216   1
   7  -3   1 395.241 18.0386  -2
  -7   1   4 395.241 18.0386   1
  -6   1   4 311.645 10.8905   1
   5  -2   2 8.41576 4.26721  -2
  -5   1   4 8.41576 4.26721   1
  -4   1   4 622.885 13.3283   1
  -3   1   4 304.417 8.09587   1
   2   0   3 921.757 18.4678  -2
  -2   1   4 921.757 18.4678   1
  -1   1   4 2441.44 25.0490   1
   0   1   4 484.954 11.8962  -2
   0   1   4 484.954 11.8962   1
   1   1   4 5.23639 1.68266   1
  -2   2   5 985.494 31.0146  -2
   2   1   4 985.494 31.0146   1
   3   1   4 503.816 15.6008   1
   4   1   4 335.128 13.1384   1
  -5   4   6 112.037 12.4522  -2
   5   1   4 112.037 12.4522   1
   6   1   4 188.509 14.6405   1
  -8   2   4 87.0809 9.93786   1
   7  -2   1 490.335 16.8564  -2
  -7   2   4 490.335 16.8564   1
  -6   2   4 645.369 14.8755   1
   5  -1   2 99.2714 7.37989  -2
  -5   2   4 99.2714 7.37989   1
  -4   2   4 1049.76 15.6471   1
  -3   2   4 147.333 5.43361   1
   2   1   3 779.522 13.7386  -2
  -2   2   4 779.522 13.7386   1
  -1   2   4 1074.29 16.8062   1
   0   2   4 -0.8964 2.59974  -2
   0   2   4 -0.8964 2.59974   1
   1   2   4 1176.36 21.2908   1
  -2   3   5 622.239 18.5478  -2
   2   2   4 622.239 18.5478   1
   3   2   4 4.04172 3.49490   1
   4   2   4 46.1524 7.16442   1
  -5   5   6 5.56944 25.7881  -2
   5   2   4 5.56944 25.7881   1
  -8   3   4 35.4651 7.22553   1
   7  -1   1 177.398 10.7302  -2
  -7   3   4 177.398 10.7302   1
  -6   3   4 487.746 13.8011   1
   5   0   2 608.136 15.8487  -2
  -5   3   4 608.136 15.8487   1
  -4   3   4 710.520 10.9479   1
  -3   3   4 128.806 4.68701   1
   2   2   3 586.444 12.2711  -2
  -2   3   4 586.444 12.2711   1
  -1   3   4 1167.56 19.9107   1
   0   3   4 1.88961 3.01697  -2
   0   3   4 1.88961 3.01697   1
   1   3   4 155.650 7.92221   1
  -2   4   5 100.323 14.4159  -2
   2   3   4 100.323 14.4159   1
   3   3   4 142.868 10.7459   1
   4   3   4 114.799 11.0678   1
   5   3   4 51.3076 13.1152   1
  -8   4   4 -1.2297 6.14641   1
   7   0   1 338.790 9.20027  -2
  -7   4   4 338.790 9.20027   1
  -6   4   4 138.572 10.5192   1
   5   1   2 212.280 23.4324  -2
  -5   4   4 212.280 23.4324   1
  -4   4   4 284.110 14.7826   1
  -3   4   4 81.8250 9.16953   1
   2   3   3 440.303 11.5115  -2
  -2   4   4 440.303 11.5115   1
  -1   4   4 159.499 7.26781   1
   0   4   4 96.1042 7.99634  -2
   0   4   4 96.1042 7.99634   1
   1   4   4 743.498 19.5564   1
  -2   5   5 71.4859 11.7449  -2
   2   4   4 71.4859 11.7449   1
   3   4   4 283.162 16.1489   1
   4   4   4 6.86554 9.32152   1
   7   1   1 94.4524 29.8986  -2
  -7   5   4 94.4524 29.8986   1
  -6   5   4 4.45060 4.61089   1
   5   2   2 799.560 33.8798  -2
  -5   5   4 799.560 33.8798   1
  -4   5   4 232.087 15.2067   1
  -3   5   4 52.0762 9.08751   1
   2   4   3 521.311 12.9696  -2
  -2   5   4 521.311 12.9696   1
  -1   5   4 2.00137 3.06437   1
   0   5   4 806.528 27.4924  -2
   0   5   4 806.528 27.4924   1
   1   5   4 280.570 15.9535   1
  -2   6   5 17.4688 12.4771  -2
   2   5   4 17.4688 12.4771   1
   3   5   4 704.020 77.5579   1
  -6   6   4 36.6751 21.2409   1
   5   3   2 238.804 17.9186  -2
  -5   6   4 238.804 17.9186   1
  -4   6   4 50.6739 10.0159   1
   3   4   3 431.474 35.4930  -2
  -3   6   4 431.474 35.4930   1
   2   5   3 495.314 12.8696  -2
  -2   6   4 495.314 12.8696   1
  -1   6   4 3.85827 5.31324   1
   0   6   4 447.748 22.1728  -2
   0   6   4 447.748 22.1728   1
   1   6   4 106.732 13.0696   1
  -4   7   4 34.6974 14.7047   1
   3   5   3 402.058 41.1082  -2
  -3   7   4 402.058 41.1082   1
   2   6   3 203.223 22.7044  -2
  -2   7   4 203.223 22.7044   1
  -1   7   4 241.807 18.6296   1
   2 -10   5 49.1936 12.5729   1
  -1  -9   5 20.5627 8.54219   1
   0  -9   5 349.666 21.3556  -2
   0  -9   5 349.666 21.3556   1
   1  -9   5 152.979 12.7582   1
  -2  -8   6 115.433 17.0914  -2
   2  -9   5 115.433 17.0914   1
   3  -9   5 544.378 22.1304   1
   4  -9   5 8.31110 6.05774   1
  -3  -8   5 50.0297 11.1388   1
   2  -9   4 521.671 27.1342  -2
  -2  -8   5 521.671 27.1342   1
  -1  -8   5 35.1639 7.71918   1
   0  -8   5 222.644 16.1266  -2
   0  -8   5 222.644 16.1266   1
   1  -8   5 262.143 13.8800   1
  -2  -7   6 166.156 12.1906  -2
   2  -8   5 166.156 12.1906   1
   3  -8   5 154.259 10.4157   1
   4  -8   5 34.6644 6.04953   1
  -5  -5   7 695.217 40.2700  -2
   5  -8   5 695.217 40.2700   1
   6  -8   5 0.72391 5.15867   1
  -4  -7   5 23.1732 10.4196   1
  -3  -7   5 287.389 17.2710   1
   2  -8   4 245.783 16.0053  -2
  -2  -7   5 245.783 16.0053   1
  -1  -7   5 100.578 9.70191   1
   0  -7   5 671.478 21.5489  -2
   0  -7   5 671.478 21.5489   1
   1  -7   5 34.5624 5.42205   1
  -2  -6   6 83.6100 8.94667  -2
   2  -7   5 83.6100 8.94667   1
   3  -7   5 434.560 13.3950   1
   4  -7   5 527.462 13.3810   1
  -5  -4   7 695.552 24.5013  -2
   5  -7   5 695.552 24.5013   1
   6  -7   5 9.04457 5.87458   1
   5  -9   3 296.779 27.1956  -2
  -5  -6   5 296.779 27.1956   1
  -4  -6   5 151.793 13.2301   1
  -3  -6   5 946.446 27.7331   1
   2  -7   4 75.6654 10.6876  -2
  -2  -6   5 75.6654 10.6876   1
  -1  -6   5 176.378 9.53669   1
   0  -6   5 519.090 14.1388  -2
   0  -6   5 519.090 14.1388   1
   1  -6   5 6.32925 2.74103   1
  -2  -5   6 1254.69 29.3678  -2
   2  -6   5 1254.69 29.3678   1
   3  -6   5 105.443 7.29233   1
   4  -6   5 92.0797 8.11724   1
  -5  -3   7 218.596 13.0232  -2
   5  -6   5 218.596 13.0232   1
   6  -6   5 22.2446 5.91457   1
  -7  -2   8 333.244 39.4172  -2
   7  -6   5 333.244 39.4172   1
  -6  -5   5 8.58302 9.50037   1
   5  -8   3 419.797 23.5409  -2
  -5  -5   5 419.797 23.5409   1
  -4  -5   5 8.92172 5.02585   1
  -3  -5   5 433.874 15.4420   1
   2  -6   4 -2.6598 5.52331  -2
  -2  -5   5 -2.6598 5.52331   1
  -1  -5   5 1545.36 24.4823   1
   0  -5   5 2060.35 27.3814  -2
   0  -5   5 2060.35 27.3814   1
   1  -5   5 13.5801 3.05202   1
  -2  -4   6 428.311 13.4475  -2
   2  -5   5 428.311 13.4475   1
   3  -5   5 3.84038 2.22664   1
   4  -5   5 263.697 12.6634   1
  -5  -2   7 795.288 21.0792  -2
   5  -5   5 795.288 21.0792   1
   6  -5   5 133.273 6.05314   1
  -7  -1   8 89.4946 28.8311  -2
   7  -5   5 89.4946 28.8311   1
  -6  -4   5 335.108 17.3910   1
   5  -7   3 236.683 18.0515  -2
  -5  -4   5 236.683 18.0515   1
  -4  -4   5 18.5814 5.13322   1
  -3  -4   5 576.269 18.7292   1
   2  -5   4 134.727 9.17681  -2
  -2  -4   5 134.727 9.17681   1
  -1  -4   5 1162.35 19.7777   1
   0  -4   5 177.837 7.16845  -2
   0  -4   5 177.837 7.16845   1
   1  -4   5 923.037 15.8868   1
  -2  -3   6 1201.25 19.7864  -2
   2  -4   5 1201.25 19.7864   1
   3  -4   5 64.5322 3.37007   1
   4  -4   5 464.303 14.8609   1
  -5  -1   7 177.231 9.94193  -2
   5  -4   5 177.231 9.94193   1
   6  -4   5 61.4191 7.41047   1
  -6  -3   5 398.526 17.5084   1
   5  -6   3 252.957 16.8768  -2
  -5  -3   5 252.957 16.8768   1
  -4  -3   5 422.558 14.1695   1
  -3  -3   5 212.799 8.68820   1
   2  -4   4 1655.24 23.3836  -2
  -2  -3   5 1655.24 23.3836   1
  -1  -3   5 1546.01 21.7227   1
   0  -3   5 76.1942 4.65547  -2
   0  -3   5 76.1942 4.65547   1
   1  -3   5 3170.00 33.8135   1
  -2  -2   6 910.039 14.6920  -2
   2  -3   5 910.039 14.6920   1
   3  -3   5 30.3313 3.15344   1
   4  -3   5 171.522 10.5880   1
  -5   0   7 433.165 15.6661  -2
   5  -3   5 433.165 15.6661   1
   6  -3   5 158.164 8.81035   1
  -7   1   8 404.422 45.0585  -2
   7  -3   5 404.422 45.0585   1
   7  -6   2 268.662 16.0234  -2
  -7  -2   5 268.662 16.0234   1
  -6  -2   5 746.717 25.7629   1
   5  -5   3 6.70923 7.48557  -2
  -5  -2   5 6.70923 7.48557   1
  -4  -2   5 152.580 7.57084   1
  -3  -2   5 970.962 17.7447   1
   2  -3   4 914.435 17.8053  -2
  -2  -2   5 914.435 17.8053   1
  -1  -2   5 806.076 14.6930   1
   0  -2   5 3.98149 2.37508  -2
   0  -2   5 3.98149 2.37508   1
   1  -2   5 621.052 13.3158   1
  -2  -1   6 691.266 12.8209  -2
   2  -2   5 691.266 12.8209   1
   3  -2   5 46.6080 3.60689   1
   4  -2   5 334.489 13.8846   1
  -5   1   7 37.3340 9.99810  -2
   5  -2   5 37.3340 9.99810   1
   6  -2   5 324.225 13.7231   1
   7  -2   5 155.690 10.7799   1
  -8  -1   5 144.685 21.2798   1
   7  -5   2 94.2493 12.1733  -2
  -7  -1   5 94.2493 12.1733   1
  -6  -1   5 188.191 13.0941   1
   5  -4   3 52.1144 9.09367  -2
  -5  -1   5 52.1144 9.09367   1
  -4  -1   5 1721.58 24.8205   1
  -3  -1   5 316.894 9.45925   1
   2  -2   4 1751.48 24.6615  -2
  -2  -1   5 1751.48 24.6615   1
  -1  -1   5 27.6163 3.68396   1
   0  -1   5 151.141 6.65275  -2
   0  -1   5 151.141 6.65275   1
   1  -1   5 101.876 5.05383   1
  -2   0   6 27.6393 5.02009  -2
   2  -1   5 27.6393 5.02009   1
   3  -1   5 1873.96 23.6421   1
   4  -1   5 201.054 9.35715   1
  -5   2   7 156.038 16.0286  -2
   5  -1   5 156.038 16.0286   1
   6  -1   5 353.844 25.8306   1
  -8   0   5 11.7536 8.63114   1
   7  -4   2 288.703 13.5238  -2
  -7   0   5 288.703 13.5238   1
  -6   0   5 519.896 15.3116   1
   5  -3   3 271.281 13.8206  -2
  -5   0   5 271.281 13.8206   1
  -4   0   5 1097.84 18.9569   1
  -3   0   5 149.104 6.43232   1
   2  -1   4 2023.05 26.0351  -2
  -2   0   5 2023.05 26.0351   1
  -1   0   5 78.3535 5.88850   1
   0   0   5 491.496 11.3106  -2
   0   0   5 491.496 11.3106   1
   1   0   5 1071.20 18.3151   1
  -2   1   6 52.7365 5.91248  -2
   2   0   5 52.7365 5.91248   1
   3   0   5 1264.03 22.8114   1
   4   0   5 52.7692 5.97694   1
  -5   3   7 153.787 17.8811  -2
   5   0   5 153.787 17.8811   1
   6   0   5 131.756 12.7452   1
  -8   1   5 73.1173 11.2950   1
   7  -3   2 244.850 12.0796  -2
  -7   1   5 244.850 12.0796   1
  -6   1   5 73.5157 7.37886   1
   5  -2   3 649.979 17.4873  -2
  -5   1   5 649.979 17.4873   1
  -4   1   5 424.609 12.4402   1
  -3   1   5 238.272 7.91299   1
   2   0   4 2413.70 30.3436  -2
  -2   1   5 2413.70 30.3436   1
  -1   1   5 1107.52 18.4896   1
   0   1   5 1198.25 21.1879  -2
   0   1   5 1198.25 21.1879   1
   1   1   5 170.522 7.43288   1
  -2   2   6 144.412 9.88885  -2
   2   1   5 144.412 9.88885   1
   3   1   5 263.879 14.1596   1
   4   1   5 4.69452 4.40939   1
  -5   4   7 238.756 33.7053  -2
   5   1   5 238.756 33.7053   1
  -8   2   5 4.58160 6.39249   1
   7  -2   2 225.943 14.4120  -2
  -7   2   5 225.943 14.4120   1
  -6   2   5 19.8760 3.77275   1
   5  -1   3 449.702 15.0191  -2
  -5   2   5 449.702 15.0191   1
  -4   2   5 394.266 10.3358   1
  -3   2   5 54.3697 4.24583   1
   2   1   4 1567.61 26.9471  -2
  -2   2   5 1567.61 26.9471   1
  -1   2   5 2.02479 2.11843   1
   0   2   5 2195.63 28.3128  -2
   0   2   5 2195.63 28.3128   1
   1   2   5 98.2175 7.92074   1
  -2   3   6 213.450 14.5544  -2
   2   2   5 213.450 14.5544   1
   3   2   5 44.4993 6.70471   1
   4   2   5 4.80854 4.57471   1
  -8   3   5 10.2134 7.05125   1
   7  -1   2 223.188 12.8902  -2
  -7   3   5 223.188 12.8902   1
  -6   3   5 59.5992 5.92909   1
   5   0   3 1264.23 20.2827  -2
  -5   3   5 1264.23 20.2827   1
  -4   3   5 176.334 6.03147   1
  -3   3   5 2.91917 1.99521   1
   2   2   4 1031.06 29.6471  -2
  -2   3   5 1031.06 29.6471   1
  -1   3   5 42.5861 5.18855   1
   0   3   5 1817.51 29.4592  -2
   0   3   5 1817.51 29.4592   1
   1   3   5 1.74176 3.88746   1
  -2   4   6 106.820 12.8741  -2
   2   3   5 106.820 12.8741   1
   3   3   5 7.83226 5.79421   1
   4   3   5 -13.103 7.23959   1
   7   0   2 294.614 33.2945  -2
  -7   4   5 294.614 33.2945   1
  -6   4   5 29.9635 7.27870   1
   5   1   3 276.190 22.1578  -2
  -5   4   5 276.190 22.1578   1
  -4   4   5 129.660 13.0180   1
  -3   4   5 468.893 9.11129   1
   2   3   4 190.232 10.7872  -2
  -2   4   5 190.232 10.7872   1
  -1   4   5 87.7144 7.26397   1
   0   4   5 479.332 20.9869  -2
   0   4   5 479.332 20.9869   1
   1   4   5 7.84170 6.16627   1
  -2   5   6 230.913 16.4507  -2
   2   4   5 230.913 16.4507   1
   3   4   5 8.77540 13.3221   1
   7   1   2 55.5069 19.8923  -2
  -7   5   5 55.5069 19.8923   1
  -6   5   5 40.5501 9.00250   1
   5   2   3 618.587 32.4080  -2
  -5   5   5 618.587 32.4080   1
  -4   5   5 33.2848 6.87439   1
  -3   5   5 248.887 16.7202   1
   2   4   4 68.3912 10.6703  -2
  -2   5   5 68.3912 10.6703   1
  -1   5   5 20.9766 5.49500   1
   0   5   5 205.998 15.7426  -2
   0   5   5 205.998 15.7426   1
   1   5   5 30.7275 8.51975   1
  -2   6   6 587.634 35.5024  -2
   2   5   5 587.634 35.5024   1
  -6   6   5 39.3256 12.6264   1
   5   3   3 74.1051 20.3189  -2
  -5   6   5 74.1051 20.3189   1
   4   4   3 207.029 29.1075  -2
  -4   6   5 207.029 29.1075   1
  -3   6   5 306.604 26.7164   1
   2   5   4 0.46213 11.7456  -2
  -2   6   5 0.46213 11.7456   1
  -1   6   5 225.508 14.8590   1
   0   6   5 262.280 25.2920  -2
   0   6   5 262.280 25.2920   1
  -1  -9   6 25.6065 10.5091   1
   0  -9   6 76.6045 12.3035  -2
   0  -9   6 76.6045 12.3035   1
   1  -9   6 5.09302 5.92439   1
  -2  -8   7 536.678 31.0406  -2
   2  -9   6 536.678 31.0406   1
   3  -9   6 48.3428 13.8122   1
   4  -9   6 711.775 27.2017   1
  -3  -8   6 594.639 30.0534   1
   2  -9   5 91.3558 14.6838  -2
  -2  -8   6 91.3558 14.6838   1
  -1  -8   6 105.537 11.5285   1
   0  -8   6 178.542 12.1797  -2
   0  -8   6 178.542 12.1797   1
   1  -8   6 148.560 12.5443   1
  -2  -7   7 996.896 26.7436  -2
   2  -8   6 996.896 26.7436   1
   3  -8   6 4.55437 4.55895   1
   4  -8   6 294.440 16.1695   1
  -5  -5   8 156.730 15.4237  -2
   5  -8   6 156.730 15.4237   1
  -4  -7   6 20.0198 10.7459   1
  -3  -7   6 305.386 16.7404   1
   2  -8   5 86.4997 11.8332  -2
  -2  -7   6 86.4997 11.8332   1
  -1  -7   6 1221.81 31.4033   1
   0  -7   6 302.935 20.8667  -2
   0  -7   6 302.935 20.8667   1
   1  -7   6 13.9545 5.41705   1
  -2  -6   7 686.481 28.9362  -2
   2  -7   6 686.481 28.9362   1
   3  -7   6 7.25385 3.93739   1
   4  -7   6 228.291 13.2471   1
  -5  -4   8 161.720 13.9989  -2
   5  -7   6 161.720 13.9989   1
   6  -7   6 379.502 15.0666   1
   5  -9   4 -3.1405 24.3527  -2
  -5  -6   6 -3.1405 24.3527   1
  -4  -6   6 212.950 14.9804   1
  -3  -6   6 347.464 17.1353   1
   2  -7   5 118.699 11.4993  -2
  -2  -6   6 118.699 11.4993   1
  -1  -6   6 731.323 20.0947   1
   0  -6   6 306.640 12.1995  -2
   0  -6   6 306.640 12.1995   1
   1  -6   6 208.701 10.0869   1
  -2  -5   7 398.246 21.0127  -2
   2  -6   6 398.246 21.0127   1
   3  -6   6 237.509 10.5993   1
   4  -6   6 352.814 16.0052   1
  -5  -3   8 27.7604 8.81427  -2
   5  -6   6 27.7604 8.81427   1
   6  -6   6 562.862 16.3418   1
  -6  -5   6 310.404 27.2787   1
   5  -8   4 182.723 16.3312  -2
  -5  -5   6 182.723 16.3312   1
  -4  -5   6 418.869 18.4225   1
  -3  -5   6 38.4774 7.08109   1
   2  -6   5 753.804 19.9559  -2
  -2  -5   6 753.804 19.9559   1
  -1  -5   6 754.260 17.3959   1
   0  -5   6 9.05033 3.60337  -2
   0  -5   6 9.05033 3.60337   1
   1  -5   6 2249.76 28.8037   1
  -2  -4   7 122.758 9.02332  -2
   2  -5   6 122.758 9.02332   1
   3  -5   6 125.692 8.08818   1
   4  -5   6 174.758 11.2175   1
  -5  -2   8 130.641 11.1973  -2
   5  -5   6 130.641 11.1973   1
   6  -5   6 402.742 13.1888   1
  -6  -4   6 246.349 15.7216   1
   5  -7   4 49.3349 10.7321  -2
  -5  -4   6 49.3349 10.7321   1
  -4  -4   6 68.6534 8.93620   1
  -3  -4   6 34.5075 5.59331   1
   2  -5   5 531.182 15.8258  -2
  -2  -4   6 531.182 15.8258   1
  -1  -4   6 657.449 15.2616   1
   0  -4   6 151.529 7.68806  -2
   0  -4   6 151.529 7.68806   1
   1  -4   6 1497.43 22.4207   1
  -2  -3   7 78.1711 5.56119  -2
   2  -4   6 78.1711 5.56119   1
   3  -4   6 687.391 15.6291   1
   4  -4   6 102.324 9.79417   1
  -5  -1   8 122.936 10.6205  -2
   5  -4   6 122.936 10.6205   1
   6  -4   6 27.5552 14.4782   1
   7  -7   3 77.3181 16.5661  -2
  -7  -3   6 77.3181 16.5661   1
  -6  -3   6 11.4557 5.24624   1
   5  -6   4 418.917 17.8747  -2
  -5  -3   6 418.917 17.8747   1
  -4  -3   6 793.774 20.6299   1
  -3  -3   6 302.093 11.4006   1
   2  -4   5 1135.52 22.0415  -2
  -2  -3   6 1135.52 22.0415   1
  -1  -3   6 49.8978 5.16147   1
   0  -3   6 522.991 12.5464  -2
   0  -3   6 522.991 12.5464   1
   1  -3   6 1421.09 21.0689   1
  -2  -2   7 67.2572 5.12468  -2
   2  -3   6 67.2572 5.12468   1
   3  -3   6 1347.41 22.9739   1
   4  -3   6 48.8480 6.96880   1
  -5   0   8 384.745 17.2969  -2
   5  -3   6 384.745 17.2969   1
   6  -3   6 -6.8719 3.89274   1
   7  -6   3 422.180 41.4965  -2
  -7  -2   6 422.180 41.4965   1
  -6  -2   6 49.2274 7.52640   1
   5  -5   4 491.179 36.8460  -2
  -5  -2   6 491.179 36.8460   1
  -4  -2   6 420.170 12.8236   1
  -3  -2   6 82.6385 7.18216   1
   2  -3   5 1059.88 20.6865  -2
  -2  -2   6 1059.88 20.6865   1
  -1  -2   6 164.653 7.17063   1
   0  -2   6 1429.32 21.1603  -2
   0  -2   6 1429.32 21.1603   1
   1  -2   6 323.271 9.55351   1
  -2  -1   7 96.4317 5.90924  -2
   2  -2   6 96.4317 5.90924   1
   3  -2   6 1288.99 23.4373   1
   4  -2   6 129.343 6.62705   1
  -5   1   8 24.8732 11.9847  -2
   5  -2   6 24.8732 11.9847   1
   6  -2   6 11.6824 5.17021   1
   7  -5   3 544.400 22.8573  -2
  -7  -1   6 544.400 22.8573   1
  -6  -1   6 44.9788 6.97796   1
   5  -4   4 413.726 16.0474  -2
  -5  -1   6 413.726 16.0474   1
  -4  -1   6 263.834 10.8077   1
  -3  -1   6 903.140 17.5426   1
   2  -2   5 1130.44 20.9771  -2
  -2  -1   6 1130.44 20.9771   1
  -1  -1   6 402.162 10.9888   1
   0  -1   6 196.579 7.62665  -2
   0  -1   6 196.579 7.62665   1
   1  -1   6 31.9213 4.67257   1
  -2   0   7 73.7626 9.31742  -2
   2  -1   6 73.7626 9.31742   1
   3  -1   6 63.6380 7.05204   1
   4  -1   6 4.99927 3.17105   1
  -5   2   8 1102.19 40.8113  -2
   5  -1   6 1102.19 40.8113   1
   6  -1   6 61.8211 11.2397   1
  -8   0   6 20.9806 8.79340   1
   7  -4   3 395.015 16.8558  -2
  -7   0   6 395.015 16.8558   1
  -6   0   6 -1.9586 3.49167   1
   5  -3   4 1560.34 30.7106  -2
  -5   0   6 1560.34 30.7106   1
  -4   0   6 36.9637 4.72237   1
  -3   0   6 326.578 10.3137   1
   2  -1   5 48.9228 4.99545  -2
  -2   0   6 48.9228 4.99545   1
  -1   0   6 85.7540 6.00553   1
   0   0   6 331.989 10.2718  -2
   0   0   6 331.989 10.2718   1
   1   0   6 291.130 10.0238   1
  -2   1   7 572.450 24.3754  -2
   2   0   6 572.450 24.3754   1
   3   0   6 258.429 10.9490   1
  -4   2   8 519.334 35.4441  -2
   4   0   6 519.334 35.4441   1
  -8   1   6 203.478 18.3395   1
   7  -3   3 467.669 17.7988  -2
  -7   1   6 467.669 17.7988   1
  -6   1   6 64.2308 7.66777   1
   5  -2   4 879.845 21.5311  -2
  -5   1   6 879.845 21.5311   1
  -4   1   6 282.996 9.60864   1
  -3   1   6 57.0252 5.51795   1
   2   0   5 54.2955 5.32283  -2
  -2   1   6 54.2955 5.32283   1
  -1   1   6 18.3066 3.38419   1
   0   1   6 1373.28 27.7174  -2
   0   1   6 1373.28 27.7174   1
   1   1   6 396.067 12.5030   1
  -2   2   7 901.801 32.7447  -2
   2   1   6 901.801 32.7447   1
   3   1   6 10.4056 4.67977   1
   4   1   6 55.9840 7.92409   1
  -8   2   6 173.297 19.8362   1
   7  -2   3 35.9636 7.80366  -2
  -7   2   6 35.9636 7.80366   1
  -6   2   6 20.8218 4.60623   1
   5  -1   4 266.592 12.7610  -2
  -5   2   6 266.592 12.7610   1
  -4   2   6 13.3477 3.05345   1
  -3   2   6 323.959 10.1262   1
   2   1   5 131.708 8.67724  -2
  -2   2   6 131.708 8.67724   1
  -1   2   6 728.815 16.1858   1
   0   2   6 913.812 21.2978  -2
   0   2   6 913.812 21.2978   1
   1   2   6 233.771 14.3975   1
  -2   3   7 389.310 20.1910  -2
   2   2   6 389.310 20.1910   1
   3   2   6 11.2395 6.55396   1
   4   2   6 174.407 20.3205   1
   7  -1   3 282.847 38.5670  -2
  -7   3   6 282.847 38.5670   1
  -6   3   6 317.708 13.6808   1
   5   0   4 126.171 6.67760  -2
  -5   3   6 126.171 6.67760   1
  -4   3   6 163.890 7.05320   1
  -3   3   6 1296.21 25.8081   1
   2   2   5 128.086 12.1806  -2
  -2   3   6 128.086 12.1806   1
  -1   3   6 323.200 12.4817   1
   0   3   6 36.5918 7.30014  -2
   0   3   6 36.5918 7.30014   1
   1   3   6 149.565 13.1025   1
  -2   4   7 530.144 32.4541  -2
   2   3   6 530.144 32.4541   1
   3   3   6 7.40932 11.2545   1
   7   0   3 13.0143 18.5237  -2
  -7   4   6 13.0143 18.5237   1
  -6   4   6 349.986 19.2888   1
   5   1   4 76.7439 18.6940  -2
  -5   4   6 76.7439 18.6940   1
  -4   4   6 373.391 19.1877   1
  -3   4   6 429.399 11.3181   1
   2   3   5 89.0998 13.8226  -2
  -2   4   6 89.0998 13.8226   1
  -1   4   6 367.328 13.8212   1
   0   4   6 10.7084 13.5338  -2
   0   4   6 10.7084 13.5338   1
   1   4   6 38.4355 8.66243   1
  -2   5   7 271.964 37.1458  -2
   2   4   6 271.964 37.1458   1
  -6   5   6 273.648 31.5051   1
   5   2   4 3.37659 16.6244  -2
  -5   5   6 3.37659 16.6244   1
  -4   5   6 388.634 20.8855   1
  -3   5   6 66.9849 15.3140   1
   2   4   5 259.791 19.9465  -2
  -2   5   6 259.791 19.9465   1
  -1   5   6 159.373 13.7031   1
  -4   6   6 255.827 32.2656   1
  -3   6   6 49.4530 14.7348   1
   2   5   5 540.828 35.7626  -2
  -2   6   6 540.828 35.7626   1
  -1  -9   7 211.147 21.1970   1
   0  -9   7 32.3579 9.07209  -2
   0  -9   7 32.3579 9.07209   1
   1  -9   7 173.191 16.5411   1
  -2  -8   8 49.6243 28.3462  -2
   2  -9   7 49.6243 28.3462   1
   3  -9   7 246.774 20.7328   1
   4  -9   7 242.203 23.1373   1
  -3  -8   7 34.2575 9.87528   1
   2  -9   6 517.950 26.8793  -2
  -2  -8   7 517.950 26.8793   1
  -1  -8   7 112.378 14.5479   1
   0  -8   7 61.0228 9.23794  -2
   0  -8   7 61.0228 9.23794   1
   1  -8   7 198.143 13.6978   1
  -2  -7   8 161.136 16.0304  -2
   2  -8   7 161.136 16.0304   1
   3  -8   7 736.017 22.1250   1
   4  -8   7 123.102 12.5291   1
  -5  -5   9 -16.674 24.7301  -2
   5  -8   7 -16.674 24.7301   1
   4  -9   5 228.643 40.5822  -2
  -4  -7   7 228.643 40.5822   1
  -3  -7   7 132.553 14.4561   1
   2  -8   6 908.226 28.6379  -2
  -2  -7   7 908.226 28.6379   1
  -1  -7   7 250.986 15.3234   1
   0  -7   7 437.963 25.0635  -2
   0  -7   7 437.963 25.0635   1
   1  -7   7 614.040 20.7506   1
  -2  -6   8 116.792 11.4807  -2
   2  -7   7 116.792 11.4807   1
   3  -7   7 77.2398 7.83987   1
   4  -7   7 -2.5759 4.14861   1
  -5  -4   9 90.3102 21.8083  -2
   5  -7   7 90.3102 21.8083   1
   5  -9   5 52.1792 30.6922  -2
  -5  -6   7 52.1792 30.6922   1
  -4  -6   7 139.274 19.6781   1
  -3  -6   7 9.47957 5.40962   1
   2  -7   6 1183.08 31.1134  -2
  -2  -6   7 1183.08 31.1134   1
  -1  -6   7 160.754 11.2075   1
   0  -6   7 830.303 27.2416  -2
   0  -6   7 830.303 27.2416   1
   1  -6   7 22.1029 5.91463   1
  -2  -5   8 35.6059 7.22195  -2
   2  -6   7 35.6059 7.22195   1
   3  -6   7 38.8237 5.93172   1
   4  -6   7 0.03368 5.48342   1
  -5  -3   9 139.778 14.1240  -2
   5  -6   7 139.778 14.1240   1
   6  -6   7 33.1402 6.81065   1
  -6  -5   7 21.8824 12.1152   1
   5  -8   5 673.676 36.8380  -2
  -5  -5   7 673.676 36.8380   1
  -4  -5   7 366.171 18.0386   1
  -3  -5   7 111.787 10.1295   1
   2  -6   6 677.623 22.3610  -2
  -2  -5   7 677.623 22.3610   1
  -1  -5   7 514.284 16.2663   1
   0  -5   7 742.822 18.7709  -2
   0  -5   7 742.822 18.7709   1
   1  -5   7 41.8960 5.98428   1
  -2  -4   8 165.962 13.4370  -2
   2  -5   7 165.962 13.4370   1
   3  -5   7 80.3920 6.66052   1
   4  -5   7 39.2826 6.33200   1
  -5  -2   9 943.628 28.9065  -2
   5  -5   7 943.628 28.9065   1
   6  -5   7 24.7099 4.83138   1
  -6  -4   7 64.7756 12.2592   1
   5  -7   5 858.292 27.4307  -2
  -5  -4   7 858.292 27.4307   1
  -4  -4   7 37.3969 6.72083   1
  -3  -4   7 10.0390 4.01450   1
   2  -5   6 118.776 10.3336  -2
  -2  -4   7 118.776 10.3336   1
  -1  -4   7 128.571 8.45356   1
   0  -4   7 1553.89 24.5599  -2
   0  -4   7 1553.89 24.5599   1
   1  -4   7 3.41876 2.51320   1
  -2  -3   8 566.521 22.7234  -2
   2  -4   7 566.521 22.7234   1
   3  -4   7 912.400 20.2034   1
   4  -4   7 94.4796 12.1134   1
  -5  -1   9 34.4663 9.92253  -2
   5  -4   7 34.4663 9.92253   1
   6  -4   7 -8.2167 6.82387   1
   7  -7   4 85.0703 29.0171  -2
  -7  -3   7 85.0703 29.0171   1
  -6  -3   7 47.1844 8.34039   1
   5  -6   5 174.005 14.8252  -2
  -5  -3   7 174.005 14.8252   1
  -4  -3   7 6.12931 3.89843   1
  -3  -3   7 820.817 20.7618   1
   2  -4   6 118.288 8.34069  -2
  -2  -3   7 118.288 8.34069   1
  -1  -3   7 81.9820 6.51612   1
   0  -3   7 1321.29 24.3646  -2
   0  -3   7 1321.29 24.3646   1
   1  -3   7 127.965 6.79836   1
  -2  -2   8 1376.37 29.7456  -2
   2  -3   7 1376.37 29.7456   1
   3  -3   7 9.01417 3.53425   1
   4  -3   7 174.508 11.7812   1
  -5   0   9 543.469 23.1985  -2
   5  -3   7 543.469 23.1985   1
   6  -3   7 5.09461 18.4194   1
   7  -6   4 -7.4474 19.6563  -2
  -7  -2   7 -7.4474 19.6563   1
  -6  -2   7 3.69388 5.08539   1
   5  -5   5 823.271 28.2058  -2
  -5  -2   7 823.271 28.2058   1
  -4  -2   7 -0.0981 3.86724   1
  -3  -2   7 1014.78 20.4981   1
   2  -3   6 81.4876 7.77921  -2
  -2  -2   7 81.4876 7.77921   1
  -1  -2   7 1570.97 24.4411   1
   0  -2   7 666.931 16.9396  -2
   0  -2   7 666.931 16.9396   1
   1  -2   7 241.030 9.17900   1
   3  -2   7 99.0789 8.11511   1
   4  -2   7 376.855 14.6443   1
  -5   1   9 120.409 22.6606  -2
   5  -2   7 120.409 22.6606   1
   7  -5   4 144.885 27.0780  -2
  -7  -1   7 144.885 27.0780   1
  -6  -1   7 72.3848 8.65061   1
   5  -4   5 294.540 17.3081  -2
  -5  -1   7 294.540 17.3081   1
  -4  -1   7 7.34576 3.32911   1
  -3  -1   7 1259.72 24.6826   1
   2  -2   6 152.942 8.97432  -2
  -2  -1   7 152.942 8.97432   1
  -1  -1   7 576.801 15.2962   1
   0  -1   7 269.068 10.8191  -2
   0  -1   7 269.068 10.8191   1
   1  -1   7 317.227 13.3544   1
  -2   0   8 612.115 33.8847  -2
   2  -1   7 612.115 33.8847   1
   3  -1   7 180.819 10.4437   1
  -4   1   9 92.4636 22.3084  -2
   4  -1   7 92.4636 22.3084   1
  -5   2   9 144.253 23.0921  -2
   5  -1   7 144.253 23.0921   1
   7  -4   4 143.510 23.1312  -2
  -7   0   7 143.510 23.1312   1
  -6   0   7 271.902 14.3686   1
   5  -3   5 564.462 19.4410  -2
  -5   0   7 564.462 19.4410   1
  -4   0   7 69.8389 6.98669   1
  -3   0   7 237.224 9.65627   1
   2  -1   6 80.0631 7.45066  -2
  -2   0   7 80.0631 7.45066   1
  -1   0   7 1778.17 26.6198   1
   0   0   7 5.07851 4.12945  -2
   0   0   7 5.07851 4.12945   1
   1   0   7 114.437 8.66835   1
  -2   1   8 369.070 18.1909  -2
   2   0   7 369.070 18.1909   1
   3   0   7 2.56000 3.78050   1
  -4   2   9 455.077 41.2651  -2
   4   0   7 455.077 41.2651   1
  -6   1   7 809.769 22.9652   1
   5  -2   5 56.9171 8.34476  -2
  -5   1   7 56.9171 8.34476   1
  -4   1   7 190.494 9.58144   1
  -3   1   7 654.881 15.6476   1
   2   0   6 416.517 13.6570  -2
  -2   1   7 416.517 13.6570   1
  -1   1   7 114.024 7.56046   1
   0   1   7 278.305 15.3881  -2
   0   1   7 278.305 15.3881   1
   1   1   7 979.898 27.5087   1
  -2   2   8 153.680 14.3690  -2
   2   1   7 153.680 14.3690   1
   3   1   7 64.2261 10.5712   1
   4   1   7 361.044 26.3733   1
   7  -2   4 90.8474 16.6126  -2
  -7   2   7 90.8474 16.6126   1
  -6   2   7 367.886 13.1835   1
   5  -1   5 146.954 9.87147  -2
  -5   2   7 146.954 9.87147   1
  -4   2   7 124.615 8.25045   1
  -3   2   7 1.23608 3.60938   1
   2   1   6 578.292 16.6289  -2
  -2   2   7 578.292 16.6289   1
  -1   2   7 502.805 16.5365   1
   0   2   7 142.953 10.7122  -2
   0   2   7 142.953 10.7122   1
   1   2   7 659.628 26.1554   1
  -2   3   8 131.084 16.1017  -2
   2   2   7 131.084 16.1017   1
   3   2   7 309.007 65.4706   1
   7  -1   4 282.418 33.4696  -2
  -7   3   7 282.418 33.4696   1
  -6   3   7 -23.723 21.7584   1
   5   0   5 218.054 16.1952  -2
  -5   3   7 218.054 16.1952   1
  -4   3   7 259.671 11.4855   1
  -3   3   7 192.781 11.2898   1
   2   2   6 475.289 22.1361  -2
  -2   3   7 475.289 22.1361   1
  -1   3   7 204.461 12.5378   1
   0   3   7 125.033 28.1138  -2
   0   3   7 125.033 28.1138   1
   1   3   7 346.061 17.1397   1
  -2   4   8 113.588 28.1494  -2
   2   3   7 113.588 28.1494   1
  -6   4   7 16.0836 17.1054   1
   5   1   5 276.078 33.2058  -2
  -5   4   7 276.078 33.2058   1
  -4   4   7 686.897 29.0167   1
  -3   4   7 8.96579 5.74183   1
   2   3   6 642.116 23.0974  -2
  -2   4   7 642.116 23.0974   1
  -1   4   7 71.2859 8.95496   1
   0   4   7 34.1148 14.7874  -2
   0   4   7 34.1148 14.7874   1
   1   4   7 100.501 17.8767   1
  -4   5   7 85.2609 18.3036   1
  -3   5   7 3.22625 12.4446   1
   2   4   6 254.326 28.0854  -2
  -2   5   7 254.326 28.0854   1
  -1   5   7 17.2914 8.65098   1
  -1  -9   8 26.9443 14.8926   1
   0  -9   8 79.0927 21.4782  -2
   0  -9   8 79.0927 21.4782   1
   1  -9   8 1.98697 10.4926   1
  -2  -8   9 100.536 24.7968  -2
   2  -9   8 100.536 24.7968   1
   3  -9   8 290.989 22.6116   1
   2  -9   7 270.718 35.7220  -2
  -2  -8   8 270.718 35.7220   1
  -1  -8   8 51.2602 9.64469   1
   0  -8   8 647.771 24.3120  -2
   0  -8   8 647.771 24.3120   1
   1  -8   8 7.16932 5.53208   1
  -2  -7   9 343.879 25.9700  -2
   2  -8   8 343.879 25.9700   1
   3  -8   8 190.488 16.0479   1
   4  -8   8 56.9069 9.91399   1
  -4  -7   8 33.8586 12.7173   1
  -3  -7   8 123.863 16.9544   1
   2  -8   7 333.997 21.6073  -2
  -2  -7   8 333.997 21.6073   1
  -1  -7   8 0.87774 6.01609   1
   0  -7   8 1232.50 36.5590  -2
   0  -7   8 1232.50 36.5590   1
   1  -7   8 107.667 11.1114   1
  -2  -6   9 586.519 24.1944  -2
   2  -7   8 586.519 24.1944   1
   3  -7   8 6.79015 4.29926   1
   4  -7   8 84.4142 11.4339   1
  -5  -4  10 527.898 42.1331  -2
   5  -7   8 527.898 42.1331   1
  -5  -6   8 444.982 44.6573   1
  -4  -6   8 -0.0907 8.56024   1
  -3  -6   8 108.508 13.7029   1
   2  -7   7 125.495 17.8366  -2
  -2  -6   8 125.495 17.8366   1
  -1  -6   8 167.862 11.7550   1
   0  -6   8 1502.33 33.5132  -2
   0  -6   8 1502.33 33.5132   1
   1  -6   8 33.8013 6.21389   1
  -2  -5   9 488.226 20.5719  -2
   2  -6   8 488.226 20.5719   1
   3  -6   8 10.2846 5.97939   1
   4  -6   8 53.9030 8.71990   1
  -5  -3  10 349.890 21.0415  -2
   5  -6   8 349.890 21.0415   1
   5  -8   6 219.096 23.8514  -2
  -5  -5   8 219.096 23.8514   1
  -4  -5   8 115.953 14.9852   1
  -3  -5   8 1060.87 29.9423   1
   2  -6   7 55.4709 9.40356  -2
  -2  -5   8 55.4709 9.40356   1
  -1  -5   8 139.244 10.2607   1
   0  -5   8 365.668 15.6475  -2
   0  -5   8 365.668 15.6475   1
   1  -5   8 92.4004 9.95147   1
  -2  -4   9 785.047 25.2601  -2
   2  -5   8 785.047 25.2601   1
   3  -5   8 135.637 8.82592   1
   4  -5   8 347.726 17.8647   1
  -5  -2  10 240.136 18.4111  -2
   5  -5   8 240.136 18.4111   1
  -6  -4   8 341.742 25.4281   1
   5  -7   6 348.300 19.1777  -2
  -5  -4   8 348.300 19.1777   1
  -4  -4   8 360.275 17.4502   1
  -3  -4   8 630.013 19.7934   1
   2  -5   7 116.510 15.5718  -2
  -2  -4   8 116.510 15.5718   1
  -1  -4   8 447.421 17.4151   1
   0  -4   8 2.94704 5.65264  -2
   0  -4   8 2.94704 5.65264   1
   1  -4   8 136.249 9.44982   1
  -2  -3   9 895.305 22.8419  -2
   2  -4   8 895.305 22.8419   1
   3  -4   8 117.110 8.14872   1
   4  -4   8 555.134 27.3492   1
  -5  -1  10 76.4592 13.8273  -2
   5  -4   8 76.4592 13.8273   1
  -6  -3   8 400.392 21.8870   1
   5  -6   6 104.852 13.6411  -2
  -5  -3   8 104.852 13.6411   1
  -4  -3   8 159.809 11.8596   1
  -3  -3   8 193.611 11.3149   1
   2  -4   7 334.438 15.7585  -2
  -2  -3   8 334.438 15.7585   1
  -1  -3   8 73.9664 7.19837   1
   0  -3   8 13.6811 4.99457  -2
   0  -3   8 13.6811 4.99457   1
   1  -3   8 417.371 15.9897   1
  -2  -2   9 722.765 23.7822  -2
   2  -3   8 722.765 23.7822   1
   3  -3   8 8.85457 3.95445   1
   4  -3   8 275.693 16.2351   1
  -5   0  10 70.1550 14.7327  -2
   5  -3   8 70.1550 14.7327   1
   7  -6   5 247.390 31.2211  -2
  -7  -2   8 247.390 31.2211   1
  -6  -2   8 194.092 13.7011   1
   5  -5   6 186.252 15.0218  -2
  -5  -2   8 186.252 15.0218   1
  -4  -2   8 131.980 10.6053   1
  -3  -2   8 106.944 9.36043   1
   2  -3   7 1182.76 27.9170  -2
  -2  -2   8 1182.76 27.9170   1
  -1  -2   8 1397.81 27.0383   1
   0  -2   8 37.3209 6.20433  -2
   0  -2   8 37.3209 6.20433   1
   1  -2   8 294.867 13.4794   1
  -2  -1   9 250.397 15.6628  -2
   2  -2   8 250.397 15.6628   1
   3  -2   8 218.183 11.8577   1
   4  -2   8 245.423 16.2567   1
   7  -5   5 120.710 24.2531  -2
  -7  -1   8 120.710 24.2531   1
  -6  -1   8 285.948 15.4383   1
   5  -4   6 188.793 18.0254  -2
  -5  -1   8 188.793 18.0254   1
  -4  -1   8 606.641 20.4581   1
  -3  -1   8 147.392 8.63679   1
   2  -2   7 1258.06 23.5568  -2
  -2  -1   8 1258.06 23.5568   1
  -1  -1   8 125.850 8.28679   1
   0  -1   8 11.8512 6.27474  -2
   0  -1   8 11.8512 6.27474   1
   1  -1   8 1104.50 29.2316   1
  -2   0   9 128.934 14.5478  -2
   2  -1   8 128.934 14.5478   1
   3  -1   8 54.3614 6.85385   1
   4  -1   8 95.2923 17.9638   1
   7  -4   5 73.4513 21.3546  -2
  -7   0   8 73.4513 21.3546   1
  -6   0   8 433.131 18.2711   1
   5  -3   6 406.826 19.9934  -2
  -5   0   8 406.826 19.9934   1
  -4   0   8 414.454 14.9666   1
  -3   0   8 30.8246 5.68832   1
   2  -1   7 562.694 17.4620  -2
  -2   0   8 562.694 17.4620   1
  -1   0   8 217.893 10.1194   1
   0   0   8 750.054 32.1634  -2
   0   0   8 750.054 32.1634   1
   1   0   8 218.932 12.6573   1
  -2   1   9 19.1074 9.76844  -2
   2   0   8 19.1074 9.76844   1
   3   0   8 224.195 16.3359   1
   4   0   8 5.18633 9.27389   1
   7  -3   5 556.878 28.5290  -2
  -7   1   8 556.878 28.5290   1
  -6   1   8 42.3784 6.69026   1
   5  -2   6 57.3565 9.38302  -2
  -5   1   8 57.3565 9.38302   1
  -4   1   8 448.945 17.6301   1
  -3   1   8 166.846 10.7538   1
   2   0   7 574.117 19.7745  -2
  -2   1   8 574.117 19.7745   1
  -1   1   8 78.6994 9.02649   1
   0   1   8 572.337 24.4266  -2
   0   1   8 572.337 24.4266   1
   1   1   8 71.1979 9.61158   1
  -2   2   9 -3.1443 13.4863  -2
   2   1   8 -3.1443 13.4863   1
   3   1   8 292.786 24.9401   1
  -6   2   8 26.1549 7.31962   1
   5  -1   6 1049.61 23.3960  -2
  -5   2   8 1049.61 23.3960   1
  -4   2   8 432.679 14.7191   1
  -3   2   8 0.94727 3.84775   1
   2   1   7 177.840 20.3302  -2
  -2   2   8 177.840 20.3302   1
  -1   2   8 32.5533 8.21317   1
   0   2   8 218.064 13.6751  -2
   0   2   8 218.064 13.6751   1
   1   2   8 8.24714 7.80478   1
  -6   3   8 34.4951 17.1099   1
   5   0   6 492.704 42.2539  -2
  -5   3   8 492.704 42.2539   1
  -4   3   8 2.79986 8.71560   1
  -3   3   8 65.9236 7.40617   1
   2   2   7 150.324 28.0190  -2
  -2   3   8 150.324 28.0190   1
  -1   3   8 10.5435 8.29121   1
   0   3   8 351.115 21.1594  -2
   0   3   8 351.115 21.1594   1
   1   3   8 18.8984 9.98564   1
   5   1   6 359.837 40.9695  -2
  -5   4   8 359.837 40.9695   1
  -4   4   8 65.7448 12.3606   1
  -3   4   8 303.479 16.8497   1
   2   3   7 201.807 23.1517  -2
  -2   4   8 201.807 23.1517   1
  -1   4   8 108.311 14.1606   1
   2  -9   8 52.3187 16.0562  -2
  -2  -8   9 52.3187 16.0562   1
  -1  -8   9 233.006 18.6893   1
   0  -8   9 9.85850 11.2437  -2
   0  -8   9 9.85850 11.2437   1
   1  -8   9 78.7099 14.2530   1
   3  -8   9 -2.7381 9.69303   1
  -3  -7   9 134.681 17.8258   1
   2  -8   8 216.468 34.7899  -2
  -2  -7   9 216.468 34.7899   1
  -1  -7   9 265.259 16.7878   1
   0  -7   9 24.9151 11.5203  -2
   0  -7   9 24.9151 11.5203   1
   1  -7   9 720.241 24.4220   1
  -2  -6  10 209.587 21.6853  -2
   2  -7   9 209.587 21.6853   1
   3  -7   9 73.3199 9.83691   1
   4  -7   9 402.674 22.5649   1
  -4  -6   9 120.781 15.8845   1
  -3  -6   9 180.370 17.5789   1
   2  -7   8 378.186 19.5176  -2
  -2  -6   9 378.186 19.5176   1
  -1  -6   9 629.538 26.0877   1
   0  -6   9 18.3285 6.31558  -2
   0  -6   9 18.3285 6.31558   1
   1  -6   9 621.905 21.4965   1
  -2  -5  10 366.134 24.4553  -2
   2  -6   9 366.134 24.4553   1
   3  -6   9 243.217 13.7614   1
   4  -6   9 53.1688 9.46217   1
   5  -8   7 53.7195 19.0388  -2
  -5  -5   9 53.7195 19.0388   1
  -4  -5   9 531.029 26.9656   1
  -3  -5   9 244.566 17.4882   1
   2  -6   8 376.056 21.3609  -2
  -2  -5   9 376.056 21.3609   1
  -1  -5   9 333.740 16.6437   1
   0  -5   9 57.0694 9.09684  -2
   0  -5   9 57.0694 9.09684   1
   1  -5   9 435.243 17.7159   1
  -2  -4  10 294.897 22.3634  -2
   2  -5   9 294.897 22.3634   1
   3  -5   9 224.239 12.6428   1
   4  -5   9 -1.1374 6.74007   1
   5  -7   7 153.074 21.3889  -2
  -5  -4   9 153.074 21.3889   1
  -4  -4   9 706.244 25.5702   1
  -3  -4   9 5.76245 8.38077   1
   2  -5   8 994.759 28.6415  -2
  -2  -4   9 994.759 28.6415   1
  -1  -4   9 278.917 14.5785   1
   0  -4   9 31.8771 7.50673  -2
   0  -4   9 31.8771 7.50673   1
   1  -4   9 140.738 10.5759   1
  -2  -3  10 43.7816 9.72739  -2
   2  -4   9 43.7816 9.72739   1
   3  -4   9 639.247 19.9893   1
   4  -4   9 2.61310 6.23269   1
  -6  -3   9 86.7045 21.3693   1
   5  -6   7 106.437 13.9399  -2
  -5  -3   9 106.437 13.9399   1
  -4  -3   9 676.863 27.9558   1
  -3  -3   9 9.80829 4.85981   1
   2  -4   8 906.783 23.7675  -2
  -2  -3   9 906.783 23.7675   1
  -1  -3   9 8.02989 4.21999   1
   0  -3   9 76.2901 8.23396  -2
   0  -3   9 76.2901 8.23396   1
   1  -3   9 411.153 17.0051   1
  -2  -2  10 -9.3108 11.3195  -2
   2  -3   9 -9.3108 11.3195   1
   3  -3   9 176.771 11.1407   1
   4  -3   9 8.34507 7.47933   1
  -6  -2   9 141.462 18.1048   1
   5  -5   7 694.134 25.0910  -2
  -5  -2   9 694.134 25.0910   1
  -4  -2   9 9.32336 5.61230   1
  -3  -2   9 85.6625 9.83191   1
   2  -3   8 756.736 24.5067  -2
  -2  -2   9 756.736 24.5067   1
  -1  -2   9 10.4669 4.88976   1
   0  -2   9 845.112 28.4291  -2
   0  -2   9 845.112 28.4291   1
   1  -2   9 24.8216 5.90138   1
  -2  -1  10 47.1038 11.0446  -2
   2  -2   9 47.1038 11.0446   1
   3  -2   9 138.888 13.1075   1
   4  -2   9 11.0345 12.5852   1
  -6  -1   9 11.8843 6.83244   1
   5  -4   7 78.5927 14.0400  -2
  -5  -1   9 78.5927 14.0400   1
  -4  -1   9 11.7180 5.73629   1
  -3  -1   9 143.818 15.1597   1
   2  -2   8 445.210 19.9989  -2
  -2  -1   9 445.210 19.9989   1
  -1  -1   9 69.3259 9.45529   1
   0  -1   9 1698.75 49.6844  -2
   0  -1   9 1698.75 49.6844   1
   1  -1   9 8.79824 5.09321   1
  -2   0  10 246.986 17.2685  -2
   2  -1   9 246.986 17.2685   1
   3  -1   9 75.0874 13.7968   1
  -6   0   9 -0.2927 7.60859   1
   5  -3   7 711.324 24.1188  -2
  -5   0   9 711.324 24.1188   1
  -4   0   9 168.528 11.7258   1
  -3   0   9 62.7688 9.01054   1
   2  -1   8 175.517 18.8459  -2
  -2   0   9 175.517 18.8459   1
  -1   0   9 8.15353 4.71110   1
   0   0   9 1054.34 28.5924  -2
   0   0   9 1054.34 28.5924   1
   1   0   9 3.06180 5.55983   1
  -2   1  10 245.671 32.2785  -2
   2   0   9 245.671 32.2785   1
  -6   1   9 62.2961 19.8521   1
   5  -2   7 184.790 15.4278  -2
  -5   1   9 184.790 15.4278   1
  -4   1   9 68.3543 9.62849   1
  -3   1   9 327.103 16.2063   1
   2   0   8 38.3696 14.1226  -2
  -2   1   9 38.3696 14.1226   1
  -1   1   9 91.3419 11.0964   1
   0   1   9 190.706 13.7789  -2
   0   1   9 190.706 13.7789   1
   1   1   9 -1.1211 7.31260   1
   2   1   9 565.030 49.0221   1
   5  -1   7 281.395 20.1676  -2
  -5   2   9 281.395 20.1676   1
  -4   2   9 10.1392 7.08610   1
  -3   2   9 377.019 17.2663   1
   2   1   8 42.5638 16.4990  -2
  -2   2   9 42.5638 16.4990   1
  -1   2   9 158.828 13.7278   1
   0   2   9 94.9630 21.5822  -2
   0   2   9 94.9630 21.5822   1
  -4   3   9 41.9769 8.65437   1
  -3   3   9 244.073 18.1748   1
   2   2   8 239.399 31.8702  -2
  -2   3   9 239.399 31.8702   1
  -1   3   9 171.176 18.5958   1
  -1  -8  10 184.335 28.0802   1
   0  -8  10 36.1566 12.5990  -2
   0  -8  10 36.1566 12.5990   1
   1  -8  10 469.149 30.9675   1
   2  -8   9 182.229 24.4014  -2
  -2  -7  10 182.229 24.4014   1
  -1  -7  10 17.2415 8.96223   1
   0  -7  10 143.871 17.5301  -2
   0  -7  10 143.871 17.5301   1
   1  -7  10 53.8842 12.4261   1
  -2  -6  11 27.9211 16.8253  -2
   2  -7  10 27.9211 16.8253   1
   3  -7  10 559.741 36.6825   1
  -3  -6  10 22.9914 8.15520   1
   2  -7   9 314.133 36.5434  -2
  -2  -6  10 314.133 36.5434   1
  -1  -6  10 29.9845 10.0221   1
   0  -6  10 136.500 12.2737  -2
   0  -6  10 136.500 12.2737   1
   1  -6  10 150.735 15.8762   1
   3  -6  10 570.502 32.3980   1
  -4  -5  10 84.3995 13.4093   1
  -3  -5  10 12.7471 7.45384   1
   2  -6   9 499.428 30.5575  -2
  -2  -5  10 499.428 30.5575   1
  -1  -5  10 115.897 11.3037   1
   0  -5  10 465.971 22.7974  -2
   0  -5  10 465.971 22.7974   1
   1  -5  10 73.1735 10.2039   1
   3  -5  10 131.209 15.9287   1
   5  -7   8 447.140 32.8801  -2
  -5  -4  10 447.140 32.8801   1
  -4  -4  10 7.32394 8.23698   1
  -3  -4  10 368.186 20.8998   1
   2  -5   9 470.657 24.3959  -2
  -2  -4  10 470.657 24.3959   1
  -1  -4  10 79.0267 10.0067   1
   0  -4  10 248.359 16.3643  -2
   0  -4  10 248.359 16.3643   1
   1  -4  10 7.09559 5.09185   1
  -2  -3  11 97.2124 23.6820  -2
   2  -4  10 97.2124 23.6820   1
   3  -4  10 5.80859 8.05565   1
   5  -6   8 659.929 54.7748  -2
  -5  -3  10 659.929 54.7748   1
  -4  -3  10 22.0366 6.78704   1
  -3  -3  10 461.290 23.0393   1
   2  -4   9 48.2399 12.0544  -2
  -2  -3  10 48.2399 12.0544   1
  -1  -3  10 44.2797 7.55997   1
   0  -3  10 721.587 27.6654  -2
   0  -3  10 721.587 27.6654   1
   1  -3  10 -1.7550 5.05813   1
   3  -3  10 30.6699 10.2269   1
   5  -5   8 415.870 23.8117  -2
  -5  -2  10 415.870 23.8117   1
  -4  -2  10 13.8875 6.68715   1
  -3  -2  10 299.234 18.9283   1
   2  -3   9 52.1584 11.9622  -2
  -2  -2  10 52.1584 11.9622   1
  -1  -2  10 202.357 16.7474   1
   0  -2  10 718.852 24.3820  -2
   0  -2  10 718.852 24.3820   1
   1  -2  10 77.7149 10.2589   1
   5  -4   8 166.299 20.8671  -2
  -5  -1  10 166.299 20.8671   1
  -4  -1  10 17.4203 7.52557   1
  -3  -1  10 386.028 21.0616   1
   2  -2   9 39.3014 10.7914  -2
  -2  -1  10 39.3014 10.7914   1
  -1  -1  10 441.687 20.1399   1
   0  -1  10 10.0261 8.13785  -2
   0  -1  10 10.0261 8.13785   1
   1  -1  10 41.2156 8.16239   1
  -2   0  11 422.598 41.1128  -2
   2  -1  10 422.598 41.1128   1
   5  -3   8 123.545 19.7699  -2
  -5   0  10 123.545 19.7699   1
  -4   0  10 173.723 16.6459   1
  -3   0  10 327.089 19.4300   1
   2  -1   9 178.067 16.0736  -2
  -2   0  10 178.067 16.0736   1
  -1   0  10 305.121 18.3584   1
   0   0  10 54.0320 12.2527  -2
   0   0  10 54.0320 12.2527   1
   1   0  10 99.8301 23.7765   1
   5  -2   8 73.4434 17.3008  -2
  -5   1  10 73.4434 17.3008   1
  -4   1  10 78.3341 11.5261   1
  -3   1  10 91.8294 12.0392   1
   2   0   9 287.817 22.3801  -2
  -2   1  10 287.817 22.3801   1
  -1   1  10 244.723 18.0619   1
   0   1  10 97.5748 15.9893  -2
   0   1  10 97.5748 15.9893   1
  -3   2  10 0.33612 9.15917   1
   2   1   9 459.555 34.1592  -2
  -2   2  10 459.555 34.1592   1
  -1  -7  11 79.0582 24.9155   1
   2  -7  10 58.0405 18.0325  -2
  -2  -6  11 58.0405 18.0325   1
  -1  -6  11 47.7565 10.0058   1
   0  -6  11 48.5570 13.3057  -2
   0  -6  11 48.5570 13.3057   1
   1  -6  11 -1.3956 9.54264   1
  -3  -5  11 208.460 22.3188   1
   2  -6  10 99.1848 20.2158  -2
  -2  -5  11 99.1848 20.2158   1
  -1  -5  11 227.482 17.5275   1
   0  -5  11 80.2632 14.1104  -2
   0  -5  11 80.2632 14.1104   1
   1  -5  11 12.0402 9.08471   1
   2  -5  11 374.421 32.7313   1
  -4  -4  11 20.1983 9.08196   1
  -3  -4  11 329.281 21.3685   1
   2  -5  10 45.2256 23.8079  -2
  -2  -4  11 45.2256 23.8079   1
  -1  -4  11 219.738 15.3404   1
   0  -4  11 177.858 18.1988  -2
   0  -4  11 177.858 18.1988   1
   1  -4  11 187.467 19.4742   1
   2  -4  11 -12.012 21.7570   1
  -4  -3  11 82.2443 16.0862   1
  -3  -3  11 88.0044 12.8504   1
   2  -4  10 63.8371 17.1043  -2
  -2  -3  11 63.8371 17.1043   1
  -1  -3  11 511.575 21.9652   1
   0  -3  11 51.3133 12.6888  -2
   0  -3  11 51.3133 12.6888   1
   1  -3  11 195.505 22.3178   1
  -4  -2  11 242.802 18.8146   1
  -3  -2  11 41.6036 10.6799   1
   2  -3  10 97.0884 29.5136  -2
  -2  -2  11 97.0884 29.5136   1
  -1  -2  11 276.513 17.9666   1
   0  -2  11 56.5086 17.5029  -2
   0  -2  11 56.5086 17.5029   1
   1  -2  11 502.010 35.6165   1
  -4  -1  11 122.976 15.1601   1
  -3  -1  11 -5.5985 8.39394   1
   2  -2  10 306.930 20.7349  -2
  -2  -1  11 306.930 20.7349   1
  -1  -1  11 313.258 19.8084   1
   0  -1  11 12.1724 18.3353  -2
   0  -1  11 12.1724 18.3353   1
  -3   0  11 35.1387 9.61747   1
   2  -1  10 452.284 25.9362  -2
  -2   0  11 452.284 25.9362   1
  -1   0  11 19.6575 15.8964   1
  -1  -4  12 17.9412 14.6985   1
   0   0   0    0.00    0.00   0
;
_shelx_hkl_checksum              54738
loop_
_space_group_symop_operation_xyz
'x, y, z'
'-x, -y, -z'
loop_
_atom_site_label
_atom_site_type_symbol
_atom_site_fract_x
_atom_site_fract_y
_atom_site_fract_z
_atom_site_U_iso_or_equiv
_atom_site_adp_type
_atom_site_occupancy
_atom_site_site_symmetry_order
_atom_site_calc_flag
_atom_site_refinement_flags_posn
_atom_site_refinement_flags_occupancy
Cu1 Cu 0.0000 0.0000 1.0000 0.00722(14) Uani 1 2 d S P
Cl1 Cl 0.41808(12) 0.09441(11) 1.33985(9) 0.00995(18) Uani 1 1 d . .
O1 O 0.3196(4) 0.1819(3) 1.2356(3) 0.0154(5) Uani 1 1 d . .
O2 O 0.5997(4) 0.2604(4) 1.4735(3) 0.0199(6) Uani 1 1 d . .
O3 O 0.5122(4) -0.0497(3) 1.2316(3) 0.0163(5) Uani 1 1 d . .
C2 C 0.1248(6) 0.3487(5) 0.5939(4) 0.0131(7) Uani 1 1 d . .
O4 O -0.1620(4) 0.1567(4) 1.1344(3) 0.0113(5) Uani 1 1 d . .
N1 N 0.2395(4) 0.4995(4) 0.8981(3) 0.0093(5) Uani 1 1 d . .
N5 N 0.2703(5) 0.5270(4) 1.1719(3) 0.0109(6) Uani 1 1 d . .
N3 N 0.0675(4) 0.1678(4) 0.7639(3) 0.0093(5) Uani 1 1 d . .
N2 N 0.1472(4) 0.3362(4) 0.7530(3) 0.0090(5) Uani 1 1 d . .
N4 N 0.1069(4) 0.2172(4) 0.9266(3) 0.0077(5) Uani 1 1 d . .
C1 C 0.2127(5) 0.4200(4) 1.0071(4) 0.0078(6) Uani 1 1 d . .
H5B H 0.290(6) 0.474(6) 1.233(5) 0.016(10) Uiso 1 1 d . .
H5A H 0.357(7) 0.653(6) 1.210(5) 0.020(10) Uiso 1 1 d . .
H4A H -0.209(8) 0.227(7) 1.105(6) 0.039(14) Uiso 1 1 d . .
H4B H -0.256(7) 0.096(7) 1.162(5) 0.031(13) Uiso 1 1 d . .
H2A H 0.261(7) 0.423(5) 0.590(4) 0.017(9) Uiso 1 1 d . .
H2C H 0.016(6) 0.422(6) 0.591(4) 0.019(10) Uiso 1 1 d . .
H2B H 0.074(6) 0.217(6) 0.509(5) 0.022(10) Uiso 1 1 d . .
loop_
_atom_site_aniso_label
_atom_site_aniso_U_11
_atom_site_aniso_U_22
_atom_site_aniso_U_33
_atom_site_aniso_U_23
_atom_site_aniso_U_13
_atom_site_aniso_U_12
Cu1 0.0103(3) 0.0053(3) 0.0081(3) 0.0040(2) 0.0042(2) 0.0031(2)
Cl1 0.0103(4) 0.0106(4) 0.0094(4) 0.0052(3) 0.0026(3) 0.0026(3)
O1 0.0194(13) 0.0123(11) 0.0146(11) 0.0080(10) -0.0020(10) 0.0057(10)
O2 0.0184(13) 0.0191(13) 0.0127(12) 0.0033(10) -0.0029(10) 0.0000(10)
O3 0.0190(13) 0.0113(11) 0.0206(12) 0.0056(10) 0.0113(11) 0.0065(10)
C2 0.0174(18) 0.0159(18) 0.0112(17) 0.0106(15) 0.0065(14) 0.0048(15)
O4 0.0151(13) 0.0097(11) 0.0147(12) 0.0082(10) 0.0085(10) 0.0058(10)
N1 0.0109(13) 0.0082(13) 0.0096(13) 0.0040(11) 0.0033(11) 0.0033(11)
N5 0.0138(15) 0.0095(14) 0.0076(13) 0.0036(12) 0.0017(12) 0.0014(12)
N3 0.0103(13) 0.0103(13) 0.0087(13) 0.0055(11) 0.0034(11) 0.0027(11)
N2 0.0120(14) 0.0089(13) 0.0097(13) 0.0067(11) 0.0048(11) 0.0040(11)
N4 0.0103(13) 0.0068(12) 0.0060(12) 0.0033(10) 0.0015(10) 0.0021(10)
C1 0.0060(14) 0.0069(14) 0.0139(16) 0.0067(13) 0.0033(12) 0.0039(12)
loop_
_atom_type_symbol
_atom_type_description
_atom_type_scat_dispersion_real
_atom_type_scat_dispersion_imag
_atom_type_scat_source
C C 0.0033 0.0016 'International Tables Vol C Tables 4.2.6.8 and 6.1.1.4'
H H 0.0000 0.0000 'International Tables Vol C Tables 4.2.6.8 and 6.1.1.4'
N N 0.0061 0.0033 'International Tables Vol C Tables 4.2.6.8 and 6.1.1.4'
O O 0.0106 0.0060 'International Tables Vol C Tables 4.2.6.8 and 6.1.1.4'
Cl Cl 0.1484 0.1585 'International Tables Vol C Tables 4.2.6.8 and 6.1.1.4'
Cu Cu 0.3201 1.2651 'International Tables Vol C Tables 4.2.6.8 and 6.1.1.4'
loop_
_geom_angle_atom_site_label_1
_geom_angle_atom_site_label_2
_geom_angle_atom_site_label_3
_geom_angle
_geom_angle_site_symmetry_1
_geom_angle_site_symmetry_3
O4 Cu1 O4 180.00(9) 2_557 .
O4 Cu1 N4 91.09(10) 2_557 2_557
O4 Cu1 N4 88.91(10) . 2_557
O4 Cu1 N4 88.91(10) 2_557 .
O4 Cu1 N4 91.09(10) . .
N4 Cu1 N4 180.00(11) 2_557 .
O4 Cu1 O1 91.44(9) 2_557 .
O4 Cu1 O1 88.56(9) . .
N4 Cu1 O1 93.12(9) 2_557 .
N4 Cu1 O1 86.88(9) . .
O4 Cu1 O1 88.56(9) 2_557 2_557
O4 Cu1 O1 91.44(9) . 2_557
N4 Cu1 O1 86.88(9) 2_557 2_557
N4 Cu1 O1 93.12(9) . 2_557
O1 Cu1 O1 180.0 . 2_557
O2 Cl1 O1 107.17(14) . .
O2 Cl1 O3 107.70(14) . .
O1 Cl1 O3 106.07(13) . .
Cl1 O1 Cu1 125.69(12) . .
N2 C2 H2A 110(2) . .
N2 C2 H2C 105(2) . .
H2A C2 H2C 111(3) . .
N2 C2 H2B 108(2) . .
H2A C2 H2B 111(3) . .
H2C C2 H2B 112(3) . .
Cu1 O4 H4A 119(3) . .
Cu1 O4 H4B 117(3) . .
H4A O4 H4B 107(4) . .
C1 N1 N2 102.0(2) . .
C1 N5 H5B 121(3) . .
C1 N5 H5A 116(2) . .
H5B N5 H5A 114(4) . .
N2 N3 N4 105.2(2) . .
N3 N2 N1 115.2(2) . .
N3 N2 C2 122.2(3) . .
N1 N2 C2 122.5(3) . .
N3 N4 C1 107.3(2) . .
N3 N4 Cu1 118.54(19) . .
C1 N4 Cu1 134.1(2) . .
N5 C1 N1 124.7(3) . .
N5 C1 N4 124.8(3) . .
N1 C1 N4 110.4(3) . .
loop_
_geom_bond_atom_site_label_1
_geom_bond_atom_site_label_2
_geom_bond_distance
_geom_bond_site_symmetry_2
Cu1 O4 1.983(2) 2_557
Cu1 O4 1.983(2) .
Cu1 N4 1.995(3) 2_557
Cu1 N4 1.995(3) .
Cu1 O1 2.422(2) .
Cu1 O1 2.422(2) 2_557
Cl1 O2 1.466(2) .
Cl1 O1 1.490(2) .
Cl1 O3 1.495(2) .
C2 N2 1.458(4) .
C2 H2A 0.95(4) .
C2 H2C 1.01(4) .
C2 H2B 0.94(4) .
O4 H4A 0.77(5) .
O4 H4B 0.81(5) .
N1 C1 1.338(4) .
N1 N2 1.338(4) .
N5 C1 1.338(4) .
N5 H5B 0.81(4) .
N5 H5A 0.88(4) .
N3 N2 1.293(4) .
N3 N4 1.337(4) .
N4 C1 1.358(4) .
loop_
_geom_hbond_atom_site_label_D
_geom_hbond_atom_site_label_H
_geom_hbond_atom_site_label_A
_geom_hbond_distance_DH
_geom_hbond_distance_HA
_geom_hbond_distance_DA
_geom_hbond_angle_DHA
_geom_hbond_site_symmetry_A
N5 H5B O1 0.81(4) 2.26(4) 2.939(4) 142(3) .
N5 H5B O2 0.81(4) 2.51(4) 2.865(4) 108(3) 2_668
N5 H5A Cl1 0.88(4) 2.98(4) 3.768(3) 150(3) 1_565
N5 H5A O3 0.88(4) 2.14(4) 2.992(4) 162(3) 1_565
O4 H4A N1 0.77(5) 2.13(5) 2.863(4) 159(5) 2_567
O4 H4B Cl1 0.81(5) 2.86(5) 3.577(2) 150(4) 1_455
O4 H4B O3 0.81(5) 1.97(5) 2.774(3) 179(4) 1_455
C2 H2C O2 1.01(4) 2.57(4) 3.272(4) 127(3) 1_454
N5 H5B O1 0.81(4) 2.26(4) 2.939(4) 142(3) .
N5 H5B O2 0.81(4) 2.51(4) 2.865(4) 108(3) 2_668
N5 H5A Cl1 0.88(4) 2.98(4) 3.768(3) 150(3) 1_565
N5 H5A O3 0.88(4) 2.14(4) 2.992(4) 162(3) 1_565
O4 H4A N1 0.77(5) 2.13(5) 2.863(4) 159(5) 2_567
O4 H4B Cl1 0.81(5) 2.86(5) 3.577(2) 150(4) 1_455
O4 H4B O3 0.81(5) 1.97(5) 2.774(3) 179(4) 1_455
C2 H2C O2 1.01(4) 2.57(4) 3.272(4) 127(3) 1_454
loop_
_geom_torsion_atom_site_label_1
_geom_torsion_atom_site_label_2
_geom_torsion_atom_site_label_3
_geom_torsion_atom_site_label_4
_geom_torsion
O2 Cl1 O1 Cu1 -176.63(15)
O3 Cl1 O1 Cu1 68.53(18)
N4 N3 N2 N1 0.0(3)
N4 N3 N2 C2 -176.1(3)
C1 N1 N2 N3 0.3(3)
C1 N1 N2 C2 176.3(3)
N2 N3 N4 C1 -0.2(3)
N2 N3 N4 Cu1 177.93(18)
N2 N1 C1 N5 -176.7(3)
N2 N1 C1 N4 -0.4(3)
N3 N4 C1 N5 176.7(3)
Cu1 N4 C1 N5 -1.1(5)
N3 N4 C1 N1 0.4(3)
Cu1 N4 C1 N1 -177.3(2)
