#------------------------------------------------------------------------------
#$Date: 2019-11-25 23:17:32 +0200 (Mon, 25 Nov 2019) $
#$Revision: 242034 $
#$URL: file:///home/coder/svn-repositories/cod/cif/4/13/19/4131992.cif $
#------------------------------------------------------------------------------
#
# This file is available in the Crystallography Open Database (COD),
# http://www.crystallography.net/
#
# All data on this site have been placed in the public domain by the
# contributors.
#
data_4131992
loop_
_publ_author_name
'Karak, Suvendu'
'Kumar, Sushil'
'Pachfule, Pradip'
'Banerjee, Rahul'
_publ_section_title
;
 Porosity Prediction through Hydrogen Bonding in Covalent Organic
 Frameworks.
;
_journal_issue                   15
_journal_name_full               'Journal of the American Chemical Society'
_journal_page_first              5138
_journal_page_last               5145
_journal_paper_doi               10.1021/jacs.7b13558
_journal_volume                  140
_journal_year                    2018
_chemical_formula_moiety         'C6 H4 N O5 S, C6 H7 Cl N3 O2'
_chemical_formula_sum            'C12 H11 Cl N4 O7 S'
_chemical_formula_weight         390.76
_space_group_crystal_system      triclinic
_space_group_IT_number           2
_space_group_name_Hall           '-P 1'
_space_group_name_H-M_alt        'P -1'
_atom_sites_solution_hydrogens   mixed
_audit_creation_method           SHELXL-2016/4
_cell_angle_alpha                74.226(5)
_cell_angle_beta                 82.828(4)
_cell_angle_gamma                72.285(4)
_cell_formula_units_Z            2
_cell_length_a                   7.3874(4)
_cell_length_b                   9.6593(5)
_cell_length_c                   11.6166(7)
_cell_measurement_reflns_used    2657
_cell_measurement_temperature    293(2)
_cell_measurement_theta_max      25.00
_cell_measurement_theta_min      3.00
_cell_volume                     759.08(8)
_computing_structure_refinement  'SHELXL-2016/4 (Sheldrick, 2016)'
_diffrn_ambient_temperature      293(2)
_diffrn_measured_fraction_theta_full 0.997
_diffrn_measured_fraction_theta_max 0.997
_diffrn_measurement_device_type  'Supernova (Mo) X-ray source'
_diffrn_measurement_method       '\w scans'
_diffrn_radiation_type           MoK\a
_diffrn_radiation_wavelength     0.71073
_diffrn_reflns_av_R_equivalents  0.0673
_diffrn_reflns_av_unetI/netI     0.0794
_diffrn_reflns_Laue_measured_fraction_full 0.997
_diffrn_reflns_Laue_measured_fraction_max 0.997
_diffrn_reflns_limit_h_max       8
_diffrn_reflns_limit_h_min       -8
_diffrn_reflns_limit_k_max       11
_diffrn_reflns_limit_k_min       -11
_diffrn_reflns_limit_l_max       13
_diffrn_reflns_limit_l_min       -11
_diffrn_reflns_number            4815
_diffrn_reflns_point_group_measured_fraction_full 0.997
_diffrn_reflns_point_group_measured_fraction_max 0.997
_diffrn_reflns_theta_full        24.990
_diffrn_reflns_theta_max         24.990
_diffrn_reflns_theta_min         2.898
_diffrn_source                   'fine focus sealed tube'
_exptl_absorpt_coefficient_mu    0.438
_exptl_absorpt_correction_T_max  0.920
_exptl_absorpt_correction_T_min  0.900
_exptl_absorpt_correction_type   multi-scan
_exptl_absorpt_process_details   crysalispro
_exptl_crystal_colour            colorless
_exptl_crystal_density_diffrn    1.710
_exptl_crystal_description       block
_exptl_crystal_F_000             400
_exptl_crystal_size_max          0.240
_exptl_crystal_size_mid          0.220
_exptl_crystal_size_min          0.190
_refine_diff_density_max         0.874
_refine_diff_density_min         -0.545
_refine_diff_density_rms         0.144
_refine_ls_extinction_method     none
_refine_ls_goodness_of_fit_ref   0.981
_refine_ls_hydrogen_treatment    constr
_refine_ls_matrix_type           full
_refine_ls_number_parameters     228
_refine_ls_number_reflns         2657
_refine_ls_number_restraints     1
_refine_ls_restrained_S_all      0.984
_refine_ls_R_factor_all          0.0896
_refine_ls_R_factor_gt           0.0720
_refine_ls_shift/su_max          0.000
_refine_ls_shift/su_mean         0.000
_refine_ls_structure_factor_coef Fsqd
_refine_ls_weighting_details
'w=1/[\s^2^(Fo^2^)+(0.1645P)^2^] where P=(Fo^2^+2Fc^2^)/3'
_refine_ls_weighting_scheme      calc
_refine_ls_wR_factor_gt          0.2019
_refine_ls_wR_factor_ref         0.2270
_reflns_Friedel_coverage         0.000
_reflns_number_gt                2012
_reflns_number_total             2657
_reflns_threshold_expression     'I > 2\s(I)'
_cod_data_source_file            ja7b13558_si_004.cif
_cod_data_source_block           NBSA-Pa-Cl-NO2
_cod_database_code               4131992
_shelx_shelxl_version_number     2016/4
_shelx_space_group_comment
;
The symmetry employed for this shelxl refinement is uniquely defined
by the following loop, which should always be used as a source of
symmetry information in preference to the above space-group names.
They are only intended as comments.
;
_shelx_estimated_absorpt_t_min   0.902
_shelx_estimated_absorpt_t_max   0.921
_shelx_res_file
;
TITL 49 in P-1 #2
 shelx.res created by SHELXL-2016/4 at 19:34:30 on 21-Mar-2017
CELL 0.71073 7.3874 9.6593 11.6166 74.226 82.828 72.285
ZERR 2 0.0004 0.0005 0.0007 0.005 0.004 0.004
LATT 1

SFAC C  H  N O  S Cl
UNIT 24 22 8 14 2 2
L.S. 15
PLAN  20
SIZE 0.19 0.22 0.24
TEMP 20
DFIX 0.950 0.020 H2A N2
BOND
CONF
fmap 2
acta
MERG 2
OMIT 0 50
REM <HKL>C:/Users/POSTDOC/Desktop/N-N%20distance/olex2_49/49.hkl</HKL>

WGHT    0.164500
FVAR       5.00958
C1    1    0.390120    0.890577    0.696971    11.00000    0.02317    0.03745 =
         0.02994   -0.01435   -0.00434   -0.00359
C2    1    0.280009    1.001587    0.610581    11.00000    0.03368    0.03783 =
         0.03526   -0.00746   -0.00325   -0.00576
AFIX  43
H2    2    0.230447    1.098809    0.620047    11.00000   -1.20000
AFIX   0
C3    1    0.244539    0.965552    0.509294    11.00000    0.03987    0.04797 =
         0.02480   -0.00245   -0.01190   -0.00662
AFIX  43
H3    2    0.169786    1.038223    0.450261    11.00000   -1.20000
AFIX   0
C4    1    0.321650    0.820445    0.497301    11.00000    0.03223    0.04705 =
         0.02643   -0.01198    0.00031   -0.01589
C5    1    0.440083    0.709936    0.580735    11.00000    0.04411    0.03631 =
         0.03692   -0.01165   -0.00519   -0.00746
AFIX  43
H5    2    0.496073    0.614321    0.568955    11.00000   -1.20000
AFIX   0
C6    1    0.471897    0.746373    0.681244    11.00000    0.04004    0.03107 =
         0.03303   -0.00653   -0.00850   -0.00424
AFIX  43
H6    2    0.548819    0.674019    0.739375    11.00000   -1.20000
AFIX   0

C7    1    0.912391    0.417572    0.224652    11.00000    0.03701    0.04407 =
         0.02472   -0.01648   -0.00230   -0.01288
C8    1    0.781846    0.521244    0.140633    11.00000    0.03018    0.03378 =
         0.03329   -0.01045   -0.00042   -0.00795
C9    1    0.764846    0.476477    0.037887    11.00000    0.03098    0.03480 =
         0.03330   -0.00601   -0.01340   -0.00649
AFIX  43
H9    2    0.680454    0.541298   -0.019537    11.00000   -1.20000
AFIX   0
C10   1    0.870278    0.339037    0.020604    11.00000    0.02698    0.03443 =
         0.02271   -0.00811   -0.00646   -0.01094
C11   1    0.999386    0.239222    0.103922    11.00000    0.02035    0.03160 =
         0.02732   -0.00931   -0.00485   -0.00427
C12   1    1.018789    0.277803    0.204982    11.00000    0.03032    0.03829 =
         0.02323   -0.00836   -0.00722   -0.00891
AFIX  43
H12   2    1.103309    0.210974    0.261549    11.00000   -1.20000
AFIX   0

N1    3    0.273059    0.781985    0.393878    11.00000    0.05029    0.06848 =
         0.02645   -0.01736    0.00205   -0.02593
N2    3    0.678085    0.660282    0.148868    11.00000    0.05269    0.04926 =
         0.04855   -0.02494   -0.01045    0.00177
AFIX   7
H2A   2    0.568659    0.683755    0.118077    11.00000   -1.20000
H2B   2    0.659892    0.661494    0.223654    11.00000   -1.20000
AFIX   0
N3    3    1.106811    0.091316    0.088437    11.00000    0.02837    0.03720 =
         0.02832   -0.01255   -0.00867   -0.00687
AFIX 137
H3A   2    1.138674    0.097061    0.011178    11.00000   -1.20000
H3B   2    1.035791    0.028329    0.114833    11.00000   -1.20000
H3C   2    1.211672    0.058093    0.129829    11.00000   -1.20000
AFIX   0
N4    3    0.936888    0.446634    0.338174    11.00000    0.05572    0.05195 =
         0.04220   -0.01877   -0.00052   -0.00153

O1    4    0.144359    0.873330    0.331638    11.00000    0.04676    0.09083 =
         0.03174   -0.01997   -0.01023   -0.01537
O2    4    0.359295    0.660647    0.374118    11.00000    0.09393    0.06874 =
         0.04768   -0.03007   -0.01285   -0.01310
O3    4    0.510542    0.796358    0.912559    11.00000    0.05971    0.04379 =
         0.03209   -0.00733   -0.01690   -0.00035
O4    4    0.540136    1.035725    0.797188    11.00000    0.03764    0.05500 =
         0.04792   -0.01862   -0.00741   -0.01545
O5    4    0.229144    1.009064    0.870893    11.00000    0.02993    0.05349 =
         0.03489   -0.02271   -0.00040   -0.00874
O6    4    1.044603    0.349510    0.406154    11.00000    0.10635    0.09734 =
         0.04785   -0.03259   -0.04151    0.00109
O7    4    0.847265    0.565915    0.356379    11.00000    0.10044    0.07959 =
         0.05780   -0.04648   -0.02601    0.00910
S1    5    0.420864    0.935604    0.830314    11.00000    0.02485    0.03461 =
         0.02607   -0.00991   -0.00568   -0.00484
CL1   6    0.844344    0.293632   -0.110282    11.00000    0.04842    0.04917 =
         0.02986   -0.01482   -0.01435   -0.00981
HKLF 4




REM  49 in P-1 #2
REM R1 =  0.0720 for    2012 Fo > 4sig(Fo)  and  0.0896 for all    2657 data
REM    228 parameters refined using      1 restraints

END

WGHT      0.1495      0.0000

REM Highest difference peak  0.874,  deepest hole -0.545,  1-sigma level  0.144
Q1    1   0.4271  0.9171  0.7479  11.00000  0.05    0.87
Q2    1   0.8128  0.3142 -0.0353  11.00000  0.05    0.77
Q3    1   0.8746  0.1836 -0.0813  11.00000  0.05    0.76
Q4    1   0.3995  0.9408  0.9247  11.00000  0.05    0.58
Q5    1   0.9906  0.3243  0.4157  11.00000  0.05    0.58
Q6    1   0.4483  0.9496  1.0106  11.00000  0.05    0.50
Q7    1   0.5049  1.0360  0.8589  11.00000  0.05    0.48
Q8    1   0.4684  0.8209  0.8680  11.00000  0.05    0.48
Q9    1   0.3034  0.9780  0.5417  11.00000  0.05    0.46
Q10   1   0.7113  0.2762 -0.0883  11.00000  0.05    0.45
Q11   1   0.7847  0.4276 -0.1464  11.00000  0.05    0.45
Q12   1   0.7774  0.1947 -0.1339  11.00000  0.05    0.44
Q13   1   0.9199  0.3893 -0.0978  11.00000  0.05    0.43
Q14   1   0.2757  0.9787  0.5710  11.00000  0.05    0.43
Q15   1   0.4926  0.7950  0.8282  11.00000  0.05    0.43
Q16   1   0.4251  0.7712  0.7235  11.00000  0.05    0.42
Q17   1   0.8960  0.4306  0.5254  11.00000  0.05    0.42
Q18   1   0.4644  0.8786  0.6809  11.00000  0.05    0.42
Q19   1   0.4177  1.0419  0.8034  11.00000  0.05    0.40
Q20   1   0.5625  0.9618  0.8068  11.00000  0.05    0.39
;
_shelx_res_checksum              14057
_shelx_hkl_file
;
   0   0   2 1019.36 91.6211   3
   0   0   3 16479.5 456.128   3
   0   0   4 204656. 1878.49   3
   0   0   5 1151.65 164.894   3
   0   0   6 5847.19 410.166   3
   0   0   7 2994.62 323.672   3
   0   0   8 3185.08 366.553   3
   0   0   9 759.758 198.054   3
   0   0  10 10187.4 773.196   3
   0   0  11 791.871 241.659   3
   0   0  11 577.079 207.340   2
   0   0  12 1068.45 305.315   2
   0   0  12 1511.52 360.992   3
   0   0  13 1139.49 340.309   3
   0   0  13 668.661 253.467   2
   0   0  14 2240.47 516.705   3
   0   0  14 1847.55 468.248   2
   0  -1  13 1803.38 433.699   2
   0  -1  13 1640.60 423.858   3
   0  -1  12 1989.76 431.592   3
   0  -1  12 1774.23 396.080   2
   0  -1  11 12.0573 53.5806   2
   0  -1  11-55.0418 55.5452   3
   0  -1  10 1749.29 343.160   2
   0  -1  10 1979.05 370.735   3
   0  -1   9 23103.0 1132.36   2
   0  -1   9 24981.9 1191.97   3
   0  -1   8 921.484 215.870   2
   0  -1   8 871.566 210.097   3
   0  -1   7 6774.61 519.058   2
   0  -1   7 6458.01 510.113   3
   0  -1   6 8100.59 525.405   3
   0  -1   5 6278.41 418.982   3
   0  -1   4 41.1064 38.4166   3
   0  -1   3 95643.8 1263.36   2
   0  -1   3 95926.4 1360.73   3
   0  -1   2 442.277 82.0997   3
   0  -1   2 363.735 66.1906   2
   0   1  -1 7233.06 317.095   4
   0  -1  -2 9440.43 305.505   5
   0   1   3 46803.3 732.914   3
   0   1   4 222.722 63.7508   3
   0   1   5 71837.7 547.408   6
   0   1   5 80389.4 1277.11   3
   0   1   6 1983.48 225.746   3
   0   1   7 10188.9 566.809   3
   0   1   8 8647.24 570.557   3
   0   1   9 371.578 136.112   3
   0   1  10 3874.67 457.463   3
   0   1  11 4176.51 520.580   3
   0   1  12 3066.75 480.986   3
   0   1  13 68.7368 74.1783   2
   0   1  13-208.810 139.735   3
   0   1  14 2296.39 509.130   3
   0   1  14 3010.15 592.135   2
   0  -2  13 994.394 337.786   2
   0  -2  13 1229.64 397.940   3
   0  -2  12 610.323 243.204   2
   0  -2  12 461.354 209.472   3
   0  -2  11 394.723 178.881   2
   0  -2  11 559.798 219.740   3
   0  -2  10 24540.4 1305.92   2
   0  -2  10 26007.0 1421.95   3
   0  -2   9 6933.61 649.816   2
   0  -2   9 7065.96 690.131   3
   0  -2   8 689.523 188.785   2
   0  -2   8 714.152 206.911   3
   0   2  -7 502.392 57.9806   6
   0  -2   7 815.258 203.614   3
   0  -2   7 573.984 158.555   2
   0  -2   6 4340.90 428.217   3
   0  -2   6 3607.92 365.571   2
   0  -2   5 219.614 93.9542   3
   0  -2   5 129.417 60.4657   2
   0  -2   4 8743.44 487.057   2
   0  -2   4 8699.12 535.545   3
   0   2  -3 1558.93 218.703   4
   0  -2   3 1831.49 198.113   2
   0  -2   3 2117.00 250.015   3
   0   2  -2 30004.6 919.889   4
   0  -2   2 30570.4 743.348   2
   0   2  -2 30846.6 687.802   2
   0  -2   2 31457.0 996.891   3
   0  -2   1 14997.9 641.256   2
   0  -2   1 15000.6 751.945   3
   0   2  -1 15240.9 599.668   4
   0   2   0 869.159 130.697   4
   0  -2   0 1066.67 160.785   2
   0  -2  -1 9645.15 335.941   5
   0   2   1 9632.70 397.374   4
   0  -2  -2 180962. 1546.19   5
   0   2   2 182828. 1733.98   4
   0  -2  -3 41575.9 797.484   5
   0  -2  -4 77.9917 32.7014   5
   0   2   4 208.773 58.3375   3
   0   2   5 80134.1 1271.31   3
   0   2   6 129514. 1854.45   3
   0   2   7 1239.54 195.861   3
   0   2   7 989.150 94.3100   6
   0   2   8 549.990 66.7421   6
   0   2   8 587.157 145.768   3
   0   2   9 7888.42 582.436   3
   0   2  10 63.8824 52.6401   3
   0   2  11 54.7877 44.3047   3
   0   2  12 269.192 139.104   3
   0   2  13 373.407 178.796   3
   0   2  14 183.153 122.956   3
   0   2  14 446.842 243.017   2
   0  -3  12-38.4413 78.1182   3
   0  -3  12 104.552 93.8040   2
   0  -3  11 76.2163 69.1159   2
   0  -3  11 178.098 124.263   3
   0  -3  10-58.2393 47.4799   3
   0  -3  10 56.4437 71.1630   2
   0  -3   9 387.723 159.402   2
   0  -3   9 360.292 172.994   3
   0  -3   8 6871.32 697.630   3
   0  -3   8 6801.10 616.877   2
   0  -3   7 2953.80 437.603   3
   0  -3   7 3156.04 391.508   2
   0   3  -7 2898.35 187.499   6
   0  -3   6 1182.45 220.637   2
   0  -3   6 1258.04 266.725   3
   0  -3   5 9778.01 593.403   2
   0  -3   5 11688.8 783.891   3
   0   3  -4 17196.0 868.803   4
   0  -3   4 19408.3 1025.26   3
   0  -3   4 18205.5 760.930   2
   0  -3   3 14051.3 893.053   3
   0   3  -3 14106.9 760.855   4
   0  -3   3 14241.1 645.683   2
   0  -3   2 7713.38 538.879   2
   0  -3   2 7621.94 675.448   3
   0   3  -2 9256.68 585.482   4
   0   3  -2 9703.55 442.571   2
   0   3  -1 9594.76 433.751   2
   0  -3   1 8959.46 685.366   3
   0   3  -1 8330.35 525.716   4
   0   3   0 67122.7 1424.17   4
   0  -3   0 71958.2 1415.09   5
   0   3   0 68898.1 1798.41   3
   0   3   1 107.977 56.1974   4
   0  -3  -1 63.4533 36.8716   5
   0   3   2 21060.4 718.092   4
   0  -3  -2 21614.8 624.209   5
   0   3   3 65368.0 1298.30   4
   0  -3  -3 64862.4 1125.00   5
   0  -3  -4 9199.90 434.818   5
   0  -3  -5 21464.4 735.475   5
   0   3   6 260.878 86.4122   3
   0   3   7 8989.46 537.686   3
   0   3   8 60.5777 35.8330   3
   0   3   9 138.543 89.4385   3
   0   3  10 8379.83 658.634   3
   0   3  11 82.6975 83.7122   3
   0   3  12 1370.90 312.230   3
   0   3  13 5604.79 685.142   3
   0   3  14 3066.77 551.006   3
   0   3  15 265.580 198.194   3
   0  -4  12 1155.13 345.149   2
   0  -4  11 1826.42 418.854   2
   0  -4  11 2209.10 554.539   3
   0  -4  10 278.689 161.769   2
   0  -4  10 280.848 181.853   3
   0  -4   9 90.3184 110.429   3
   0  -4   9 48.4755 56.4434   2
   0  -4   8 13073.5 915.499   2
   0  -4   8 12896.4 1136.37   3
   0  -4   7 6852.40 797.983   3
   0  -4   7 6480.32 604.458   2
   0  -4   6 66.4710 98.6841   3
   0  -4   6-17.3329 59.4395   2
   0  -4   5 1937.69 415.479   3
   0  -4   5 2105.98 315.315   2
   0   4  -4 30942.9 1280.23   4
   0  -4   4 28081.7 1538.39   3
   0  -4   4 30694.4 1213.21   2
   0  -4   3 12855.1 1042.28   3
   0  -4   3 11662.0 858.112   2
   0   4  -3 15025.3 874.507   4
   0  -4   2 3355.74 509.737   3
   0   4  -2 4008.94 429.099   4
   0   4  -1 7071.11 423.754   2
   0   4  -1 6585.38 532.198   4
   0   4   0 20448.1 902.904   4
   0  -4   0 24361.0 928.791   5
   0  -4  -1 12524.5 577.945   5
   0   4   1 11016.4 623.517   4
   0   4   2 20823.6 841.320   4
   0  -4  -2 22109.9 738.353   5
   0  -4  -3 14149.4 583.771   5
   0   4   3 13588.4 668.609   4
   0   4   4 2086.34 272.384   4
   0  -4  -4 2062.73 228.062   5
   0   4   5 664.049 160.797   4
   0  -4  -5 658.088 133.854   5
   0  -4  -6 6859.00 459.665   5
   0   4   7 14438.9 713.022   3
   0  -4  -7 12254.1 668.816   5
   0   4   8 8903.69 599.286   3
   0   4   9 3170.25 387.912   3
   0   4  10 16019.4 935.690   3
   0   4  11 2209.83 367.285   3
   0   4  12 677.423 220.249   3
   0   4  13 5963.12 712.995   3
   0   4  14 2327.32 492.851   3
   0   4  15 250.189 159.845   3
   0  -5  11 917.863 403.371   3
   0  -5  11 1083.00 350.618   2
   0  -5  10 649.678 320.202   3
   0  -5  10 1142.78 342.633   2
   0  -5   9 776.929 342.075   3
   0  -5   9 1182.62 328.114   2
   0  -5   8 550.221 209.940   2
   0  -5   8 318.680 194.868   3
   0  -5   7-88.0764 237.971   3
   0  -5   7-45.8188 165.697   2
   0  -5   6 285.780 233.069   3
   0  -5   6 320.372 150.114   2
   0  -5   5 1371.95 371.463   2
   0  -5   5 1348.35 471.516   3
   0   5  -5 501.548 175.111   4
   0  -5   4 941.950 324.498   2
   0   5  -4 1696.03 321.360   4
   0  -5   4 1027.90 333.088   3
   0  -5   3 82.0620 102.091   3
   0   5  -3 61.7646 35.1957   4
   0   5  -2 4451.67 491.000   4
   0  -5   2 5463.13 692.693   3
   0   5  -1 59.8822 72.9909   4
   0  -5   1 158.806 135.711   2
   0   5   0 7318.62 598.130   4
   0  -5   0 9487.13 635.590   5
   0  -5  -1 58664.3 1403.63   5
   0   5   1 54414.5 1602.10   4
   0   5   2 577.779 156.153   4
   0  -5  -2 642.842 141.455   5
   0   5   3-21.7246 54.7020   4
   0  -5  -3 31.6644 30.6259   5
   0  -5  -4 2466.56 281.311   5
   0   5   4 2314.77 314.008   4
   0   5   5 12664.2 756.117   4
   0  -5  -5 12362.6 615.216   5
   0  -5  -6 113.667 75.1633   5
   0   5   6 101.410 65.7978   4
   0  -5  -7 26099.8 1005.73   5
   0   5   7 27771.0 1265.25   4
   0  -5  -8 3761.71 408.128   5
   0   5   8 5664.08 502.643   3
   0   5   9 1319.08 256.661   3
   0   5  10 1043.97 245.094   3
   0   5  11 1018.77 267.733   3
   0   5  12 243.078 141.349   3
   0   5  13 263.431 163.471   3
   0   5  14 89.9742 54.1681   3
   0   5  15 1907.04 482.434   3
   0  -6  11 622.518 312.707   2
   0  -6  10-33.6605 153.236   3
   0  -6  10 148.217 146.429   2
   0  -6   9-72.4250 230.348   3
   0  -6   9-77.3235 112.183   2
   0  -6   8 607.346 341.367   3
   0  -6   8 529.496 286.495   2
   0  -6   7 0.83560 54.6894   2
   0  -6   7-141.605 153.047   3
   0  -6   6 2314.83 588.593   2
   0  -6   6 3552.65 734.627   3
   0  -6   5 400.955 265.878   2
   0  -6   5 1236.03 428.108   3
   0   6  -5 1050.59 276.095   4
   0   6  -4 403.280 139.560   4
   0  -6   4 484.346 255.820   3
   0  -6   3 6522.37 844.408   3
   0   6  -3 5773.65 647.412   4
   0  -6   2 22843.5 1688.89   2
   0   6  -2 38852.1 1599.30   4
   0  -6   1 876.787 259.258   5
   0   6  -1 293.880 163.199   4
   0  -6   1 465.066 168.616   2
   0   6   0 149.136 107.922   4
   0  -6   0 13.6401 41.4298   5
   0  -6  -1 2611.46 327.042   5
   0   6   1 2356.59 375.659   4
   0  -6  -2 399.526 114.404   5
   0   6   2 305.128 115.465   4
   0  -6  -3 8721.58 569.507   5
   0   6   3 7647.62 635.954   4
   0   6   4 757.722 197.964   4
   0  -6  -4 1152.74 207.590   5
   0   6   5 6210.15 578.324   4
   0  -6  -5 6949.93 515.245   5
   0  -6  -6 5506.83 448.459   5
   0   6   6 5660.00 575.982   4
   0  -6  -7 7941.81 571.830   5
   0   6   7 7155.05 670.600   4
   0  -6  -8 16387.8 872.467   5
   0   6   8 16224.2 1069.37   4
   0   6   9 3878.51 466.996   3
   0  -6  -9 2818.59 386.777   5
   0   6   9 3117.58 502.441   4
   0   6  10 675.327 202.675   3
   0   6  11 2538.17 422.095   3
   0   6  12 9107.44 866.389   3
   0   6  13 5964.82 742.393   3
   0   6  14 290.386 189.039   3
   0   6  15 2731.12 578.390   3
   0  -7  10 181.600 307.054   2
   0  -7   9 2789.22 918.552   2
   0  -7   9 3182.30 824.379   3
   0  -7   8 810.779 433.950   2
   0  -7   8 2139.79 633.306   3
   0  -7   7 551.840 517.790   2
   0  -7   7 191.628 180.599   3
   0  -7   6-30.9402 134.662   3
   0  -7   5 165.026 230.156   2
   0   7  -5 144.524 42.9453   4
   0  -7   5 448.804 291.804   3
   0  -7   4-506.859 502.637   2
   0   7  -4 137.490 98.5003   4
   0  -7   3 189.901 225.522   2
   0   7  -3 1066.53 302.729   4
   0   7  -2 3348.03 510.658   4
   0  -7   2 3614.68 544.996   2
   0  -7   2 3192.41 516.788   5
   0  -7   1 14562.4 975.802   5
   0   7  -1 11890.9 938.385   4
   0   7   0 91.4578 103.263   4
   0  -7   0 176.311 91.8387   5
   0  -7  -1 242.203 113.484   5
   0   7   1 437.732 168.292   4
   0  -7  -2 596.661 160.022   5
   0   7   2 614.047 201.648   4
   0  -7  -3 1837.57 285.499   5
   0   7   3 2068.29 367.692   4
   0  -7  -4 8.27708 40.1215   5
   0   7   4 104.582 61.3604   4
   0   7   5 8617.41 751.165   4
   0  -7  -5 8951.40 639.024   5
   0  -7  -6 5050.15 470.201   5
   0   7   6 5557.29 610.300   4
   0  -7  -7 7769.63 585.409   5
   0   7   7 7668.78 741.765   4
   0   7   8-16.3333 107.923   4
   0  -7  -8 3.73268 39.6925   5
   0   7   9 10385.5 949.820   4
   0  -7  -9 11430.5 801.718   5
   0  -7 -10 1434.15 297.854   5
   0   7  10 1784.20 348.625   3
   0   7  10 844.109 282.215   4
   0   7  11-5.28134 81.8351   4
   0   7  11 42.1745 76.3637   3
   0   7  12 5424.08 831.631   4
   0   7  12 6542.29 759.555   3
   0   7  13 11007.7 1046.98   3
   0   7  13 10457.2 1250.73   4
   0   7  14 706.842 355.101   4
   0   7  14 804.437 306.184   3
   0  -8   7 32.0658 108.846   3
   0  -8   6 31.6357 448.336   2
   0  -8   5 473.405 424.575   2
   0   8  -5 358.771 210.236   4
   0   8  -4 2318.65 469.634   4
   0  -8   4 2020.01 600.329   2
   0   8  -3 437.148 236.335   4
   0  -8   3 745.638 295.117   2
   0  -8   3 1011.91 345.539   5
   0   8  -2 2736.57 502.905   4
   0  -8   2 3584.34 541.294   5
   0  -8   1 3246.99 481.486   5
   0   8  -1 3036.33 506.737   4
   0   8   0 3566.05 551.839   4
   0  -8   0 4049.03 500.335   5
   0  -8  -1-92.3010 112.876   5
   0   8   1-41.2810 92.9673   4
   0  -8  -2 4749.97 501.360   5
   0   8   2 5154.00 642.008   4
   0   8   3 13680.4 1031.75   4
   0  -8  -3 12737.0 821.531   5
   0   8   4 10111.8 867.566   4
   0  -8  -4 9485.72 694.263   5
   0  -8  -5-63.9010 90.5657   5
   0   8   5-59.7988 102.377   4
   0   8   6 4152.89 574.715   4
   0  -8  -6 4069.92 459.662   5
   0   8   7 125.545 105.416   4
   0  -8  -7 324.524 116.992   5
   0   8   8 929.210 282.534   4
   0  -8  -8 1019.47 237.418   5
   0  -8  -9-10.2114 32.7968   5
   0   8   9-30.1237 58.4098   4
   0  -8 -10 1031.78 261.493   5
   0   8  10 1036.02 325.064   4
   0   8  10 973.503 283.022   3
   0   8  11-29.3322 75.3899   4
   0   8  11 408.543 191.894   3
   0   8  12 175.126 132.852   3
   0   8  12 22.0203 128.360   4
   0   8  13 4920.29 740.047   3
   0   9  -5-26.4714 135.674   4
   0   9  -4 607.121 272.610   4
   0  -9   4 986.481 339.973   5
   0   9  -3 8912.83 975.458   4
   0  -9   3 10601.8 1004.03   5
   0   9  -2 109.454 132.245   4
   0  -9   2-11.9992 54.7144   5
   0   9  -1 2067.73 443.512   4
   0  -9   1 2065.09 394.839   5
   0  -9   0 111.715 73.3276   5
   0   9   0 72.6334 76.4762   4
   0   9   1 136.767 134.379   4
   0  -9  -1-232.332 124.556   5
   0   9   2 1362.11 352.881   4
   0  -9  -2 1644.89 313.761   5
   0  -9  -3 3976.09 493.518   5
   0   9   3 3873.72 598.264   4
   0  -9  -4 5075.74 547.952   5
   0   9   4 5664.99 713.355   4
   0   9   5 372.947 187.603   4
   0  -9  -5 528.979 176.260   5
   0  -9  -6 36.2122 53.6275   5
   0   9   6 158.526 124.435   4
   0   9   7 56.8875 80.7991   4
   0  -9  -7 218.677 108.139   5
   0  -9  -8 2596.12 392.970   5
   0   9   8 2647.76 518.500   4
   0   9   9-100.157 111.433   4
   0  -9  -9 109.900 91.8086   5
   0   9  10 1025.57 322.589   4
   0  -9 -10 987.797 266.811   5
   0  -9 -11 2250.06 421.028   5
   0   9  11 4585.20 665.011   3
   0 -10   4 306.375 200.871   5
   0  10  -4 92.7158 74.6508   4
   0  10  -3-152.115 132.768   4
   0 -10   3 12.9182 114.035   5
   0  10  -2 125.570 127.757   4
   0 -10   2 76.9976 107.381   5
   0  10  -1 112.519 131.913   4
   0 -10   1 58.6807 48.5102   5
   0  10   0-65.3733 63.0597   4
   0 -10   0-82.4272 141.870   5
   0  10   1 1917.48 457.629   4
   0 -10  -1 1430.22 313.926   5
   0  10   2 596.939 265.250   4
   0 -10  -2 611.900 191.762   5
   0  10   3-98.9247 108.992   4
   0 -10  -3-221.341 128.203   5
   0 -10  -4 2580.95 423.082   5
   0  10   4 2043.92 464.418   4
   0 -10  -5 5301.43 607.700   5
   0  10   5 4445.51 688.310   4
   0  10   6 1129.74 339.261   4
   0 -10  -6 1217.44 291.046   5
   0 -10  -7 1468.51 320.348   5
   0  10   7 1598.90 418.188   4
   0  10   8 2563.20 533.966   4
   0 -10  -8 2350.27 386.396   5
   0 -10  -9 451.263 169.929   5
   0 -10 -10 149.860 122.764   5
   0 -10 -11 1028.98 297.484   5
   0 -11   2 927.188 301.157   5
   0  11  -2 1332.94 421.222   4
   0 -11   1 1553.42 370.341   5
   0  11  -1 1758.68 470.199   4
   0 -11   0 69.9353 55.7621   5
   0  11   0 56.4657 109.772   4
   0 -11  -1 1002.66 282.852   5
   0  11   1 1556.47 438.907   4
   0  11   2 3558.44 645.883   4
   0 -11  -2 3507.31 533.116   5
   0 -11  -3 203.250 88.6920   5
   0  11   3 617.181 271.604   4
   0  11   4 580.649 264.415   4
   0 -11  -4 866.016 245.648   5
   0  11   5 2397.33 541.019   4
   0 -11  -5 2583.86 457.332   5
   0 -11  -6 1077.83 293.549   5
   0 -11  -7 85.0235 83.7316   5
   0 -11  -8-183.483 117.334   5
   0 -11  -9-33.2037 62.0837   5
   0  12   0 94.1595 122.462   4
   0  12   1 75.7704 110.125   4
   0 -12  -3 123.522 116.495   5
   0 -12  -4 83.1381 124.319   5
   0 -12  -5-52.0289 107.629   5
  -1  12   4 606.417 313.598   4
   1 -11  -9 226.161 134.370   5
  -1  11   8 1807.58 512.798   4
   1 -11  -8 1728.28 351.013   5
  -1  11   7 1828.71 517.930   4
   1 -11  -7 1502.84 318.704   5
  -1  11   6-34.8031 87.4578   4
   1 -11  -6 45.5883 76.0676   5
  -1  11   5 3954.55 745.756   4
   1 -11  -5 3321.19 505.949   5
  -1  11   4 571.362 304.724   4
   1 -11  -4 611.271 208.073   5
  -1  11   3 11.1197 51.1927   4
   1 -11  -3 17.5319 73.3168   5
   1 -11  -2-111.505 145.827   5
  -1  11   2 34.5641 85.0718   4
   1 -11  -1-1.01589 57.7735   5
  -1  11   1 111.886 131.861   4
   1 -11   0-73.8220 84.8079   5
  -1  11   0 138.198 150.839   4
   1 -11   1 19.4062 114.684   5
  -1  11  -1 269.695 198.809   4
  -1  10  10-124.840 152.372   4
   1 -10 -10 35.1038 63.3819   5
   1 -10  -9 93.7997 92.9965   5
  -1  10   9-117.264 173.028   4
  -1  10   8 1490.29 445.128   4
   1 -10  -8 917.247 252.860   5
   1 -10  -7-7.57665 71.8028   5
  -1  10   7 77.2223 124.580   4
  -1  10   6 320.425 206.914   4
   1 -10  -6 284.579 133.927   5
   1 -10  -5 65.2151 59.8793   5
  -1  10   5-243.522 176.330   4
   1 -10  -4 62.0013 45.6873   5
  -1  10   4 131.329 102.054   4
   1 -10  -3 1826.26 348.454   5
  -1  10   3 1657.58 448.104   4
   1 -10  -2 73.8329 66.1265   5
  -1  10   2-30.2689 102.068   4
  -1  10   1 555.962 272.896   4
   1 -10  -1 347.879 146.697   5
  -1  10   0 584.366 267.885   4
   1 -10   0 810.433 243.504   5
   1 -10   1 1810.80 375.135   5
  -1  10  -1 1606.19 454.675   4
  -1  10  -2 990.707 356.543   4
   1 -10   2 554.164 200.791   5
  -1  10  -3 1875.90 496.115   4
   1 -10   3 1684.15 401.296   5
   1 -10   4 1792.31 449.975   5
  -1   9  12-273.635 219.434   4
  -1   9  11 495.933 274.098   4
  -1   9  10 1058.53 351.208   4
   1  -9 -10 719.893 226.052   5
   1  -9  -9 250.931 124.887   5
  -1   9   9 332.373 223.782   4
   1  -9  -8 198.953 116.276   5
  -1   9   8 179.196 150.758   4
   1  -9  -7 4143.46 476.657   5
  -1   9   7 4455.79 722.006   4
   1  -9  -6 3105.10 423.930   5
  -1   9   6 2491.43 534.736   4
   1  -9  -5 1517.99 298.344   5
  -1   9   5 1757.39 428.011   4
  -1   9   4 2265.57 487.483   4
   1  -9  -4 2034.81 337.833   5
  -1   9   3 10598.9 1061.06   4
   1  -9  -3 10738.5 789.362   5
  -1   9   2 3644.35 620.554   4
   1  -9  -2 3498.01 465.498   5
  -1   9   1 260.789 104.192   4
   1  -9  -1 37.7365 90.0201   5
   1  -9   0 2408.06 397.961   5
  -1   9   0 2607.67 537.558   4
  -1   9  -1 2849.26 571.146   4
   1  -9   1 2468.20 419.530   5
   1  -9   2 261.475 162.029   5
  -1   9  -2 468.364 242.417   4
  -1   9  -3 307.164 208.952   4
   1  -9   3 148.685 122.090   5
  -1   9  -4 644.651 284.962   4
   1  -9   4 1127.67 339.684   5
  -1   9  -5 252.633 199.820   4
   1  -9   5 1037.52 395.823   5
  -1   8  13 2600.80 666.619   4
  -1   8  12 1839.15 517.990   4
  -1   8  11 296.911 208.113   4
  -1   8  10 731.692 299.986   4
   1  -8 -10 577.756 197.178   5
  -1   8   9 3677.94 646.608   4
  -1   8   9 5014.91 577.911   3
   1  -8  -9 3393.38 458.137   5
   1  -8  -8 339.897 135.543   5
  -1   8   8 340.472 199.845   4
   1  -8  -7 543.216 167.921   5
  -1   8   7 723.514 287.505   4
   1  -8  -6 1180.44 238.622   5
  -1   8   6 1257.32 351.864   4
   1  -8  -5 3151.44 407.238   5
  -1   8   5 2208.51 447.825   4
  -1   8   4 257.796 186.693   4
   1  -8  -4 92.0894 82.2097   5
   1  -8  -3 671.833 182.564   5
  -1   8   3 419.320 213.154   4
   1  -8  -2 1012.97 229.072   5
  -1   8   2 1057.62 323.274   4
   1  -8  -1-11.5528 77.8965   5
  -1   8   1 267.836 134.376   4
   1  -8   0-345.694 143.555   5
  -1   8   0 67.7692 141.912   4
   1  -8   1 437.295 183.496   5
  -1   8  -1 510.438 237.642   4
  -1   8  -2 327.635 219.076   4
   1  -8   2 724.357 252.233   5
  -1   8  -3 935.304 320.373   4
   1  -8   3 686.491 257.859   5
  -1   8  -4 346.627 214.097   4
  -1   8  -5 5016.97 744.645   4
  -1   8  -6 455.871 229.459   4
   1  -8   7 382.688 348.764   3
  -1   7  14 561.064 333.175   4
  -1   7  13 3625.26 800.817   4
  -1   7  12 1296.52 431.154   4
  -1   7  11 61.4518 61.5808   3
  -1   7  11 91.6479 71.1053   4
  -1   7  10 1857.61 459.876   4
  -1   7  10 2630.75 402.977   3
  -1   7   9 108.716 88.6068   4
  -1   7   9 153.271 99.0861   3
   1  -7  -9 7.59981 52.5113   5
  -1   7   8 218.919 135.156   4
   1  -7  -8 454.779 154.300   5
  -1   7   7 83.7719 103.490   4
   1  -7  -7 73.1940 49.7696   5
   1  -7  -6 16.7782 33.6328   5
  -1   7   6-29.9380 91.6924   4
   1  -7  -5-51.5722 84.4272   5
  -1   7   5 131.349 100.158   4
  -1   7   4 6851.73 730.868   4
   1  -7  -4 6609.44 527.381   5
  -1   7   3 581.356 204.036   4
   1  -7  -3 592.589 152.692   5
  -1   7   2 3567.06 529.774   4
   1  -7  -2 4115.65 427.993   5
   1  -7  -1 1678.98 273.687   5
  -1   7   1 1847.88 392.465   4
  -1   7   0 2813.31 491.634   4
   1  -7   0 3067.15 402.469   5
  -1   7  -1 991.974 322.087   4
   1  -7   1 1599.26 329.008   5
  -1   7  -2 63006.6 2373.90   4
   1  -7   2 63247.4 2116.07   5
  -1   7  -3 5496.89 714.320   4
   1  -7   3 4091.14 679.331   2
  -1   7  -4 1798.20 421.583   4
   1  -7   4 507.995 381.170   2
  -1   7  -5 457.073 227.392   4
   1  -7   5 663.361 333.554   3
   1  -7   5 317.649 284.850   2
   1  -7   6 3577.48 744.863   3
  -1   7  -6 3373.59 588.912   4
   1  -7   7 271.839 276.501   3
   1  -7   8 123.038 298.431   3
   1  -7   9 32.7019 230.563   3
  -1   6  13 196.804 150.744   3
  -1   6  12 153.258 95.3193   3
  -1   6  12 264.818 179.369   4
  -1   6  11 8391.51 746.761   3
  -1   6  11 7445.31 950.371   4
  -1   6  10 6860.62 627.913   3
  -1   6  10 6638.73 842.540   4
  -1   6   9 36.7875 106.310   4
  -1   6   9 185.905 92.5497   3
  -1   6   8 5777.98 702.029   4
   1  -6  -8 5617.48 513.234   5
  -1   6   7 30974.5 1529.45   4
   1  -6  -7 32934.3 1162.60   5
  -1   6   6 4414.78 558.455   4
   1  -6  -6 5040.43 424.931   5
  -1   6   5 3777.61 501.699   4
   1  -6  -5 3347.01 351.438   5
  -1   6   4 1435.15 311.340   4
   1  -6  -4 1982.02 277.116   5
  -1   6   3 2674.19 415.072   4
   1  -6  -3 2713.64 311.861   5
   1  -6  -2 807.240 177.737   5
  -1   6   2 729.143 224.188   4
  -1   6   1 1369.51 204.965   2
  -1   6   1 1397.21 312.219   4
   1  -6  -1 1386.95 227.572   5
  -1   6   0 169.219 98.1473   4
  -1   6   0 170.761 56.5013   2
   1  -6   0 177.395 91.0205   5
   1  -6   1 3048.33 413.842   5
  -1   6  -1 2801.46 464.684   4
  -1   6  -2 122.627 108.426   4
   1  -6   2 118.380 145.704   2
  -1   6  -3 8310.26 815.131   4
   1  -6   3 9380.29 1005.67   3
   1  -6   4 40.2796 154.556   3
  -1   6  -4 87.4753 88.6604   4
  -1   6  -5 10.5723 45.8980   4
   1  -6   5 429.888 429.512   2
   1  -6   5 308.497 288.948   3
   1  -6   6 201.744 186.613   3
  -1   6  -6 476.659 198.013   4
   1  -6   6 206.945 193.480   2
   1  -6   7 60.0685 139.255   2
   1  -6   7 122.953 148.074   3
   1  -6   8 90.9290 177.629   3
   1  -6   8 81.1069 132.914   2
   1  -6   9 542.193 246.985   2
   1  -6   9 991.758 426.905   3
   1  -6  10 918.305 430.589   3
   1  -6  10 1132.55 377.560   2
  -1   5  14 6137.94 776.739   3
  -1   5  13 2850.77 485.106   3
  -1   5  12 1270.45 294.146   3
  -1   5  11 4895.73 548.724   3
  -1   5  10 16073.1 929.185   3
  -1   5   9 45.0175 41.1044   3
  -1   5   8 45347.9 1327.93   3
  -1   5   8 38665.8 1742.42   4
   1  -5  -7 18727.8 854.367   5
  -1   5   7 17897.2 1105.61   4
   1  -5  -6 6843.97 478.607   5
  -1   5   6 6794.40 649.376   4
  -1   5   5 299.857 123.975   4
   1  -5  -5 367.956 99.3460   5
   1  -5  -4 6448.89 442.290   5
  -1   5   4 6274.97 587.874   4
  -1   5   3 8798.59 698.963   4
   1  -5  -3 9420.79 519.603   5
   1  -5  -2 8012.34 494.257   5
  -1   5   2 8085.30 669.370   4
  -1   5   2 7736.11 521.146   2
   1  -5  -1 12001.1 614.299   5
  -1   5   1 11474.4 814.342   4
  -1   5   0 4829.50 544.183   4
   1  -5   0 5272.53 456.336   5
  -1   5   0 4745.30 280.971   2
  -1   5  -1 6151.65 626.977   4
  -1   5  -1 6805.64 343.545   2
   1  -5   1 6965.27 501.370   2
  -1   5  -2 48.3841 86.7665   4
   1  -5   2-48.2793 171.469   2
   1  -5   2 109.169 127.859   3
  -1   5  -3 7773.93 731.405   4
   1  -5   3 6205.16 771.197   3
   1  -5   4 6009.50 677.898   2
   1  -5   4 6759.25 845.945   3
  -1   5  -5 2717.13 458.577   4
   1  -5   5 1764.20 448.453   3
   1  -5   5 2600.99 399.652   2
  -1   5  -6 162.218 128.058   4
   1  -5   6 161.184 126.071   3
   1  -5   6-2.72994 57.7579   2
   1  -5   7 3314.94 455.507   2
   1  -5   7 2307.57 537.081   3
   1  -5   8 11820.3 1260.00   3
   1  -5   8 12831.6 944.128   2
   1  -5   9 235.783 214.986   3
   1  -5   9 214.889 106.346   2
   1  -5  10 130.094 164.376   3
   1  -5  10-38.9072 67.7012   2
   1  -5  11 963.259 308.335   2
   1  -5  12 100.976 114.467   2
  -1   4  15 473.009 219.516   3
  -1   4  14 1337.79 401.581   2
  -1   4  14 1326.65 347.995   3
  -1   4  13 2464.97 452.140   3
  -1   4  12 17.2342 45.7585   3
  -1   4  11 1481.44 293.996   3
  -1   4  10 121.572 99.7743   3
  -1   4   9 1901.97 288.996   3
  -1   4   8 3030.92 335.035   3
  -1   4   7 1766.50 231.644   3
  -1   4   6 8046.01 681.415   4
   1  -4  -6 8266.44 514.549   5
  -1   4   6 10010.9 524.036   3
  -1   4   5 4528.35 473.820   4
   1  -4  -5 4410.06 342.869   5
  -1   4   4 282.637 109.788   4
   1  -4  -4 206.004 66.5937   5
  -1   4   3 28894.3 1134.43   4
   1  -4  -3 29796.4 857.348   5
   1  -4  -2 2537.58 246.268   5
  -1   4   2 2351.89 329.713   4
  -1   4   1-69.1997 138.940   2
   1  -4  -1 123.043 45.4971   5
  -1   4   1 193.366 109.127   4
  -1   4   0 11285.5 759.101   4
  -1   4   0 12772.3 407.298   2
  -1   4  -1 122.495 42.4009   2
  -1   4  -1 123.361 69.4891   4
   1  -4   1 1.49206 98.0989   2
   1  -4   1 125.849 64.3376   3
   1  -4   2 1697.63 444.284   2
  -1   4  -2 2089.14 347.881   4
   1  -4   2 2239.70 449.879   3
   1  -4   3 2413.69 431.857   3
  -1   4  -3 2972.13 416.576   4
   1  -4   3 2844.04 323.000   2
   1  -4   4 7131.43 742.099   3
  -1   4  -4 8551.61 744.621   4
   1  -4   4 8164.57 533.076   2
  -1   4  -5 124.329 74.2459   4
   1  -4   5 179.084 88.6038   2
   1  -4   5 121.772 104.421   3
   1  -4   6 1445.82 349.534   3
  -1   4  -6 1244.71 288.758   4
   1  -4   6 1215.67 228.415   2
   1  -4   7 417.764 191.866   3
   1  -4   7 673.573 176.594   2
   1  -4   8-21.9780 72.3309   3
   1  -4   8 152.058 82.0088   2
   1  -4   9-112.550 106.698   3
   1  -4   9 47.4079 68.4792   2
   1  -4  10-38.3090 142.772   3
   1  -4  10 14.4033 33.0846   2
   1  -4  11-116.892 105.044   2
   1  -4  11 44.2915 58.3706   3
   1  -4  12 1835.83 427.109   2
  -1   3  15 176.905 143.291   3
  -1   3  14 34.0641 73.3398   2
  -1   3  14 63.3955 75.3701   3
  -1   3  13 2108.99 457.901   2
  -1   3  13 1241.47 326.845   3
  -1   3  12 1.87421 77.9577   3
  -1   3  11 44.5851 60.0842   3
  -1   3  10 1326.41 256.818   3
  -1   3   9 5496.61 481.239   3
  -1   3   8 19915.4 834.957   3
  -1   3   7 6901.83 467.007   3
  -1   3   6 27136.1 807.496   3
   1  -3  -5 33572.0 930.260   5
  -1   3   5 36849.1 855.130   3
  -1   3   4 14981.4 764.552   4
   1  -3  -4 14533.2 545.193   5
  -1   3   3 4488.00 397.002   4
   1  -3  -3 4240.31 276.160   5
  -1   3   2 56032.7 1402.85   4
  -1   3   2 56163.4 1032.96   5
   1  -3  -2 54262.9 956.666   5
   1  -3  -1 3178.58 236.686   5
  -1   3   1 2803.63 329.554   4
  -1   3   1 3586.00 213.104   2
  -1   3   1 2041.10 232.225   5
  -1   3   1 4046.12 379.611   3
   1  -3   0 383.732 98.4346   5
  -1   3   0 258.709 114.168   4
  -1   3   0 374.654 118.894   3
  -1   3   0 381.332 56.2656   2
  -1   3  -1 11147.2 696.545   4
   1  -3   1 10022.8 709.184   3
   1  -3   2 22216.3 1067.44   3
   1  -3   2 23546.4 682.626   2
  -1   3  -2 23839.1 1059.48   4
   1  -3   3 4982.05 331.299   2
   1  -3   3 5340.27 493.985   3
  -1   3  -3 5173.50 508.648   4
  -1   3  -4 5244.83 533.434   4
   1  -3   4 5154.99 488.253   3
   1  -3   4 4457.21 347.220   2
  -1   3  -5 1646.32 301.950   4
   1  -3   5 2218.78 325.345   3
   1  -3   5 1740.93 234.380   2
   1  -3   6 22054.6 1072.61   3
   1  -3   6 21467.1 902.667   2
   1  -3   7 514.549 155.766   2
   1  -3   7 499.491 174.592   3
   1  -3   8 2513.22 411.447   3
   1  -3   8 2318.62 350.546   2
   1  -3   9 2402.36 430.533   3
   1  -3   9 1875.47 337.436   2
   1  -3  10 8505.45 869.072   3
   1  -3  10 7333.90 714.562   2
   1  -3  11-28.7193 65.3663   3
   1  -3  11 13.6049 51.4336   2
   1  -3  12 2777.25 512.686   2
   1  -3  12 2536.66 551.478   3
   1  -3  13 125.525 120.005   2
  -1   2  14 3319.08 620.425   2
  -1   2  14 3353.45 594.293   3
  -1   2  13 330.251 181.853   2
  -1   2  13 410.145 195.540   3
  -1   2  12 1219.89 296.317   3
  -1   2  12 1274.52 323.903   2
  -1   2  11 7740.12 685.176   3
  -1   2  10 1436.45 269.965   3
  -1   2   9 327.939 122.395   3
  -1   2   8 7610.10 256.301   1
  -1   2   8 7414.52 509.659   3
  -1   2   7 13158.1 611.614   3
  -1   2   7 12418.0 438.173   6
  -1   2   6 6967.35 400.604   3
  -1   2   6 6771.80 316.204   6
  -1   2   5 1599.54 150.363   6
  -1   2   5 1605.33 181.111   3
  -1   2   4 3533.21 221.131   6
  -1   2   4 3547.52 223.184   3
  -1   2   3 1093.88 136.916   5
   1  -2  -3 942.689 120.660   5
   1  -2  -2 2958.42 188.967   5
  -1   2   2 3120.05 289.957   4
  -1   2   2 2971.39 195.137   5
  -1   2   1 7758.03 453.179   4
   1  -2  -1 7587.80 293.169   5
  -1   2   0 5895.00 408.723   4
   1  -2   0 6180.99 331.636   5
  -1   2  -1 3797.16 355.969   4
   1  -2   1 3696.91 329.262   3
   1  -2   1 3979.99 183.554   2
  -1   2  -1 4245.75 257.978   3
  -1   2  -2 71467.2 1109.62   3
   1  -2   2 66536.1 906.726   2
   1  -2   2 72792.3 1309.63   3
  -1   2  -2 67170.7 1555.02   4
  -1   2  -3 181771. 2706.00   4
   1  -2   3 181904. 1761.80   2
   1  -2   3 191858. 2239.75   3
  -1   2  -3 190420. 1541.08   6
  -1   2  -4 92.0216 62.1907   4
   1  -2   4 32.8166 38.5393   2
   1  -2   4-30.5966 53.5081   3
  -1   2  -4 105.838 40.4282   6
  -1   2  -5 11120.0 377.732   6
  -1   2  -5 10896.1 706.403   4
   1  -2   5 12278.6 659.196   3
   1  -2   5 11505.7 559.741   2
  -1   2  -6 34246.2 672.242   6
   1  -2   6 36841.0 1229.93   3
   1  -2   6 35626.1 1091.62   2
   1  -2   7 23983.6 986.933   2
   1  -2   7 24702.6 1086.04   3
   1  -2   8 16.1991 38.2800   2
   1  -2   8 20.0785 49.7867   3
   1  -2   9 10697.5 775.176   2
   1  -2   9 11694.8 871.269   3
   1  -2  10 89.9708 105.228   2
   1  -2  10 26.9771 104.566   3
   1  -2  11 2672.17 487.414   3
   1  -2  11 2359.05 430.504   2
   1  -2  12 66.6919 127.179   3
   1  -2  12 36.6837 104.454   2
   1  -2  13 152.747 137.015   3
   1  -2  13 121.715 131.834   2
  -1   1  14 2455.54 525.415   3
  -1   1  14 2243.91 521.791   2
  -1   1  13 982.210 302.626   3
  -1   1  13 1152.27 337.729   2
  -1   1  12-23.7323 59.8519   3
  -1   1  12-12.7823 76.7708   2
  -1   1  11 2418.89 397.182   3
  -1   1  11 2668.77 442.244   2
  -1   1  10 1051.36 260.755   2
  -1   1  10 658.590 186.480   3
  -1   1   9 76.0467 55.0111   3
  -1   1   8 2510.87 310.085   3
  -1   1   7 14876.8 679.553   3
  -1   1   6 22208.6 738.477   3
  -1   1   6 12745.8 268.034   1
  -1   1   5 5605.10 334.656   3
  -1   1   5 6078.22 266.029   6
  -1   1   4 67906.2 983.887   3
  -1   1   4 69668.7 855.605   6
   1  -1  -4 66454.6 911.878   3
   1  -1  -3 2094.35 137.800   3
  -1   1   3 2169.88 146.816   6
  -1   1   3 2548.95 204.167   5
  -1   1   3 2169.87 146.210   3
  -1   1   2 7311.82 258.816   5
   1  -1  -2 7823.93 282.830   5
  -1   1   2 7313.89 206.696   3
  -1   1   1 10153.0 425.404   4
  -1   1   1 9013.02 233.461   5
   1  -1  -1 8840.38 227.200   5
  -1   1   1 10112.1 224.842   2
  -1   1   0 442811. 2932.34   4
  -1   1   0 445212. 1508.94   3
  -1   1  -1 112.560 51.6288   4
  -1   1  -1 169.076 35.7200   3
   1  -1   1 178.929 43.1964   3
   1  -1   2 7456.59 311.945   3
  -1   1  -2 7392.20 444.255   4
  -1   1  -3 1126.81 189.405   4
  -1   1  -3 989.944 95.4203   6
   1  -1   3 1088.28 135.707   3
  -1   1  -4 17968.4 774.964   4
  -1   1  -4 18848.8 425.765   6
   1  -1   4 18544.9 645.485   3
   1  -1   5 3100.85 289.765   3
  -1   1  -6 2232.83 203.144   1
   1  -1   6 1538.18 226.051   3
   1  -1   7 1814.39 270.742   3
  -1   1  -7 1626.27 156.123   1
   1  -1   8 1239.98 226.632   3
  -1   1  -8 1203.26 129.977   1
   1  -1   9 431.906 160.480   3
   1  -1  10 11950.2 853.775   2
   1  -1  10 12352.5 899.432   3
   1  -1  11 3035.23 488.286   3
   1  -1  11 2373.29 418.672   2
   1  -1  12 561.685 204.653   2
   1  -1  12 787.257 256.181   3
   1  -1  13 339.770 193.073   2
   1  -1  13 415.611 211.416   3
  -1   0  14 449.028 233.706   3
  -1   0  13 589.374 240.288   3
  -1   0  13 773.812 294.841   2
  -1   0  12 39.3681 71.8109   2
  -1   0  12 2.30576 40.8582   3
  -1   0  11 316.904 144.913   3
  -1   0  11 339.577 152.841   2
  -1   0  10 394.294 160.348   2
  -1   0  10 445.269 171.053   3
  -1   0   9 4189.53 468.306   3
  -1   0   9 4605.11 507.104   2
  -1   0   8 297.363 115.861   3
  -1   0   8 233.904 109.559   2
  -1   0   7 33611.3 1174.03   2
  -1   0   7 32408.6 1066.75   3
  -1   0   6 9096.93 553.985   2
  -1   0   6 8171.65 485.086   3
  -1   0   5 394.366 98.7088   3
   1   0  -5 409.738 46.7499   6
  -1   0   5 476.808 114.794   2
   1   0  -4 1014.40 78.1160   6
  -1   0   4 1173.52 166.357   2
  -1   0   4 1101.02 143.183   3
  -1   0   3 40232.1 735.746   3
   1   0  -3 39811.8 521.385   6
  -1   0   3 41500.4 845.320   2
  -1   0   2 57.1039 18.6766   1
  -1   0   2 108.719 40.6993   2
  -1   0   2 103.479 32.3185   3
   1   0  -2 105.471 28.5864   6
  -1   0   1 2422.25 162.364   2
  -1   0   1 2359.28 127.658   3
  -1   0   0 1042.10 102.069   2
   1   0   2 34522.6 564.217   3
  -1   0  -2 33797.2 753.951   4
   1   0   2 33309.1 501.596   6
   1   0   3 5838.85 281.401   3
   1   0   3 5516.47 192.114   6
  -1   0  -3 6422.31 252.584   1
  -1   0  -3 5403.34 333.736   4
  -1   0  -4 20829.4 452.511   1
   1   0   4 21031.6 354.717   6
   1   0   4 21840.2 621.495   3
  -1   0  -5 16366.2 408.709   1
   1   0   5 17256.4 630.271   3
   1   0   6 6019.93 423.516   3
   1   0   7 9462.03 570.714   3
   1   0   8 43760.7 1344.52   3
   1   0   9 47382.3 1530.91   3
   1   0  10 361.568 147.676   3
   1   0  11 3609.73 495.859   3
   1   0  12 5923.47 702.393   3
   1   0  13 3786.03 614.777   3
   1   0  13 3798.78 614.323   2
   1   0  14 284.981 202.988   3
   1   0  14 214.047 156.822   2
  -1  -1  13 3545.04 637.727   3
  -1  -1  13 3272.82 602.813   2
  -1  -1  12 199.132 113.775   2
  -1  -1  12 188.849 133.932   3
  -1  -1  11 258.509 147.771   3
  -1  -1  11 197.622 138.849   2
  -1  -1  10 7904.52 743.658   3
  -1  -1  10 7367.53 735.038   2
  -1  -1   9 7403.63 663.791   3
  -1  -1   9 6703.88 640.899   2
  -1  -1   8 2266.71 343.575   2
  -1  -1   8 2451.88 352.123   3
  -1  -1   7 250.754 109.575   2
  -1  -1   7 425.534 136.321   3
   1   1  -6 7404.89 201.489   6
  -1  -1   6 8977.92 576.023   3
  -1  -1   6 8349.93 564.708   2
  -1  -1   5 2911.39 303.107   2
  -1  -1   5 3222.37 315.961   3
  -1  -1   4 4132.49 331.076   2
  -1  -1   4 4263.45 332.204   3
  -1  -1   3 3647.56 288.577   3
  -1  -1   3 3681.18 285.552   2
  -1  -1   2 48897.2 969.489   2
  -1  -1   2 48826.2 1015.91   3
  -1  -1   1 8319.12 529.157   2
  -1  -1   1 9147.24 500.352   3
  -1  -1   0 137.618 35.1333   5
  -1  -1  -1 10200.8 273.615   5
  -1  -1  -2 71088.9 856.326   5
   1   1   2 71247.1 791.694   4
   1   1   3 46235.7 786.831   3
   1   1   4 870.805 125.471   3
   1   1   4 835.694 90.8747   1
   1   1   5 77584.5 1357.96   3
   1   1   5 62142.6 838.286   1
   1   1   6 81456.9 1483.34   3
   1   1   7 486.830 125.643   3
   1   1   8 15107.6 764.431   3
   1   1   9 46.9813 71.8829   3
   1   1  10 69.9019 76.4036   3
   1   1  11 448.439 175.965   3
   1   1  12 235.576 128.050   3
   1   1  13 164.434 112.450   3
   1   1  14 104.222 82.7727   3
   1   1  14 462.742 230.895   2
  -1  -2  13-33.6728 76.1469   3
  -1  -2  13 30.4903 91.4815   2
  -1  -2  12 3363.03 616.367   3
  -1  -2  12 3257.77 560.222   2
  -1  -2  11 4390.67 642.749   3
  -1  -2  11 4248.41 599.577   2
  -1  -2  10 964.426 285.063   3
  -1  -2  10 973.469 283.093   2
  -1  -2   9 6314.84 648.739   2
  -1  -2   9 7283.99 711.447   3
  -1  -2   8 7224.87 661.428   3
  -1  -2   8 6630.34 610.663   2
  -1  -2   7 1117.07 243.775   3
  -1  -2   7 641.481 173.377   2
  -1  -2   6 3344.07 392.860   3
  -1  -2   6 3476.48 380.029   2
  -1  -2   5 6509.82 517.407   3
  -1  -2   5 6430.74 481.934   2
  -1  -2   4 652.283 143.818   2
  -1  -2   4 496.117 148.059   3
  -1  -2   3 1703.36 268.562   3
  -1  -2   3 1780.87 232.434   2
  -1  -2   2 66.1399 37.9011   3
  -1  -2   2 153.580 91.3575   2
  -1  -2   1 311007. 5442.30   2
  -1  -2   1 718523. 5457.00   3
  -1  -2   0 3675.29 369.554   2
  -1  -2   0 3109.44 248.385   5
   1   2   0 3409.18 192.624   4
  -1  -2  -1 20745.1 508.775   5
  -1  -2  -2 839.214 109.255   5
  -1  -2  -3 124876. 1389.14   5
  -1  -2  -4 2286.74 220.080   5
   1   2   5 114377. 1666.14   3
   1   2   6 36025.2 990.715   3
   1   2   7 870.611 174.767   3
   1   2   7 606.395 89.5814   1
   1   2   8 1663.85 254.241   3
   1   2   8 1627.95 148.659   1
   1   2   9 120.095 76.1224   3
   1   2  10 5984.55 567.539   3
   1   2  11 1112.55 261.435   3
   1   2  12 1613.92 343.058   3
   1   2  13 6255.45 735.832   3
   1   2  14 3679.09 611.749   3
  -1  -3  12 437.869 218.347   2
  -1  -3  12 528.869 223.723   3
  -1  -3  11 151.150 129.610   3
  -1  -3  11 410.192 201.305   2
  -1  -3  10 5434.30 753.788   3
  -1  -3  10 5766.70 685.220   2
  -1  -3   9 387.780 134.483   2
  -1  -3   9 423.334 205.335   3
  -1  -3   8 13644.2 929.037   2
  -1  -3   8 14332.4 1066.70   3
  -1  -3   7 8488.13 680.743   2
  -1  -3   7 9270.48 816.453   3
  -1  -3   6 46.3369 75.3977   3
  -1  -3   6 231.307 113.972   2
  -1  -3   5 2992.60 444.035   3
  -1  -3   5 3242.42 380.241   2
  -1  -3   4 67570.8 2155.41   3
  -1  -3   4 74894.8 1776.14   2
  -1  -3   3 3659.67 511.257   3
  -1  -3   3 3998.16 435.045   2
  -1  -3   2 591.419 248.590   2
  -1  -3   2 910.219 257.035   3
  -1  -3   1 2369.95 256.767   4
   1   3  -1 2471.06 248.175   4
  -1  -3   0 6719.44 521.768   2
  -1  -3   0 5995.43 422.023   5
   1   3   0 5757.74 338.778   4
  -1  -3   0 5708.24 352.852   4
  -1  -3  -1 3150.35 251.192   5
   1   3   1 2997.36 224.862   4
  -1  -3  -1 3130.01 226.493   4
   1   3   2 2780.94 200.016   4
  -1  -3  -2 2697.54 227.400   5
  -1  -3  -2 3225.40 207.254   4
  -1  -3  -3 12334.4 505.797   5
   1   3   3 12946.4 451.074   4
  -1  -3  -4 2123.27 213.572   5
  -1  -3  -5 27547.5 841.999   5
  -1  -3  -6 130.836 62.4095   5
   1   3   6 112.524 55.6161   3
   1   3   7 25355.5 937.269   3
   1   3   8 7565.69 556.173   3
   1   3   9 611.307 104.701   1
   1   3   9 637.549 177.724   3
   1   3  10 2385.86 357.839   3
   1   3  11 7545.12 679.588   3
   1   3  12 352.038 156.193   3
   1   3  13 1203.78 316.147   3
   1   3  14 355.687 199.899   3
  -1  -4  12-8.59617 53.5578   2
  -1  -4  11 3476.05 610.677   2
  -1  -4  11 2560.22 654.231   3
  -1  -4  10 427.184 256.599   3
  -1  -4  10 424.751 201.073   2
  -1  -4   9 307.008 151.027   2
  -1  -4   9-87.8777 209.176   3
  -1  -4   8-256.211 139.615   2
  -1  -4   8-432.858 221.114   3
  -1  -4   7-55.8613 164.786   3
  -1  -4   7-6.46099 135.544   2
  -1  -4   6 4733.77 543.415   2
  -1  -4   6 4164.13 656.153   3
  -1  -4   5 830.612 249.262   2
  -1  -4   5 652.592 263.221   3
  -1  -4   4 1808.91 417.108   3
  -1  -4   4 1931.37 387.310   2
  -1  -4   3 10649.4 966.411   3
  -1  -4   3 7877.04 944.463   2
  -1  -4   2 1441.05 468.994   3
   1   4  -2 594.596 136.744   4
   1   4  -1 124.973 75.4519   4
  -1  -4   1-302.285 208.427   2
  -1  -4   0 2632.88 352.840   2
  -1  -4   0 2231.36 286.956   5
  -1  -4   0 1868.88 246.636   4
   1   4   0 2276.26 257.227   4
  -1  -4  -1 29140.0 896.276   4
  -1  -4  -1 31940.6 936.493   5
   1   4   1 29257.0 876.528   4
  -1  -4  -2 1645.31 205.824   5
   1   4   2 1430.60 180.600   4
  -1  -4  -2 1717.12 196.342   4
   1   4   3 2896.21 254.032   4
  -1  -4  -3 3345.30 290.210   5
  -1  -4  -4 16480.3 660.659   5
   1   4   4 16179.0 633.308   4
  -1  -4  -5 31099.0 913.380   5
  -1  -4  -6 551.279 133.510   5
  -1  -4  -7 6630.59 498.354   5
   1   4   7 9032.11 619.263   3
   1   4   8 19156.8 907.107   3
   1   4   9 4834.95 488.663   3
   1   4  10 317.398 143.411   3
   1   4  11 801.099 229.232   3
   1   4  12 4153.21 558.076   3
   1   4  13 93.7350 82.4651   3
   1   4  14 1624.46 414.030   3
  -1  -5  11-251.031 231.902   3
  -1  -5  11-205.372 171.285   2
  -1  -5  10 454.574 253.899   2
  -1  -5  10 281.314 232.397   3
  -1  -5   9 2359.66 608.656   3
  -1  -5   9 2423.86 517.266   2
  -1  -5   8 777.072 366.496   3
  -1  -5   8 1072.76 333.227   2
  -1  -5   7 3058.39 660.141   3
  -1  -5   7 3367.02 589.911   2
  -1  -5   6 4917.59 818.224   3
  -1  -5   6 4643.26 713.989   2
  -1  -5   5 11311.0 1209.43   2
  -1  -5   5 12855.0 1271.96   3
  -1  -5   4 377.232 254.194   2
  -1  -5   4 680.550 303.835   3
  -1  -5   3 24233.1 1561.15   3
   1   5  -3 23604.9 1081.54   4
  -1  -5   2 2321.92 662.974   2
   1   5  -2 11248.4 727.413   4
   1   5  -1 15704.3 819.916   4
  -1  -5   1 12416.9 1129.03   2
   1   5   0 364.277 122.813   4
  -1  -5   0 449.644 153.162   5
   1   5   1 518.115 139.345   4
  -1  -5  -1 291.368 93.4026   5
  -1  -5  -2 3600.35 335.202   5
   1   5   2 4068.52 369.384   4
  -1  -5  -3 5203.05 401.686   5
   1   5   3 4718.82 385.590   4
  -1  -5  -4 1825.79 248.014   5
   1   5   4 1447.71 217.844   4
   1   5   5 341.253 109.366   4
  -1  -5  -5 305.167 96.9362   5
  -1  -5  -6 17.7520 19.4155   5
   1   5   6-33.3062 49.1536   4
  -1  -5  -7 180.609 92.1252   5
  -1  -5  -8 1753.49 273.800   5
   1   5   8 2968.41 399.535   3
   1   5   9 3117.27 413.743   3
   1   5  10 4064.52 495.264   3
   1   5  11 506.770 185.542   3
   1   5  12 4957.83 632.774   3
   1   5  13 4316.76 629.736   3
   1   5  14 221.408 142.513   3
  -1  -6  11-90.6222 183.323   2
  -1  -6  10 219.940 222.941   3
  -1  -6  10 36.3797 184.958   2
  -1  -6   9 3737.27 834.236   2
  -1  -6   9 5054.97 991.145   3
  -1  -6   8 1761.38 565.184   3
  -1  -6   8 1445.93 533.943   2
  -1  -6   7 6.33391 120.324   2
  -1  -6   7 148.576 175.589   3
  -1  -6   6 1000.22 526.612   2
  -1  -6   6 3024.96 663.160   3
  -1  -6   5 4554.97 788.941   3
  -1  -6   5 2158.44 728.261   2
  -1  -6   4 1532.91 449.378   3
  -1  -6   3 448.124 260.219   2
   1   6  -3 4136.65 491.914   4
   1   6  -2 9732.06 749.365   4
  -1  -6   2 4432.85 897.438   2
   1   6  -1 1439.33 277.879   4
  -1  -6   1 1671.94 330.089   5
  -1  -6   1 1489.22 346.075   2
   1   6   0 656.282 170.393   4
  -1  -6   0 841.685 208.404   5
   1   6   1 6773.78 564.295   4
  -1  -6  -1 7643.02 570.871   5
   1   6   2 16185.0 860.225   4
  -1  -6  -2 17205.8 819.449   5
  -1  -6  -3 217.657 103.525   5
   1   6   3 228.860 109.754   4
   1   6   4 2616.55 333.509   4
  -1  -6  -4 3139.75 343.511   5
   1   6   5 12150.7 718.510   4
  -1  -6  -5 14574.0 757.598   5
   1   6   6 7912.65 601.184   4
  -1  -6  -6 8032.19 550.670   5
   1   6   7 8150.32 645.284   4
  -1  -6  -7 8333.30 588.600   5
   1   6   8-30.2948 119.101   4
  -1  -6  -8 36.2506 44.2666   5
   1   6   9 17126.8 1069.06   3
  -1  -6  -9 10986.9 754.442   5
   1   6  10 3192.87 465.684   3
   1   6  11 1223.67 306.440   3
   1   6  12 1154.79 319.824   3
   1   6  13 3637.51 597.420   3
   1   6  14 269.931 174.840   3
  -1  -7  10 613.186 457.209   2
  -1  -7   9 196.009 299.950   2
  -1  -7   9 47.8008 151.444   3
  -1  -7   8-53.9641 178.975   2
  -1  -7   8 166.447 171.683   3
  -1  -7   7-275.646 335.559   2
  -1  -7   7-58.6374 142.648   3
  -1  -7   6 498.490 308.808   3
  -1  -7   5 338.385 356.184   2
  -1  -7   5 687.920 351.193   3
  -1  -7   4-480.456 568.682   2
   1   7  -3 10047.2 825.549   4
  -1  -7   3 5501.49 1066.57   2
   1   7  -2 134.153 98.1413   4
  -1  -7   2 145.841 135.778   5
  -1  -7   2 222.165 162.143   2
  -1  -7   1 7112.26 700.378   5
   1   7  -1 5917.79 610.354   4
  -1  -7   0 22520.2 1140.47   5
   1   7   0 19627.8 1075.67   4
   1   7   1 625.473 187.346   4
  -1  -7  -1 756.764 195.241   5
  -1  -7  -2 1154.93 227.469   5
   1   7   2 1321.09 267.983   4
  -1  -7  -3 359.645 128.092   5
   1   7   3 339.223 120.367   4
   1   7   4 1087.28 237.634   4
  -1  -7  -4 1081.04 218.631   5
   1   7   5 449.923 158.454   4
  -1  -7  -5 713.723 187.781   5
   1   7   6 9403.67 717.445   4
  -1  -7  -6 10659.2 701.531   5
  -1  -7  -7 34257.0 1227.73   5
   1   7   7 34528.1 1417.61   4
   1   7   8 48.1246 58.1197   4
  -1  -7  -8 63.6652 53.0788   5
  -1  -7  -9 235.125 112.649   5
   1   7   9 313.597 140.326   4
  -1  -7 -10 514.110 172.663   5
   1   7  10 613.159 230.944   4
   1   7  11 1991.99 437.026   4
   1   7  11 2881.08 491.269   3
   1   7  12-51.9277 98.5947   3
   1   7  12 148.570 133.872   4
   1   7  13 3606.24 626.004   3
   1   7  14 604.694 278.369   3
  -1  -8   9 605.877 680.518   2
  -1  -8   8 1821.09 988.907   2
  -1  -8   8 270.167 308.706   3
  -1  -8   7 79.2198 365.622   2
  -1  -8   6 315.838 287.811   2
  -1  -8   5-173.960 271.360   2
  -1  -8   4 3652.64 865.357   2
  -1  -8   3 45148.7 2473.34   2
   1   8  -3 42960.2 1844.78   4
  -1  -8   2-295.572 194.838   2
   1   8  -2 157.669 112.472   4
  -1  -8   1 2165.39 410.354   5
   1   8  -1 2003.90 388.164   4
  -1  -8   0 4459.07 539.678   5
   1   8   0 4182.64 539.876   4
  -1  -8  -1 3438.96 449.415   5
   1   8   1 3324.34 475.949   4
   1   8   2 46.9536 41.9290   4
  -1  -8  -2-41.7123 63.3623   5
   1   8   3 914.297 235.920   4
  -1  -8  -3 926.354 226.442   5
   1   8   4 220.258 111.451   4
  -1  -8  -4 385.170 149.012   5
   1   8   5 634.692 191.576   4
  -1  -8  -5 957.833 227.352   5
  -1  -8  -6 4110.22 466.966   5
   1   8   6 3558.19 486.571   4
  -1  -8  -7 6736.08 586.076   5
   1   8   7 5565.62 616.873   4
   1   8   8 191.857 120.327   4
  -1  -8  -8 209.746 109.377   5
   1   8   9-44.3077 63.7063   4
  -1  -8  -9 54.4305 74.0709   5
   1   8  10 3053.16 523.735   4
  -1  -8 -10 3738.98 499.518   5
  -1  -8 -11 4864.95 588.951   5
   1   8  11 8085.78 877.034   3
   1   8  12 7138.63 849.957   3
   1   8  13-95.7690 121.949   3
   1   8  14 22.1200 74.5184   3
  -1  -9   6 1998.66 813.255   2
  -1  -9   5 329.001 327.938   2
  -1  -9   4-32.0393 103.422   2
  -1  -9   4 826.556 383.103   5
   1   9  -3 1992.82 423.106   4
  -1  -9   3 2453.51 506.181   2
  -1  -9   3 2253.02 468.068   5
   1   9  -2 2405.52 474.055   4
  -1  -9   2 2943.98 514.438   5
   1   9  -1-65.3420 77.4376   4
  -1  -9   1-34.3143 103.784   5
   1   9   0-41.4503 73.8341   4
  -1  -9   0-54.2237 114.702   5
   1   9   1 1709.61 364.469   4
  -1  -9  -1 1552.07 314.722   5
   1   9   2 172.488 120.068   4
  -1  -9  -2 55.6158 52.8975   5
   1   9   3 139.754 141.804   4
  -1  -9  -3 204.134 111.096   5
   1   9   4 5681.68 652.712   4
  -1  -9  -4 6880.25 641.921   5
  -1  -9  -5 2819.18 414.009   5
   1   9   5 2469.76 431.530   4
   1   9   6 604.226 212.954   4
  -1  -9  -6 396.144 148.809   5
   1   9   7 1163.46 302.111   4
  -1  -9  -7 1079.61 260.890   5
  -1  -9  -8 5200.56 554.706   5
   1   9   8 5332.50 671.638   4
  -1  -9  -9 11.8537 34.4179   5
  -1  -9 -10 355.860 166.030   5
  -1  -9 -11 1604.30 349.441   5
   1   9  11 2525.48 549.181   3
   1   9  12 2004.11 480.601   3
   1   9  13 2081.25 505.356   3
  -1 -10   4 713.403 351.170   5
   1  10  -3 2.50367 46.8008   4
  -1 -10   3-125.702 100.759   5
   1  10  -2 904.933 300.757   4
  -1 -10   2 914.531 299.358   5
   1  10  -1 2364.86 487.465   4
  -1 -10   1 1996.98 412.631   5
   1  10   0 194.941 139.335   4
  -1 -10   0-95.4959 141.116   5
   1  10   1 1400.38 359.096   4
  -1 -10  -1 1417.30 323.005   5
  -1 -10  -2 10286.4 861.702   5
   1  10   2 9151.44 904.075   4
  -1 -10  -3 2750.41 452.840   5
   1  10   3 2612.01 481.994   4
   1  10   4 449.769 187.323   4
  -1 -10  -4 444.701 162.042   5
  -1 -10  -5 1424.68 304.528   5
   1  10   5 1410.66 352.744   4
  -1 -10  -6 830.987 242.233   5
  -1 -10  -7 302.257 135.915   5
  -1 -10  -8 23.5284 64.5921   5
  -1 -10  -9-100.710 91.6376   5
  -1 -10 -10 159.698 88.2373   5
   1  10  11-220.455 177.920   3
  -1 -10 -11 24.7906 72.8731   5
   1  10  12 3482.23 673.606   3
   1  11  -3 919.960 320.747   4
   1  11  -2 525.159 226.280   4
  -1 -11   2 131.002 59.0432   5
   1  11  -1 160.497 126.173   4
  -1 -11   1-93.4752 104.864   5
   1  11   0 683.503 268.116   4
  -1 -11   0 343.285 172.935   5
   1  11   1 312.592 198.718   4
  -1 -11  -1 387.434 170.924   5
  -1 -11  -2 104.804 47.3823   5
   1  11   2 471.821 231.215   4
  -1 -11  -3 1391.40 333.979   5
  -1 -11  -4 168.160 130.196   5
  -1 -11  -5-24.3715 101.089   5
  -1 -11  -6 1274.25 319.551   5
  -1 -11  -7 5144.81 637.795   5
  -1 -11  -8 122.298 106.046   5
  -1 -11  -9 332.357 169.583   5
  -1 -12  -2-189.438 182.040   5
  -1 -12  -3 371.587 150.173   5
  -1 -12  -4 2734.02 491.143   5
  -1 -12  -5-106.646 133.737   5
  -1 -12  -6 2343.85 465.990   5
  -2  11   5 10.9453 74.8620   4
  -2  11   4 1173.40 434.217   4
  -2  11   3 216.883 148.425   4
   2 -11  -1-147.474 141.213   5
   2 -11   0 507.002 217.620   5
  -2  10   9-39.5122 97.2054   4
  -2  10   8 546.886 290.256   4
   2 -10  -8 349.858 153.318   5
   2 -10  -7 602.538 188.258   5
  -2  10   7 766.234 339.521   4
   2 -10  -6 1516.87 307.307   5
  -2  10   6 1399.11 443.885   4
  -2  10   5 248.841 211.597   4
   2 -10  -5 135.355 83.4700   5
  -2  10   4 597.292 286.120   4
   2 -10  -4 804.297 233.878   5
   2 -10  -3 1762.61 339.265   5
  -2  10   3 2361.15 578.582   4
  -2  10   2 467.417 231.084   4
   2 -10  -2 318.248 128.401   5
  -2  10   1-68.3433 59.4638   4
   2 -10  -1-73.3358 122.994   5
  -2  10   0 3001.74 655.570   4
   2 -10   0 2542.15 419.517   5
  -2  10  -1 923.315 365.260   4
   2 -10   1 746.494 231.589   5
   2 -10   2-225.159 139.077   5
   2 -10   3 37.1602 60.4798   5
   2 -10   4 114.586 122.506   5
  -2   9  11 25.8965 90.5567   4
  -2   9  10-359.047 211.375   4
   2  -9  -9 1284.99 289.647   5
  -2   9   9 1352.52 429.049   4
  -2   9   8 731.364 316.763   4
   2  -9  -8 467.302 158.946   5
  -2   9   7 328.329 230.454   4
   2  -9  -7 151.329 111.345   5
  -2   9   6 1104.32 364.754   4
   2  -9  -6 656.676 184.618   5
  -2   9   5 269.373 215.782   4
   2  -9  -5 74.5451 55.0985   5
  -2   9   4 222.260 173.810   4
   2  -9  -4 440.335 166.521   5
   2  -9  -3 75.4468 70.5510   5
  -2   9   3 83.1901 85.3343   4
  -2   9   2-15.1325 73.7981   4
   2  -9  -2-79.3076 70.5918   5
  -2   9   1-2.28541 52.6137   4
   2  -9  -1 84.3166 73.9419   5
   2  -9   0 334.024 117.534   5
  -2   9   0 525.114 270.517   4
  -2   9  -1 847.801 330.425   4
   2  -9   1 682.650 213.196   5
  -2   9  -2 648.245 286.859   4
   2  -9   2 585.854 211.416   5
  -2   9  -3 133.594 139.670   4
   2  -9   3 463.328 191.733   5
  -2   9  -4 120.808 150.616   4
   2  -9   4 312.097 209.871   5
   2  -9   5 6968.92 853.020   5
  -2   8  12 390.857 267.154   4
  -2   8  11 145.775 180.256   4
  -2   8  10 449.800 254.189   4
  -2   8   9 69.8440 62.2127   4
   2  -8  -9 18.3662 52.5880   5
  -2   8   8 714.029 275.693   4
   2  -8  -8 733.573 204.922   5
   2  -8  -7 2.78350 46.9172   5
  -2   8   7 120.622 124.907   4
   2  -8  -6 1381.94 247.546   5
  -2   8   6 1628.61 424.414   4
   2  -8  -5 57.1998 71.2559   5
  -2   8   5 35.1589 121.482   4
  -2   8   4 7466.84 887.285   4
   2  -8  -4 8557.13 655.628   5
  -2   8   3 580.178 243.942   4
   2  -8  -3 290.283 106.624   5
  -2   8   2 2708.05 550.479   4
   2  -8  -2 3133.35 396.892   5
  -2   8   1 655.432 252.978   4
   2  -8  -1 730.866 186.798   5
   2  -8   0 2770.83 393.094   5
  -2   8   0 3340.77 607.759   4
   2  -8   1 443.779 157.004   5
  -2   8  -1 592.904 275.025   4
   2  -8   2 7040.04 700.985   5
  -2   8  -2 7087.86 918.598   4
   2  -8   3 1417.58 349.930   5
  -2   8  -3 1314.19 392.140   4
  -2   8  -4 115.257 150.768   4
   2  -8   4 511.888 270.668   5
  -2   8  -5 72.1918 108.372   4
  -2   8  -6 157.935 132.476   4
   2  -8   7 503.630 308.538   3
  -2   7  12 14.8895 73.1835   4
  -2   7  11 2945.05 656.244   4
  -2   7  10 486.979 262.231   4
  -2   7   9 2121.03 500.181   4
   2  -7  -8 2150.92 336.742   5
  -2   7   8 1743.35 444.053   4
  -2   7   7 4151.94 645.330   4
   2  -7  -7 3681.97 408.032   5
   2  -7  -6 93.6392 30.7797   5
  -2   7   6 172.200 55.1553   4
  -2   7   5 18423.2 1320.18   4
   2  -7  -5 16308.4 802.678   5
  -2   7   4 11499.8 1030.58   4
   2  -7  -4 12732.3 735.778   5
  -2   7   3 333.934 175.565   4
   2  -7  -3 284.339 99.6920   5
   2  -7  -2 2371.10 319.026   5
  -2   7   2 2992.28 520.086   4
  -2   7   1 7333.96 830.242   4
   2  -7  -1 6534.73 526.836   5
  -2   7   0 2547.04 503.643   4
   2  -7   0 2416.24 334.268   5
   2  -7   1 1668.09 307.260   5
  -2   7  -1 1943.03 453.203   4
  -2   7  -2 119.978 60.5296   4
   2  -7   2 335.157 170.460   5
  -2   7  -3 693.302 290.245   4
   2  -7   3 853.971 299.021   5
  -2   7  -4 251.288 175.787   4
  -2   7  -5 139.671 158.234   4
   2  -7   5 169.131 161.006   3
  -2   7  -6 683.959 284.409   4
   2  -7   6 385.276 260.310   3
  -2   7  -7-9.14449 52.3946   4
   2  -7   7-208.562 246.653   3
   2  -7   8 332.438 278.585   3
  -2   6  13 7259.68 888.672   2
  -2   6  13 6402.67 1071.40   4
  -2   6  12-7.04637 58.8011   4
  -2   6  11 1875.29 518.827   4
  -2   6  10 5101.11 793.562   4
  -2   6   9 989.766 324.231   4
  -2   6   8 5570.11 461.182   3
  -2   6   8 4737.27 679.092   4
   2  -6  -8 4882.56 476.844   5
  -2   6   7 2296.35 447.468   4
   2  -6  -7 2237.85 309.196   5
  -2   6   7 2646.35 301.969   3
   2  -6  -6 514.567 138.057   5
  -2   6   6 557.869 223.208   4
  -2   6   5 90.3411 74.9253   4
   2  -6  -5 17.8984 18.9015   5
   2  -6  -4 372.131 116.231   5
  -2   6   4 327.119 161.075   4
  -2   6   3 2182.63 416.251   4
   2  -6  -3 1884.81 251.369   5
   2  -6  -2 3848.01 368.104   5
  -2   6   2 3994.29 563.925   4
  -2   6   1 168.696 93.9079   4
   2  -6  -1 100.584 39.6846   5
   2  -6   0 1342.80 237.693   5
  -2   6   0 2018.66 417.288   4
  -2   6  -1 382.372 215.066   4
   2  -6   1 299.073 132.366   5
   2  -6   2 4515.08 558.036   5
  -2   6  -2 4253.63 632.047   4
  -2   6  -3 1218.78 343.222   4
   2  -6   3 999.583 355.120   3
   2  -6   3 89.8416 128.179   2
  -2   6  -4 269.982 164.244   4
   2  -6   4 867.019 519.795   2
   2  -6   4 319.113 238.735   3
   2  -6   5 10.9761 161.339   3
  -2   6  -5 105.490 170.312   4
   2  -6   6 306.460 200.482   3
  -2   6  -6-9.24487 37.9352   4
  -2   6  -7 497.339 218.070   4
   2  -6   7 345.900 238.152   3
   2  -6   8 2075.22 587.837   3
   2  -6   9-31.9956 123.603   3
  -2   5  14 1131.62 371.253   2
  -2   5  13 861.309 311.804   2
  -2   5  12 189.768 132.765   2
  -2   5  10 4002.44 693.594   4
  -2   5  10 3489.43 405.427   3
  -2   5   9 4106.66 645.350   4
  -2   5   9 4675.68 440.927   3
  -2   5   8 254.989 98.6499   3
  -2   5   8 454.171 223.135   4
  -2   5   7 1247.36 312.206   4
  -2   5   7 1677.48 223.208   3
   2  -5  -7 1613.56 252.640   5
   2  -5  -6 13157.1 670.141   5
  -2   5   6 12930.0 990.747   4
  -2   5   6 12619.2 581.185   3
  -2   5   5 7098.82 709.946   4
   2  -5  -5 7026.87 455.730   5
   2  -5  -4 2269.94 252.028   5
  -2   5   4 2414.97 403.040   4
   2  -5  -3 9450.59 526.581   5
  -2   5   3 8853.19 776.845   4
   2  -5  -2 17058.8 690.753   5
  -2   5   2 17340.7 1080.23   4
   2  -5  -1 989.201 167.350   5
  -2   5   1 1101.77 276.162   4
   2  -5   0 4376.14 389.406   5
  -2   5   0 4365.40 564.788   4
  -2   5  -1 100734. 2791.54   4
   2  -5   1 107565. 2160.27   5
  -2   5  -2 5221.58 648.846   4
   2  -5   2 5836.65 688.559   3
  -2   5  -3 512.695 217.260   4
   2  -5   3 404.695 232.090   3
   2  -5   3 400.205 266.011   2
  -2   5  -4 104.615 88.7957   4
   2  -5   4 73.3898 75.3227   2
   2  -5   4-29.2827 109.355   3
  -2   5  -5 7820.23 849.385   4
   2  -5   5 5586.24 788.658   3
   2  -5   5 6619.31 567.562   2
  -2   5  -6 591.735 231.888   4
   2  -5   6 595.914 167.254   2
   2  -5   6 346.094 189.696   3
  -2   5  -7-78.2892 115.300   4
   2  -5   7-15.9229 72.9311   3
   2  -5   7 37.3279 56.8831   2
   2  -5   8 3845.15 487.814   2
   2  -5   8 2964.57 627.202   3
   2  -5   9 432.385 210.378   3
   2  -5   9 611.314 208.799   2
   2  -5  10 251.367 210.113   3
  -2   4  14 263.368 182.663   2
  -2   4  13 518.995 233.171   2
  -2   4  12 3972.84 518.342   3
  -2   4  12 4517.48 643.200   2
  -2   4  11 7201.22 643.174   3
  -2   4  11 7946.65 774.254   2
  -2   4  10 88.7436 79.8316   3
  -2   4   9 375.170 122.829   3
  -2   4   8 40441.8 1162.21   3
  -2   4   7 12651.6 983.509   4
  -2   4   7 14096.7 635.387   3
  -2   4   6 5929.31 633.108   4
   2  -4  -6 6560.01 459.050   5
  -2   4   6 7285.76 405.987   3
  -2   4   5 14171.7 932.194   4
   2  -4  -5 14471.1 621.938   5
  -2   4   5 16469.7 562.628   3
  -2   4   4 4753.11 529.177   4
   2  -4  -4 4702.34 322.985   5
  -2   4   3 9.36353 32.2081   4
   2  -4  -3 65.4350 50.8535   5
  -2   4   2 38671.9 1282.13   3
   2  -4  -2 37437.8 904.310   5
  -2   4   1 2731.29 397.735   4
  -2   4   1 2951.18 328.628   3
   2  -4  -1 2748.85 246.322   5
  -2   4   0 285.232 132.089   4
   2  -4   0 291.348 95.1916   5
   2  -4   1 2777.65 403.082   3
  -2   4  -1 2423.02 401.914   4
   2  -4   2 4774.79 578.976   3
  -2   4  -2 5999.63 636.244   4
   2  -4   3 53.1811 91.3645   3
  -2   4  -3 74.2501 59.6012   4
   2  -4   3 165.331 69.5817   2
  -2   4  -4 32.8968 79.4423   4
   2  -4   4-2.20370 55.0178   3
   2  -4   4 51.4167 35.0124   2
   2  -4   5 1002.87 311.797   3
  -2   4  -5 693.450 245.041   4
   2  -4   5 374.661 107.566   2
   2  -4   6 573.039 231.734   3
  -2   4  -6 374.782 171.637   4
   2  -4   6 298.606 108.626   2
   2  -4   7 144.864 139.848   3
  -2   4  -7 100.905 76.2949   4
   2  -4   7 218.237 86.8039   2
   2  -4   8 3342.33 548.559   3
   2  -4   8 3216.96 409.295   2
   2  -4   9 691.414 246.801   3
   2  -4   9 720.990 208.567   2
   2  -4  10 252.547 106.515   3
   2  -4  10 225.662 125.554   2
   2  -4  11 101.516 169.218   3
   2  -4  11 1.17512 75.7446   2
   2  -4  12 1270.31 346.638   2
  -2   3  14 2149.40 514.362   2
  -2   3  13 151.151 129.723   2
  -2   3  13 73.2655 51.9252   3
  -2   3  12 520.161 187.351   3
  -2   3  12 842.115 272.665   2
  -2   3  11 10259.1 889.623   2
  -2   3  11 9606.37 753.638   3
  -2   3  10 1828.56 304.544   3
  -2   3  10 2039.13 367.209   2
  -2   3   9 12955.0 835.673   2
  -2   3   9 10212.5 637.683   3
  -2   3   8 7688.57 501.199   3
  -2   3   7 4504.51 343.837   3
  -2   3   6 873.909 137.264   3
  -2   3   5 11899.4 821.138   4
  -2   3   5 13274.6 477.305   3
  -2   3   4 5167.66 509.448   4
   2  -3  -4 5037.33 323.562   5
  -2   3   4 5275.63 261.514   3
   2  -3  -3 2964.65 219.106   5
  -2   3   3 3163.48 385.466   4
   2  -3  -2 8544.78 378.724   5
  -2   3   2 8628.93 636.268   4
  -2   3   2 9748.06 454.025   5
  -2   3   1 20369.9 1000.07   4
  -2   3   1 21754.2 714.717   3
  -2   3   0 21662.7 604.659   3
   2  -3   0 22453.9 688.561   5
  -2   3  -1 72.4977 39.7678   3
  -2   3  -1-46.3113 47.6433   4
   2  -3   1 71.6003 53.8751   3
  -2   3  -2 21310.3 1088.14   4
   2  -3   2 19727.8 953.898   3
   2  -3   2 20535.0 515.865   2
   2  -3   3 45920.2 1362.82   3
   2  -3   3 41512.1 858.185   2
  -2   3  -3 46399.0 1669.68   4
   2  -3   4 441.601 99.2882   2
   2  -3   4 530.070 146.416   3
  -2   3  -4 526.776 180.392   4
   2  -3   5 1899.33 291.084   3
  -2   3  -5 2073.85 376.904   4
   2  -3   5 1668.44 218.970   2
   2  -3   6 5317.75 526.527   3
   2  -3   6 4712.11 399.989   2
  -2   3  -6 5356.85 610.828   4
   2  -3   7 10918.9 795.003   3
   2  -3   7 9900.03 631.827   2
   2  -3   8-20.4921 52.4888   3
   2  -3   8 46.9542 45.8706   2
   2  -3   9 44.6167 35.1783   2
   2  -3   9-8.92575 61.4327   3
   2  -3  10 241.979 154.003   3
   2  -3  10 165.095 102.707   2
   2  -3  11 176.483 112.436   3
   2  -3  11 116.655 119.187   2
   2  -3  12-67.2717 136.287   3
   2  -3  12 117.885 72.6745   2
   2  -3  13 503.832 219.413   2
  -2   2  14 248.712 181.671   2
  -2   2  14 425.361 205.791   3
  -2   2  13 346.248 177.927   3
  -2   2  13 283.529 185.901   2
  -2   2  12 276.396 156.039   3
  -2   2  12 161.215 129.090   2
  -2   2  11 335.134 138.932   3
  -2   2  11 557.554 206.958   2
  -2   2  10 119.596 93.1852   2
  -2   2  10 93.8707 69.3377   3
  -2   2   9 632.770 166.993   3
  -2   2   9 573.712 188.367   2
  -2   2   8 720.781 190.144   2
  -2   2   8 557.585 140.294   3
  -2   2   7 2073.28 240.447   3
  -2   2   7 2417.73 315.957   2
  -2   2   6 14437.9 560.029   3
  -2   2   6 15780.3 722.429   2
  -2   2   5 1759.52 170.493   3
  -2   2   5 1998.39 233.165   2
  -2   2   4 53.3636 35.9282   2
  -2   2   4 35.8949 28.6809   3
   2  -2  -3 46530.5 844.556   5
  -2   2   3 44516.2 1344.22   4
  -2   2   3 45594.1 847.449   5
  -2   2   2 39492.8 1211.57   4
  -2   2   2 35905.6 656.936   5
   2  -2  -2 34016.9 588.847   5
  -2   2   2 38887.1 656.586   2
   2  -2  -1 14017.4 367.818   5
  -2   2   1 14051.4 334.454   3
  -2   2   0 657.339 72.5949   3
   2  -2   0 851.116 108.768   5
  -2   2   0 865.294 190.818   4
   2  -2   0 823.329 140.176   3
   2  -2   1 47863.9 1066.66   3
  -2   2  -1 46215.8 1405.75   4
   2  -2   2 103.643 40.4675   3
  -2   2  -2 59.0543 70.6372   4
  -2   2  -2 87.5017 37.2403   3
  -2   2  -3 16322.6 905.757   4
   2  -2   3 16828.3 649.979   3
  -2   2  -4 31758.3 1289.98   4
   2  -2   4 31188.3 962.064   3
  -2   2  -5 24.2934 40.6228   4
   2  -2   5 41.5385 34.0315   3
  -2   2  -6 31.8161 31.4984   4
   2  -2   6 82.4882 64.2163   3
   2  -2   7 135.719 82.6321   3
   2  -2   8 4856.22 520.704   3
   2  -2   9 479.977 177.457   3
   2  -2   9 270.676 117.922   2
   2  -2  10 2612.69 403.177   2
   2  -2  10 2662.74 454.790   3
   2  -2  11 3366.26 493.697   2
   2  -2  11 3502.69 556.525   3
   2  -2  12 1854.88 394.237   2
   2  -2  12 1994.69 453.490   3
   2  -2  13 57.4540 86.4421   2
  -2   1  14 1603.67 445.028   3
  -2   1  13 745.483 281.135   2
  -2   1  13 987.098 310.050   3
  -2   1  12 354.082 198.964   2
  -2   1  12 458.419 197.042   3
  -2   1  11 48.6161 43.6845   3
  -2   1  11 73.9096 78.0512   2
  -2   1  10 4221.91 492.141   3
  -2   1  10 3987.24 525.052   2
  -2   1   9 3222.83 432.531   2
  -2   1   9 3160.28 383.471   3
  -2   1   8 5638.13 527.744   2
  -2   1   8 5623.73 467.779   3
  -2   1   7 17558.5 861.060   2
  -2   1   7 16246.6 712.386   3
  -2   1   6 12568.0 562.219   3
  -2   1   6 12827.1 437.259   1
  -2   1   6 12573.9 665.787   2
  -2   1   5 9271.18 403.279   1
  -2   1   5 8343.58 402.967   3
  -2   1   5 8009.02 486.454   2
   2  -1  -4 7550.87 327.885   6
  -2   1   4 7910.12 444.179   2
  -2   1   4 7043.11 318.094   3
  -2   1   3 43303.3 926.236   2
  -2   1   3 40082.5 617.772   3
   2  -1  -3 40852.5 760.361   6
  -2   1   3 41895.9 785.676   5
   2  -1  -3 38229.7 543.535   3
  -2   1   2 27478.8 499.814   5
   2  -1  -2 29602.7 648.297   6
  -2   1   2 28097.0 386.147   3
   2  -1  -1 4123.33 242.829   6
  -2   1   1 3925.22 147.285   5
  -2   1   1 4540.37 357.697   4
   2  -1  -1 3929.01 139.423   5
   2  -1  -1 4515.36 199.769   2
  -2   1   0 1485.59 208.778   4
   2  -1   0 1128.83 77.5244   5
   2  -1   0 1189.92 131.116   6
   2  -1   1 14219.4 350.647   3
   2  -1   1 13299.2 437.007   6
  -2   1  -1 13047.3 313.543   3
  -2   1  -2 539.979 148.425   4
   2  -1   2 421.831 82.0099   6
   2  -1   2 539.844 82.5272   3
  -2   1  -2 506.105 78.7052   3
   2  -1   3 16375.7 490.094   6
   2  -1   3 16988.9 546.035   3
  -2   1  -3 16774.3 811.849   4
   2  -1   4 1785.11 202.034   3
  -2   1  -4 1967.32 303.177   4
   2  -1   5 24375.7 819.637   3
  -2   1  -5 22761.3 1028.32   4
   2  -1   6 357.086 109.400   3
   2  -1   7 20536.5 902.773   3
   2  -1   8 17070.1 894.478   3
   2  -1   9 30329.4 1296.07   3
   2  -1  10 133.657 78.8818   3
   2  -1  11 9376.84 856.070   3
   2  -1  12 372.473 194.328   3
   2  -1  12 798.772 250.818   2
   2  -1  13 913.883 310.926   3
   2  -1  13 974.879 301.701   2
  -2   0  14 171.871 159.400   3
  -2   0  13 2479.17 527.407   2
  -2   0  13 2941.83 566.013   3
  -2   0  12 3586.68 565.145   3
  -2   0  12 3417.70 576.815   2
  -2   0  11 1358.58 333.288   3
  -2   0  11 1597.46 366.264   2
  -2   0  10 137.102 103.325   3
  -2   0  10 38.7302 50.3882   2
  -2   0   9 1259.19 284.028   2
  -2   0   9 1658.70 300.774   3
  -2   0   8 15815.5 924.593   2
  -2   0   8 17902.7 909.376   3
  -2   0   7 1407.38 258.233   2
  -2   0   7 1842.90 269.172   3
   2   0  -6 38557.9 671.188   6
  -2   0   6 42639.0 1168.48   3
  -2   0   6 40633.3 1269.57   2
   2   0  -5 43.6379 25.2500   6
  -2   0   5 85.5567 56.4015   3
  -2   0   5 33.3077 31.8668   2
   2   0  -4 2334.20 177.421   6
  -2   0   4 2664.08 240.611   3
  -2   0   4 2441.54 264.241   2
   2   0  -3 9730.25 327.180   3
  -2   0   3 10931.0 435.785   3
  -2   0   3 9805.86 373.792   1
   2   0  -3 9533.37 372.193   6
  -2   0   3 10874.2 523.774   2
   2   0  -2 159.384 53.1589   2
  -2   0   2 96.6011 47.2838   3
   2   0  -2 71.7367 25.1868   3
  -2   0   2 71.8005 30.6400   1
   2   0  -2 185.858 56.6218   6
  -2   0   2 101.289 63.8850   2
  -2   0   1 48063.9 1044.82   4
   2   0  -1 51342.5 628.940   3
   2   0  -1 48831.1 867.390   6
   2   0   0 1146.23 147.003   4
   2   0   0 1143.73 134.262   6
  -2   0   0 1281.09 158.874   4
   2   0   1 17517.7 584.209   4
   2   0   1 16438.2 332.008   3
   2   0   1 16234.9 301.558   5
   2   0   1 16057.6 501.402   6
  -2   0  -2 177077. 2115.39   4
   2   0   2 174277. 1372.93   3
   2   0   2 172774. 2006.40   4
  -2   0  -3 13952.2 501.031   1
   2   0   3 12492.5 435.239   6
   2   0   3 12927.7 625.579   4
   2   0   3 13767.3 453.910   3
  -2   0  -3 13036.9 426.028   3
  -2   0  -3 13027.1 618.507   4
   2   0   4 2260.39 207.332   3
   2   0   4 2040.87 169.838   6
  -2   0  -4 2367.16 282.612   4
   2   0   5 19907.7 688.242   3
   2   0   5 19005.5 499.237   6
   2   0   6 12911.1 399.499   6
   2   0   6 13882.4 640.829   3
   2   0   7 1688.33 242.059   3
   2   0   8 36046.4 1242.23   3
   2   0   9 18009.3 968.497   3
   2   0  10 1666.15 313.050   3
   2   0  11 4348.68 552.612   3
   2   0  12 903.538 265.155   3
   2   0  13 1538.75 389.844   3
   2   0  14 186.862 167.102   2
  -2  -1  13 805.803 320.184   3
  -2  -1  13 1165.17 372.754   2
  -2  -1  12 84.9873 97.8717   3
  -2  -1  12 213.095 140.713   2
  -2  -1  11 224.001 143.575   2
  -2  -1  11 322.664 173.209   3
  -2  -1  10 1286.90 315.254   3
  -2  -1  10 1597.16 341.605   2
  -2  -1   9 638.667 196.059   3
  -2  -1   9 701.953 216.868   2
  -2  -1   8 893.641 227.701   3
   2   1  -8 632.684 70.7630   6
  -2  -1   8 527.389 177.911   2
   2   1  -7 2432.75 160.723   6
  -2  -1   7 3155.80 388.771   3
  -2  -1   7 2766.59 371.100   2
  -2  -1   6 1743.60 270.016   3
   2   1  -6 1665.70 147.342   6
  -2  -1   6 1703.93 270.525   2
   2   1  -5 30101.8 612.789   1
  -2  -1   5 27235.4 1026.60   2
  -2  -1   5 28968.9 1015.69   3
   2   1  -4 2031.23 158.621   1
  -2  -1   4 2478.31 296.452   2
  -2  -1   4 2544.66 289.669   3
  -2  -1   3 16092.2 759.133   3
   2   1  -3 16812.5 557.281   3
  -2  -1   3 16815.3 759.284   2
   2   1  -3 14825.4 443.679   1
   2   1  -2 9085.95 353.828   1
  -2  -1   2 8030.18 671.343   2
  -2  -1   2 7275.44 542.658   3
   2   1  -1 999999. 3768.28   1
   2   1  -1 993754. 5436.51   3
  -2  -1   0 283.889 51.2090   5
   2   1   0 334.433 71.3342   1
   2   1   1 5800.14 303.936   1
  -2  -1  -1 5453.00 202.077   5
   2   1   1 5588.78 244.090   4
   2   1   1 5358.80 201.986   5
   2   1   2 391.036 65.1886   5
   2   1   2 429.338 83.3114   1
   2   1   2 492.228 87.6557   4
  -2  -1  -2 436.579 72.8731   5
  -2  -1  -2 536.394 91.9177   4
   2   1   3 102975. 1468.84   4
   2   1   3 103446. 1343.31   1
  -2  -1  -3 99860.2 1382.15   4
   2   1   3 103367. 1287.63   5
   2   1   4 7652.78 458.422   4
   2   1   4 8891.92 420.850   1
   2   1   4 8200.60 394.258   3
   2   1   5 6566.88 403.523   3
   2   1   5 8025.28 429.398   1
   2   1   6 373.398 106.574   3
   2   1   7 164.325 43.5086   6
   2   1   7 161.358 82.6628   3
   2   1   8 336.789 129.959   3
   2   1   8 188.059 50.0183   6
   2   1   9 24227.1 1077.08   3
   2   1  10 54.1443 31.5126   3
   2   1  11 4307.30 535.112   3
   2   1  12 1194.60 303.741   3
   2   1  13 8276.67 874.568   3
   2   1  14 6338.25 828.599   3
  -2  -2  13 738.756 327.400   3
  -2  -2  12-103.960 121.468   3
  -2  -2  12-154.787 133.839   2
  -2  -2  11 585.471 261.338   3
  -2  -2  11 306.872 167.367   2
  -2  -2  10 16605.1 1237.69   3
  -2  -2  10 16936.4 1180.87   2
  -2  -2   9 324.510 173.550   3
  -2  -2   9 247.342 132.891   2
  -2  -2   8 4497.25 534.064   2
  -2  -2   8 4738.99 575.449   3
   2   2  -8 4143.15 213.411   6
  -2  -2   7 1154.01 267.384   3
   2   2  -7 1060.34 108.721   1
  -2  -2   7 1160.50 256.170   2
  -2  -2   6 1966.16 338.984   3
  -2  -2   6 1951.30 313.461   2
  -2  -2   5 13430.2 871.276   3
  -2  -2   5 13326.8 785.216   2
  -2  -2   4 47.4053 59.9590   3
  -2  -2   4 222.654 116.382   2
  -2  -2   3 11786.5 864.016   3
  -2  -2   3 13505.0 863.097   2
  -2  -2   2 6866.15 606.745   3
  -2  -2   2 3881.21 646.972   2
  -2  -2   1 72844.2 3026.47   2
  -2  -2   0 207036. 1978.64   5
  -2  -2   0 215273. 3022.48   2
  -2  -2  -1 14645.1 447.390   5
  -2  -2  -2 14076.7 448.893   5
  -2  -2  -3 47394.3 880.503   5
   2   2   3 49912.5 774.977   4
  -2  -2  -4 3852.95 289.518   5
   2   2   4 4142.21 290.486   4
   2   2   5 20135.2 642.090   1
   2   2   5 20486.6 756.338   4
   2   2   6 1195.64 186.908   3
   2   2   6 1101.69 155.674   1
   2   2   7 35045.9 894.050   1
   2   2   7 35619.5 1125.12   3
   2   2   8 19810.8 737.286   1
   2   2   8 14156.8 778.708   3
   2   2   9-29.7368 96.3605   3
   2   2  10 9168.24 708.492   3
   2   2  11 7173.77 683.713   3
   2   2  12 325.975 167.445   3
   2   2  13 2554.04 474.916   3
   2   2  14 4609.03 698.866   3
  -2  -3  12-43.1191 171.827   3
  -2  -3  12 281.901 192.995   2
  -2  -3  11 10001.9 1194.69   3
  -2  -3  11 10181.1 1043.72   2
  -2  -3  10 2599.68 569.097   3
  -2  -3  10 3060.84 533.350   2
  -2  -3   9 508.000 227.111   3
  -2  -3   9 825.331 262.403   2
  -2  -3   8 54.3832 65.3296   3
  -2  -3   8-12.1574 53.4291   2
  -2  -3   7 253.814 155.842   3
  -2  -3   7 164.833 97.2047   2
  -2  -3   6 640.593 251.025   3
  -2  -3   6 1478.47 311.406   2
  -2  -3   5 2449.83 468.836   3
  -2  -3   5 2736.67 414.996   2
  -2  -3   4 5166.38 668.819   3
  -2  -3   4 5425.17 630.991   2
  -2  -3   3 14343.2 1078.43   3
  -2  -3   3 11765.8 1116.05   2
  -2  -3   2 3710.24 516.684   3
  -2  -3   1 15537.3 1546.65   2
  -2  -3   1 33236.0 854.449   4
  -2  -3   0 28197.3 1173.19   2
  -2  -3   0 27008.9 871.315   5
  -2  -3  -1 55221.9 722.848   4
  -2  -3  -1 58816.8 1099.83   5
  -2  -3  -2 13378.9 508.907   5
  -2  -3  -3 7021.17 383.319   5
  -2  -3  -4 121735. 1612.98   5
  -2  -3  -5 129837. 1856.74   5
  -2  -3  -6 7470.16 487.255   5
   2   3   6 9839.65 592.494   3
   2   3   7 367.659 121.131   3
   2   3   8 21131.9 742.007   1
   2   3   8 22524.2 978.235   3
   2   3   9 2317.51 246.425   1
   2   3   9 2534.05 364.330   3
   2   3  10 54.8901 68.9525   3
   2   3  11 902.233 245.788   3
   2   3  12 93.1043 83.0976   3
   2   3  13 170.034 126.549   3
   2   3  14 2161.94 481.176   3
  -2  -4  11-96.3357 139.134   3
  -2  -4  11 379.187 240.454   2
  -2  -4  10 865.621 389.821   3
  -2  -4  10 1486.56 415.412   2
  -2  -4   9 4390.66 819.841   3
  -2  -4   9 5444.72 746.984   2
  -2  -4   8 2700.71 597.246   3
  -2  -4   8 3330.06 564.316   2
  -2  -4   7 656.645 288.643   3
  -2  -4   7 693.532 252.837   2
  -2  -4   6-117.388 187.021   3
  -2  -4   6-145.702 241.956   2
  -2  -4   5 6559.46 859.388   3
  -2  -4   5 6081.35 809.895   2
  -2  -4   4 619.327 261.120   3
  -2  -4   4 273.917 179.699   2
  -2  -4   3 1159.07 482.355   2
  -2  -4   3 3631.74 571.659   3
  -2  -4   2 1323.90 551.393   2
  -2  -4   1 628.299 575.368   2
  -2  -4   0 16646.9 966.283   2
  -2  -4   0 15079.1 745.699   5
  -2  -4  -1 6490.53 338.244   4
  -2  -4  -1 7075.15 447.256   5
   2   4   1 6382.06 321.387   4
  -2  -4  -2 1664.49 136.434   4
   2   4   2 1365.54 130.939   4
  -2  -4  -2 1756.06 215.886   5
   2   4   3 25.9267 18.3687   4
  -2  -4  -3 55.7030 41.3753   5
   2   4   4 13785.1 450.689   4
  -2  -4  -4 19551.1 730.372   5
  -2  -4  -5 28338.8 884.259   5
  -2  -4  -6 104.135 64.5244   5
  -2  -4  -7 44.4090 45.7224   5
   2   4   8 1381.49 261.450   3
   2   4   9 12246.6 797.621   3
   2   4  10 389.211 158.760   3
   2   4  11 207.165 139.718   3
   2   4  12 7683.74 778.225   3
   2   4  13 4804.54 656.105   3
   2   4  14-124.380 120.846   3
  -2  -5  11-154.619 192.921   3
  -2  -5  11 216.351 215.942   2
  -2  -5  10-131.951 167.138   3
  -2  -5  10 364.773 253.358   2
  -2  -5   9 2930.95 717.776   3
  -2  -5   9 3326.97 708.622   2
  -2  -5   8 2159.53 605.354   3
  -2  -5   8 1820.56 543.127   2
  -2  -5   7 302.194 251.417   3
  -2  -5   7 243.935 189.385   2
  -2  -5   6 2276.45 644.260   2
  -2  -5   6 2685.71 639.652   3
  -2  -5   5 12228.8 1276.12   3
  -2  -5   5 6463.46 1223.95   2
  -2  -5   4-219.758 243.873   2
  -2  -5   4 293.446 210.892   3
  -2  -5   3 215.503 153.672   2
  -2  -5   2-105.602 250.078   2
  -2  -5   1 2187.56 505.438   2
  -2  -5   0 17951.9 906.257   5
   2   5   0 15008.7 658.450   4
  -2  -5  -1 17379.1 793.944   5
   2   5   1 17681.8 672.236   4
  -2  -5  -2 15021.9 567.635   4
  -2  -5  -2 14252.3 683.836   5
   2   5   2 14871.5 574.185   4
  -2  -5  -3 16862.3 735.476   5
   2   5   3 11371.7 484.071   4
   2   5   4 762.478 124.537   4
  -2  -5  -4 1046.83 195.679   5
  -2  -5  -5 5030.37 409.898   5
   2   5   5 4534.73 326.511   4
   2   5   6 24871.6 866.771   4
  -2  -5  -6 24483.8 923.516   5
  -2  -5  -7 8784.23 587.330   5
  -2  -5  -8-109.940 72.3513   5
   2   5   9 2549.21 388.093   3
   2   5  10 6117.39 628.933   3
   2   5  11 1124.47 288.563   3
   2   5  12 1793.43 403.133   3
   2   5  13 174.958 132.877   3
   2   5  14 759.882 286.390   3
  -2  -6  10 549.882 351.973   3
  -2  -6  10 68.5073 249.967   2
  -2  -6   9-40.3425 105.286   3
  -2  -6   9-110.820 185.835   2
  -2  -6   8-16.6877 177.950   3
  -2  -6   8-6.07789 92.8840   2
  -2  -6   7 276.747 305.815   2
  -2  -6   7 1195.41 445.320   3
  -2  -6   6 664.720 500.239   2
  -2  -6   6 1917.07 543.209   3
  -2  -6   5 2230.92 571.181   3
  -2  -6   4 943.625 489.161   2
  -2  -6   3 2868.49 853.487   2
  -2  -6   2 144.120 224.872   2
  -2  -6   1 22931.1 1425.36   2
  -2  -6   1 22373.6 1205.41   5
   2   6  -1 22054.4 959.555   4
  -2  -6   0 80524.2 2051.95   5
   2   6   0 71149.0 1679.43   4
   2   6   1 868.329 174.761   4
  -2  -6  -1 798.553 185.014   5
  -2  -6  -2 4968.43 441.805   5
   2   6   2 5291.82 414.388   4
  -2  -6  -3 8319.42 471.880   4
  -2  -6  -3 9072.34 602.692   5
   2   6   3 8860.18 520.945   4
   2   6   4 9877.68 534.213   4
  -2  -6  -4 10788.6 646.510   5
   2   6   5 1032.98 176.294   4
  -2  -6  -5 1246.00 229.050   5
   2   6   6 9316.75 561.321   4
  -2  -6  -6 9162.48 590.606   5
   2   6   7 2917.37 338.984   4
  -2  -6  -7 2804.64 343.746   5
   2   6   8 2622.02 352.684   4
  -2  -6  -8 3891.21 425.342   5
  -2  -6  -9 1572.51 288.913   5
   2   6   9 2598.46 433.062   3
   2   6  10 507.075 203.892   3
   2   6  11 1700.68 374.183   3
   2   6  12 791.081 260.621   3
   2   6  13 1243.37 372.356   3
   2   6  14 6505.47 882.984   3
  -2  -7   9 138.982 293.559   2
  -2  -7   9 1194.15 525.180   3
  -2  -7   8-195.946 526.742   2
  -2  -7   8 142.956 172.596   3
  -2  -7   7 1811.23 578.929   3
  -2  -7   6 792.962 430.679   2
  -2  -7   6 2543.16 652.066   3
  -2  -7   5-219.664 302.836   2
  -2  -7   4 654.282 534.736   2
  -2  -7   3 11546.2 1599.89   2
  -2  -7   2-46.4378 142.882   2
  -2  -7   2 83.1506 117.884   5
   2   7  -1 683.898 184.831   4
  -2  -7   1 1195.12 307.833   5
  -2  -7   1 1166.80 329.239   2
   2   7   0 930.687 212.589   4
  -2  -7   0 1072.40 255.280   5
   2   7   1 872.456 198.672   4
  -2  -7  -1 762.864 197.597   5
   2   7   2 365.406 128.297   4
  -2  -7  -2 369.009 126.757   5
  -2  -7  -3 44.7512 51.5763   5
   2   7   3 24.9978 48.1675   4
   2   7   4 361.282 131.206   4
  -2  -7  -4 506.719 151.349   5
   2   7   5 64.4616 51.7899   4
  -2  -7  -5 91.7970 63.1771   5
  -2  -7  -6 2417.37 339.386   5
   2   7   6 1906.49 281.398   4
   2   7   7 11948.6 733.640   4
  -2  -7  -7 12186.2 742.662   5
   2   7   8 454.954 154.723   4
  -2  -7  -8 474.795 159.210   5
   2   7   9 256.708 98.9612   4
  -2  -7  -9 291.831 121.010   5
   2   7  10 1756.00 349.880   4
  -2  -7 -10 1676.29 329.971   5
   2   7  11 8482.26 877.455   3
   2   7  12 3710.73 599.629   3
   2   7  13 349.203 215.781   3
   2   7  14 2039.44 509.910   3
  -2  -8   9 1350.80 812.116   2
  -2  -8   8 1660.54 928.850   2
  -2  -8   7-447.278 604.971   2
  -2  -8   6-728.815 723.793   2
  -2  -8   5 388.607 383.292   2
  -2  -8   4 580.216 322.437   2
  -2  -8   3 1887.48 597.934   2
  -2  -8   3 1076.78 369.670   5
  -2  -8   2 7624.39 879.549   2
  -2  -8   2 7371.15 796.036   5
  -2  -8   1 1898.06 378.663   5
   2   8  -1 1435.33 299.065   4
   2   8   0-37.9056 48.3254   4
  -2  -8   0-2.59963 80.7140   5
   2   8   1 546.138 178.459   4
  -2  -8  -1 809.027 219.068   5
  -2  -8  -2 10650.5 760.816   5
   2   8   2 7569.76 629.075   4
  -2  -8  -3 3718.57 452.106   5
   2   8   3 3225.34 405.328   4
   2   8   4 8505.53 657.723   4
  -2  -8  -4 8973.26 689.475   5
  -2  -8  -5 18321.4 992.301   5
   2   8   5 16890.8 915.017   4
   2   8   6 9482.29 689.026   4
  -2  -8  -6 11557.4 798.237   5
  -2  -8  -7 2328.12 349.212   5
   2   8   7 1727.00 303.786   4
  -2  -8  -8 7059.46 616.637   5
  -2  -8  -9 813.388 215.359   5
  -2  -8 -10 51.7418 62.2000   5
   2   8  11 86.5945 141.213   3
  -2  -8 -11 34.0430 47.5477   5
   2   8  12 1294.44 387.803   3
   2   8  13 1549.32 428.946   3
  -2  -9   8 404.908 500.890   2
  -2  -9   7 88.1946 311.167   2
  -2  -9   6 918.962 712.028   2
  -2  -9   5 485.048 353.167   2
  -2  -9   4 2068.27 594.865   2
  -2  -9   4 2807.35 598.889   5
  -2  -9   3 150.742 191.329   5
  -2  -9   3 217.658 173.669   2
  -2  -9   2 255.755 172.761   5
  -2  -9   1 2818.98 481.020   5
   2   9  -1 1920.87 372.286   4
   2   9   0 735.122 234.444   4
  -2  -9   0 636.633 206.883   5
   2   9   1 1900.00 355.284   4
  -2  -9  -1 1597.29 323.078   5
  -2  -9  -2 8385.35 723.496   5
   2   9   2 8399.39 723.649   4
  -2  -9  -3 5730.39 604.826   5
   2   9   3 5738.09 593.523   4
  -2  -9  -4-100.042 109.635   5
   2   9   4-4.22682 69.2555   4
   2   9   5 2780.45 412.402   4
  -2  -9  -5 3212.21 443.024   5
  -2  -9  -6 4184.84 521.734   5
  -2  -9  -7 61.5267 70.2485   5
  -2  -9  -8 722.044 203.159   5
  -2  -9  -9 13.3308 60.3068   5
  -2  -9 -10 1338.76 303.617   5
   2   9  11 1314.57 393.236   3
  -2  -9 -11 752.414 236.269   5
   2   9  12 23937.4 1744.85   3
  -2  -9 -12 13060.9 1034.41   5
   2   9  13 723.772 326.273   3
  -2 -10   5 932.498 411.534   2
  -2 -10   4 8996.16 1013.53   5
  -2 -10   4 8064.18 1022.91   2
  -2 -10   3 557.852 252.931   5
  -2 -10   2 111.196 147.705   5
   2  10  -1 21.3123 52.2375   4
  -2 -10   1-116.096 170.731   5
   2  10   0 126.965 103.474   4
  -2 -10   0-48.2934 111.306   5
   2  10   1 228.893 131.494   4
  -2 -10  -1 109.805 53.5979   5
  -2 -10  -2 961.101 261.627   5
  -2 -10  -3 6496.64 690.827   5
  -2 -10  -4 879.587 258.028   5
  -2 -10  -5-99.0343 115.588   5
  -2 -10  -6 486.615 188.627   5
  -2 -10  -7 3871.26 520.516   5
  -2 -10  -8 108.519 62.7008   5
  -2 -10  -9 1156.22 289.357   5
  -2 -10 -10 3053.75 484.050   5
  -2 -10 -11 2830.34 482.187   5
   2  10  12 351.360 231.470   3
  -2 -11   2-38.7269 85.7962   5
  -2 -11   1-135.374 130.320   5
  -2 -11   0 159.343 106.864   5
  -2 -11  -1-185.880 128.536   5
  -2 -11  -2-135.308 169.375   5
  -2 -11  -3 1035.71 287.039   5
  -2 -11  -4 1730.68 371.254   5
  -2 -11  -5 1046.14 287.995   5
  -2 -11  -6 358.945 165.032   5
  -2 -11  -7 1961.68 400.888   5
  -2 -11  -8 198.115 104.602   5
  -2 -11  -9 214.379 125.053   5
  -2 -12  -2 83.0910 82.8835   5
  -2 -12  -3 50.6011 110.542   5
  -2 -12  -4 446.041 212.186   5
  -2 -12  -5-24.8202 59.3509   5
  -2 -12  -6-13.1206 61.6405   5
  -3  10   4-283.095 219.190   4
  -3  10   3-117.594 148.399   4
  -3   9   8 320.349 201.124   4
  -3   9   7 519.835 309.247   4
  -3   9   6 117.821 139.990   4
  -3   9   5 199.627 206.894   4
  -3   9   4 1905.47 518.113   4
  -3   9   3 99.5694 127.232   4
  -3   9   2 83.0358 117.092   4
  -3   9   1 376.107 248.319   4
  -3   9   0 1078.42 403.810   4
  -3   9  -1 346.449 216.601   4
  -3   9  -2 294.999 236.377   4
  -3   8  10 70.6187 119.741   4
  -3   8   9 155.691 133.497   4
  -3   8   8 3563.40 711.203   4
  -3   8   7 994.762 362.960   4
  -3   8   6 586.619 278.592   4
   3  -8  -6 617.324 169.088   5
  -3   8   5 1804.70 482.952   4
   3  -8  -5 1218.45 228.143   5
  -3   8   4 3290.17 634.961   4
   3  -8  -4 2980.95 375.985   5
   3  -8  -3 337.521 127.106   5
  -3   8   3 291.141 205.130   4
  -3   8   2 121.156 148.264   4
   3  -8  -2 305.870 115.453   5
  -3   8   1 801.989 315.570   4
   3  -8  -1 561.234 171.945   5
  -3   8   0-123.040 111.765   4
   3  -8   0 163.611 103.027   5
  -3   8  -1 51.3247 154.005   4
   3  -8   1-170.813 125.134   5
  -3   8  -2 508.151 283.300   4
   3  -8   2 138.809 98.5399   5
  -3   8  -3 284.167 196.911   4
   3  -8   3 91.5953 96.8034   5
  -3   8  -4 1042.36 375.726   4
   3  -8   4 1204.67 322.533   5
   3  -8   5 934.184 343.828   5
  -3   7  11 113.006 147.122   4
  -3   7  10 554.857 296.107   4
  -3   7   9 174.654 136.401   4
  -3   7   8-52.0146 93.1047   4
  -3   7   7 101.217 63.1823   4
   3  -7  -7 5.23065 34.6020   5
  -3   7   6 15.4533 107.667   4
   3  -7  -6-20.9327 71.4165   5
   3  -7  -5 700.519 161.639   5
  -3   7   5 667.314 289.545   4
  -3   7   4 2289.50 493.713   4
   3  -7  -4 2275.78 297.108   5
  -3   7   3 1198.36 369.313   4
   3  -7  -3 1458.19 244.644   5
  -3   7   2 2974.33 570.115   4
   3  -7  -2 2606.38 320.341   5
  -3   7   1 8.52760 83.7899   4
   3  -7  -1-85.7388 75.8393   5
  -3   7   0 1971.75 467.331   4
   3  -7   0 1766.85 276.609   5
  -3   7  -1 2211.66 508.030   4
   3  -7   1 1944.35 305.996   5
  -3   7  -2 635.956 291.820   4
   3  -7   2 728.209 212.083   5
  -3   7  -3 1280.11 401.382   4
   3  -7   3 1219.84 295.275   5
   3  -7   4 8685.89 848.534   5
  -3   7  -4 11096.9 1185.92   4
  -3   7  -5 1249.47 405.418   4
   3  -7   5 1484.70 473.158   3
  -3   7  -6-245.908 187.053   4
   3  -7   6 235.437 304.115   3
   3  -7   7 2039.41 571.908   3
   3  -7   8 1642.97 553.051   3
  -3   6  12 80.4450 143.923   4
  -3   6  11 253.647 133.927   4
  -3   6  10 228.421 188.285   4
  -3   6   9 288.809 163.686   4
  -3   6   8 858.359 315.012   4
   3  -6  -7 131.804 73.5883   5
  -3   6   7 90.2831 53.5862   4
  -3   6   6 814.835 281.423   4
   3  -6  -6 1114.44 204.181   5
  -3   6   5 13661.7 1162.93   4
   3  -6  -5 12479.0 647.539   5
  -3   6   4 1234.59 349.192   4
   3  -6  -4 1208.55 193.582   5
  -3   6   3 10254.3 986.942   4
   3  -6  -3 9410.41 558.010   5
  -3   6   2 4127.07 620.705   4
   3  -6  -2 3259.50 321.958   5
  -3   6   1 1248.74 344.852   4
   3  -6  -1 827.080 165.781   5
  -3   6   0 379.784 177.500   4
   3  -6   0 169.446 56.9717   5
  -3   6  -1 60245.0 2475.20   4
   3  -6   1 59813.1 1613.21   5
  -3   6  -2 985.519 343.010   4
   3  -6   2 967.351 236.516   5
  -3   6  -3 30.1693 96.3325   4
   3  -6   3 598.336 242.805   5
  -3   6  -4 161.375 155.658   4
   3  -6   4 31.1101 85.8447   3
  -3   6  -5 1068.64 344.264   4
   3  -6   5 672.737 279.358   3
  -3   6  -6 258.205 176.247   4
   3  -6   6 501.438 302.281   3
   3  -6   7-78.6776 79.5568   3
  -3   6  -7 117.497 120.907   4
   3  -6   8-107.835 197.139   3
  -3   6  -8 85.4381 97.6761   4
   3  -6   9 18.5555 165.304   3
  -3   5  12 2058.60 588.087   4
  -3   5  11 1624.59 490.558   4
  -3   5  10 737.956 219.826   2
  -3   5  10 869.404 332.772   4
  -3   5   9 172.491 104.102   2
  -3   5   9 386.532 212.507   4
  -3   5   8 15256.2 1260.00   4
  -3   5   8 18902.2 940.983   2
  -3   5   7 1100.05 323.936   4
  -3   5   7 1442.84 238.196   2
  -3   5   6 8845.77 887.104   4
   3  -5  -6 7590.10 511.657   5
  -3   5   6 8847.26 528.651   2
  -3   5   5 3928.19 581.468   4
   3  -5  -5 3943.65 344.611   5
  -3   5   5 5166.28 351.944   2
  -3   5   4 105.684 122.008   4
   3  -5  -4 149.740 73.0019   5
  -3   5   3 829.837 258.781   4
   3  -5  -3 757.268 139.492   5
  -3   5   2 2660.11 463.468   4
   3  -5  -2 2224.35 240.105   5
  -3   5   1 852.672 298.260   4
   3  -5  -1 465.544 110.810   5
  -3   5   0 144.366 100.506   4
   3  -5   0 67.4290 38.1012   5
  -3   5  -1 219.994 108.476   4
   3  -5   1 414.733 119.801   5
  -3   5  -2 23992.5 1491.09   4
   3  -5   2 20640.0 1022.03   5
   3  -5   3 3592.95 563.165   3
  -3   5  -3 5109.51 687.634   4
   3  -5   4 630.146 282.549   3
  -3   5  -4 648.933 262.858   4
   3  -5   5 2511.82 521.048   3
  -3   5  -5 3579.41 609.330   4
   3  -5   6 313.160 217.702   3
  -3   5  -6 459.149 264.304   4
  -3   5  -7 1537.77 413.728   4
   3  -5   7 1117.43 363.502   3
  -3   5  -8 372.973 175.883   4
   3  -5   8 300.223 190.495   3
   3  -5   9 2615.07 619.586   3
   3  -5  10 1557.59 519.081   3
  -3   4  13 288.374 171.238   2
  -3   4  12 672.328 255.738   2
  -3   4  11 321.192 176.138   2
  -3   4  10 12.3842 34.1627   2
  -3   4   9 16925.0 1366.56   4
  -3   4   9 16338.0 979.351   2
  -3   4   8 4057.66 631.845   4
  -3   4   8 4719.91 483.242   2
  -3   4   7 651.660 169.155   2
  -3   4   7 639.480 222.748   4
  -3   4   7 537.823 114.003   3
  -3   4   6 993.016 288.071   4
  -3   4   6 1285.99 207.629   2
  -3   4   6 1166.19 146.415   3
  -3   4   5 4692.23 588.207   4
   3  -4  -5 4930.86 367.113   5
  -3   4   5 5146.72 271.161   3
  -3   4   5 5791.99 394.955   2
  -3   4   4 3370.84 492.486   4
   3  -4  -4 3317.81 276.073   5
  -3   4   4 4253.26 292.825   2
  -3   4   4 3212.35 184.459   3
   3  -4  -3 2776.97 230.691   5
  -3   4   3 3108.05 466.182   4
  -3   4   3 2441.14 230.155   2
  -3   4   2 417.780 165.130   4
  -3   4   2 452.554 79.7813   3
   3  -4  -2 409.964 90.6644   5
  -3   4   1 1228.09 131.130   3
  -3   4   1 1107.55 273.523   4
   3  -4  -1 1037.26 148.830   5
  -3   4   0 18479.6 1155.63   4
   3  -4   0 16658.0 623.511   5
  -3   4   0 17717.1 536.783   3
  -3   4  -1 5096.35 624.344   4
   3  -4   1 5763.99 433.372   5
   3  -4   2 1232.93 288.067   3
  -3   4  -2 1251.77 321.829   4
   3  -4   3 11865.8 934.049   3
   3  -4   3 11437.5 480.812   2
  -3   4  -3 13568.0 1066.55   4
   3  -4   4 6445.63 389.568   2
   3  -4   4 6309.21 679.067   3
  -3   4  -4 7615.69 805.465   4
   3  -4   5 36.2318 84.5998   3
  -3   4  -5 140.036 151.885   4
   3  -4   5-16.6664 38.0233   2
   3  -4   6 4896.51 622.333   3
   3  -4   6 3734.97 361.090   2
  -3   4  -6 4618.77 662.615   4
   3  -4   7 13726.7 1067.80   3
   3  -4   7 12692.4 732.091   2
  -3   4  -7 13555.6 1146.26   4
   3  -4   8 829.164 271.347   3
  -3   4  -8 614.937 235.511   4
   3  -4   8 604.690 171.630   2
   3  -4   9 168.967 153.085   3
   3  -4   9 157.705 97.9975   2
   3  -4  10 203.078 186.291   3
   3  -4  11-87.7069 153.131   3
  -3   3  13 114.466 120.130   2
  -3   3  12 134.031 129.041   2
  -3   3  11 4823.72 633.935   2
  -3   3  10 243.116 131.766   2
  -3   3   9-17.3457 32.6186   2
  -3   3   9 10.4247 47.5856   3
  -3   3   8 1942.71 248.878   3
  -3   3   8 1737.60 305.153   2
  -3   3   7 17853.8 672.244   3
  -3   3   7 17975.5 889.695   2
  -3   3   6 14283.4 1034.40   4
  -3   3   6 14491.9 529.078   3
  -3   3   6 15498.7 752.404   2
  -3   3   5 660.355 217.572   4
  -3   3   5 805.677 103.848   3
  -3   3   5 688.082 146.238   2
  -3   3   4 5284.37 572.077   4
  -3   3   4 4617.50 201.872   3
  -3   3   4 5768.26 374.725   2
  -3   3   3 22716.2 1159.97   4
  -3   3   3 15710.0 275.711   3
  -3   3   3 14274.2 469.061   3
   3  -3  -3 22726.9 610.946   5
  -3   3   3 25354.0 771.910   2
  -3   3   2 27358.8 1261.75   4
   3  -3  -2 23283.4 552.621   5
  -3   3   1 975.693 236.368   4
   3  -3  -1 951.398 115.810   5
  -3   3   1 831.778 71.5411   3
   3  -3   0 10650.8 421.673   5
  -3   3   0 10021.7 316.013   3
   3  -3   1 4846.26 457.872   3
   3  -3   1 5109.61 369.576   5
  -3   3  -1 5264.47 270.389   3
   3  -3   2 92.6477 67.6723   3
  -3   3  -2 58.9771 39.6588   4
   3  -3   2 88.6477 27.5895   2
  -3   3  -3 2962.65 468.919   4
   3  -3   3 2632.55 333.041   3
   3  -3   3 2345.32 182.507   2
   3  -3   4 295.721 103.406   3
   3  -3   4 246.792 68.6280   2
  -3   3  -4 378.852 172.107   4
   3  -3   5 105.601 68.1715   3
   3  -3   5 115.880 46.3002   2
  -3   3  -5 147.445 114.167   4
   3  -3   6 1269.27 255.764   3
  -3   3  -6 1608.42 362.935   4
   3  -3   6 1220.42 198.878   2
   3  -3   7 4612.11 522.258   3
   3  -3   7 4214.38 402.414   2
  -3   3  -7 4236.68 591.741   4
   3  -3   8 1567.37 326.324   3
   3  -3   8 1560.81 263.463   2
   3  -3   9-5.89123 27.9406   2
   3  -3   9 119.652 102.768   3
   3  -3  10 327.556 137.879   2
   3  -3  10 600.066 231.881   3
   3  -3  11 5471.72 747.278   3
   3  -3  11 5090.91 620.190   2
   3  -3  12 15.5375 35.7888   2
  -3   2  13 203.914 155.820   2
  -3   2  12 266.778 147.427   2
  -3   2  11 2112.92 422.225   2
  -3   2  11 2144.61 380.954   3
  -3   2  10 2095.82 341.723   3
  -3   2  10 2941.66 468.843   2
  -3   2   9 7189.25 569.708   3
  -3   2   9 7108.36 669.747   2
  -3   2   8 1928.09 264.547   3
  -3   2   8 1648.91 297.217   2
  -3   2   7 12396.2 600.961   3
  -3   2   7 14426.4 822.352   2
  -3   2   6 18374.2 645.079   3
  -3   2   6 18069.6 843.213   2
  -3   2   5 2985.63 311.307   2
  -3   2   5 3231.87 232.039   3
  -3   2   4 119.219 39.5662   3
  -3   2   4 47.9935 52.7732   4
  -3   2   4 170.091 73.8919   2
  -3   2   3 70782.2 1900.24   4
  -3   2   3 68362.7 1011.05   5
  -3   2   3 73551.9 1488.83   2
  -3   2   2 19937.4 990.608   4
   3  -2  -2 18792.4 442.730   5
   3  -2  -2 19690.2 665.947   6
  -3   2   2 20833.8 520.810   5
  -3   2   1 692.742 192.056   4
   3  -2  -1 658.590 71.8502   5
   3  -2  -1 768.210 130.380   6
  -3   2   0 1743.39 299.325   4
   3  -2   0 1700.33 197.564   6
   3  -2   0 1383.11 113.578   5
  -3   2   0 1327.89 84.1948   3
  -3   2  -1 1794.03 309.654   4
   3  -2   1 1646.20 194.326   6
   3  -2   1 1318.89 165.417   2
   3  -2   1 2069.61 215.550   3
  -3   2  -1 1598.41 125.948   3
  -3   2  -2 7434.45 658.371   4
   3  -2   2 7337.39 394.316   3
  -3   2  -3 3561.62 467.945   4
   3  -2   3 3501.94 299.751   3
   3  -2   4 1269.65 195.513   3
  -3   2  -4 1528.23 316.483   4
   3  -2   5 34082.8 1104.29   3
  -3   2  -5 33381.5 1497.32   4
   3  -2   6 7582.68 567.708   3
  -3   2  -6 7069.43 715.804   4
   3  -2   7 5640.45 525.411   3
  -3   2  -7 4869.10 592.405   4
   3  -2   8 5416.35 561.328   3
   3  -2   9 7918.19 726.577   3
   3  -2  10 139.119 98.0383   3
   3  -2  10 415.924 152.421   2
   3  -2  11 2327.53 466.768   3
   3  -2  11 2194.01 405.921   2
   3  -2  12-105.279 97.8081   2
   3  -2  12 31.5587 115.857   3
   3  -2  13 1.98698 39.1287   2
  -3   1  13 302.637 178.242   2
  -3   1  12 3517.14 594.258   2
  -3   1  12 4086.15 601.606   3
  -3   1  11 154.154 97.1459   3
  -3   1  11 137.145 116.847   2
  -3   1  10 728.878 214.455   3
  -3   1  10 923.795 262.612   2
  -3   1   9 130.557 78.8945   3
  -3   1   9 65.9889 29.8645   2
  -3   1   8 426.233 136.334   3
  -3   1   8 374.369 149.079   2
  -3   1   7 1884.62 259.171   3
  -3   1   7 1670.30 286.929   2
  -3   1   6 532.206 128.711   3
  -3   1   6 459.872 141.459   2
   3  -1  -5 1848.30 195.746   6
  -3   1   5 1833.69 261.815   2
  -3   1   5 2108.35 219.994   3
   3  -1  -4 4045.36 289.193   6
  -3   1   4 4493.92 287.815   3
  -3   1   4 4860.12 414.539   2
   3  -1  -4 3755.87 195.330   3
  -3   1   3 2075.73 302.754   4
  -3   1   3 2015.56 158.960   5
   3  -1  -3 1914.49 200.715   6
  -3   1   3 2436.29 328.179   2
   3  -1  -2 91.3397 32.6759   2
  -3   1   2 181.337 152.111   2
  -3   1   2 132.340 70.7302   4
   3  -1  -2 164.906 61.8750   6
  -3   1   2 101.557 29.2470   5
  -3   1   1 5424.17 466.360   4
   3  -1  -1 4662.51 310.731   6
  -3   1   1 5090.25 418.849   2
   3  -1  -1 5231.25 275.102   2
  -3   1   0 20945.1 930.054   4
   3  -1   0 17213.0 606.046   6
   3  -1   1 155.417 39.5908   3
  -3   1  -1 132.501 60.7537   4
   3  -1   1 141.257 57.5788   6
   3  -1   1 64.5887 57.6639   2
   3  -1   2 51862.2 838.036   3
  -3   1  -2 52428.9 828.483   3
   3  -1   3 622.271 115.606   6
  -3   1  -3 483.190 164.872   4
   3  -1   3 556.074 102.005   3
  -3   1  -4 412.979 166.593   4
   3  -1   4 276.240 82.2775   3
   3  -1   4 326.642 85.8179   6
   3  -1   5 9303.18 447.476   6
   3  -1   5 8839.98 504.354   3
  -3   1  -5 9530.03 731.852   4
   3  -1   6 16177.4 749.017   3
  -3   1  -6 15186.6 949.268   4
  -3   1  -7 126.017 66.7045   4
   3  -1   7-11.4737 71.5303   3
   3  -1   8 10615.1 727.726   3
   3  -1   9 2004.41 337.834   3
   3  -1  10 285.020 143.367   3
   3  -1  11 247.980 133.935   3
   3  -1  12 401.181 208.233   3
   3  -1  13 52.2278 125.589   3
   3  -1  13 255.491 155.907   2
  -3   0  14 236.458 189.064   3
  -3   0  13 377.840 230.918   3
  -3   0  13 247.557 149.055   2
  -3   0  12 38.3836 67.7682   3
  -3   0  12 144.220 133.054   2
  -3   0  11 721.844 246.533   3
  -3   0  11 600.138 243.202   2
  -3   0  10 490.007 188.779   3
  -3   0  10 639.794 233.575   2
  -3   0   9 2749.98 408.502   3
  -3   0   9 2460.76 413.363   2
  -3   0   8 2073.94 360.156   2
  -3   0   8 2207.02 334.402   3
   3   0  -7 8341.34 393.880   6
  -3   0   7 9702.53 657.199   3
  -3   0   7 9308.80 714.197   2
  -3   0   6 214.840 95.8951   3
   3   0  -6 236.617 70.9169   6
  -3   0   6 197.595 83.3338   2
  -3   0   5 17173.2 767.252   3
  -3   0   5 15979.1 840.793   2
   3   0  -5 14577.8 541.851   6
  -3   0   4 12061.9 649.098   3
  -3   0   4 12540.0 745.693   2
   3   0  -4 11134.4 479.035   6
   3   0  -4 11069.9 391.433   3
  -3   0   3 5960.20 614.773   2
   3   0  -3 6937.95 381.547   6
  -3   0   3 5981.90 468.603   3
   3   0  -3 6647.50 265.740   3
   3   0  -2 8780.83 439.191   6
   3   0  -2 8484.20 262.666   3
  -3   0   1 35771.2 1072.59   4
  -3   0   1 30989.3 1528.74   2
   3   0  -1 34601.6 883.368   6
   3   0  -1 30536.8 586.068   3
   3   0  -1 36175.1 999.235   2
  -3   0   0 26487.1 911.980   4
   3   0   0 23720.5 727.492   6
  -3   0  -1 34238.3 1061.12   4
   3   0   1 28922.9 807.406   6
   3   0   1 23884.8 334.676   5
   3   0   1 35907.8 990.696   2
   3   0   1 28457.7 482.304   3
   3   0   2 10449.6 487.814   6
   3   0   2 10419.8 333.498   5
   3   0   2 10940.4 365.365   3
   3   0   3 32430.7 789.182   5
   3   0   3 29956.1 701.960   3
  -3   0  -3 30544.9 1097.36   4
  -3   0  -4 386.293 134.551   4
   3   0   4 363.894 89.2900   3
   3   0   4 378.711 93.0925   6
   3   0   5 6761.36 377.353   6
   3   0   5 7425.88 433.790   3
  -3   0  -5 7366.64 582.279   4
  -3   0  -6 909.162 208.499   4
   3   0   6 1007.36 143.121   6
   3   0   6 1113.30 189.496   3
   3   0   7 13179.8 512.080   6
   3   0   7 13816.4 712.779   3
   3   0   8 3619.58 403.894   3
   3   0   9 18245.1 986.681   3
   3   0  10 882.211 233.063   3
   3   0  11 6887.57 705.703   3
   3   0  12-19.3759 53.5801   3
   3   0  13 3689.78 608.085   3
  -3  -1  13 167.165 161.131   3
  -3  -1  12 279.062 174.514   3
  -3  -1  12 354.246 204.685   2
  -3  -1  11 3015.84 565.944   3
  -3  -1  11 2629.03 521.601   2
  -3  -1  10 4807.42 650.933   3
  -3  -1  10 4730.03 643.572   2
  -3  -1   9 176.306 108.178   3
  -3  -1   9 56.5356 43.7207   2
   3   1  -8 19564.0 564.422   6
  -3  -1   8 21259.6 1202.48   3
  -3  -1   8 20233.1 1187.03   2
   3   1  -7 2531.07 217.027   6
  -3  -1   7 2908.22 416.897   3
  -3  -1   7 2815.83 421.327   2
  -3  -1   6 96.6770 56.1842   3
  -3  -1   6 168.961 103.391   2
   3   1  -6 109.992 47.8628   6
  -3  -1   5 67.4345 41.0433   3
   3   1  -5 92.6076 14.3452   6
   3   1  -4 5913.35 379.094   1
  -3  -1   4 4451.92 504.358   3
  -3  -1   4 4209.10 509.145   2
  -3  -1   3 2860.93 382.423   3
   3   1  -3 3449.16 280.807   1
   3   1  -3 3040.56 245.617   3
   3   1  -2 63.9341 40.6910   3
   3   1  -2 71.4667 44.3196   1
   3   1  -1 6569.38 474.399   3
  -3  -1   1 6421.74 818.494   2
   3   1  -1 8231.58 437.623   1
  -3  -1   0 1131.09 165.416   4
   3   1   0 1247.39 176.555   1
  -3  -1   0 926.337 82.5367   5
  -3  -1  -1 6016.60 381.342   4
   3   1   1 5536.45 444.826   2
   3   1   1 4820.94 308.037   4
   3   1   1 5432.38 371.178   1
  -3  -1  -1 4382.05 177.727   5
   3   1   1 4783.33 200.993   5
  -3  -1  -2 863.249 146.315   4
   3   1   2 812.675 132.199   4
   3   1   2 901.851 157.203   1
   3   1   2 718.514 88.8709   5
  -3  -1  -3 138.732 64.4030   4
   3   1   3 179.266 70.1106   4
   3   1   3 132.551 45.5796   5
   3   1   3 172.309 56.0736   3
   3   1   3 263.842 89.4282   1
  -3  -1  -4 4119.68 361.960   4
   3   1   4 4196.37 298.210   3
  -3  -1  -5 413.998 114.857   4
   3   1   5 808.229 164.179   1
   3   1   5 586.312 124.941   3
   3   1   6 14934.9 691.826   3
   3   1   6 14377.3 592.589   6
   3   1   7 33026.8 857.163   6
   3   1   7 33302.2 1117.10   3
   3   1   8 43600.3 934.141   6
   3   1   8 46820.9 1397.89   3
   3   1   9 1184.73 242.166   3
   3   1  10 14869.1 931.027   3
   3   1  11 6749.30 682.996   3
   3   1  12 2687.57 467.652   3
   3   1  13-181.187 134.500   3
  -3  -2  13 197.368 113.072   3
  -3  -2  12 121.572 146.346   3
  -3  -2  12 552.808 265.372   2
  -3  -2  11 2549.91 592.003   3
  -3  -2  11 2669.54 552.135   2
  -3  -2  10 1528.70 416.686   3
  -3  -2  10 1450.58 382.623   2
  -3  -2   9 408.185 215.745   3
  -3  -2   9 465.304 196.964   2
  -3  -2   8 54.7582 105.362   3
   3   2  -8 26.4724 32.6443   6
  -3  -2   7 4866.49 655.294   3
  -3  -2   7 5463.22 634.111   2
  -3  -2   6 1197.75 314.687   3
   3   2  -6 1742.76 186.490   1
  -3  -2   6 1563.92 345.791   2
  -3  -2   5 464.184 214.075   3
  -3  -2   5 464.156 192.383   2
   3   2  -5 793.205 125.092   1
  -3  -2   4 767.303 253.558   3
   3   2  -4 1208.40 157.917   1
  -3  -2   4 997.050 333.427   2
   3   2  -3 6192.48 362.108   1
  -3  -2   3 7792.63 711.139   3
   3   2  -2 16271.4 595.846   1
  -3  -2   2 4713.49 991.025   2
   3   2  -1 5558.88 357.440   1
   3   2  -1 5122.38 508.118   3
  -3  -2   1 4551.09 763.018   2
  -3  -2   0 2941.06 220.338   5
   3   2   0 2519.64 244.938   1
  -3  -2  -1 194.273 57.2820   4
   3   2   1 195.154 64.5051   1
  -3  -2  -1 222.380 54.6304   5
   3   2   1 253.443 65.6863   5
   3   2   2 1383.77 127.915   4
   3   2   2 1625.42 204.446   1
  -3  -2  -2 1565.55 153.043   4
  -3  -2  -2 1356.66 140.384   5
   3   2   2 1398.31 143.556   5
   3   2   3 1111.25 133.965   4
   3   2   3 1009.29 164.329   1
  -3  -2  -3 882.132 128.104   5
   3   2   3 984.090 134.328   5
  -3  -2  -3 1094.68 131.123   4
   3   2   4 4394.81 348.391   1
   3   2   4 4424.74 320.450   4
  -3  -2  -4 4142.92 303.255   5
   3   2   5 10811.2 555.952   1
   3   2   5 11292.1 567.742   3
   3   2   5 9918.55 557.170   4
   3   2   6 317.004 99.6889   3
   3   2   6 296.610 97.4861   1
   3   2   7 3994.24 380.706   1
   3   2   7 3613.82 370.631   3
   3   2   8 22329.3 1008.72   3
   3   2   9 2768.00 258.955   6
   3   2   9 2841.41 377.135   3
   3   2  10 1737.31 318.977   3
   3   2  11 81.5850 84.7957   3
   3   2  12 6899.19 734.917   3
   3   2  13 937.469 295.301   3
   3   2  14 4827.43 722.457   3
  -3  -3  12 326.594 253.622   3
  -3  -3  11 68.6158 117.714   3
  -3  -3  11 392.224 227.717   2
  -3  -3  10 1489.61 485.447   3
  -3  -3  10 2121.48 511.959   2
  -3  -3   9 2849.68 636.998   3
  -3  -3   9 3444.37 609.055   2
  -3  -3   8 3302.95 651.017   3
  -3  -3   8 4110.03 647.454   2
   3   3  -7 32.7280 33.9524   1
  -3  -3   7-47.5652 129.034   2
  -3  -3   6 6502.66 843.610   3
  -3  -3   6 6169.96 823.257   2
  -3  -3   5 3064.67 632.530   2
  -3  -3   5 4105.66 643.667   3
  -3  -3   4 3992.95 611.322   3
  -3  -3   4 2397.67 662.719   2
  -3  -3   3 234.418 181.839   2
  -3  -3   3 1613.87 374.162   3
  -3  -3   2 52258.3 3238.17   2
  -3  -3   1 6318.01 946.991   2
  -3  -3   0 24062.6 804.597   5
  -3  -3   0 31462.0 1329.16   2
  -3  -3  -1 20680.2 648.074   5
  -3  -3  -2 1850.60 193.030   5
  -3  -3  -3 916.308 136.753   5
   3   3   4 10909.1 383.030   4
  -3  -3  -4 12085.5 529.114   5
  -3  -3  -5 68561.5 1419.44   5
   3   3   5 72662.2 1270.17   4
   3   3   6 2776.45 301.987   1
   3   3   6 3202.76 355.661   3
   3   3   7 58.4105 64.9430   3
   3   3   7 15.7734 27.1679   1
   3   3   8 3708.10 358.503   1
   3   3   8 4101.50 431.783   3
   3   3   9 8037.09 560.794   1
   3   3   9 7657.83 643.187   3
   3   3  10 5286.92 575.443   3
   3   3  11 48.1567 57.0584   3
   3   3  12 11433.7 942.620   3
   3   3  13 11152.5 1015.31   3
   3   3  14 961.799 327.557   3
  -3  -4  11 3500.15 842.654   3
  -3  -4  11 4730.45 923.518   2
  -3  -4  10 219.185 155.660   3
  -3  -4  10 400.796 267.440   2
  -3  -4   9 1305.93 478.649   3
  -3  -4   9 2067.59 582.548   2
  -3  -4   8 1614.99 500.731   3
  -3  -4   8 1493.33 452.606   2
  -3  -4   7-0.28010 112.920   3
  -3  -4   7 86.5315 139.015   2
  -3  -4   6 111.264 142.836   3
  -3  -4   6 173.714 139.169   2
  -3  -4   5 8094.04 1312.86   2
  -3  -4   5 11928.9 1170.85   3
  -3  -4   4 512.034 434.486   2
  -3  -4   4 1419.79 386.182   3
  -3  -4   3-216.127 235.352   2
  -3  -4   2 12699.2 1688.10   2
  -3  -4   1 12060.1 1182.95   2
  -3  -4   0 4941.14 419.131   5
  -3  -4   0 4527.69 306.956   4
  -3  -4  -1 2088.06 240.059   5
  -3  -4  -1 2032.81 163.301   4
  -3  -4  -2 60432.8 1273.60   5
  -3  -4  -3 158.830 59.6459   5
  -3  -4  -4 143.191 65.9048   5
  -3  -4  -5 4972.65 384.439   5
   3   4   5 5045.34 279.890   4
  -3  -4  -6 19114.5 800.581   5
   3   4   6 22767.2 764.386   4
  -3  -4  -7 4701.70 428.443   5
   3   4   8 127.771 70.1776   3
   3   4   9 982.968 202.634   1
   3   4   9 1317.04 272.995   3
   3   4  10 6250.97 510.910   1
   3   4  10 6619.54 655.544   3
   3   4  11 2451.52 437.024   3
   3   4  12 140.282 133.198   3
   3   4  13-17.7552 111.098   3
   3   4  14 422.702 223.599   3
  -3  -5  11 326.289 300.053   3
  -3  -5  10 187.491 199.715   3
  -3  -5  10-105.864 175.272   2
  -3  -5   9-0.37730 200.527   3
  -3  -5   9-107.442 219.119   2
  -3  -5   8 245.820 204.875   3
  -3  -5   8 287.272 217.023   2
  -3  -5   7 1093.26 425.069   3
  -3  -5   7 665.777 451.144   2
  -3  -5   6 16.7007 245.996   2
  -3  -5   6 397.384 276.290   3
  -3  -5   5 507.684 441.854   2
  -3  -5   5 2794.47 607.549   3
  -3  -5   4 5262.23 1278.18   2
  -3  -5   3 1289.62 523.678   2
  -3  -5   2 306.522 212.837   2
  -3  -5   1 14116.8 1239.57   2
  -3  -5   1 11925.0 805.830   5
  -3  -5   0 22301.0 984.137   5
  -3  -5   0 20075.4 761.401   4
  -3  -5  -1 1409.20 171.141   4
  -3  -5  -1 1344.78 222.493   5
  -3  -5  -2 11968.2 350.526   4
  -3  -5  -2 14157.7 698.351   5
  -3  -5  -3 15886.1 726.199   5
  -3  -5  -4 1626.57 235.947   5
   3   5   5 2102.89 156.564   4
  -3  -5  -5 2407.70 282.983   5
  -3  -5  -6 1264.49 216.031   5
  -3  -5  -7 2634.67 324.356   5
  -3  -5  -8 270.989 110.096   5
   3   5   9 152.903 98.2063   3
   3   5  10 3077.56 393.354   1
   3   5  10 3337.85 477.857   3
   3   5  11 1110.57 300.454   3
   3   5  12 198.486 155.070   3
   3   5  13 251.256 171.827   3
   3   5  14 6785.69 883.969   3
  -3  -6  10 361.309 381.940   2
  -3  -6  10 419.671 325.484   3
  -3  -6   9-0.79983 406.374   2
  -3  -6   9 535.311 356.522   3
  -3  -6   8 176.144 198.718   2
  -3  -6   8 681.682 335.679   3
  -3  -6   7-471.115 430.186   2
  -3  -6   7 800.816 366.672   3
  -3  -6   6 4298.29 828.119   3
  -3  -6   5-106.100 182.065   2
  -3  -6   4 473.086 431.141   2
  -3  -6   3 5821.90 1310.58   2
  -3  -6   2 1763.91 530.809   2
  -3  -6   1 4795.03 550.206   5
  -3  -6   1 4847.24 679.859   2
  -3  -6   0 162.559 107.540   5
  -3  -6  -1 977.582 167.540   4
  -3  -6  -1 1004.66 214.410   5
  -3  -6  -2 171.482 60.8004   4
  -3  -6  -2 49.7787 34.5460   5
   3   6   3 148.518 50.0485   4
  -3  -6  -3 231.655 99.6657   5
  -3  -6  -4 14919.3 772.750   5
   3   6   4 12011.4 407.942   4
   3   6   5 8042.63 357.796   4
  -3  -6  -5 10750.2 666.576   5
   3   6   6 69.7452 34.0153   4
  -3  -6  -6 68.8438 65.0363   5
   3   6   7 6818.80 431.696   4
  -3  -6  -7 7465.62 571.178   5
  -3  -6  -8 15082.2 854.159   5
  -3  -6  -9 6324.72 584.767   5
   3   6  10 549.875 214.851   3
   3   6  11 7839.22 814.272   3
   3   6  12 8039.77 883.881   3
   3   6  13 1450.59 407.736   3
   3   6  14 2.60025 138.236   3
  -3  -7   8 123.593 280.001   2
  -3  -7   8 164.839 184.306   3
  -3  -7   7-89.9133 451.073   2
  -3  -7   6-148.187 537.415   2
  -3  -7   5-597.495 621.639   2
  -3  -7   4 864.240 528.578   2
  -3  -7   3 110.026 167.560   2
  -3  -7   2 1082.87 402.362   2
  -3  -7   2 1394.27 350.838   5
  -3  -7   1 11635.5 1064.07   2
  -3  -7   1 11108.5 881.698   5
  -3  -7   0 191.867 110.976   5
  -3  -7  -1 131.263 69.6301   5
  -3  -7  -2 6706.95 564.056   5
   3   7   2 7343.42 456.184   4
  -3  -7  -3 724.300 128.222   4
  -3  -7  -3 985.422 208.876   5
   3   7   3 1013.82 159.710   4
  -3  -7  -4 9366.24 657.685   5
   3   7   4 8846.39 452.401   4
   3   7   5 19323.5 685.454   4
  -3  -7  -5 24187.0 1092.63   5
   3   7   6 1197.24 177.983   4
  -3  -7  -6 1373.62 260.809   5
  -3  -7  -7 636.818 168.424   5
  -3  -7  -8 6676.28 586.702   5
  -3  -7  -9 849.966 220.166   5
  -3  -7 -10 41.7743 44.2274   5
   3   7  10 17.9608 90.4510   3
   3   7  11 1263.86 351.218   3
   3   7  12 250.819 164.581   3
   3   7  13 520.742 263.519   3
  -3  -8   8-756.071 723.594   2
  -3  -8   7-609.253 733.173   2
  -3  -8   6-368.853 456.961   2
  -3  -8   5 719.603 417.596   2
  -3  -8   4 4666.07 1039.67   2
  -3  -8   3 536.399 364.682   2
  -3  -8   3 1207.62 369.926   5
  -3  -8   2 9223.27 1030.91   2
  -3  -8   2 9995.42 930.416   5
  -3  -8   1 28469.1 1476.59   5
  -3  -8   0 2941.08 443.852   5
  -3  -8  -1 2157.61 353.626   5
   3   8   1 3142.70 360.574   4
  -3  -8  -2 7677.93 651.691   5
   3   8   2 8091.21 560.843   4
  -3  -8  -3 5046.88 533.840   5
   3   8   3 5661.25 452.685   4
  -3  -8  -4 52.7298 48.2498   5
  -3  -8  -5 7251.97 641.544   5
  -3  -8  -6 24203.9 1169.20   5
  -3  -8  -7 296.405 126.376   5
  -3  -8  -8 76.0064 77.6073   5
  -3  -8  -9 157.732 86.2168   5
  -3  -8 -10 3569.04 490.997   5
   3   8  11 561.336 263.905   3
  -3  -8 -11 381.504 174.548   5
   3   8  12 4383.22 734.343   3
   3   8  13 3394.93 663.040   3
  -3  -9   7 41.1347 440.672   2
  -3  -9   6 989.069 680.621   2
  -3  -9   5 1421.98 585.473   2
  -3  -9   4 9478.50 1258.74   2
  -3  -9   4 8702.50 988.933   5
  -3  -9   3 731.750 274.723   5
  -3  -9   3 319.487 257.210   2
  -3  -9   2 493.163 213.491   5
  -3  -9   1 863.288 263.913   5
  -3  -9   0 316.416 139.841   5
  -3  -9  -1 436.111 168.450   5
  -3  -9  -2 2285.39 384.234   5
  -3  -9  -3 29.6325 47.1396   5
  -3  -9  -4 41.2269 55.7308   5
  -3  -9  -5 287.205 141.543   5
  -3  -9  -6 1755.50 345.051   5
  -3  -9  -7 306.180 138.533   5
  -3  -9  -8-11.7032 32.7919   5
  -3  -9  -9 2391.98 397.880   5
  -3  -9 -10 4918.39 593.182   5
  -3  -9 -11 3408.80 524.027   5
   3   9  12-119.423 149.450   3
  -3  -9 -12 203.653 149.849   5
  -3 -10   6 408.152 447.821   2
  -3 -10   5 242.077 289.204   2
  -3 -10   4 5436.18 802.571   5
  -3 -10   4 3286.30 708.566   2
  -3 -10   3 5733.10 785.982   5
  -3 -10   2 103.136 52.3985   5
  -3 -10   1-229.741 147.681   5
  -3 -10   0 954.350 277.933   5
  -3 -10  -1 2325.01 425.129   5
  -3 -10  -2 920.971 254.038   5
  -3 -10  -3 2535.15 437.371   5
  -3 -10  -4 4987.83 595.350   5
  -3 -10  -5 4103.40 543.652   5
  -3 -10  -6 614.480 212.103   5
  -3 -10  -7 3828.57 524.363   5
  -3 -10  -8 475.110 181.267   5
  -3 -10  -9 39.6697 88.4490   5
  -3 -10 -10-29.7856 57.5304   5
  -3 -10 -11 323.862 164.850   5
  -3 -11   2 443.277 179.125   5
  -3 -11   1-15.5011 146.293   5
  -3 -11   0 278.905 163.670   5
  -3 -11  -1 5154.43 667.872   5
  -3 -11  -2 2198.20 442.801   5
  -3 -11  -3 54.5028 97.7070   5
  -3 -11  -4 93.1196 68.5951   5
  -3 -11  -5 156.431 114.650   5
  -3 -11  -6 113.843 110.295   5
  -3 -11  -7 147.107 81.1326   5
  -3 -11  -8-41.6051 73.8125   5
  -3 -11  -9 59.7303 37.5551   5
  -3 -12  -2 2040.48 448.274   5
  -3 -12  -3 258.773 156.881   5
  -3 -12  -4 164.610 86.0544   5
  -3 -12  -5 407.342 182.343   5
  -3 -12  -6 2268.54 464.993   5
  -4   8   7 285.631 218.316   4
  -4   8   6 59.5249 106.336   4
  -4   8   5 88.7402 74.0303   4
  -4   8   4 269.396 163.944   4
  -4   8   3 738.203 316.869   4
  -4   8   2 380.768 197.090   4
  -4   8   1-36.8560 92.6036   4
  -4   8   0 3325.83 699.679   4
  -4   8  -1 1274.06 458.584   4
  -4   8  -2 271.358 217.018   4
  -4   7   9 334.646 260.816   4
  -4   7   8 377.392 207.994   4
  -4   7   7 455.148 231.725   4
  -4   7   6 266.088 194.359   4
  -4   7   5 4194.51 752.349   4
  -4   7   4 101.383 105.563   4
  -4   7   3 3430.73 667.941   4
  -4   7   2 1069.16 368.008   4
  -4   7   1 280.873 169.684   4
  -4   7   0-29.7514 85.7317   4
  -4   7  -1 2484.00 584.826   4
  -4   7  -2 279.097 198.409   4
  -4   7  -3 116.009 140.687   4
  -4   7  -4 195.987 173.404   4
  -4   7  -5 3074.06 685.256   4
  -4   6  10 43.3088 93.5863   4
  -4   6   9 382.617 230.784   4
  -4   6   8 1435.41 433.674   4
  -4   6   7 496.659 278.089   4
  -4   6   6 3834.27 668.643   4
  -4   6   5 2444.00 537.050   4
  -4   6   4 177.410 174.685   4
  -4   6   3 1643.61 416.924   4
  -4   6   2 2195.36 499.484   4
  -4   6   1-3.71616 103.294   4
  -4   6   0 703.560 281.866   4
  -4   6  -1 236.995 195.983   4
   4  -6   1 37.9046 39.6245   5
  -4   6  -2 963.425 351.188   4
   4  -6   2 1055.64 215.363   5
  -4   6  -3 1709.51 473.099   4
   4  -6   3 1611.68 304.934   5
  -4   6  -4 313.171 221.197   4
   4  -6   4 694.490 260.197   5
  -4   6  -5 1157.81 385.177   4
  -4   6  -6 323.911 219.400   4
  -4   6  -7 226.968 182.046   4
  -4   5  11 819.185 350.209   4
  -4   5  10 2592.09 612.114   4
  -4   5   9-61.7761 99.9392   4
  -4   5   8 91.6772 127.370   4
  -4   5   7 235.641 160.543   4
  -4   5   6 281.813 165.672   4
  -4   5   5 5443.64 748.703   4
  -4   5   4 3703.61 606.037   4
   4  -5  -4 3353.61 295.752   5
  -4   5   3 2853.52 531.482   4
   4  -5  -3 2548.86 240.042   5
  -4   5   2 121.568 89.7103   4
   4  -5  -2 113.372 49.6501   5
  -4   5   1 1721.17 414.549   4
   4  -5  -1 1574.30 194.325   5
  -4   5   0 13989.6 1194.95   4
   4  -5   0 12252.4 575.766   5
  -4   5  -1 4830.25 730.252   4
   4  -5   1 4095.80 353.536   5
  -4   5  -2 342.127 215.846   4
   4  -5   2 64.7453 71.9509   5
   4  -5   3 4577.53 631.957   3
   4  -5   3 4079.07 474.605   5
  -4   5  -3 3946.11 676.086   4
   4  -5   4 1105.60 335.801   3
  -4   5  -4 1485.66 394.032   4
   4  -5   5-47.9443 77.6531   3
  -4   5  -5 44.8990 84.6687   4
   4  -5   6 485.470 240.375   3
  -4   5  -6 1303.69 402.228   4
   4  -5   7 422.954 215.287   3
  -4   5  -7 676.858 303.966   4
   4  -5   8-556.539 286.387   3
  -4   5  -8 16.3830 82.8680   4
   4  -5   9 614.690 303.151   3
   4  -5  10 1287.85 467.594   3
  -4   4  11 2762.32 666.461   4
  -4   4  10 960.559 356.563   4
  -4   4   9-2.32054 82.1253   4
  -4   4   8 759.007 275.782   4
  -4   4   7 2353.43 494.444   4
  -4   4   6 4834.06 683.487   4
  -4   4   5 121.380 89.3318   4
  -4   4   4 4882.32 645.050   4
  -4   4   3 6161.00 724.067   4
   4  -4  -3 5773.57 330.633   5
  -4   4   2-105.520 164.071   4
   4  -4  -2 16.6525 19.0045   5
  -4   4   1 5295.87 672.112   4
   4  -4  -1 3435.46 242.427   5
  -4   4   0 107974. 3050.84   4
   4  -4   0 86476.1 1316.81   5
  -4   4  -1 1388.98 377.587   4
   4  -4   1 913.105 151.602   5
  -4   4  -2 4576.65 664.067   4
   4  -4   2 3449.97 472.244   3
   4  -4   2 4307.33 393.241   5
  -4   4  -3 3157.92 564.687   4
   4  -4   3 2099.39 402.343   3
   4  -4   4 6630.01 736.071   3
  -4   4  -4 8945.17 953.512   4
   4  -4   5 69.8762 47.3077   3
  -4   4  -5 319.672 201.749   4
   4  -4   6 1150.31 307.856   3
  -4   4  -6 1170.40 362.564   4
   4  -4   7 4823.34 656.582   3
  -4   4  -7 4637.11 733.455   4
   4  -4   8 891.954 300.168   3
  -4   4  -8 950.523 330.322   4
   4  -4   9 111.856 53.9817   3
   4  -4  10 1610.77 445.845   3
  -4   3  13 1266.79 388.033   2
  -4   3  12 2516.35 527.313   2
  -4   3  11-236.714 152.814   2
  -4   3  10 41.2229 65.5276   2
  -4   3   9 15763.3 1374.95   4
  -4   3   9 17950.8 1134.09   2
  -4   3   8 4848.91 714.460   4
  -4   3   8 5609.15 590.838   2
  -4   3   7 127.314 129.898   4
  -4   3   7 141.739 83.8988   2
  -4   3   6 818.846 274.877   4
  -4   3   6 1321.15 256.952   2
  -4   3   5 301.533 136.001   2
  -4   3   5 459.275 195.822   4
  -4   3   4 1255.51 316.256   4
  -4   3   4 529.324 250.452   2
  -4   3   3 3714.36 520.006   4
  -4   3   3 1502.38 349.260   2
  -4   3   2 679.780 219.827   4
   4  -3  -2 663.102 90.5883   5
  -4   3   1 801.309 253.523   4
   4  -3  -1 501.855 72.2007   5
  -4   3   0 171.551 127.033   4
   4  -3   0 86.1911 35.8306   5
  -4   3  -1 19053.6 1225.01   4
   4  -3   1 17036.1 559.687   5
   4  -3   1 17694.9 800.305   3
  -4   3  -2 16030.1 1156.78   4
   4  -3   2 12721.6 784.272   3
  -4   3  -3 6842.10 759.866   4
   4  -3   3 5895.32 520.577   3
   4  -3   3 4685.71 243.561   2
  -4   3  -4 1589.33 377.068   4
   4  -3   4 1420.93 259.895   3
   4  -3   5 3061.85 385.090   3
  -4   3  -5 3492.82 562.701   4
   4  -3   6 6661.63 601.510   3
   4  -3   6 6331.18 436.511   2
  -4   3  -6 6429.11 786.052   4
   4  -3   7 285.490 136.208   3
  -4   3  -7 114.154 131.509   4
   4  -3   7 271.983 95.5384   2
  -4   3  -8 511.016 200.765   4
   4  -3   8 902.614 246.268   3
   4  -3   8 834.932 196.518   2
   4  -3   9 382.233 154.076   3
   4  -3  10-51.5508 128.984   3
   4  -3  11 92.2887 92.3218   3
  -4   2  13 18.1329 123.299   2
  -4   2  12 105.903 104.047   2
  -4   2  11-24.3592 60.3300   2
  -4   2  10 5693.40 703.110   2
  -4   2   9 4.05607 33.4047   2
  -4   2   8 2854.44 436.097   2
  -4   2   7 165.545 102.777   2
  -4   2   6 6.95400 21.4992   3
  -4   2   6 96.2755 66.1991   4
  -4   2   5 6556.89 693.436   4
  -4   2   5 4742.68 357.598   3
  -4   2   5 5827.64 587.148   2
  -4   2   4 400.749 175.452   4
  -4   2   4 283.011 179.143   2
  -4   2   4 404.827 86.2682   5
  -4   2   3 2429.67 398.056   4
   4  -2  -3 3047.44 297.033   6
  -4   2   3 2659.89 188.107   5
  -4   2   2 16529.4 1015.48   4
  -4   2   2 17852.5 817.591   2
   4  -2  -2 16247.8 682.651   6
  -4   2   1 15728.4 1000.15   4
   4  -2  -1 15673.2 675.024   6
  -4   2   0 3657.35 475.869   4
   4  -2   0 3346.25 313.176   6
   4  -2   0 2379.27 111.774   5
   4  -2   0 2530.16 153.039   2
  -4   2  -1 3241.83 460.445   4
   4  -2   1 3315.70 311.171   6
   4  -2   1 3372.88 285.185   3
   4  -2   1 3066.68 188.347   5
  -4   2  -2 43118.4 1741.13   4
   4  -2   2 41055.9 948.660   3
  -4   2  -3 10946.5 892.141   4
   4  -2   3 10685.8 526.986   3
   4  -2   4 116.735 66.1638   3
  -4   2  -4 189.978 146.931   4
   4  -2   5 6717.79 502.211   3
  -4   2  -5 7180.22 749.269   4
   4  -2   6 18849.7 909.712   3
  -4   2  -6 18112.6 1243.79   4
  -4   2  -7 435.343 173.043   4
   4  -2   7 488.320 145.277   3
  -4   2  -8-18.7990 127.769   4
   4  -2   8 42.4713 65.7833   3
   4  -2   9 312.458 152.047   3
   4  -2  10 57.1838 73.6769   3
   4  -2  11-18.4985 110.460   3
   4  -2  11 31.9971 55.7719   2
   4  -2  12 1966.13 458.356   3
   4  -2  12 1864.99 406.204   2
  -4   1  12 1718.44 451.236   2
  -4   1  11 1260.08 363.196   2
  -4   1  10 112.307 89.3228   2
  -4   1   9 2273.21 429.569   2
  -4   1   8 11874.4 802.523   3
  -4   1   8 12233.6 945.998   2
  -4   1   7 7332.84 596.913   3
  -4   1   7 7413.14 698.543   2
  -4   1   6 291.806 114.582   3
   4  -1  -6 479.650 114.310   6
  -4   1   5 57.4690 62.7151   3
  -4   1   5 130.758 96.7706   2
   4  -1  -5 82.6663 54.3231   6
   4  -1  -5 102.308 35.0759   3
  -4   1   4 17607.1 1039.73   4
   4  -1  -4 17625.6 688.088   6
  -4   1   4 16793.4 532.903   5
  -4   1   3 21217.0 1099.58   4
   4  -1  -3 21156.7 754.053   6
  -4   1   3 19548.4 479.432   5
  -4   1   2 1183.31 323.378   2
  -4   1   2 1676.85 298.168   4
   4  -1  -2 1815.41 226.430   6
  -4   1   1 374.676 141.631   4
   4  -1  -1 294.609 94.8210   6
   4  -1  -1 305.530 75.9330   2
   4  -1   0 17169.2 702.122   6
   4  -1   0 15554.0 754.793   2
  -4   1  -1 3566.63 446.423   4
   4  -1   1 3144.48 295.256   6
   4  -1   1 3075.07 172.934   3
   4  -1   2 3975.23 239.635   3
   4  -1   2 3655.41 319.132   6
  -4   1  -3 780.256 223.873   4
   4  -1   3 755.693 147.354   6
   4  -1   3 686.105 114.400   3
  -4   1  -4 522.688 202.557   4
   4  -1   4 347.296 97.1324   3
   4  -1   4 243.465 86.9097   6
  -4   1  -5 366.037 167.103   4
   4  -1   5 261.162 91.5728   6
   4  -1   5 372.322 110.945   3
  -4   1  -6 168.899 114.506   4
   4  -1   6 333.600 98.0368   6
   4  -1   6 227.266 94.0192   3
   4  -1   7 3659.97 397.766   3
  -4   1  -7 3583.32 503.567   4
   4  -1   8 1419.64 264.756   3
   4  -1   9 527.082 169.290   3
   4  -1  10 7632.40 728.764   3
   4  -1  11 2502.01 455.938   3
   4  -1  12-95.8943 122.243   3
  -4   0  12 1516.56 440.182   2
  -4   0  11 3255.05 611.655   2
  -4   0  10 661.244 260.119   3
  -4   0  10 1239.15 352.388   2
  -4   0   9 853.646 266.519   3
  -4   0   9 1135.64 323.355   2
   4   0  -8 8406.43 459.629   6
  -4   0   8 8543.12 807.888   3
  -4   0   8 9262.14 869.869   2
  -4   0   7 1482.07 319.167   3
   4   0  -7 1782.10 213.111   6
  -4   0   7 1979.13 396.428   2
  -4   0   6 508.545 196.941   3
   4   0  -6 1061.14 167.145   6
  -4   0   6 1062.27 287.311   2
  -4   0   5 12.9908 66.4088   3
  -4   0   5 82.2421 116.976   2
   4   0  -5 19.7724 31.0740   6
   4   0  -4 4093.93 332.455   6
   4   0  -4 3570.70 215.321   3
   4   0  -3 345.099 91.2718   6
  -4   0   3 421.879 79.8327   5
   4   0  -3 409.940 62.6573   3
  -4   0   3 423.705 147.145   4
  -4   0   2 388.651 206.430   2
   4   0  -2 739.173 147.048   6
  -4   0   2 521.435 61.0328   5
   4   0  -2 570.574 63.9623   3
   4   0  -1 167.817 69.4822   6
   4   0  -1 135.993 37.2535   3
  -4   0   1 260.838 106.521   4
  -4   0   1 369.472 139.700   2
   4   0   0 81.8485 23.5424   3
  -4   0   0 57.1201 28.8446   4
   4   0   0 84.7313 47.8268   6
  -4   0  -1 2919.20 365.929   4
   4   0   1 2819.90 288.139   6
   4   0   1 2832.85 163.074   3
  -4   0  -2 4969.48 493.841   4
   4   0   2 4447.47 359.765   6
   4   0   2 4213.80 193.130   5
   4   0   2 4817.87 263.236   3
  -4   0  -3 14330.8 847.849   4
   4   0   3 12653.1 600.254   6
   4   0   3 12495.7 439.238   5
   4   0   3 13122.4 481.563   3
   4   0   4 6120.32 417.035   6
   4   0   4 6209.65 369.604   3
  -4   0  -4 6524.28 584.655   4
   4   0   5 3200.74 295.731   3
   4   0   5 3194.62 301.754   6
  -4   0  -5 3603.10 449.600   4
   4   0   6 5007.20 377.815   6
   4   0   6 5573.87 427.473   3
  -4   0  -6 5608.40 579.343   4
   4   0   7 3724.21 321.571   6
   4   0   7 4540.22 424.177   3
  -4   0  -7 4200.25 500.528   4
   4   0   8 11746.1 747.478   3
   4   0   8 11173.2 559.830   6
   4   0   9 492.582 165.701   3
   4   0  10 5238.02 576.698   3
   4   0  11 54.7246 41.1213   3
   4   0  12 34.2780 73.7237   3
   4   0  13 119.882 125.522   3
  -4  -1  12 384.039 235.033   2
  -4  -1  11 358.417 227.211   3
  -4  -1  11 1077.03 382.722   2
  -4  -1  10-227.510 169.939   3
  -4  -1  10 227.781 199.626   2
  -4  -1   9 136.499 112.459   3
  -4  -1   9 382.447 235.931   2
   4   1  -8 858.775 143.015   6
  -4  -1   8 809.283 292.498   3
  -4  -1   8 926.041 300.272   2
   4   1  -7 4316.95 337.734   6
  -4  -1   7 3190.87 550.835   3
  -4  -1   7 4052.49 632.352   2
  -4  -1   6 6531.54 834.651   2
  -4  -1   6 6499.66 750.211   3
  -4  -1   5 2611.41 451.145   3
   4   1  -5 3524.43 320.353   6
  -4  -1   5 2055.68 524.399   2
   4   1  -4 5544.09 410.669   6
  -4  -1   4 7041.30 658.725   3
   4   1  -3 5210.19 428.341   1
  -4  -1   3 854.181 428.403   2
   4   1  -2 50299.3 1337.50   1
   4   1  -2 41389.0 937.965   3
   4   1  -1 897.892 190.695   3
  -4  -1   1 1249.07 218.561   4
   4   1  -1 1781.58 259.496   1
  -4  -1   1 1980.19 363.690   2
  -4  -1   1 993.988 102.056   5
  -4  -1   0 9098.61 566.041   4
   4   1   0 10911.2 645.600   1
  -4  -1  -1 67551.6 1560.45   4
   4   1   1 80721.9 1803.36   1
  -4  -1  -2 9687.06 594.573   4
   4   1   2 8531.84 303.751   5
  -4  -1  -3 3793.87 383.957   4
   4   1   3 4168.07 413.803   1
   4   1   3 2808.75 213.248   5
   4   1   3 3160.68 245.267   3
  -4  -1  -4 438.127 136.390   4
   4   1   4 459.192 102.256   3
   4   1   5 13391.3 664.193   6
   4   1   5 14334.8 635.994   3
  -4  -1  -5 12999.2 760.259   4
   4   1   6 6455.63 455.988   6
   4   1   6 7750.37 516.158   3
  -4  -1  -6 6511.93 538.800   4
   4   1   7 5167.83 397.162   6
   4   1   7 6063.10 484.418   3
   4   1   8 35388.9 1023.60   6
   4   1   8 38406.4 1306.32   3
   4   1   9 268.471 113.703   3
   4   1  10 22.4093 64.6311   3
   4   1  11 80.4434 105.587   3
   4   1  12 4347.72 604.408   3
   4   1  13 663.765 222.270   3
  -4  -2  12 256.582 226.649   3
  -4  -2  11 2694.06 691.585   3
  -4  -2  11 3155.70 685.958   2
  -4  -2  10 80.4645 110.736   3
  -4  -2  10 357.939 225.256   2
  -4  -2   9 2527.92 600.051   3
  -4  -2   9 2814.64 611.689   2
  -4  -2   8 7687.51 980.514   3
   4   2  -8 9603.96 504.247   6
  -4  -2   8 7932.43 1005.87   2
  -4  -2   7 1734.37 451.743   3
   4   2  -7 3338.03 316.211   6
  -4  -2   7 2233.95 540.702   2
  -4  -2   6 5129.44 730.799   3
  -4  -2   6 4422.22 834.245   2
  -4  -2   5 2951.61 723.536   2
  -4  -2   5 4765.48 654.554   3
  -4  -2   4-34.2622 168.637   2
   4   2  -4 1489.06 211.338   1
  -4  -2   3 106.836 162.979   2
   4   2  -3 1116.67 185.143   1
  -4  -2   2 56991.8 3379.65   2
   4   2  -2 91851.0 1641.28   1
  -4  -2   1 2363.27 463.607   2
  -4  -2   1 2403.58 231.945   5
   4   2  -1 1517.57 212.241   1
   4   2   0 91.1139 60.6154   1
  -4  -2   0 102.424 50.7775   4
  -4  -2   0 64.4312 28.6498   5
  -4  -2  -1 7774.30 450.234   4
  -4  -2  -1 6687.47 299.421   5
   4   2   1 7530.57 489.817   1
   4   2   2 112.983 67.5768   1
  -4  -2  -2 169.256 71.5429   4
  -4  -2  -2 55.2028 28.2260   5
   4   2   2 27.3958 27.4270   5
   4   2   3 4850.74 330.628   4
  -4  -2  -3 4887.24 304.769   5
   4   2   3 5568.66 444.308   1
  -4  -2  -3 5425.55 383.191   4
   4   2   4 3378.68 308.161   4
   4   2   4 3612.94 370.202   1
  -4  -2  -4 3279.36 307.756   4
  -4  -2  -5 633.472 134.611   4
   4   2   5 757.581 172.851   1
   4   2   5 676.329 144.802   3
   4   2   6 1660.04 280.565   1
   4   2   6 1146.78 198.730   3
   4   2   7 2264.98 329.310   1
   4   2   7 1864.19 277.190   3
   4   2   8 23196.9 1059.30   3
   4   2   9 2619.97 294.161   6
   4   2   9 2888.49 395.416   3
   4   2  10 615.278 194.798   3
   4   2  11 1857.52 365.401   3
   4   2  12 8648.61 838.712   3
   4   2  13 7595.09 853.025   3
  -4  -3  12 686.079 388.354   3
  -4  -3  11 3557.54 858.851   3
  -4  -3  11 3661.60 845.733   2
  -4  -3  10-46.3812 100.055   3
  -4  -3  10 174.196 186.588   2
  -4  -3   9 4923.13 891.818   3
  -4  -3   9 4770.61 925.761   2
  -4  -3   8 1525.39 479.952   3
  -4  -3   8 1572.01 540.000   2
  -4  -3   7 258.174 191.410   3
  -4  -3   7 197.768 192.989   2
   4   3  -7 191.087 70.5410   1
   4   3  -6 237.485 78.4257   1
  -4  -3   6-58.0125 232.588   2
  -4  -3   6 252.056 164.126   3
  -4  -3   5 1480.39 385.292   3
   4   3  -5 1360.84 196.314   1
   4   3  -4 340.416 100.444   1
  -4  -3   3 75.2525 338.849   2
   4   3  -3 42.8821 54.9198   1
   4   3  -2 57503.9 1329.25   1
  -4  -3   2 40113.7 2889.51   2
  -4  -3   1 79756.9 2700.34   2
  -4  -3   1 85596.1 1666.92   5
   4   3   0 1934.33 251.682   1
  -4  -3   0 1692.20 194.701   5
  -4  -3  -1 48.6475 31.4475   4
   4   3   1-16.0128 36.4988   1
  -4  -3  -1 3.95705 28.8435   5
  -4  -3  -2 37786.9 758.013   4
   4   3   2 40133.7 1174.44   1
  -4  -3  -2 39186.5 906.623   5
   4   3   3 5585.01 451.174   1
  -4  -3  -3 4981.00 315.612   5
  -4  -3  -3 4625.19 244.421   4
   4   3   4 2002.46 175.638   4
   4   3   4 2427.47 302.587   1
  -4  -3  -4 2228.10 235.844   5
   4   3   5 2921.05 258.700   4
   4   3   5 3861.59 390.469   1
  -4  -3  -5 3165.99 307.543   5
   4   3   6 10310.7 648.726   1
   4   3   6 13073.9 742.857   3
   4   3   7 10410.9 673.616   1
   4   3   7 10919.7 696.097   3
   4   3   8 2255.80 332.438   1
   4   3   8 2167.61 331.173   3
   4   3   9 4463.21 508.430   1
   4   3   9 3446.14 446.054   3
   4   3  10 1129.66 270.019   3
   4   3  11-24.5031 70.1571   3
   4   3  12-21.8790 101.251   3
   4   3  13 921.617 292.683   3
  -4  -4  11 361.674 276.658   3
  -4  -4  10 779.211 404.713   3
  -4  -4  10 565.918 395.823   2
  -4  -4   9 568.727 328.553   3
  -4  -4   9 787.108 437.181   2
  -4  -4   8-2.54403 56.3193   3
  -4  -4   8-141.478 195.320   2
   4   4  -7 1093.08 183.366   1
  -4  -4   7 342.521 301.035   2
  -4  -4   7 790.060 364.629   3
   4   4  -6 1452.76 211.454   1
  -4  -4   6 1790.91 481.706   3
  -4  -4   4-159.262 238.839   2
  -4  -4   3 2652.78 858.838   2
  -4  -4   2-90.3332 146.042   2
  -4  -4   1 118.212 153.766   2
  -4  -4   1 84.1468 108.275   5
  -4  -4   0 1010.90 185.085   5
  -4  -4  -1 102.571 29.3030   5
  -4  -4  -2 4573.51 345.882   5
  -4  -4  -3 30138.1 916.934   5
  -4  -4  -4 7030.47 431.609   5
   4   4   5 58.1984 24.3037   4
  -4  -4  -5 23.8050 34.9340   5
   4   4   6 1285.59 168.920   4
   4   4   6 1965.65 296.084   1
  -4  -4  -6 1688.35 247.811   5
   4   4   7 702.579 176.774   1
   4   4   7 523.568 157.526   3
   4   4   8 209.637 117.145   3
   4   4   8 147.618 77.0027   1
   4   4   9 1407.83 266.804   1
   4   4   9 1297.20 279.686   3
   4   4  10 6395.54 599.851   1
   4   4  10 6269.66 657.790   3
   4   4  11 3220.51 515.138   3
   4   4  12 15.5677 52.9524   3
   4   4  13 7896.31 893.518   3
  -4  -5  10 489.677 455.353   2
  -4  -5  10 1468.65 555.292   3
  -4  -5   9 717.830 539.352   2
  -4  -5   9 1628.90 554.579   3
  -4  -5   8-63.6257 187.149   2
  -4  -5   8-14.4452 134.797   3
  -4  -5   7 52.1681 173.323   2
  -4  -5   7 282.868 236.243   3
  -4  -5   5 106.981 212.347   2
  -4  -5   4-855.006 529.002   2
  -4  -5   3 4508.63 1211.05   2
  -4  -5   2 2191.13 627.258   2
  -4  -5   1 3611.44 610.648   2
  -4  -5   1 4231.55 467.931   5
  -4  -5   0 11354.2 686.951   5
  -4  -5   0 11196.7 534.021   4
  -4  -5  -1 6693.53 489.602   5
  -4  -5  -1 6788.19 336.950   4
  -4  -5  -2 254.635 72.7069   5
  -4  -5  -3 854.069 173.105   5
  -4  -5  -4 82535.3 1686.56   5
  -4  -5  -5 18444.2 776.514   5
  -4  -5  -6 80.8425 57.5031   5
   4   5   6 52.9936 19.2147   4
  -4  -5  -7 4073.14 418.696   5
  -4  -5  -8 18178.3 930.596   5
   4   5   9 863.340 247.976   3
   4   5   9 463.385 165.488   1
   4   5  10 336.529 137.510   1
   4   5  10 535.277 185.210   3
   4   5  11 10057.3 922.434   3
   4   5  12 4283.82 648.990   3
   4   5  13-60.9567 135.826   3
  -4  -6   9 346.093 231.185   3
  -4  -6   8 62.8051 118.183   3
  -4  -6   7 496.841 449.772   2
  -4  -6   6 1013.18 805.667   2
  -4  -6   5-1169.57 666.744   2
  -4  -6   4 16.4309 356.234   2
  -4  -6   3 948.524 563.409   2
  -4  -6   2 164.912 208.576   2
  -4  -6   2 419.897 183.186   5
  -4  -6   1 9652.90 995.437   2
  -4  -6   1 8621.40 726.786   5
  -4  -6   0 2603.75 356.873   5
  -4  -6  -1 15249.8 600.863   4
  -4  -6  -1 15139.4 813.972   5
  -4  -6  -2 6103.62 215.456   4
  -4  -6  -2 9337.51 630.114   5
  -4  -6  -3-42.8462 93.4805   5
  -4  -6  -4 7549.71 561.839   5
  -4  -6  -5 23696.5 985.275   5
  -4  -6  -6 2280.67 299.153   5
  -4  -6  -7 2513.35 335.572   5
  -4  -6  -8 1687.58 292.133   5
  -4  -6  -9 793.676 212.186   5
   4   6  10 468.441 199.953   3
   4   6  11 299.580 152.797   3
   4   6  12 1159.38 355.056   3
   4   6  13 108.143 118.913   3
  -4  -7   8 189.366 299.216   2
  -4  -7   7-1003.84 688.181   2
  -4  -7   6 45.8322 202.538   2
  -4  -7   5 1189.60 650.230   2
  -4  -7   4 1863.85 742.024   2
  -4  -7   3 824.520 523.223   2
  -4  -7   3 1222.36 384.155   5
  -4  -7   2 3439.65 689.667   2
  -4  -7   2 3301.31 506.281   5
  -4  -7   1 13929.9 970.408   5
  -4  -7   0 314.400 132.672   5
  -4  -7  -1 1121.59 240.083   5
  -4  -7  -2 2850.65 378.551   5
  -4  -7  -3 151.606 70.0741   5
  -4  -7  -4 150.603 81.4170   5
  -4  -7  -5 4339.89 464.218   5
  -4  -7  -6 4574.63 470.805   5
  -4  -7  -7 654.975 177.528   5
  -4  -7  -8 81.8951 72.8075   5
  -4  -7  -9 2844.69 412.120   5
  -4  -7 -10 213.554 127.724   5
   4   7  10 516.889 234.647   3
   4   7  11 104.194 140.823   3
   4   7  12 1368.42 393.079   3
   4   7  13 12316.2 1251.85   3
  -4  -8   7-1379.59 819.695   2
  -4  -8   6 253.511 370.048   2
  -4  -8   5 392.142 516.001   2
  -4  -8   4 1649.66 642.750   2
  -4  -8   4 1260.75 376.538   5
  -4  -8   3 260.320 263.506   2
  -4  -8   3 251.013 193.309   5
  -4  -8   2 109.110 133.713   5
  -4  -8   2 592.608 310.765   2
  -4  -8   1 2146.65 397.142   5
  -4  -8   0 1638.38 326.481   5
  -4  -8  -1 413.887 141.659   5
  -4  -8  -2-39.1251 117.171   5
  -4  -8  -3 2512.84 375.047   5
  -4  -8  -4 6665.54 610.784   5
  -4  -8  -5 264.058 123.788   5
  -4  -8  -6 8067.44 677.788   5
  -4  -8  -7 3955.25 460.801   5
  -4  -8  -8 5666.72 568.799   5
  -4  -8  -9 130.554 106.440   5
  -4  -8 -10 8361.78 764.966   5
  -4  -8 -11 4229.11 559.779   5
   4   8  11 8943.67 1068.85   3
   4   8  12 30.0884 156.058   3
  -4  -9   6 783.939 566.128   2
  -4  -9   5 221.934 322.350   2
  -4  -9   5 495.998 275.848   5
  -4  -9   4 1325.77 397.185   5
  -4  -9   4 1648.83 574.494   2
  -4  -9   3 3023.37 569.202   5
  -4  -9   3 2638.45 634.061   2
  -4  -9   2 254.434 159.580   5
  -4  -9   1 161.466 146.436   5
  -4  -9   0 272.855 129.521   5
  -4  -9  -1 3613.06 501.003   5
  -4  -9  -2 1337.47 288.968   5
  -4  -9  -3 4303.13 535.083   5
  -4  -9  -4 20640.4 1152.65   5
  -4  -9  -5 5071.71 575.024   5
  -4  -9  -6 1588.16 325.332   5
  -4  -9  -7 5899.55 614.141   5
  -4  -9  -8 2687.34 407.955   5
  -4  -9  -9-55.9419 61.9450   5
  -4  -9 -10 67.5659 84.1830   5
  -4  -9 -11 79.7024 122.962   5
   4   9  12 984.156 378.517   3
  -4 -10   5 1961.55 604.408   2
  -4 -10   4 406.155 240.450   5
  -4 -10   4 137.967 246.824   2
  -4 -10   3 132.068 188.989   5
  -4 -10   2 566.359 208.840   5
  -4 -10   1-14.7622 71.2762   5
  -4 -10   0 266.057 155.897   5
  -4 -10  -1 1061.46 288.140   5
  -4 -10  -2 26.9554 40.6882   5
  -4 -10  -3-97.3497 112.890   5
  -4 -10  -4 432.441 181.322   5
  -4 -10  -5 7330.98 729.966   5
  -4 -10  -6 1214.35 301.965   5
  -4 -10  -7 20.7717 40.0863   5
  -4 -10  -8 53.1659 71.7044   5
  -4 -10  -9 1685.40 355.477   5
  -4 -10 -10 227.634 117.830   5
  -4 -11   1-40.2663 161.526   5
  -4 -11   0-265.635 158.796   5
  -4 -11  -1-83.1486 134.674   5
  -4 -11  -2 4805.36 658.171   5
  -4 -11  -3 550.680 209.879   5
  -4 -11  -4 25.0032 61.3427   5
  -4 -11  -5-35.6787 123.505   5
  -4 -11  -6 1950.17 413.289   5
  -4 -11  -7 500.451 212.680   5
  -4 -11  -8 53.8267 84.5095   5
  -4 -11  -9 1444.81 343.440   5
  -4 -12  -3 277.775 182.666   5
  -4 -12  -4 119.878 111.044   5
  -4 -12  -5-153.474 122.309   5
  -5   7   6 653.873 310.173   4
  -5   7   5 1204.80 441.152   4
  -5   7   4-1.52774 92.1057   4
  -5   7   3 175.845 144.156   4
  -5   7   2 732.341 364.948   4
  -5   7   1-308.448 219.469   4
  -5   7   0 16.5257 78.4918   4
  -5   7  -1 306.214 136.069   4
  -5   7  -2 532.048 336.114   4
  -5   6   8-17.0615 91.6921   4
  -5   6   7 148.400 68.9382   4
  -5   6   6 1041.20 375.952   4
  -5   6   5 346.263 255.016   4
  -5   6   4 768.502 322.002   4
  -5   6   3 1374.86 434.680   4
  -5   6   2 385.497 237.973   4
  -5   6   1 575.882 266.746   4
  -5   6   0 3603.16 691.545   4
  -5   6  -1 479.627 206.390   4
  -5   6  -2 1332.24 445.355   4
  -5   6  -3 8762.92 1118.87   4
  -5   6  -4 249.139 236.101   4
  -5   6  -5 441.729 282.822   4
  -5   5   9 569.654 275.966   4
  -5   5   8-201.727 175.507   4
  -5   5   7 237.775 214.660   4
  -5   5   6 5083.87 797.004   4
  -5   5   5 1847.86 491.751   4
  -5   5   4 930.915 334.546   4
  -5   5   3 671.145 270.759   4
  -5   5   2 265.637 172.545   4
  -5   5   1 1579.73 441.722   4
  -5   5   0 18017.1 1479.32   4
  -5   5  -1-80.5702 172.138   4
  -5   5  -2 379.742 212.737   4
  -5   5  -3 878.561 359.631   4
  -5   5  -4 1723.16 485.372   4
  -5   5  -5 1430.53 438.189   4
  -5   5  -6 278.773 239.747   4
  -5   5  -7 1642.57 480.231   4
  -5   4  10 271.932 209.456   4
  -5   4   9 3105.79 666.228   4
  -5   4   8 281.827 194.694   4
  -5   4   7 1358.19 405.726   4
  -5   4   6 233.148 155.793   4
  -5   4   5 96.7665 79.1890   4
  -5   4   4-62.1808 83.5623   4
  -5   4   3-106.445 179.510   4
  -5   4   2 722.968 291.229   4
  -5   4   1 311.688 170.421   4
  -5   4   0 1905.53 459.422   4
  -5   4  -1 19839.2 1483.77   4
  -5   4  -2 5773.70 809.684   4
  -5   4  -3 1465.07 404.953   4
  -5   4  -4 5051.06 772.541   4
  -5   4  -5 3548.25 661.643   4
  -5   4  -6 3620.07 679.100   4
  -5   4  -7 529.249 260.305   4
  -5   4  -8 6992.39 946.594   4
  -5   4  -9 3986.85 716.049   4
  -5   3  10 2042.62 564.496   4
  -5   3   9 232.940 181.456   4
  -5   3   8 1421.43 438.857   4
  -5   3   7-62.6313 78.1169   4
  -5   3   6 333.783 218.377   4
  -5   3   5 1191.17 341.611   4
  -5   3   4 479.237 234.799   4
  -5   3   3 18.9464 107.712   4
  -5   3   2-32.1226 163.119   4
  -5   3   1 8341.17 873.946   4
  -5   3   0 2912.18 520.954   4
  -5   3  -1 204.936 166.673   4
  -5   3  -2 2281.13 491.832   4
  -5   3  -3 4020.73 641.779   4
   5  -3   3 2996.76 403.821   3
   5  -3   4 128.498 106.237   3
  -5   3  -4 287.410 182.806   4
   5  -3   5 4765.93 507.773   3
  -5   3  -5 5913.56 788.220   4
   5  -3   6 5649.42 577.469   3
  -5   3  -6 6583.74 854.166   4
   5  -3   7-40.6189 93.6023   3
  -5   3  -7 95.6212 131.835   4
   5  -3   8 53.3095 54.6807   3
  -5   3  -8-44.1894 102.945   4
  -5   3  -9 50.2199 75.5812   4
   5  -3   9 13.5206 85.0709   3
   5  -3  10 856.333 281.881   3
   5  -3  11 99.1500 92.8178   3
  -5   2  11 419.083 241.037   2
  -5   2  10 505.639 264.455   2
  -5   2   9 2969.63 592.990   2
  -5   2   9 2766.74 606.294   4
  -5   2   8 5086.02 772.830   4
  -5   2   8 4377.09 741.103   2
  -5   2   7 2089.60 469.920   4
  -5   2   7 1060.70 401.678   2
  -5   2   6 243.548 207.586   2
  -5   2   6 864.073 313.767   4
  -5   2   5 14.0902 80.7398   4
  -5   2   4 2331.15 440.170   4
   5  -2  -4 2343.67 293.060   6
  -5   2   3 1851.96 387.364   4
   5  -2  -3 1681.38 243.442   6
  -5   2   3 1891.84 347.263   2
  -5   2   2 289.567 141.807   4
   5  -2  -2 372.336 115.872   6
  -5   2   1 7489.36 778.628   4
   5  -2  -1 7463.27 522.709   6
  -5   2   0 128.660 74.0385   4
   5  -2   0 69.8350 70.4166   6
  -5   2  -1 1415.92 344.731   4
   5  -2   1 1054.66 201.934   6
   5  -2   2 30.8836 33.2473   3
  -5   2  -2 25.2481 50.3249   4
   5  -2   2 31.4963 44.9465   6
   5  -2   2 6.81281 15.9189   5
   5  -2   3-13.2276 53.7937   3
  -5   2  -3 149.992 150.961   4
   5  -2   3 75.4220 58.0650   6
   5  -2   4 2014.12 258.074   3
  -5   2  -4 2508.19 476.738   4
   5  -2   5 4199.57 409.323   3
  -5   2  -5 4312.51 638.702   4
   5  -2   6 10319.1 690.873   3
  -5   2  -6 10332.2 1005.35   4
   5  -2   7 7660.77 642.317   3
  -5   2  -7 7561.05 872.749   4
  -5   2  -8 1718.31 415.496   4
   5  -2   8 1614.85 319.686   3
   5  -2   9 0.89188 40.4558   3
   5  -2  10 5207.67 661.904   3
   5  -2  11 1071.87 314.081   3
  -5   1  12 170.144 173.635   2
  -5   1  11 525.980 285.793   2
  -5   1  10 1663.69 488.201   2
  -5   1   9 553.211 267.566   2
  -5   1   8 1111.96 377.780   2
   5  -1  -7 198.768 79.9222   6
  -5   1   7 3.81562 48.5658   2
  -5   1   6 2647.98 493.615   4
  -5   1   6 1404.60 551.057   2
   5  -1  -6 2397.44 289.204   6
  -5   1   5 556.126 207.106   4
   5  -1  -5 648.975 150.459   6
  -5   1   4 5369.21 635.961   4
   5  -1  -4 5239.74 420.351   6
  -5   1   3 954.161 351.654   2
  -5   1   3 1781.28 352.757   4
   5  -1  -3 1744.74 246.357   6
  -5   1   2 699.439 210.772   4
   5  -1  -2 1053.20 190.685   6
  -5   1   1 55.3257 50.7466   4
   5  -1  -1 131.984 72.4582   6
  -5   1   0 4295.39 540.621   4
   5  -1   0 3962.42 378.827   6
   5  -1   1 10482.1 603.673   6
   5  -1   1 9187.14 306.270   3
  -5   1  -2 985.363 269.176   4
   5  -1   2 806.457 169.098   6
   5  -1   2 503.468 54.9890   5
   5  -1   2 665.535 100.264   3
   5  -1   2 444.725 60.6850   5
  -5   1  -3 1930.63 397.148   4
   5  -1   3 1651.11 239.289   6
   5  -1   3 1635.74 183.207   3
   5  -1   4 12539.5 669.426   6
   5  -1   4 12320.5 565.174   3
  -5   1  -4 12697.4 996.158   4
   5  -1   5 10751.9 625.227   6
   5  -1   5 11083.1 594.018   3
   5  -1   6 544.518 144.773   3
   5  -1   6 765.304 169.061   6
   5  -1   7 3774.70 412.244   3
  -5   1  -7 4336.36 620.186   4
   5  -1   8 6929.38 613.135   3
  -5   1  -8 6277.22 732.491   4
   5  -1   9 1010.74 259.060   3
   5  -1  10 302.782 139.271   3
   5  -1  11-117.876 130.842   3
   5  -1  12-3.15777 57.3857   3
  -5   0  12 250.517 225.727   2
  -5   0  11 140.686 159.224   2
  -5   0  10 585.863 298.069   2
  -5   0   9 695.577 326.866   2
   5   0  -8 127.244 61.0428   6
  -5   0   8 137.921 154.289   2
   5   0  -7 2584.71 293.944   6
  -5   0   7 1440.74 517.544   2
  -5   0   6 4088.29 978.748   2
   5   0  -6 10310.3 587.908   6
  -5   0   5 972.675 499.922   2
   5   0  -5 3706.82 357.845   6
  -5   0   4 4341.39 547.096   4
   5   0  -4 4419.84 387.942   6
  -5   0   3 18885.4 1092.70   4
   5   0  -3 19390.6 821.138   6
  -5   0   3 12427.5 1498.95   2
   5   0  -3 13453.6 314.819   3
  -5   0   2 8582.18 711.435   4
   5   0  -2 8733.31 547.543   6
  -5   0   2 10200.1 843.732   2
  -5   0   1 2591.62 382.461   4
   5   0  -1 2567.00 300.188   6
   5   0  -1 1475.30 89.9965   3
   5   0  -1 1375.82 71.7658   3
  -5   0   0 704.387 199.030   4
   5   0   0 586.563 145.696   6
   5   0   0 517.591 58.0928   3
   5   0   0 458.587 100.246   3
   5   0   1 18522.3 807.928   6
   5   0   1 16704.8 414.778   3
  -5   0  -2 108.178 78.3085   4
   5   0   2 113.581 38.6518   3
   5   0   2 128.320 68.4040   6
  -5   0  -3-19.5499 82.9294   4
   5   0   3 22.1305 26.0882   3
   5   0   3 38.8694 22.6913   6
   5   0   3 31.4906 26.7050   5
  -5   0  -4-49.1611 74.6347   4
   5   0   4 25.7332 24.8301   3
   5   0   4 27.2230 46.4813   6
   5   0   5 3214.05 344.156   6
   5   0   5 3387.98 313.677   3
  -5   0  -5 3605.01 495.352   4
  -5   0  -6 612.553 203.966   4
   5   0   6 560.029 141.513   3
   5   0   6 614.276 147.534   6
   5   0   7 3425.79 349.827   6
   5   0   7 3462.72 375.959   3
  -5   0  -7 3502.27 501.024   4
  -5   0  -8 1331.77 297.027   4
   5   0   8 1658.29 249.295   6
   5   0   8 1439.38 265.229   3
   5   0   9 12.3997 26.3152   3
   5   0  10 63.8360 83.9420   3
   5   0  11 105.948 90.5377   3
   5   0  12-185.541 133.709   3
  -5  -1  11 310.445 260.964   2
  -5  -1  10 370.174 270.913   2
  -5  -1   9 2556.77 728.963   2
   5   1  -8 2580.27 287.848   6
  -5  -1   8 1803.81 586.801   2
  -5  -1   7 477.445 374.763   2
   5   1  -7 1180.89 202.922   6
  -5  -1   7 920.084 307.390   3
  -5  -1   6 7938.03 818.853   3
   5   1  -6 5723.57 445.234   6
   5   1  -5 6177.71 472.902   6
  -5  -1   4-56.7068 392.826   2
   5   1  -4-7.66989 39.0828   6
  -5  -1   3 4833.49 531.173   4
   5   1  -3 4810.91 424.315   6
  -5  -1   2 6884.21 603.065   4
   5   1  -2 8372.24 571.648   6
  -5  -1   2 8252.83 902.155   2
   5   1  -2 7205.13 371.736   3
  -5  -1   2 7737.84 339.848   5
   5   1  -1 64.9910 49.9975   3
  -5  -1   1 226.396 94.6110   4
   5   1  -1 173.331 80.0075   6
  -5  -1   0 174.636 79.3464   4
   5   1   0 151.178 72.1899   6
  -5  -1  -1 1620.66 278.831   4
   5   1   1 1124.56 211.641   6
  -5  -1  -2 9783.88 692.290   4
   5   1   2 8803.37 591.254   6
   5   1   2 8755.82 391.069   3
  -5  -1  -3 115.182 102.157   4
   5   1   3 68.8099 38.9532   3
   5   1   3 73.1834 57.4930   6
   5   1   3 88.4517 37.6477   5
   5   1   4 5909.72 493.380   6
   5   1   4 5903.10 385.970   3
  -5  -1  -4 6208.05 573.361   4
   5   1   5 3273.49 366.768   6
   5   1   5 4176.31 360.532   3
  -5  -1  -5 4009.44 464.683   4
   5   1   6 6983.44 521.683   6
   5   1   6 7369.38 508.807   3
  -5  -1  -6 7860.42 673.075   4
   5   1   7 2471.55 309.323   6
   5   1   7 3381.94 372.317   3
  -5  -1  -7 2658.72 393.518   4
   5   1   8 6253.83 485.402   6
   5   1   8 6574.28 555.948   3
   5   1   9 2390.79 367.009   3
   5   1  10 8953.75 755.356   3
   5   1  11 1370.03 318.927   3
   5   1  12 1256.60 338.616   3
  -5  -2  11 442.126 352.350   2
  -5  -2  10 308.542 279.173   2
  -5  -2   9 2175.23 779.225   2
  -5  -2   8-11.0430 80.0653   2
  -5  -2   8 131.495 132.809   3
  -5  -2   7 858.487 518.059   2
   5   2  -7 1954.15 267.874   6
  -5  -2   7 1571.34 423.930   3
  -5  -2   6-479.015 393.278   2
   5   2  -6 569.207 146.929   6
   5   2  -5 209.331 106.312   1
  -5  -2   4-1069.54 551.237   2
   5   2  -4 651.700 171.474   1
   5   2  -3 18887.5 904.763   1
  -5  -2   3 8208.41 1376.02   2
  -5  -2   2 31.1803 129.797   2
   5   2  -2 1.63230 30.7105   1
  -5  -2   2-22.4541 36.9635   5
  -5  -2   1 11290.2 692.931   4
  -5  -2   1 11211.3 413.968   5
  -5  -2   0 8533.38 582.968   4
  -5  -2   0 7409.16 296.774   5
  -5  -2  -1 1816.43 263.224   4
   5   2   1 1859.38 291.060   1
  -5  -2  -1 1188.75 112.742   5
  -5  -2  -2 2586.62 310.797   4
  -5  -2  -2 2512.31 192.564   5
   5   2   2 2052.19 196.821   5
  -5  -2  -3 2801.70 332.758   4
   5   2   3 3271.49 404.683   1
   5   2   4 2666.18 381.803   1
   5   2   4 2469.56 275.145   3
  -5  -2  -4 2011.74 282.157   4
   5   2   5 4552.58 507.465   1
   5   2   5 3696.85 347.568   3
  -5  -2  -5 3382.88 377.701   4
   5   2   6 5479.97 448.569   3
  -5  -2  -6 4393.32 426.113   4
   5   2   7 5553.89 500.937   6
   5   2   7 5623.21 505.034   3
   5   2   8 3556.11 400.642   6
   5   2   8 4352.23 473.400   3
   5   2   9 3079.22 358.426   6
   5   2   9 3451.63 440.880   3
   5   2  10 338.227 134.662   3
   5   2  11 187.311 125.881   3
   5   2  12 480.107 206.299   3
   5   2  13-5.20335 60.8594   3
  -5  -3  10-580.251 457.243   2
  -5  -3  10-127.074 192.758   3
  -5  -3   9-50.0476 141.305   2
  -5  -3   9 10.1079 61.5972   3
  -5  -3   8 579.803 461.115   2
  -5  -3   8 1712.20 501.021   3
  -5  -3   7 631.645 513.420   2
  -5  -3   7 3784.34 702.934   3
   5   3  -6 2040.08 291.401   1
  -5  -3   5-84.8653 332.825   2
   5   3  -5 943.069 192.402   1
   5   3  -4 445.004 134.727   1
  -5  -3   4-159.381 470.514   2
  -5  -3   3 25019.8 2516.60   2
   5   3  -3 39012.9 1216.72   1
   5   3  -2 80.5028 67.3701   1
  -5  -3   2 71.1919 40.4693   5
  -5  -3   1 5336.12 379.969   5
   5   3  -1 4618.89 429.669   1
  -5  -3   0 14466.2 687.632   4
  -5  -3   0 13884.2 549.176   5
   5   3   0 15076.1 783.452   1
  -5  -3  -1 3450.55 319.347   4
  -5  -3  -1 2914.08 235.475   5
   5   3   1 3569.55 390.472   1
  -5  -3  -2 88.8947 58.1835   4
   5   3   2 77.8206 67.7275   1
  -5  -3  -2 44.2548 31.5976   5
  -5  -3  -3 1190.83 158.622   5
   5   3   3 1095.95 216.884   1
  -5  -3  -3 1227.39 179.416   4
   5   3   4 724.854 130.752   4
   5   3   4 794.933 195.352   1
  -5  -3  -4 851.619 150.388   5
  -5  -3  -4 981.100 156.450   4
   5   3   5 854.906 209.986   1
   5   3   6 682.952 171.814   3
   5   3   6 637.098 196.171   1
   5   3   7 68367.2 1998.30   1
   5   3   7 62454.5 1678.86   3
   5   3   8 6369.21 668.227   1
   5   3   8 5031.58 516.076   3
   5   3   9 245.798 115.910   3
   5   3  10 1261.14 297.075   3
   5   3  11 12554.6 983.883   3
   5   3  12 2113.39 429.590   3
   5   3  13 6085.96 789.698   3
  -5  -4  11 833.886 415.982   3
  -5  -4  10 496.247 483.345   2
  -5  -4  10 1138.87 497.279   3
  -5  -4   9 718.839 580.415   2
  -5  -4   9 1978.64 595.015   3
  -5  -4   8-592.792 515.065   2
  -5  -4   8 314.935 221.900   3
  -5  -4   6 1874.52 880.281   2
   5   4  -6 6004.56 477.798   1
  -5  -4   5-567.896 470.549   2
   5   4  -5 385.042 127.628   1
   5   4  -4 2171.86 295.783   1
  -5  -4   4 100.169 553.924   2
   5   4  -3 42359.0 1302.57   1
  -5  -4   3 32718.6 2747.08   2
   5   4  -2 164.601 87.9587   1
  -5  -4   2 195.946 125.652   5
   5   4  -1 11033.7 675.067   1
  -5  -4   1 12332.7 686.357   5
  -5  -4   0 315.787 98.7580   5
   5   4   0 291.840 108.035   1
  -5  -4  -1 54.6798 45.0618   4
  -5  -4  -1 33.3431 23.4311   5
   5   4   1-8.36337 40.8808   1
  -5  -4  -2 107.424 49.6891   4
   5   4   2-7.74560 38.5079   1
  -5  -4  -2 57.9794 52.9305   5
   5   4   3 3161.86 381.835   1
  -5  -4  -3 2642.37 267.300   5
   5   4   4 21553.4 1017.71   1
  -5  -4  -4 18564.2 722.756   5
   5   4   5 2433.16 349.138   1
  -5  -4  -5 1896.18 247.677   5
   5   4   6 426.591 145.485   1
  -5  -4  -6 314.290 118.646   5
   5   4   7 6103.85 582.373   1
   5   4   7 7304.24 645.918   3
   5   4   8 382.575 150.354   1
   5   4   8 341.464 138.770   3
   5   4   9-0.51494 59.0027   3
   5   4   9-40.0884 69.9537   1
   5   4  10 963.580 269.878   3
   5   4  10 1260.46 309.023   1
   5   4  11 6250.39 745.211   3
   5   4  12 5369.38 708.440   3
   5   4  13 219.670 210.751   3
  -5  -5  10 280.924 242.664   3
  -5  -5   8-438.047 468.971   2
  -5  -5   7 318.035 262.608   2
   5   5  -6 2240.68 306.909   1
  -5  -5   6-269.572 342.915   2
  -5  -5   5-1271.94 700.094   2
   5   5  -5 424.265 138.572   1
  -5  -5   4-150.226 347.047   2
  -5  -5   3 6559.43 1201.32   2
  -5  -5   2 9165.04 1128.57   2
  -5  -5   2 9766.65 748.052   5
  -5  -5   1 4252.61 445.813   5
  -5  -5   0 1339.92 227.001   5
  -5  -5   0 1180.07 168.637   4
  -5  -5  -1 8616.43 384.665   4
  -5  -5  -1 9782.29 594.079   5
  -5  -5  -1 9322.89 401.717   4
  -5  -5  -2 3009.86 316.906   5
  -5  -5  -3 880.093 179.379   5
  -5  -5  -4 1349.07 215.774   5
  -5  -5  -5 2072.35 273.562   5
   5   5   6 1497.05 294.613   1
  -5  -5  -6 1213.72 220.524   5
  -5  -5  -7 424.307 142.767   5
   5   5   7 394.855 137.867   1
   5   5   8 610.716 218.721   3
   5   5   8 403.624 162.153   1
   5   5   9 348.189 154.570   1
   5   5   9 521.634 200.417   3
   5   5  10-2.14610 61.4185   1
   5   5  10 115.887 93.1249   3
   5   5  11 253.051 170.412   3
   5   5  12 1400.68 377.945   3
   5   5  13 6389.87 859.071   3
  -5  -6   8-105.784 280.520   2
  -5  -6   7-1396.75 811.749   2
  -5  -6   6-1241.63 740.781   2
  -5  -6   5 1263.58 598.879   2
  -5  -6   4 3565.61 1021.15   2
  -5  -6   3 2135.57 675.916   2
  -5  -6   3 1468.84 375.895   5
  -5  -6   2 471.675 185.147   5
  -5  -6   2 570.257 320.342   2
  -5  -6   1 4689.72 519.059   5
  -5  -6   0 2315.51 329.592   5
  -5  -6  -1 42.1456 55.7432   5
  -5  -6  -2 8166.62 586.105   5
  -5  -6  -3 857.533 183.433   5
  -5  -6  -4 381.371 130.791   5
  -5  -6  -5 64.6503 51.6172   5
  -5  -6  -6 495.435 151.922   5
  -5  -6  -7 4091.45 432.167   5
  -5  -6  -8-11.7248 37.0656   5
   5   6   8 235.427 131.959   1
   5   6   9 7216.00 721.861   1
   5   6   9 10717.4 960.755   3
   5   6  10 3272.64 501.026   1
   5   6  10 4069.50 598.143   3
   5   6  11 841.328 289.120   3
   5   6  12 2194.48 492.761   3
   5   6  13 8470.61 1041.02   3
  -5  -7   7-527.531 684.272   2
  -5  -7   6 209.936 311.245   2
  -5  -7   5-130.641 170.597   2
  -5  -7   4 866.659 449.079   2
  -5  -7   3 1607.17 552.367   2
  -5  -7   3 1777.75 405.716   5
  -5  -7   2 665.903 214.821   5
  -5  -7   2 655.329 351.759   2
  -5  -7   1 518.078 173.122   5
  -5  -7   0-1.73164 69.2893   5
  -5  -7  -1 278.799 114.273   5
  -5  -7  -2-229.214 110.358   5
  -5  -7  -3 7627.15 613.977   5
  -5  -7  -4 7519.34 610.339   5
  -5  -7  -5 157.220 81.4542   5
  -5  -7  -6 6642.22 556.750   5
  -5  -7  -7 13413.8 821.770   5
  -5  -7  -8 2390.15 362.176   5
  -5  -7  -9 226.955 120.465   5
   5   7  10 13258.9 1072.26   1
   5   7  10 15384.9 1287.42   3
   5   7  11 6552.38 850.026   3
   5   7  12 205.743 178.597   3
  -5  -8   6 242.365 470.891   2
  -5  -8   5 418.894 388.836   2
  -5  -8   5 352.319 218.930   5
  -5  -8   4 1036.65 490.740   2
  -5  -8   4 1011.07 335.481   5
  -5  -8   3 1142.06 338.551   5
  -5  -8   3 1113.43 422.848   2
  -5  -8   2 2982.95 501.973   5
  -5  -8   1 191.820 127.659   5
  -5  -8   0 292.834 115.664   5
  -5  -8  -1 1477.69 296.870   5
  -5  -8  -2 817.580 222.011   5
  -5  -8  -3 57.9077 43.4820   5
  -5  -8  -4 6243.23 595.053   5
  -5  -8  -5 90.7912 72.9153   5
  -5  -8  -6 439.650 147.636   5
  -5  -8  -7 709.437 193.956   5
  -5  -8  -8 362.787 153.119   5
  -5  -8  -9 1604.56 323.692   5
  -5  -8 -10 1378.72 318.968   5
   5   8  11 724.393 331.671   3
   5   8  12 2728.20 611.048   3
  -5  -9   5 1186.47 517.154   2
  -5  -9   5 1314.32 418.318   5
  -5  -9   4 1432.23 395.983   5
  -5  -9   4 1428.98 515.798   2
  -5  -9   3 2492.95 494.191   5
  -5  -9   2 2875.02 508.470   5
  -5  -9   1 55.2486 53.2618   5
  -5  -9   0 525.148 182.792   5
  -5  -9  -1 926.818 248.091   5
  -5  -9  -2 161.341 65.9344   5
  -5  -9  -3 567.788 187.420   5
  -5  -9  -4 137.049 93.8871   5
  -5  -9  -5 11738.5 901.538   5
  -5  -9  -6 155.974 84.2588   5
  -5  -9  -7 98.3572 93.7416   5
  -5  -9  -8 1487.48 309.238   5
  -5  -9  -9 3288.87 478.746   5
  -5  -9 -10 945.922 276.020   5
  -5  -9 -11 1556.03 360.102   5
  -5 -10   3-40.9888 88.4892   5
  -5 -10   2 1493.70 383.282   5
  -5 -10   1 1025.43 292.014   5
  -5 -10   0 238.604 127.663   5
  -5 -10  -1-284.233 150.205   5
  -5 -10  -2 1020.48 274.128   5
  -5 -10  -3 133.854 117.494   5
  -5 -10  -4 144.140 126.013   5
  -5 -10  -5 192.801 140.006   5
  -5 -10  -6 135.389 85.8145   5
  -5 -10  -7 184.782 70.7428   5
  -5 -10  -8 632.662 204.722   5
  -5 -10  -9 2462.29 435.472   5
  -5 -10 -10 1847.97 388.238   5
  -5 -11   1 1261.43 342.076   5
  -5 -11   0 929.009 279.216   5
  -5 -11  -1-41.7093 103.982   5
  -5 -11  -2 2367.45 455.348   5
  -5 -11  -3 3869.72 576.491   5
  -5 -11  -4 1094.51 300.711   5
  -5 -11  -5 233.846 135.050   5
  -5 -11  -6 1184.89 316.640   5
  -5 -11  -7 415.024 187.813   5
  -5 -11  -8-64.0534 131.169   5
  -6   6   4 385.684 263.184   4
  -6   6   3 1792.56 520.446   4
  -6   6   2 1070.60 397.330   4
  -6   6   1 102.662 142.784   4
  -6   6   0 507.755 246.648   4
  -6   6  -1 754.138 394.757   4
  -6   6  -2 95.8649 185.671   4
  -6   5   7 725.903 325.754   4
  -6   5   6 376.080 273.035   4
  -6   5   5-285.771 207.916   4
  -6   5   4 134.420 129.231   4
  -6   5   3 247.935 182.876   4
  -6   5   2-9.46992 80.3929   4
  -6   5   1 631.106 295.683   4
  -6   5   0 107.693 169.637   4
  -6   5  -1 54.9485 166.859   4
  -6   5  -2 1446.52 456.130   4
  -6   5  -3 879.751 351.293   4
  -6   5  -4 376.424 289.592   4
  -6   5  -5 384.781 244.907   4
  -6   4   8 4.11633 111.637   4
  -6   4   7-122.561 143.252   4
  -6   4   6 1750.64 492.053   4
  -6   4   5 1301.96 419.086   4
  -6   4   4 168.779 168.603   4
  -6   4   3-68.8686 95.1645   4
  -6   4   2 134.727 110.518   4
  -6   4   1 7823.63 978.255   4
  -6   4   0 1621.11 445.590   4
  -6   4  -1-3.41826 124.393   4
  -6   4  -2 1895.04 493.254   4
  -6   4  -3 1040.54 375.631   4
  -6   4  -4-27.7821 78.2224   4
  -6   4  -5 1506.61 458.385   4
  -6   4  -6 381.359 235.844   4
  -6   4  -7 23.7602 111.298   4
  -6   3   9 91.2481 98.8221   4
  -6   3   8 1152.85 391.853   4
  -6   3   7 3560.37 694.438   4
  -6   3   6 1448.20 427.565   4
  -6   3   5 53.5111 118.764   4
  -6   3   4-48.7470 142.961   4
  -6   3   3 151.222 101.402   4
  -6   3   2 163.393 94.9335   4
  -6   3   1 17918.2 1388.31   4
  -6   3   0 1114.37 339.161   4
  -6   3  -1 2938.84 579.453   4
  -6   3  -2 103.415 143.378   4
  -6   3  -3 296.315 196.961   4
  -6   3  -4 189.264 200.198   4
  -6   3  -5 2152.30 518.401   4
  -6   3  -6 2409.53 534.689   4
  -6   3  -7 1053.70 366.464   4
  -6   3  -8 341.892 234.554   4
  -6   3  -9 649.469 266.652   4
  -6   2   9 859.331 359.569   4
  -6   2   8 287.080 219.553   4
  -6   2   7 140.602 111.442   4
  -6   2   6 140.550 99.5477   4
  -6   2   5 989.798 327.276   4
  -6   2   4 79.0239 83.6000   4
   6  -2  -4 276.794 118.480   6
  -6   2   3 1877.75 415.792   4
   6  -2  -3 1950.90 291.200   6
  -6   2   2 108.836 86.4646   4
   6  -2  -2 406.259 140.757   6
  -6   2   1 11249.5 1035.74   4
   6  -2  -1 11303.5 710.302   6
  -6   2   0 23109.7 1483.81   4
   6  -2   0 21248.7 971.861   6
  -6   2  -1 4852.24 692.468   4
   6  -2   1 4806.76 456.746   6
  -6   2  -2-115.786 191.190   4
   6  -2   2 186.260 87.2540   6
  -6   2  -3 6381.01 812.590   4
   6  -2   3 5328.08 495.028   6
  -6   2  -4 4583.55 710.128   4
  -6   2  -5 4798.19 722.345   4
  -6   2  -6 172.340 126.675   4
  -6   2  -7 845.228 330.464   4
  -6   2  -8 1211.83 384.260   4
  -6   2  -9-455.954 231.643   4
  -6   1  10-130.451 192.262   4
  -6   1   9 4247.27 787.173   4
  -6   1   8 874.117 350.035   4
  -6   1   7 240.655 171.666   4
   6  -1  -6 1769.59 277.049   6
  -6   1   6 1852.58 439.671   4
  -6   1   5 443.061 198.401   4
   6  -1  -5 613.997 160.833   6
  -6   1   4 720.896 305.416   2
   6  -1  -4 521.707 145.163   6
  -6   1   4 393.157 186.792   4
  -6   1   3 4740.37 640.622   4
   6  -1  -3 5793.21 491.420   6
  -6   1   2 1183.04 313.050   4
   6  -1  -2 2049.15 290.725   6
  -6   1   1 30.5929 78.9294   4
   6  -1  -1 84.1594 74.2708   6
  -6   1   0 412.775 188.686   4
   6  -1   0 384.571 130.761   6
  -6   1  -1 2570.91 477.176   4
   6  -1   1 2185.90 309.048   6
  -6   1  -2-86.0183 152.807   4
   6  -1   2 145.030 83.0193   6
  -6   1  -3 1542.13 394.558   4
   6  -1   3 1529.74 258.262   6
  -6   1  -4 3911.76 612.435   4
   6  -1   4 3161.82 376.747   6
   6  -1   4 2871.28 283.218   3
   6  -1   5 3276.62 384.073   6
   6  -1   5 3408.09 340.925   3
  -6   1  -5 4251.36 643.863   4
  -6   1  -6 91.3379 73.0226   4
   6  -1   6 22.5442 41.0440   3
   6  -1   6-2.53621 46.6166   6
  -6   1  -7 38.3257 143.581   4
   6  -1   7-34.1073 55.2817   3
  -6   1  -8 29.9251 115.317   4
   6  -1   8 433.046 151.778   3
  -6   1  -9 741.890 250.863   4
   6  -1   9 513.515 176.688   3
   6  -1  10 52.7391 50.7398   3
   6  -1  11 1149.68 324.556   3
  -6   0  11-5.65792 55.4788   2
  -6   0  10 72.2253 182.378   2
  -6   0   9 473.752 427.814   2
  -6   0   8-82.8181 209.753   2
   6   0  -8 2513.08 322.796   6
   6   0  -7 151.525 69.3701   6
  -6   0   7 238.205 146.001   4
  -6   0   6-254.760 298.010   2
  -6   0   6-108.636 109.439   4
   6   0  -6 6.58868 36.4507   6
  -6   0   5 2281.85 449.588   4
   6   0  -5 2006.73 290.615   6
  -6   0   4 965.664 427.020   2
   6   0  -4 1808.18 278.762   6
  -6   0   4 1697.99 373.843   4
  -6   0   3 324.164 166.443   4
   6   0  -3 256.779 103.845   6
  -6   0   2 108.717 74.2607   4
   6   0  -2 339.629 125.746   6
  -6   0   1 549.654 205.814   4
   6   0  -1 690.050 171.273   6
  -6   0   0 552.008 186.707   4
   6   0   0 451.100 132.942   6
  -6   0  -1 2096.37 396.945   4
   6   0   1 2146.04 302.716   6
  -6   0  -2 7292.96 746.293   4
   6   0   2 6714.49 540.884   6
   6   0   2 5862.61 293.820   3
  -6   0  -3 2333.32 426.997   4
   6   0   3 2031.43 301.585   6
   6   0   3 2020.72 199.550   3
  -6   0  -4 173.685 147.086   4
   6   0   4 329.605 85.8663   3
   6   0   4 251.968 107.928   6
   6   0   5 8099.86 601.087   6
   6   0   5 7733.64 487.142   3
  -6   0  -5 8923.56 848.198   4
   6   0   6 8265.67 611.956   6
   6   0   6 8724.26 571.294   3
  -6   0  -6 9379.58 885.404   4
  -6   0  -7 1715.33 380.416   4
   6   0   7 1597.28 266.986   6
   6   0   7 1553.15 259.760   3
  -6   0  -8-60.4603 63.6755   4
   6   0   8 61.4447 65.0625   3
   6   0   8 44.6410 28.7329   6
   6   0   9 6632.62 636.312   3
   6   0  10 2082.24 386.469   3
   6   0  11 541.211 210.805   3
   6   0  12 283.859 139.558   3
  -6  -1  10 160.346 271.794   2
  -6  -1   9 220.626 320.938   2
  -6  -1   8-541.499 476.903   2
  -6  -1   7 755.863 542.987   2
   6   1  -7 1220.71 224.795   6
  -6  -1   6-688.422 494.214   2
   6   1  -6 251.792 99.2465   6
  -6  -1   5 106.309 67.0011   4
   6   1  -5 67.1052 32.7328   6
  -6  -1   4 1574.54 558.695   2
  -6  -1   4 2659.24 449.879   4
   6   1  -4 2863.12 353.104   6
  -6  -1   3 4622.73 577.424   4
   6   1  -3 4821.54 464.350   6
  -6  -1   3 5713.60 832.943   2
  -6  -1   2 377.889 142.857   4
   6   1  -2 408.748 142.439   6
  -6  -1   1 8929.31 756.834   4
   6   1  -1 8728.19 644.169   6
  -6  -1   0 16971.6 1037.46   4
   6   1   0 17885.7 907.802   6
  -6  -1  -1 2729.59 404.955   4
   6   1   1 3118.58 381.181   6
   6   1   1 2499.26 191.387   3
  -6  -1  -2 1475.27 308.544   4
   6   1   2 1530.04 272.280   6
   6   1   2 1483.21 158.744   3
  -6  -1  -3 9892.57 814.868   4
   6   1   3 8647.23 637.635   6
   6   1   3 8674.39 439.660   3
   6   1   4 4007.46 439.710   6
   6   1   4 3851.21 326.299   3
  -6  -1  -4 4404.60 545.149   4
   6   1   5 2534.96 342.718   6
   6   1   5 2947.48 306.565   3
  -6  -1  -5 3039.12 448.710   4
   6   1   6 4679.13 464.393   6
   6   1   6 5190.77 438.833   3
  -6  -1  -6 5096.24 596.067   4
  -6  -1  -7 1125.28 274.106   4
   6   1   7 1111.07 232.847   6
   6   1   7 1439.17 248.076   3
   6   1   8 664.995 177.764   3
   6   1   8 783.111 194.225   6
   6   1   9 460.620 166.888   3
   6   1  10 566.384 195.355   3
   6   1  11-66.2580 105.394   3
   6   1  12-200.482 139.395   3
  -6  -2  10-370.646 439.845   2
  -6  -2   9-301.213 386.910   2
  -6  -2   7-90.3606 208.891   2
   6   2  -7 2907.15 349.570   6
  -6  -2   6-338.131 367.750   2
   6   2  -6 2084.40 305.693   6
  -6  -2   5 219.437 294.142   2
   6   2  -5 2192.57 321.764   6
  -6  -2   4 3392.33 933.505   2
   6   2  -4 5428.27 515.049   6
  -6  -2   3 13746.9 951.536   4
   6   2  -3 15102.2 854.279   6
  -6  -2   3 15209.3 1506.28   2
   6   2  -2 44.6284 36.5431   1
  -6  -2   2-57.3612 62.0839   4
  -6  -2   1 9761.90 734.989   4
   6   2  -1 13126.1 864.937   1
  -6  -2   0 24203.2 1139.64   4
   6   2   0 31784.7 1381.68   1
  -6  -2  -1-94.1779 106.183   4
   6   2   1-29.5140 71.5891   1
  -6  -2  -2 3044.73 395.097   4
   6   2   2 3622.78 472.353   1
  -6  -2  -3 1922.67 318.027   4
   6   2   3 2411.75 396.141   1
   6   2   3 2035.83 239.421   3
  -6  -2  -4 1369.62 266.189   4
   6   2   4 1566.68 321.604   1
   6   2   4 1298.32 199.947   3
  -6  -2  -5 780.696 195.009   4
   6   2   5 769.930 161.423   3
   6   2   5 706.022 193.973   6
   6   2   6 3634.96 451.013   6
   6   2   6 3609.98 382.965   3
  -6  -2  -6 3413.47 426.452   4
   6   2   7 23445.9 1110.87   6
   6   2   7 25716.4 1100.35   3
   6   2   8 285.490 109.993   3
   6   2   8 417.380 151.700   6
   6   2   9 631.542 197.064   3
   6   2   9 580.784 174.510   6
   6   2  10 83.6883 76.4318   3
   6   2  11 1177.72 311.894   3
   6   2  12 549.260 221.903   3
  -6  -3   8 8.93316 108.270   2
  -6  -3   7-736.142 571.867   2
   6   3  -7 323.434 115.481   6
  -6  -3   6-913.971 609.755   2
   6   3  -6 1796.13 296.389   6
  -6  -3   5-697.774 512.752   2
   6   3  -5 47.3631 28.8695   1
  -6  -3   4 1.57508 118.434   2
   6   3  -4 172.148 109.257   1
   6   3  -3 11237.4 780.291   1
  -6  -3   3 14979.0 1578.81   2
  -6  -3   2 3135.47 414.483   4
   6   3  -2 3910.33 452.015   1
  -6  -3   2 3687.80 329.028   5
  -6  -3   1 1162.76 237.807   4
   6   3  -1 1652.35 295.048   1
  -6  -3   1 1228.41 162.766   5
  -6  -3   0 852.059 196.659   4
  -6  -3   0 816.880 118.894   5
   6   3   0 1127.60 253.693   1
  -6  -3  -1 7172.93 553.228   4
  -6  -3  -1 6685.24 330.738   5
  -6  -3  -2 5934.34 484.686   4
  -6  -3  -2 5893.96 326.482   5
  -6  -3  -3 179.118 78.8295   4
  -6  -3  -3 72.5016 22.5664   5
   6   3   3 110.335 66.4306   1
   6   3   4 5129.63 566.124   1
  -6  -3  -4 4431.03 407.361   4
   6   3   5 5524.18 613.712   1
   6   3   5 5612.39 487.912   3
  -6  -3  -5 4122.71 386.066   4
   6   3   6 2848.06 477.663   1
   6   3   6 2084.03 299.134   3
   6   3   7 5884.03 663.208   1
   6   3   7 4343.35 456.513   3
   6   3   8 936.232 228.036   3
   6   3   9 856.484 240.914   3
   6   3   9 676.658 205.227   6
   6   3  10 276.125 144.839   3
   6   3  11 1359.76 328.434   3
   6   3  12 1798.05 410.193   3
  -6  -4   9-708.766 623.169   2
  -6  -4   8-126.815 265.809   2
  -6  -4   7-855.494 633.624   2
  -6  -4   6-1388.04 765.603   2
   6   4  -6 40.6176 65.1637   1
  -6  -4   5-801.908 536.862   2
   6   4  -5 21.9695 66.2672   1
  -6  -4   4 1448.14 587.373   2
   6   4  -4 1693.05 293.765   1
  -6  -4   3 5921.30 564.510   5
   6   4  -3 5113.43 501.935   1
  -6  -4   2 23527.9 1653.19   2
  -6  -4   2 21449.0 937.416   5
   6   4  -2 19224.6 976.071   1
  -6  -4   1 3573.21 397.217   4
  -6  -4   1 3625.43 336.004   5
   6   4  -1 4144.72 453.356   1
  -6  -4   0 1234.89 221.302   4
  -6  -4   0 1326.56 190.585   5
   6   4   0 1505.49 274.496   1
  -6  -4  -1 5016.85 409.062   4
  -6  -4  -1 5268.78 368.373   5
   6   4   1 5900.08 558.482   1
  -6  -4  -2 15364.2 658.786   4
  -6  -4  -2 14980.0 618.767   5
  -6  -4  -3 6647.78 412.171   5
   6   4   3 7511.13 660.639   1
  -6  -4  -3 5730.42 359.957   4
  -6  -4  -4 3561.19 322.698   5
   6   4   4 4151.38 494.458   1
  -6  -4  -5 12881.5 663.782   5
   6   4   5 15148.8 965.645   1
   6   4   6 9982.39 805.737   1
   6   4   7 4612.45 579.980   1
   6   4   7 4551.17 505.385   3
   6   4   8 2321.47 426.360   1
   6   4   8 2271.50 366.099   3
   6   4   9 270.313 132.944   3
   6   4   9 314.722 169.245   1
   6   4  10-112.014 104.876   1
   6   4  10 22.9879 39.2372   3
   6   4  11 2334.93 452.722   3
   6   4  12 1472.93 378.890   3
  -6  -5   8-61.7416 349.547   2
  -6  -5   7-988.689 703.203   2
  -6  -5   6-1376.24 785.923   2
  -6  -5   5-446.841 401.270   2
   6   5  -5 68.8758 78.3782   1
   6   5  -4 9659.92 701.710   1
  -6  -5   4 8347.35 1452.91   2
   6   5  -3 2293.32 342.545   1
  -6  -5   3 3980.42 810.439   2
  -6  -5   3 3285.21 462.952   5
   6   5  -2 450.519 150.377   1
  -6  -5   2 868.571 209.057   5
   6   5  -1 366.289 130.010   1
  -6  -5   1 278.073 91.5458   5
  -6  -5   0 1301.25 208.731   4
   6   5   0 1396.26 273.807   1
  -6  -5   0 1254.28 206.879   5
  -6  -5  -1-8.84855 36.6643   4
  -6  -5  -1 20.2338 26.6543   5
   6   5   1 73.5436 35.0578   1
   6   5   2 8517.52 692.227   1
  -6  -5  -2 7408.95 507.072   5
   6   5   3 898.048 233.005   1
  -6  -5  -3 774.415 160.899   5
   6   5   4 914.216 237.328   1
  -6  -5  -4 879.857 167.896   5
   6   5   5-70.8939 108.630   1
  -6  -5  -5-61.5997 56.6639   5
   6   5   6 5661.64 615.202   1
  -6  -5  -6 5236.20 473.557   5
   6   5   7 3112.08 469.039   1
   6   5   8 38.7399 56.8965   1
   6   5   8 129.435 124.871   3
   6   5   9 3487.97 534.545   1
   6   5   9 3541.86 512.611   3
   6   5  10 3950.19 602.226   1
   6   5  10 4804.09 633.699   3
   6   5  11 112.874 88.0237   3
   6   5  12 10429.8 1077.37   3
  -6  -6   7 540.336 512.199   2
  -6  -6   6-466.307 434.946   2
  -6  -6   5 799.180 548.361   2
   6   6  -5 395.318 151.957   1
  -6  -6   4 3381.95 863.988   2
   6   6  -4 2849.85 389.861   1
  -6  -6   4 2986.31 507.263   5
  -6  -6   3 1407.47 326.562   5
   6   6  -3 955.181 230.311   1
  -6  -6   2 1915.74 337.899   5
  -6  -6   1 111.353 73.8873   5
  -6  -6   0 1831.38 289.773   5
  -6  -6  -1-56.1042 94.4959   5
  -6  -6  -2 259.606 94.2444   5
  -6  -6  -3 20478.7 936.949   5
   6   6   4 13893.2 951.499   1
  -6  -6  -4 11017.9 671.053   5
   6   6   5 1384.48 303.629   1
  -6  -6  -5 854.586 185.068   5
   6   6   6 1027.50 264.698   1
  -6  -6  -6 868.196 196.415   5
   6   6   7 10086.6 861.889   1
  -6  -6  -7 5855.43 541.411   5
  -6  -6  -8 576.783 178.625   5
   6   6   8 1129.31 296.884   1
   6   6   9 221.801 118.228   3
   6   6   9 128.435 113.324   1
   6   6  10 3057.62 517.411   1
   6   6  10 3701.69 586.229   3
   6   6  11 1711.74 408.620   3
   6   6  12-23.7303 119.663   3
  -6  -7   6 1063.29 589.236   2
  -6  -7   5 783.606 444.530   2
   6   7  -5 688.548 194.578   1
  -6  -7   5 781.968 291.689   5
  -6  -7   4 1440.78 567.856   2
  -6  -7   4 1052.04 322.412   5
  -6  -7   3 594.570 228.832   5
  -6  -7   3 980.304 417.692   2
  -6  -7   2 2500.88 414.798   5
  -6  -7   1-49.0938 59.8810   5
  -6  -7   0 254.944 128.214   5
  -6  -7  -1 949.647 225.368   5
  -6  -7  -2 534.974 164.978   5
  -6  -7  -3-72.7280 63.2987   5
  -6  -7  -4 853.744 216.685   5
  -6  -7  -5 891.789 211.304   5
  -6  -7  -6 70.8154 46.0769   5
  -6  -7  -7 162.529 98.5681   5
   6   7   8 223.563 114.817   1
  -6  -7  -8 368.026 159.285   5
   6   7   9 230.241 139.930   1
  -6  -7  -9 86.5966 84.6991   5
   6   7  10-11.7670 71.9115   3
   6   7  10 25.1923 113.786   1
   6   7  11 2850.52 575.943   3
  -6  -8   6 2019.63 504.572   5
  -6  -8   5 1768.72 664.583   2
  -6  -8   5 1511.57 407.250   5
  -6  -8   4 60.1180 86.3558   5
  -6  -8   4 547.024 330.284   2
  -6  -8   3 403.857 177.481   5
  -6  -8   2 744.121 246.311   5
  -6  -8   1 29.3834 54.0104   5
  -6  -8   0 249.447 128.839   5
  -6  -8  -1 107.729 58.6706   5
  -6  -8  -2 21.7413 27.2329   5
  -6  -8  -3 320.494 136.546   5
  -6  -8  -4 90.2778 78.6259   5
  -6  -8  -5 2538.25 381.414   5
  -6  -8  -6 421.322 150.262   5
  -6  -8  -7-11.9074 37.8701   5
  -6  -8  -8 1637.43 317.185   5
  -6  -8  -9 1283.00 298.086   5
   6   8  10 432.860 209.196   1
  -6  -8 -10 267.049 141.392   5
   6   8  11 484.356 235.327   1
   6   8  11 648.918 262.653   3
  -6  -9   5 336.708 246.833   5
  -6  -9   4 69.7241 128.008   5
  -6  -9   3 35.4207 85.6059   5
  -6  -9   2 2412.06 449.878   5
  -6  -9   1 847.595 250.711   5
  -6  -9   0 68.8091 76.9174   5
  -6  -9  -1 396.836 142.331   5
  -6  -9  -2 1712.65 343.679   5
  -6  -9  -3 2399.48 401.559   5
  -6  -9  -4 138.695 70.9030   5
  -6  -9  -5 2244.39 391.806   5
  -6  -9  -6 1326.58 306.236   5
  -6  -9  -7 2154.70 369.853   5
  -6  -9  -8-79.1424 77.8836   5
  -6  -9  -9 3106.59 474.775   5
  -6  -9 -10 1885.50 393.350   5
   6   9  11 142.922 140.274   1
  -6  -9 -11 51.8765 88.4346   5
  -6 -10   3 369.891 201.748   5
  -6 -10   2 47.7950 45.0335   5
  -6 -10   1 183.847 58.2943   5
  -6 -10   0 201.991 116.600   5
  -6 -10  -1-391.724 181.064   5
  -6 -10  -2 228.837 137.820   5
  -6 -10  -3 3007.54 476.236   5
  -6 -10  -4 128.516 113.319   5
  -6 -10  -5 329.952 172.637   5
  -6 -10  -6 22.8943 66.2116   5
  -6 -10  -7-33.9085 55.9447   5
  -6 -10  -8 139.775 115.070   5
  -6 -10  -9 80.9652 40.4750   5
  -6 -10 -10 642.090 243.134   5
  -6 -11   0-14.3364 60.8907   5
  -6 -11  -1 516.639 198.913   5
  -6 -11  -2-111.120 188.922   5
  -6 -11  -3 987.209 292.187   5
  -6 -11  -4 9593.99 906.115   5
  -6 -11  -5 1164.68 325.891   5
  -6 -11  -6 104.760 126.132   5
  -6 -11  -7 1384.37 345.096   5
  -6 -11  -8 1278.00 317.149   5
  -7   5   2 154.892 173.014   4
  -7   5   1 2441.89 622.611   4
  -7   5   0 868.711 361.001   4
  -7   5  -1-227.721 244.565   4
  -7   4   5 514.515 252.658   4
  -7   4   4 393.696 211.358   4
  -7   4   3 15.1329 60.2367   4
  -7   4   2 555.508 296.927   4
  -7   4   1 2718.11 629.474   4
  -7   4   0-30.4326 150.972   4
  -7   4  -1-78.8898 172.548   4
  -7   4  -2 1477.55 469.966   4
  -7   4  -3 2076.04 580.409   4
  -7   4  -4 274.470 262.443   4
  -7   4  -5 352.995 255.278   4
  -7   3   6 1181.66 418.696   4
  -7   3   5 393.760 230.347   4
  -7   3   4-71.4219 95.0673   4
  -7   3   3 90.6344 121.752   4
  -7   3   2 737.574 316.807   4
  -7   3   1 100.160 145.822   4
  -7   3   0 3957.67 720.299   4
  -7   3  -1 756.296 314.279   4
  -7   3  -2 518.871 296.232   4
  -7   3  -3 202.159 234.807   4
  -7   3  -4 803.487 354.876   4
  -7   3  -5 783.798 362.078   4
  -7   3  -6 177.335 161.457   4
  -7   3  -7 1863.64 516.694   4
  -7   2   7 757.638 320.446   4
  -7   2   6 1224.62 413.458   4
  -7   2   5 812.133 339.655   4
  -7   2   4 5.93671 181.491   4
  -7   2   3-11.2493 124.798   4
   7  -2  -3 3.29450 53.1648   6
  -7   2   2 4795.43 755.942   4
   7  -2  -2 5152.15 515.861   6
  -7   2   1 424.620 282.913   4
   7  -2  -1 1017.41 235.008   6
  -7   2   0 978.183 345.854   4
   7  -2   0 1226.76 255.199   6
  -7   2  -1 492.461 208.260   4
   7  -2   1 730.823 201.115   6
  -7   2  -2 39.1053 85.1694   4
   7  -2   2 63.9137 52.0352   6
  -7   2  -3 57.4671 81.6095   4
  -7   2  -4 278.427 253.289   4
  -7   2  -5-235.603 177.527   4
  -7   2  -6 224.276 192.757   4
  -7   2  -7 31.0327 127.684   4
  -7   2  -8 3446.43 674.420   4
  -7   2  -9 2472.18 559.027   4
  -7   1   8 1242.49 425.073   4
  -7   1   7 192.783 141.556   4
  -7   1   6 334.415 174.095   4
   7  -1  -6 359.249 134.908   6
  -7   1   5 1082.04 351.239   4
   7  -1  -5 1271.65 255.303   6
  -7   1   4-31.3281 73.4949   4
   7  -1  -4 41.2777 51.2041   6
  -7   1   3 170.869 101.928   4
   7  -1  -3 465.826 155.086   6
  -7   1   2 2838.65 549.630   4
   7  -1  -2 3215.82 404.641   6
  -7   1   1 1011.20 323.356   4
   7  -1  -1 1492.76 277.551   6
  -7   1   0 2294.55 483.782   4
   7  -1   0 2658.16 366.664   6
  -7   1  -1 397.775 169.381   4
   7  -1   1 530.540 167.130   6
  -7   1  -2 1025.47 307.807   4
   7  -1   2 1370.75 268.285   6
  -7   1  -3 455.309 235.289   4
   7  -1   3 403.032 146.328   6
  -7   1  -4 426.449 246.528   4
   7  -1   4 380.591 148.420   6
   7  -1   5 11414.0 790.696   6
  -7   1  -5 12671.8 1182.84   4
   7  -1   6 5437.58 547.862   6
  -7   1  -6 6173.48 823.300   4
  -7   1  -7 346.666 192.673   4
  -7   1  -8 20.8923 58.7246   4
  -7   0   8 69.1700 93.8484   4
  -7   0   7 525.146 268.966   4
   7   0  -7 461.914 145.097   6
  -7   0   6 42.8025 98.4639   4
   7   0  -6 127.131 69.0775   6
  -7   0   5 694.912 285.117   4
   7   0  -5 670.717 183.003   6
  -7   0   4 2327.84 482.999   4
   7   0  -4 2445.06 353.468   6
  -7   0   3 1023.83 323.472   4
   7   0  -3 1017.36 226.574   6
  -7   0   2 1125.31 317.421   4
   7   0  -2 1174.65 243.784   6
  -7   0   1 3735.41 586.829   4
   7   0  -1 3732.66 432.796   6
  -7   0   0 4991.83 663.966   4
   7   0   0 5373.51 518.868   6
  -7   0  -1 455.825 179.044   4
   7   0   1 447.383 152.017   6
  -7   0  -2 3938.21 603.931   4
   7   0   2 3190.17 404.501   6
  -7   0  -3 1188.43 334.684   4
   7   0   3 1283.02 260.875   6
  -7   0  -4 817.643 309.615   4
   7   0   4 650.826 183.248   6
  -7   0  -5 685.195 271.005   4
   7   0   5 482.338 161.687   6
  -7   0  -6 537.385 229.902   4
   7   0   6 215.207 112.136   6
  -7   0  -7 427.524 200.523   4
   7   0   7 90.4476 84.7903   6
   7   0   8 47.4907 76.6949   6
  -7  -1   9-389.890 585.096   2
  -7  -1   8-883.801 638.406   2
  -7  -1   8 547.100 283.515   4
  -7  -1   7 646.420 287.526   4
   7   1  -7 881.198 209.083   6
  -7  -1   6 890.178 326.990   4
   7   1  -6 833.698 204.699   6
  -7  -1   5 771.151 393.300   2
  -7  -1   5 659.690 249.989   4
   7   1  -5 513.023 160.886   6
  -7  -1   4 5095.61 683.511   4
   7   1  -4 6062.42 552.632   6
  -7  -1   3 2944.90 503.045   4
   7   1  -3 2711.68 372.228   6
  -7  -1   2 55.2716 70.9630   4
   7   1  -2 39.4890 26.1773   6
  -7  -1   1 531.431 200.365   4
   7   1  -1 609.892 175.339   6
  -7  -1   0 3070.67 498.106   4
   7   1   0 2807.15 385.528   6
  -7  -1  -1 552.496 212.816   4
   7   1   1 451.603 165.193   6
  -7  -1  -2 778.842 232.886   4
   7   1   2 598.329 180.243   6
  -7  -1  -3 24.4905 63.4085   4
   7   1   3 216.196 108.980   6
  -7  -1  -4 1868.41 385.874   4
   7   1   4 1529.99 287.799   6
  -7  -1  -5 1313.37 330.425   4
   7   1   5 974.272 234.074   6
  -7  -1  -6 439.998 205.736   4
   7   1   6 586.063 181.877   6
   7   1   7 4325.94 494.440   6
   7   1   7 4341.07 446.369   3
   7   1   8 3451.04 440.336   6
   7   1   8 3615.87 440.060   3
   7   1   9 365.205 152.036   3
   7   1  10 708.860 227.226   3
   7   1  11 191.471 143.597   3
  -7  -2   9-610.542 580.235   2
  -7  -2   8-990.442 693.871   2
  -7  -2   7-916.457 642.410   2
   7   2  -7-31.4341 69.9970   6
  -7  -2   6-159.039 239.378   2
  -7  -2   6 408.327 228.252   4
   7   2  -6 409.539 142.188   6
  -7  -2   5 167.655 205.048   2
  -7  -2   5 223.818 118.879   4
   7   2  -5 130.535 94.9997   6
  -7  -2   4 32.2344 52.3166   4
   7   2  -4 116.000 146.382   6
  -7  -2   3 389.221 185.636   4
   7   2  -3 334.064 147.580   6
  -7  -2   2 687.449 225.822   4
   7   2  -2 746.465 199.537   6
  -7  -2   1 903.200 237.144   4
   7   2  -1 1021.46 243.501   6
  -7  -2   0 694.949 210.491   4
   7   2   0 840.029 220.831   6
  -7  -2  -1 4967.28 575.785   4
   7   2   1 5204.93 554.579   6
  -7  -2  -2 2818.33 439.154   4
   7   2   2 3832.44 478.060   6
  -7  -2  -3 124.950 64.6177   4
   7   2   3 50.2873 18.4764   3
   7   2   3 138.478 87.5293   6
   7   2   4 9343.35 744.687   6
   7   2   4 8661.07 514.316   3
  -7  -2  -4 9516.36 788.841   4
   7   2   5 9721.54 768.727   6
   7   2   5 9890.60 601.148   3
   7   2   6 1073.00 216.325   3
   7   2   6 995.863 247.431   6
   7   2   7 4736.59 527.334   6
   7   2   7 4553.61 460.424   3
   7   2   8 5079.82 551.537   6
   7   2   8 6046.36 568.108   3
   7   2   9 4250.86 508.395   3
   7   2  10 84.7573 74.0723   3
   7   2  11 1134.66 311.773   3
  -7  -3   8-1370.93 835.477   2
  -7  -3   7-724.050 584.211   2
   7   3  -7 91.8182 67.0338   6
  -7  -3   6-188.503 261.248   2
   7   3  -6 488.292 164.093   6
  -7  -3   5 500.522 381.920   2
   7   3  -5 102.349 83.5099   6
  -7  -3   4 2592.14 460.401   4
   7   3  -4 3594.29 460.676   6
  -7  -3   4 4554.50 881.757   2
   7   3  -3 174.575 102.310   1
  -7  -3   3-1.04546 55.6550   4
  -7  -3   2 4993.60 585.688   4
   7   3  -2 8233.41 760.343   1
  -7  -3   1 7068.06 668.516   4
   7   3  -1 11197.4 921.149   1
  -7  -3   0 636.824 194.923   4
   7   3   0 688.382 226.967   1
  -7  -3  -1 22.4677 75.7526   4
   7   3   1-19.6879 101.991   1
  -7  -3  -2 3888.82 457.982   4
   7   3   2 5603.35 670.869   1
   7   3   3 4002.02 561.259   1
   7   3   4 2028.82 405.019   1
   7   3   4 1866.70 269.502   3
   7   3   5 7877.66 806.142   1
   7   3   5 6195.39 503.236   3
   7   3   6 236.899 110.037   3
   7   3   7-24.6633 64.7121   3
   7   3   7 18.0320 44.5172   6
   7   3   8 707.553 203.345   3
   7   3   8 780.707 219.177   6
   7   3   9 275.600 131.807   3
   7   3   9 251.170 106.462   6
   7   3  10 2513.11 433.006   3
   7   3  11 2.89708 44.4906   3
   7   3  12 485.575 228.791   3
  -7  -4   7-1322.99 769.257   2
  -7  -4   6 510.217 424.241   2
   7   4  -6 1016.93 248.626   6
  -7  -4   5 134.210 332.987   2
   7   4  -5-28.3517 40.0397   1
   7   4  -4 7473.73 704.332   1
  -7  -4   4 6936.06 1121.83   2
  -7  -4   3 158.415 137.488   4
   7   4  -3 138.232 95.8497   1
  -7  -4   2 1725.42 327.048   4
   7   4  -2 2220.03 377.559   1
  -7  -4   1 3678.54 446.270   4
   7   4  -1 5170.07 580.923   1
   7   4   0 51.6227 94.9717   1
   7   4   1 1862.01 358.227   1
   7   4   2 3403.03 487.804   1
   7   4   3 104.506 111.850   1
   7   4   4 283.793 140.063   1
   7   4   5 1109.31 305.235   1
   7   4   6 37431.9 1794.65   1
   7   4   6 32276.1 1317.00   3
   7   4   7 10567.9 1017.47   1
   7   4   7 6267.50 594.897   3
   7   4   8 41.5176 153.459   1
   7   4   8 30.5984 36.8146   3
   7   4   9 1382.22 314.591   3
   7   4  10 9711.01 901.158   3
   7   4  11 4048.68 602.862   3
  -7  -5   7-314.203 367.625   2
  -7  -5   6 411.040 440.553   2
  -7  -5   5 984.651 465.193   2
   7   5  -5 189.335 131.173   1
   7   5  -4 1493.06 306.623   1
  -7  -5   4 2595.99 707.421   2
  -7  -5   3 4096.70 786.131   2
   7   5  -3 2406.82 383.702   1
   7   5  -2 1477.08 305.093   1
   7   5  -1-56.0283 62.6131   1
   7   5   0 2120.48 370.065   1
   7   5   1 2299.55 392.645   1
   7   5   2 2496.01 412.724   1
   7   5   3 3879.82 519.375   1
   7   5   4 3324.85 487.519   1
   7   5   5 2797.99 465.111   1
   7   5   6 69.9330 65.0287   1
   7   5   7 12.1756 75.0911   3
   7   5   7 202.763 139.492   1
   7   5   8 223.628 134.139   3
   7   5   8 147.620 112.062   1
   7   5   9 137.006 125.922   3
   7   5   9 108.301 113.966   1
   7   5  10 1287.91 387.783   1
   7   5  10 978.855 292.177   3
   7   5  11 1847.65 432.135   3
  -7  -6   6 629.767 450.181   2
  -7  -6   5 494.455 393.358   2
   7   6  -5-42.7503 57.7559   1
  -7  -6   4 7105.59 1118.29   2
   7   6  -4 6771.30 649.432   1
   7   6  -3 6390.08 642.982   1
   7   6  -2 569.794 186.804   1
   7   6  -1-6.93083 34.0772   1
   7   6   0 2376.17 402.557   1
   7   6   1 3992.94 525.144   1
   7   6   2 2360.93 411.101   1
   7   6   3 378.330 168.996   1
   7   6   4 916.964 266.636   1
   7   6   5 3243.46 509.758   1
   7   6   6 399.673 166.678   1
   7   6   7 846.494 266.430   1
   7   6   8 14.5716 61.3891   1
   7   6   8 98.4159 92.6110   3
   7   6   9 109.039 124.203   1
   7   6   9 342.635 182.097   3
   7   6  10 333.819 162.507   3
   7   6  10 281.824 153.065   1
   7   6  11 2280.01 492.725   3
  -7  -7   5 1988.36 657.556   2
   7   7  -4-34.9951 75.2938   1
  -7  -7   4 515.421 356.240   2
   7   7  -3-42.1579 87.7503   1
   7   7  -2 87.5483 97.0960   1
   7   7  -1-77.0547 92.2038   1
   7   7   0 237.759 134.116   1
   7   7   1 2349.40 420.467   1
  -7  -7  -1 2151.75 332.767   5
   7   7   2 72.7483 58.3102   1
  -7  -7  -2 114.521 63.0743   5
   7   7   3 78.3883 61.1559   1
  -7  -7  -3 23.3229 45.5913   5
   7   7   4-44.8369 74.6934   1
  -7  -7  -4-21.0426 52.2919   5
   7   7   5 95.1646 122.537   1
  -7  -7  -5 204.682 108.339   5
   7   7   6 1600.70 364.705   1
  -7  -7  -6 953.414 221.490   5
   7   7   7 19.7421 102.191   1
  -7  -7  -7 35.8594 42.5995   5
  -7  -7  -8 643.542 194.434   5
   7   7   8 1196.91 343.091   1
   7   7   9 2076.73 461.811   1
   7   7   9 2566.96 524.329   3
   7   7  10 1134.83 357.406   1
   7   7  10 1652.96 422.707   3
   7   7  11 437.121 225.324   3
   7   8  -4 115.505 107.688   1
   7   8  -3 1084.98 282.351   1
  -7  -8   1 1580.48 326.683   5
  -7  -8   0-22.3422 86.0278   5
  -7  -8  -1 4.59825 89.3582   5
  -7  -8  -2 3418.88 450.418   5
  -7  -8  -3 3012.05 420.806   5
  -7  -8  -4 90.5372 63.6183   5
  -7  -8  -5 286.991 122.395   5
   7   8   6 1882.96 430.527   1
  -7  -8  -6 1504.23 288.910   5
   7   8   7 569.683 237.937   1
  -7  -8  -7 337.118 134.241   5
  -7  -8  -8 168.992 103.261   5
   7   8   8 222.480 154.062   1
   7   8   9 1657.50 419.908   1
  -7  -8  -9 1010.50 272.206   5
   7   8  10 925.489 344.556   3
   7   8  10 885.941 318.879   1
   7   8  11-160.706 147.416   1
  -7  -9   2-19.4430 54.8379   5
  -7  -9   1 750.239 247.849   5
  -7  -9   0 809.107 243.725   5
  -7  -9  -1 64.5220 36.4094   5
  -7  -9  -2 7.76222 53.2410   5
  -7  -9  -3 455.857 170.576   5
  -7  -9  -4 168.374 111.683   5
  -7  -9  -5 145.730 68.6625   5
  -7  -9  -6 768.183 221.996   5
  -7  -9  -7 1416.97 303.183   5
   7   9   8 125.156 154.658   1
  -7  -9  -8 72.0573 78.8455   5
   7   9   9 86.8315 104.571   1
  -7  -9  -9 116.994 117.445   5
   7   9  10 1799.22 484.046   1
  -7  -9 -10 1317.29 323.590   5
   7   9  11 2347.68 566.955   1
  -7 -10   2 185.026 158.052   5
  -7 -10   1 369.355 184.204   5
  -7 -10   0 152.766 68.1485   5
  -7 -10  -1 14.3602 55.2570   5
  -7 -10  -2 13.3890 43.4583   5
  -7 -10  -3 129.312 100.177   5
  -7 -10  -4 3423.70 524.836   5
  -7 -10  -5 11.9961 44.6041   5
  -7 -10  -6 320.864 166.965   5
  -7 -10  -7 523.193 189.034   5
  -7 -10  -8 256.373 146.112   5
  -7 -10  -9 160.190 125.392   5
  -7 -11  -1 1174.41 343.729   5
  -7 -11  -2 889.474 278.743   5
  -7 -11  -3-45.9649 122.388   5
  -7 -11  -4-39.6674 43.0896   5
  -7 -11  -5 126.831 118.497   5
  -7 -11  -6 77.7050 78.8894   5
  -7 -11  -7 77.4636 83.9399   5
  -8   3   3 381.912 272.533   4
  -8   3   2 3444.81 716.232   4
  -8   3   1 33.2359 124.051   4
  -8   3   0 813.878 350.261   4
  -8   3  -1 992.724 418.400   4
  -8   3  -2 361.442 261.759   4
  -8   3  -3-65.2241 193.276   4
  -8   3  -4 559.143 320.279   4
  -8   2   5 259.955 191.426   4
  -8   2   4 211.844 118.061   4
  -8   2   3-266.757 220.366   4
  -8   2   2 2297.84 563.033   4
  -8   2   1 1431.45 459.455   4
  -8   2   0 1720.83 481.230   4
  -8   2  -1-33.4111 175.364   4
  -8   2  -2 644.848 306.008   4
  -8   2  -3 394.759 293.931   4
  -8   2  -4 344.670 274.379   4
  -8   2  -5 632.428 333.504   4
  -8   2  -6 476.800 265.429   4
  -8   1   6 303.529 189.468   4
  -8   1   5 175.690 171.027   4
   8  -1  -5 170.833 98.4879   6
  -8   1   4 491.477 236.774   4
   8  -1  -4 648.392 198.772   6
  -8   1   3 44.4867 138.087   4
   8  -1  -3 247.078 122.556   6
  -8   1   2 2128.16 521.369   4
   8  -1  -2 2475.85 391.017   6
  -8   1   1 7811.56 981.216   4
   8  -1  -1 8041.85 691.069   6
  -8   1   0 835.971 315.079   4
   8  -1   0 1193.68 271.561   6
  -8   1  -1-80.2329 152.288   4
   8  -1   1 75.2672 80.6175   6
  -8   1  -2 2612.14 570.019   4
   8  -1   2 2623.96 404.945   6
  -8   1  -3 1312.58 408.453   4
   8  -1   3 1449.20 305.667   6
  -8   1  -4 1010.50 357.488   4
   8  -1   4 969.600 248.880   6
  -8   1  -5 168.329 213.095   4
   8  -1   5 135.056 98.2827   6
  -8   0   7 972.805 378.216   4
   8   0  -7 808.194 221.426   6
  -8   0   6 1425.18 447.279   4
   8   0  -6 1534.76 294.859   6
  -8   0   5 873.343 344.546   4
   8   0  -5 476.270 169.380   6
  -8   0   4 258.042 181.107   4
   8   0  -4 476.663 167.901   6
  -8   0   3 2543.33 534.143   4
   8   0  -3 2903.92 410.506   6
  -8   0   2 1061.22 352.792   4
   8   0  -2 894.334 233.290   6
  -8   0   1 452.581 244.828   4
   8   0  -1 734.854 217.702   6
  -8   0   0 331.082 215.035   4
   8   0   0 104.123 78.4362   6
  -8   0  -1-239.341 168.292   4
   8   0   1 137.787 90.0690   6
  -8   0  -2 87.1070 98.2671   4
   8   0   2 338.290 143.478   6
  -8   0  -3 379.186 202.020   4
   8   0   3 439.431 175.420   6
   8   0   4 188.749 128.149   6
   8   0   5 1016.65 249.699   6
   8   0   6 13.5219 30.0203   6
   8   0   7 421.335 167.324   6
  -8  -1   7 3.37715 98.3092   4
   8   1  -7 87.0355 90.7639   6
  -8  -1   6 1348.83 411.554   4
   8   1  -6 1261.08 275.709   6
  -8  -1   5 565.449 260.523   4
   8   1  -5 574.708 183.933   6
  -8  -1   4 167.081 187.175   4
   8   1  -4-51.6290 61.1384   6
  -8  -1   3 184.549 124.777   4
   8   1  -3 193.467 117.809   6
  -8  -1   2 262.299 188.850   4
   8   1  -2 43.1120 52.0028   6
  -8  -1   1 1034.88 300.930   4
   8   1  -1 1253.12 277.222   6
  -8  -1   0 510.196 182.766   4
   8   1   0 722.642 209.233   6
  -8  -1  -1 2425.85 480.103   4
   8   1   1 2526.80 392.007   6
  -8  -1  -2 831.551 294.518   4
   8   1   2 1012.96 254.133   6
   8   1   3 103.670 95.0821   6
   8   1   4 9704.95 783.110   6
   8   1   5 7903.80 707.916   6
   8   1   6 98.7020 81.5427   6
   8   1   7 449.571 178.726   6
   8   1   8 3275.96 467.696   6
  -8  -2   7 100.286 124.461   4
  -8  -2   6 315.719 197.536   4
   8   2  -6 202.769 100.445   6
  -8  -2   5 486.586 233.932   4
   8   2  -5 583.439 183.358   6
  -8  -2   4 1432.14 393.940   4
   8   2  -4 1692.76 323.405   6
  -8  -2   3 173.863 149.896   4
   8   2  -3 51.3119 60.4008   6
  -8  -2   2 306.374 152.826   4
   8   2  -2 357.663 153.187   6
  -8  -2   1 3944.94 593.044   4
   8   2  -1 4610.92 541.682   6
   8   2   0 117.179 97.4453   6
   8   2   1 581.926 193.071   6
   8   2   2 1125.76 267.779   6
   8   2   3 615.435 205.208   6
   8   2   4 605.405 209.009   6
   8   2   5 1753.43 342.346   6
   8   2   6 485.852 182.484   6
   8   2   7 319.609 143.104   6
   8   2   8-49.7046 91.0597   6
  -8  -3   7 267.206 370.323   2
  -8  -3   7 158.814 137.197   4
  -8  -3   6 158.150 145.827   4
   8   3  -6 219.180 117.613   6
  -8  -3   5 274.855 172.185   4
   8   3  -5 338.367 149.777   6
   8   3  -4 1302.35 290.006   6
   8   3  -3-16.1635 64.6196   6
   8   3  -2-16.4167 72.4272   6
   8   3  -1 1141.31 278.949   6
   8   3   0 192.111 112.581   6
   8   3   1 548.988 202.423   6
   8   3   2 34.9705 72.9550   6
   8   3   3 808.298 249.796   6
   8   3   4 201.668 133.455   6
   8   3   5 1443.74 334.757   6
   8   3   6 11291.2 933.040   6
   8   3   7 3143.27 489.212   6
   8   3   8 138.977 116.848   6
  -8  -4   6 397.108 299.485   2
   8   4  -6 99.1419 117.507   6
   8   4  -5 113.549 78.5860   6
  -8  -4   5 710.303 394.096   2
   8   4  -4 132.815 89.6026   6
   8   4  -3 1133.49 301.153   1
   8   4  -2 236.351 150.494   1
   8   4  -1 4069.58 608.107   1
   8   4   0 4898.78 673.497   1
   8   4   1 1662.29 402.749   1
   8   4   2 83.2944 99.9831   1
   8   4   3 6830.52 826.470   1
   8   4   4 8383.10 899.662   1
   8   4   5 2581.48 504.956   1
   8   4   6 1423.35 394.395   1
   8   4   6 1114.09 244.579   3
   8   4   7 409.884 157.307   3
   8   4   7 209.535 122.142   6
   8   4   8 2072.81 415.772   6
   8   4   8 2264.17 390.884   3
   8   4   9 167.183 126.926   3
   8   4   9-50.6343 86.7187   6
   8   4  10 1026.01 298.814   3
   8   4  11 1025.11 312.333   3
  -8  -5   5 883.473 400.937   2
   8   5  -4 1656.92 374.648   1
   8   5  -3 3517.98 536.028   1
   8   5  -2 220.561 119.467   1
   8   5  -1 36.1876 38.2771   1
   8   5   0 30.1256 45.4859   1
   8   5   1 778.038 262.808   1
   8   5   2 611.670 241.611   1
   8   5   3 1690.98 386.668   1
   8   5   4 5489.12 713.503   1
   8   5   5 489.175 228.182   1
   8   5   6 281.176 144.526   3
   8   5   6 354.917 193.449   1
   8   5   7 3144.32 594.199   1
   8   5   7 2416.57 406.434   3
   8   5   8 1012.25 352.664   1
   8   5   8 582.148 207.289   3
   8   5   9 1066.72 366.524   1
   8   5   9 919.500 269.893   3
   8   5  10-7.00742 45.0798   3
   8   6  -4 159.775 111.023   1
   8   6  -3 272.414 167.546   1
   8   6  -2 373.596 170.411   1
   8   6  -1 232.435 141.511   1
   8   6   0-29.0569 81.5918   1
   8   6   1 15.2557 76.3093   1
   8   6   2 1329.92 329.768   1
   8   6   3 672.817 236.042   1
   8   6   4 180.634 139.276   1
   8   6   5 9964.83 963.566   1
   8   6   6 6839.21 824.623   1
   8   6   7 766.125 298.459   1
   8   6   8 511.791 213.218   3
   8   6   8 470.250 231.178   1
   8   6   9 5344.32 819.220   1
   8   6   9 3827.35 589.506   3
   8   6  10 4030.06 736.807   1
   8   6  10 2904.87 541.462   3
   8   7  -4 1033.95 278.912   1
   8   7  -3 1252.49 318.739   1
   8   7  -2 95.5661 88.0886   1
   8   7  -1 1511.48 350.786   1
   8   7   0 68.6497 66.3973   1
   8   7   1 100.883 87.7771   1
   8   7   2 8032.63 833.089   1
   8   7   3 2607.82 487.385   1
   8   7   4 283.887 162.369   1
   8   7   5 131.544 128.940   1
   8   7   6 1087.90 336.031   1
   8   7   7 262.430 146.246   1
   8   7   8 426.745 219.188   1
   8   7   9 380.073 179.246   3
   8   7   9 366.683 210.008   1
   8   7  10 1561.52 462.421   1
   8   8  -3 460.620 205.448   1
   8   8  -2 116.016 98.6848   1
   8   8  -1 500.670 209.040   1
   8   8   0 365.288 189.081   1
   8   8   1 0.18216 64.1022   1
   8   8   2-33.5016 57.3997   1
   8   8   3 84.4014 115.578   1
   8   8   4 233.195 153.017   1
   8   8   5 8.86843 107.685   1
   8   8   6-112.921 115.409   1
   8   8   7 532.830 250.913   1
   8   8   8 77.8196 102.102   1
   8   9   1 459.979 201.244   1
   8   9   2 191.130 117.578   1
   8   9   3 72.7466 87.5547   1
  -9   2   0 1683.58 536.859   4
  -9   2  -1 603.307 343.351   4
  -9   1   3 2658.97 644.174   4
  -9   1   2 137.886 149.739   4
  -9   1   1-72.2386 124.470   4
  -9   1   0-289.994 269.559   4
  -9   0   4 1029.03 383.970   4
  -9   0   3 1003.94 388.607   4
   9   1  -1 2289.03 400.769   6
   9   1   0 128.580 115.563   6
   9   1   1 393.576 166.106   6
   9   1   2 758.000 235.479   6
   9   1   3 503.194 196.575   6
   9   2  -3 132.238 113.849   6
   9   2  -2 19.2628 45.6597   6
   9   2  -1-23.1122 63.9436   6
   9   2   0-26.3196 94.0020   6
   9   2   1 45.1034 84.4908   6
   9   2   2 94.5015 83.0916   6
   9   2   3 203.948 122.214   6
   9   2   4 365.695 164.761   6
   9   2   5 61.5702 60.9483   6
   9   2   6 1019.41 286.481   6
   9   3  -3 250.173 131.409   6
   9   3  -2 431.152 175.826   6
   9   3  -1-7.23536 49.9125   6
   9   3   0 414.929 176.575   6
   9   3   1 314.506 145.713   6
   9   3   2 143.871 100.482   6
   9   3   3 1109.85 298.750   6
   9   3   4 2312.08 438.240   6
   9   3   5 34.9189 63.2531   6
   9   3   6 575.768 216.190   6
   9   3   7 1036.64 294.756   6
   9   4  -3 538.328 211.149   6
   9   4  -2 1460.30 343.077   6
   9   4  -1-26.8087 96.1852   6
   9   4   0 31.6190 43.8900   6
   9   4   1 65.4422 53.6006   6
   9   4   2 697.111 242.981   6
   9   4   3 85.1804 64.6842   6
   9   4   4 538.951 223.600   6
   9   4   5 1530.66 380.845   6
   9   4   6-56.3839 97.8056   6
   9   4   7 77.7588 75.9247   6
   9   4   8 1398.84 355.614   6
   9   5  -3 210.914 139.175   1
   9   5  -2 112.656 108.832   1
   9   5  -1 666.308 265.694   1
   9   5   0 400.317 214.366   1
   9   5   1 68.3621 104.101   1
   9   5   2 541.233 249.041   1
   9   5   3-57.6044 131.168   1
   9   5   4 176.128 170.763   1
   9   5   5 10255.5 1100.94   1
   9   6  -3 109.472 136.119   1
   9   6  -2 1064.67 331.729   1
   9   6  -1 2160.77 465.254   1
   9   6   0 382.011 193.910   1
   9   6   1 73.7927 87.7043   1
   9   6   2 3045.26 563.298   1
   9   6   3 652.492 275.146   1
   9   6   4 372.552 187.742   1
   0   0   0    0.00    0.00   0

TITL 49 in P-1
REM P-1 (#2 in standard setting)
CELL 0.71073   7.387429   9.659329  11.616620  74.2262  82.8285  72.2851
ZERR    3.00   0.000357   0.000519   0.000667   0.0048   0.0044   0.0045
LATT  1
SFAC C H N O S
UNIT 36.00 72.00 3.00 3.00 3.00
TREF
HKLF 4
END
;
_shelx_hkl_checksum              72691
loop_
_space_group_symop_operation_xyz
'x, y, z'
'-x, -y, -z'
loop_
_atom_site_label
_atom_site_type_symbol
_atom_site_fract_x
_atom_site_fract_y
_atom_site_fract_z
_atom_site_U_iso_or_equiv
_atom_site_adp_type
_atom_site_occupancy
_atom_site_site_symmetry_order
_atom_site_calc_flag
_atom_site_refinement_flags_posn
_atom_site_refinement_flags_adp
C1 C 0.3901(5) 0.8906(4) 0.6970(3) 0.0298(9) Uani 1 1 d . .
C2 C 0.2800(5) 1.0016(5) 0.6106(4) 0.0368(10) Uani 1 1 d . .
H2 H 0.230447 1.098809 0.620047 0.044 Uiso 1 1 calc R U
C3 C 0.2445(5) 0.9656(5) 0.5093(4) 0.0393(10) Uani 1 1 d . .
H3 H 0.169786 1.038223 0.450261 0.047 Uiso 1 1 calc R U
C4 C 0.3217(5) 0.8204(5) 0.4973(4) 0.0337(9) Uani 1 1 d . .
C5 C 0.4401(6) 0.7099(5) 0.5807(4) 0.0392(10) Uani 1 1 d . .
H5 H 0.496073 0.614321 0.568955 0.047 Uiso 1 1 calc R U
C6 C 0.4719(5) 0.7464(4) 0.6812(4) 0.0357(10) Uani 1 1 d . .
H6 H 0.548819 0.674019 0.739375 0.043 Uiso 1 1 calc R U
C7 C 0.9124(5) 0.4176(5) 0.2247(3) 0.0332(9) Uani 1 1 d . .
C8 C 0.7818(5) 0.5212(4) 0.1406(4) 0.0323(9) Uani 1 1 d . .
C9 C 0.7648(5) 0.4765(4) 0.0379(4) 0.0331(9) Uani 1 1 d . .
H9 H 0.680454 0.541298 -0.019537 0.040 Uiso 1 1 calc R U
C10 C 0.8703(5) 0.3390(4) 0.0206(3) 0.0268(8) Uani 1 1 d . .
C11 C 0.9994(4) 0.2392(4) 0.1039(3) 0.0264(8) Uani 1 1 d . .
C12 C 1.0188(5) 0.2778(5) 0.2050(3) 0.0301(9) Uani 1 1 d . .
H12 H 1.103309 0.210974 0.261549 0.036 Uiso 1 1 calc R U
N1 N 0.2731(5) 0.7820(5) 0.3939(3) 0.0455(10) Uani 1 1 d . .
N2 N 0.6781(5) 0.6603(4) 0.1489(4) 0.0505(10) Uani 1 1 d D .
H2A H 0.568659 0.683755 0.118077 0.061 Uiso 1 1 d DR U
H2B H 0.659892 0.661494 0.223654 0.061 Uiso 1 1 d R U
N3 N 1.1068(4) 0.0913(3) 0.0884(3) 0.0303(8) Uani 1 1 d . .
H3A H 1.138674 0.097061 0.011178 0.036 Uiso 1 1 calc R U
H3B H 1.035791 0.028329 0.114833 0.036 Uiso 1 1 calc R U
H3C H 1.211672 0.058093 0.129829 0.036 Uiso 1 1 calc R U
N4 N 0.9369(5) 0.4466(5) 0.3382(3) 0.0518(11) Uani 1 1 d . .
O1 O 0.1444(4) 0.8733(4) 0.3316(3) 0.0556(9) Uani 1 1 d . .
O2 O 0.3593(5) 0.6606(5) 0.3741(3) 0.0683(11) Uani 1 1 d . .
O3 O 0.5105(4) 0.7964(3) 0.9126(3) 0.0476(8) Uani 1 1 d . .
O4 O 0.5401(4) 1.0357(3) 0.7972(3) 0.0446(8) Uani 1 1 d . .
O5 O 0.2291(3) 1.0091(3) 0.8709(2) 0.0378(7) Uani 1 1 d . .
O6 O 1.0446(6) 0.3495(5) 0.4062(3) 0.0843(14) Uani 1 1 d . .
O7 O 0.8473(6) 0.5659(5) 0.3564(4) 0.0792(13) Uani 1 1 d . .
S1 S 0.42086(11) 0.93560(10) 0.83031(8) 0.0284(4) Uani 1 1 d . .
CL1 Cl 0.84434(14) 0.29363(12) -0.11028(9) 0.0412(4) Uani 1 1 d . .
loop_
_atom_site_aniso_label
_atom_site_aniso_U_11
_atom_site_aniso_U_22
_atom_site_aniso_U_33
_atom_site_aniso_U_23
_atom_site_aniso_U_13
_atom_site_aniso_U_12
C1 0.0232(17) 0.037(2) 0.030(2) -0.0144(18) -0.0043(15) -0.0036(16)
C2 0.034(2) 0.038(2) 0.035(2) -0.0075(19) -0.0032(17) -0.0058(18)
C3 0.040(2) 0.048(3) 0.025(2) -0.0025(19) -0.0119(17) -0.007(2)
C4 0.0322(19) 0.047(2) 0.026(2) -0.0120(18) 0.0003(16) -0.0159(18)
C5 0.044(2) 0.036(2) 0.037(2) -0.0116(19) -0.0052(18) -0.0075(18)
C6 0.040(2) 0.031(2) 0.033(2) -0.0065(18) -0.0085(18) -0.0042(18)
C7 0.037(2) 0.044(2) 0.025(2) -0.0165(18) -0.0023(16) -0.0129(18)
C8 0.0302(19) 0.034(2) 0.033(2) -0.0104(18) -0.0004(16) -0.0079(17)
C9 0.0310(19) 0.035(2) 0.033(2) -0.0060(18) -0.0134(16) -0.0065(17)
C10 0.0270(18) 0.034(2) 0.0227(19) -0.0081(16) -0.0065(15) -0.0109(16)
C11 0.0203(17) 0.032(2) 0.0273(19) -0.0093(16) -0.0048(14) -0.0043(15)
C12 0.0303(19) 0.038(2) 0.0232(19) -0.0084(17) -0.0072(15) -0.0089(17)
N1 0.050(2) 0.068(3) 0.0265(19) -0.017(2) 0.0020(17) -0.026(2)
N2 0.053(2) 0.049(2) 0.049(2) -0.025(2) -0.0105(18) 0.0018(18)
N3 0.0284(15) 0.0372(18) 0.0283(17) -0.0125(14) -0.0087(13) -0.0069(14)
N4 0.056(2) 0.052(3) 0.042(2) -0.019(2) -0.001(2) -0.002(2)
O1 0.0468(17) 0.091(3) 0.0317(17) -0.0200(18) -0.0102(14) -0.0154(17)
O2 0.094(3) 0.069(2) 0.048(2) -0.030(2) -0.0128(19) -0.013(2)
O3 0.0597(19) 0.0438(18) 0.0321(16) -0.0073(14) -0.0169(14) -0.0003(15)
O4 0.0376(15) 0.0550(19) 0.0479(18) -0.0186(16) -0.0074(14) -0.0154(14)
O5 0.0299(14) 0.0535(18) 0.0349(15) -0.0227(14) -0.0004(11) -0.0087(12)
O6 0.106(3) 0.097(3) 0.048(2) -0.033(2) -0.042(2) 0.001(3)
O7 0.100(3) 0.080(3) 0.058(2) -0.046(2) -0.026(2) 0.009(2)
S1 0.0249(6) 0.0346(6) 0.0261(6) -0.0099(4) -0.0057(4) -0.0048(4)
CL1 0.0484(7) 0.0492(7) 0.0299(6) -0.0148(5) -0.0143(5) -0.0098(5)
loop_
_atom_type_symbol
_atom_type_description
_atom_type_scat_dispersion_real
_atom_type_scat_dispersion_imag
_atom_type_scat_source
C C 0.0033 0.0016 'International Tables Vol C Tables 4.2.6.8 and 6.1.1.4'
H H 0.0000 0.0000 'International Tables Vol C Tables 4.2.6.8 and 6.1.1.4'
N N 0.0061 0.0033 'International Tables Vol C Tables 4.2.6.8 and 6.1.1.4'
O O 0.0106 0.0060 'International Tables Vol C Tables 4.2.6.8 and 6.1.1.4'
S S 0.1246 0.1234 'International Tables Vol C Tables 4.2.6.8 and 6.1.1.4'
Cl Cl 0.1484 0.1585 'International Tables Vol C Tables 4.2.6.8 and 6.1.1.4'
loop_
_geom_angle_atom_site_label_1
_geom_angle_atom_site_label_2
_geom_angle_atom_site_label_3
_geom_angle
C2 C1 C6 121.0(3)
C2 C1 S1 118.2(3)
C6 C1 S1 120.8(3)
C3 C2 C1 118.9(4)
C2 C3 C4 119.2(4)
C5 C4 C3 122.4(4)
C5 C4 N1 119.1(4)
C3 C4 N1 118.5(4)
C4 C5 C6 117.8(4)
C5 C6 C1 120.6(4)
C12 C7 C8 121.0(3)
C12 C7 N4 116.7(3)
C8 C7 N4 122.2(3)
N2 C8 C9 117.7(4)
N2 C8 C7 125.7(4)
C9 C8 C7 116.6(3)
C10 C9 C8 121.4(3)
C9 C10 C11 121.1(3)
C9 C10 CL1 118.5(3)
C11 C10 CL1 120.3(3)
C12 C11 C10 119.3(3)
C12 C11 N3 119.1(3)
C10 C11 N3 121.5(3)
C11 C12 C7 120.6(3)
O2 N1 O1 123.0(4)
O2 N1 C4 118.8(4)
O1 N1 C4 118.2(4)
O6 N4 O7 124.9(4)
O6 N4 C7 117.5(4)
O7 N4 C7 117.6(4)
O3 S1 O4 112.13(18)
O3 S1 O5 113.43(18)
O4 S1 O5 112.25(17)
O3 S1 C1 106.85(17)
O4 S1 C1 106.50(18)
O5 S1 C1 105.02(15)
loop_
_geom_bond_atom_site_label_1
_geom_bond_atom_site_label_2
_geom_bond_distance
C1 C2 1.381(5)
C1 C6 1.392(5)
C1 S1 1.776(4)
C2 C3 1.389(6)
C3 C4 1.382(6)
C4 C5 1.388(6)
C4 N1 1.463(5)
C5 C6 1.373(6)
C7 C12 1.403(6)
C7 C8 1.415(5)
C7 N4 1.464(5)
C8 N2 1.351(5)
C8 C9 1.407(5)
C9 C10 1.373(5)
C10 C11 1.393(5)
C10 CL1 1.740(3)
C11 C12 1.360(5)
C11 N3 1.455(4)
N1 O2 1.220(5)
N1 O1 1.233(5)
N4 O6 1.199(5)
N4 O7 1.202(5)
O3 S1 1.441(3)
O4 S1 1.446(3)
O5 S1 1.461(3)
loop_
_geom_torsion_atom_site_label_1
_geom_torsion_atom_site_label_2
_geom_torsion_atom_site_label_3
_geom_torsion_atom_site_label_4
_geom_torsion
C6 C1 C2 C3 2.9(6)
S1 C1 C2 C3 -175.9(3)
C1 C2 C3 C4 -0.6(6)
C2 C3 C4 C5 -2.6(6)
C2 C3 C4 N1 176.2(3)
C3 C4 C5 C6 3.5(6)
N1 C4 C5 C6 -175.3(3)
C4 C5 C6 C1 -1.2(6)
C2 C1 C6 C5 -2.0(6)
S1 C1 C6 C5 176.7(3)
C12 C7 C8 N2 -177.4(4)
N4 C7 C8 N2 5.6(6)
C12 C7 C8 C9 0.2(6)
N4 C7 C8 C9 -176.8(4)
N2 C8 C9 C10 177.7(4)
C7 C8 C9 C10 -0.1(6)
C8 C9 C10 C11 -0.5(6)
C8 C9 C10 CL1 -178.8(3)
C9 C10 C11 C12 1.1(6)
CL1 C10 C11 C12 179.3(3)
C9 C10 C11 N3 177.8(3)
CL1 C10 C11 N3 -4.0(5)
C10 C11 C12 C7 -1.0(6)
N3 C11 C12 C7 -177.8(3)
C8 C7 C12 C11 0.4(6)
N4 C7 C12 C11 177.5(4)
C5 C4 N1 O2 -10.7(6)
C3 C4 N1 O2 170.5(4)
C5 C4 N1 O1 168.2(4)
C3 C4 N1 O1 -10.6(6)
C12 C7 N4 O6 -0.3(6)
C8 C7 N4 O6 176.7(4)
C12 C7 N4 O7 179.8(4)
C8 C7 N4 O7 -3.1(6)
C2 C1 S1 O3 169.9(3)
C6 C1 S1 O3 -8.8(4)
C2 C1 S1 O4 -70.1(3)
C6 C1 S1 O4 111.2(3)
C2 C1 S1 O5 49.2(4)
C6 C1 S1 O5 -129.6(3)
