#------------------------------------------------------------------------------
#$Date: 2019-11-25 21:54:29 +0200 (Mon, 25 Nov 2019) $
#$Revision: 241911 $
#$URL: file:///home/coder/svn-repositories/cod/cif/4/13/17/4131742.cif $
#------------------------------------------------------------------------------
#
# This file is available in the Crystallography Open Database (COD),
# http://www.crystallography.net/
#
# All data on this site have been placed in the public domain by the
# contributors.
#
data_4131742
loop_
_publ_author_name
'Zeng, Mingshuo'
'Murphy, Stephen K.'
'Herzon, Seth B.'
_publ_section_title
;
 Development of a Modular Synthetic Route to (+)-Pleuromutilin,
 (+)-12-epi-Mutilins, and Related Structures.
;
_journal_issue                   45
_journal_name_full               'Journal of the American Chemical Society'
_journal_page_first              16377
_journal_page_last               16388
_journal_paper_doi               10.1021/jacs.7b09869
_journal_volume                  139
_journal_year                    2017
_chemical_absolute_configuration ad
_chemical_formula_moiety         'C14 H19 N O3'
_chemical_formula_sum            'C14 H19 N O3'
_chemical_formula_weight         249.30
_space_group_crystal_system      monoclinic
_space_group_IT_number           4
_space_group_name_Hall           'P 2yb'
_space_group_name_H-M_alt        'P 1 21 1'
_atom_sites_solution_hydrogens   geom
_atom_sites_solution_primary     SHELXT
_atom_sites_solution_secondary   difmap
_audit_creation_method           SHELXL-2014/7
_cell_angle_alpha                90
_cell_angle_beta                 90.770(4)
_cell_angle_gamma                90
_cell_formula_units_Z            2
_cell_length_a                   8.7851(6)
_cell_length_b                   7.3139(5)
_cell_length_c                   10.2839(7)
_cell_measurement_reflns_used    119
_cell_measurement_temperature    93(2)
_cell_measurement_theta_max      68.3
_cell_measurement_theta_min      4.3
_cell_volume                     660.72(8)
_computing_cell_refinement
'CrystalClear-SM Expert 2.0 r15 (Rigaku, 2011)'
_computing_data_collection
'CrystalClear-SM Expert 2.0 r15 (Rigaku, 2011)'
_computing_data_reduction
'CrystalClear-SM Expert 2.0 r15 (Rigaku, 2011)'
_computing_molecular_graphics
; 
Dolomanov, O.V.; Bourhis, L.J.; Gildea, R.J.; Howard, J.A.K.; Puschmann, H., 
OLEX2: A complete structure solution, refinement and analysis program 
(2009). J. Appl. Cryst., 42, 339-341. 
;
_computing_publication_material  'CIFTAB-2014/2 (Sheldrick, 2014)'
_computing_structure_refinement  'SHELXL-2014/7 (Sheldrick, 2014)'
_computing_structure_solution    'SHELXT-2014/5 (Sheldrick, 2014)'
_diffrn_ambient_temperature      93(2)
_diffrn_detector_area_resol_mean 22.2
_diffrn_measured_fraction_theta_full 0.995
_diffrn_measured_fraction_theta_max 0.992
_diffrn_measurement_device_type  'Rigaku Saturn 944+ CCD'
_diffrn_measurement_method       \w
_diffrn_radiation_type           CuK\a
_diffrn_radiation_wavelength     1.54178
_diffrn_reflns_av_R_equivalents  0.0431
_diffrn_reflns_av_unetI/netI     0.0235
_diffrn_reflns_Laue_measured_fraction_full 0.995
_diffrn_reflns_Laue_measured_fraction_max 0.992
_diffrn_reflns_limit_h_max       10
_diffrn_reflns_limit_h_min       -10
_diffrn_reflns_limit_k_max       8
_diffrn_reflns_limit_k_min       -8
_diffrn_reflns_limit_l_max       12
_diffrn_reflns_limit_l_min       -12
_diffrn_reflns_number            18086
_diffrn_reflns_point_group_measured_fraction_full 0.987
_diffrn_reflns_point_group_measured_fraction_max 0.983
_diffrn_reflns_theta_full        67.679
_diffrn_reflns_theta_max         67.971
_diffrn_reflns_theta_min         4.299
_diffrn_source                   'Sealed Tube'
_exptl_absorpt_coefficient_mu    0.713
_exptl_absorpt_correction_T_max  1.000
_exptl_absorpt_correction_T_min  0.871
_exptl_absorpt_correction_type   multi-scan
_exptl_absorpt_process_details   'Jacobson, R. (1998) Private Communication'
_exptl_crystal_colour            Colorless
_exptl_crystal_density_diffrn    1.253
_exptl_crystal_density_method    'not measured'
_exptl_crystal_description       Prism
_exptl_crystal_F_000             268
_exptl_crystal_size_max          0.200
_exptl_crystal_size_mid          0.020
_exptl_crystal_size_min          0.020
_refine_diff_density_max         0.144
_refine_diff_density_min         -0.145
_refine_diff_density_rms         0.029
_refine_ls_abs_structure_details
; 
 Flack x determined using 980 quotients [(I+)-(I-)]/[(I+)+(I-)] 
 (Parsons, Flack and Wagner, Acta Cryst. B69 (2013) 249-259). 
;
_refine_ls_abs_structure_Flack   -0.14(7)
_refine_ls_extinction_method     none
_refine_ls_goodness_of_fit_ref   1.081
_refine_ls_hydrogen_treatment    constr
_refine_ls_matrix_type           full
_refine_ls_number_parameters     166
_refine_ls_number_reflns         2366
_refine_ls_number_restraints     1
_refine_ls_restrained_S_all      1.081
_refine_ls_R_factor_all          0.0283
_refine_ls_R_factor_gt           0.0268
_refine_ls_shift/su_max          0.000
_refine_ls_shift/su_mean         0.000
_refine_ls_structure_factor_coef Fsqd
_refine_ls_weighting_details
'w=1/[\s^2^(Fo^2^)+(0.0411P)^2^+0.0367P] where P=(Fo^2^+2Fc^2^)/3'
_refine_ls_weighting_scheme      calc
_refine_ls_wR_factor_gt          0.0686
_refine_ls_wR_factor_ref         0.0694
_reflns_Friedel_coverage         0.824
_reflns_Friedel_fraction_full    0.978
_reflns_Friedel_fraction_max     0.971
_reflns_number_gt                2250
_reflns_number_total             2366
_reflns_threshold_expression     'I > 2\s(I)'
_cod_data_source_file            ja7b09869_si_005.cif
_cod_data_source_block           007-16113
_cod_original_sg_symbol_H-M      'P 21'
_cod_database_code               4131742
_shelx_shelxl_version_number     2014/7
_shelx_space_group_comment
; 
The symmetry employed for this shelxl refinement is uniquely defined 
by the following loop, which should always be used as a source of 
symmetry information in preference to the above space-group names. 
They are only intended as comments. 
;
_shelx_estimated_absorpt_t_min   0.871
_shelx_estimated_absorpt_t_max   0.986
_shelx_res_file
; 
  
    007-16113.res created by SHELXL-2014/7 
  
TITL 007-16113 
CELL 1.54178 8.7851 7.3139 10.2839 90 90.77 90 
ZERR 2 0.0006 0.0005 0.0007 0 0.004 0 
LATT -1 
SYMM -X,0.5+Y,-Z 
SFAC C H N O 
UNIT 28 38 2 6 
  
L.S. 10 
SIZE 0.2 0.02 0.02 
TEMP -180 
BOND $H 
ACTA 
MORE -1 
CONF 
  
WGHT    0.041100    0.036700 
FVAR       1.42608 
O1    4    0.034559    0.431175    0.300085    11.00000    0.02160    0.03440 = 
         0.03731   -0.00116    0.00036   -0.00601 
O2    4    0.167235    0.588630    0.450093    11.00000    0.02863    0.03168 = 
         0.02718   -0.00358    0.00727   -0.00526 
O3    4    0.552073    0.824352    0.184207    11.00000    0.02885    0.02507 = 
         0.04100    0.00477    0.00535   -0.00170 
N1    3    0.335460    0.175463    0.459313    11.00000    0.03615    0.02983 = 
         0.03254    0.00565   -0.00070   -0.00144 
C1    1    0.393082    0.257931    0.378968    11.00000    0.02508    0.02199 = 
         0.02814   -0.00059   -0.00504    0.00363 
C2    1    0.467230    0.366326    0.277704    11.00000    0.02209    0.02164 = 
         0.02302    0.00212    0.00022    0.00166 
C3    1    0.641847    0.372754    0.301881    11.00000    0.02233    0.02718 = 
         0.03120    0.00128   -0.00171    0.00469 
AFIX  23 
H3A   2    0.666280    0.378913    0.396037    11.00000   -1.20000 
H3B   2    0.692182    0.264159    0.264329    11.00000   -1.20000 
AFIX   0 
C4    1    0.690886    0.547472    0.232641    11.00000    0.02057    0.03165 = 
         0.03473    0.00287    0.00246    0.00190 
AFIX  23 
H4A   2    0.774640    0.607903    0.281583    11.00000   -1.20000 
H4B   2    0.726568    0.519122    0.143990    11.00000   -1.20000 
AFIX   0 
C5    1    0.552170    0.670456    0.226253    11.00000    0.02169    0.02464 = 
         0.02194   -0.00329    0.00032   -0.00036 
C6    1    0.417660    0.570236    0.285983    11.00000    0.01963    0.02054 = 
         0.02044   -0.00145   -0.00023    0.00074 
AFIX  13 
H6    2    0.418271    0.602699    0.380448    11.00000   -1.20000 
AFIX   0 
C7    1    0.254493    0.611992    0.233603    11.00000    0.01848    0.01975 = 
         0.02591   -0.00131   -0.00050    0.00069 
C8    1    0.237269    0.529667    0.095536    11.00000    0.02182    0.02509 = 
         0.02431    0.00092   -0.00138   -0.00097 
AFIX  13 
H8    2    0.319476    0.586411    0.042666    11.00000   -1.20000 
AFIX   0 
C9    1    0.269233    0.324014    0.095757    11.00000    0.02679    0.02499 = 
         0.02344   -0.00505   -0.00033   -0.00123 
AFIX  23 
H9A   2    0.196492    0.261708    0.153601    11.00000   -1.20000 
H9B   2    0.254355    0.274888    0.006788    11.00000   -1.20000 
AFIX   0 
C10   1    0.431109    0.285051    0.142195    11.00000    0.02661    0.02052 = 
         0.02650   -0.00333    0.00137    0.00410 
AFIX  23 
H10A  2    0.503174    0.336260    0.078589    11.00000   -1.20000 
H10B  2    0.446860    0.151083    0.145278    11.00000   -1.20000 
AFIX   0 
C11   1    0.139922    0.529656    0.328000    11.00000    0.01973    0.01944 = 
         0.03013   -0.00149   -0.00022    0.00551 
C12   1    0.066254    0.517526    0.548371    11.00000    0.03553    0.03876 = 
         0.03155   -0.00094    0.01272   -0.00449 
AFIX 137 
H12A  2   -0.039596    0.530782    0.518567    11.00000   -1.50000 
H12B  2    0.081405    0.585802    0.629512    11.00000   -1.50000 
H12C  2    0.088712    0.387942    0.563447    11.00000   -1.50000 
AFIX   0 
C13   1    0.222937    0.819546    0.233197    11.00000    0.02407    0.02111 = 
         0.03614    0.00027    0.00074    0.00266 
AFIX 137 
H13A  2    0.113174    0.840873    0.224151    11.00000   -1.50000 
H13B  2    0.275559    0.876459    0.160165    11.00000   -1.50000 
H13C  2    0.260037    0.873119    0.315018    11.00000   -1.50000 
AFIX   0 
C14   1    0.087331    0.574689    0.024725    11.00000    0.03072    0.03272 = 
         0.03451   -0.00085   -0.00972    0.00132 
AFIX 137 
H14A  2    0.002356    0.520257    0.071854    11.00000   -1.50000 
H14B  2    0.089590    0.524970   -0.063719    11.00000   -1.50000 
H14C  2    0.074153    0.707634    0.020754    11.00000   -1.50000 
AFIX   0 
HKLF 4 
  
REM  007-16113 
REM R1 =  0.0268 for    2250 Fo > 4sig(Fo)  and  0.0283 for all    2366 data 
REM    166 parameters refined using      1 restraints 
  
END 
  
WGHT      0.0411      0.0367 
  
REM Highest difference peak  0.144,  deepest hole -0.145,  1-sigma level  0.029 
Q1    1   0.3321  0.5942  0.2599  11.00000  0.05    0.14 
Q2    1   0.2471  0.5660  0.1679  11.00000  0.05    0.13 
Q3    1   0.4481  0.3324  0.2158  11.00000  0.05    0.12 
Q4    1   0.2604  0.4354  0.0925  11.00000  0.05    0.10 
Q5    1   0.4372  0.4642  0.2820  11.00000  0.05    0.10 
Q6    1   0.1656  0.5606  0.0626  11.00000  0.05    0.09 
Q7    1   0.2458  0.7110  0.2405  11.00000  0.05    0.09 
Q8    1   0.2057  0.5727  0.2770  11.00000  0.05    0.08 
Q9    1   0.6565  0.2277  0.2872  11.00000  0.05    0.08 
Q10   1   0.0796  0.7039 -0.0332  11.00000  0.05    0.08 
Q11   1   0.2003  0.2213  0.1223  11.00000  0.05    0.08 
Q12   1   0.2947  0.1936  0.3920  11.00000  0.05    0.08 
Q13   1   0.0796  0.8695 -0.0204  11.00000  0.05    0.08 
Q14   1   0.4549  0.8767  0.2426  11.00000  0.05    0.08 
Q15   1   0.1595  0.0518  0.0735  11.00000  0.05    0.08 
Q16   1   0.2312  0.1620  0.5037  11.00000  0.05    0.08 
Q17   1   0.6364  0.5103  0.0431  11.00000  0.05    0.08 
Q18   1   0.2941  0.8363  0.3981  11.00000  0.05    0.08 
Q19   1   0.8058  0.6346  0.2150  11.00000  0.05    0.07 
Q20   1   0.5410  0.4082  0.4751  11.00000  0.05    0.07 
;
_shelx_res_checksum              40556
_shelx_hkl_file
; 
   0   0   1  207.10    5.17 
   0   0  -1  197.68    4.93 
   0   0  -1  186.33    5.25 
   0   0   1  193.21    5.45 
   0   0   1  207.48    5.19 
   0   0   1  201.24    5.05 
   0   0   1  205.48    5.37 
   0   0  -1  199.25    5.57 
   0   0  -1  207.38    6.13 
   0   0  -1  199.97    5.68 
   0   0   2 3608.72   82.68 
   0   0  -2 3565.31   80.63 
   0   0  -2 3532.31   80.26 
   0   0   2 3696.53   83.80 
   0   0   2 3481.79   79.84 
   0   0   2 3525.37   82.74 
   0   0   2 3478.30   80.83 
   0   0   2 3570.85   81.01 
   0   0   2 3541.53   80.54 
   0   0  -2 3603.78   81.86 
   0   0   3   56.05    2.06 
   0   0  -3   60.08    2.07 
   0   0  -3   62.33    3.35 
   0   0   3   61.32    2.62 
   0   0   3   61.59    2.33 
   0   0   3   48.74    2.49 
   0   0   3   50.43    1.97 
   0   0   3   58.65    2.23 
   0   0   3   62.31    3.31 
   0   0  -3   58.87    4.02 
   0   0  -3   55.75    3.71 
   0   0  -3   59.97    2.95 
   0   0   4 1544.09   37.80 
   0   0  -4 1582.55   37.02 
   0   0  -4 1469.18   34.31 
   0   0   4 1451.49   33.66 
   0   0   4 1351.75   38.88 
   0   0   4 1504.22   34.66 
   0   0  -4 1433.40   33.12 
   0   0  -4 1478.12   34.30 
   0   0  -4 1443.59   33.38 
   0   0  -4 1360.52   31.39 
   0   0   5  375.08   14.54 
   0   0  -5  363.45   13.91 
   0   0  -5  375.82   14.83 
   0   0   5  377.72   14.81 
   0   0   5  348.30   14.32 
   0   0   5  351.51   13.48 
   0   0  -5  373.01   14.57 
   0   0  -5  365.73   14.56 
   0   0  -5  355.43   13.78 
   0   0  -5  360.94   13.93 
   0   0   5  359.93   15.68 
   0   0   5  347.21   13.43 
   0   0   5  355.04   13.37 
   0   0   6  231.02   10.31 
   0   0  -6  212.49    9.40 
   0   0  -6  225.03   10.27 
   0   0   6  214.26    9.92 
   0   0   6  208.71    9.25 
   0   0  -6  226.56   10.42 
   0   0  -6  219.96   10.02 
   0   0  -6  213.42    9.62 
   0   0  -6  200.53    8.98 
   0   0   6  213.71    9.25 
   0   0  -6  209.59    9.05 
   0   0   6  207.67   10.11 
   0   0   6  245.68   15.61 
   0   0   6  224.76    9.73 
   0   0   6  230.15    9.88 
   0   0   7  129.98    6.78 
   0   0  -7  123.89    6.43 
   0   0  -7  137.57    8.29 
   0   0   7  110.15    8.86 
   0   0   7  114.78    6.59 
   0   0   7  131.32    7.09 
   0   0  -7  136.22    7.79 
   0   0  -7  122.31    6.77 
   0   0  -7  121.30    6.66 
   0   0   7  136.74    6.84 
   0   0  -7  121.86    6.08 
   0   0  -7  149.03    7.69 
   0   0   7  128.97    7.63 
   0   0   7  125.18   10.32 
   0   0   7  124.65    7.85 
   0   0   7  141.01    7.13 
   0   0  -8   74.59    5.40 
   0   0  -8   71.95    5.95 
   0   0   8   62.23    5.52 
   0   0   8   60.37    4.50 
   0   0   8   63.02    5.01 
   0   0  -8   69.37    6.34 
   0   0  -8   54.49    5.54 
   0   0   8   74.40    5.06 
   0   0  -8   67.87    4.65 
   0   0   8   60.93    4.86 
   0   0  -8   47.32    5.35 
   0   0   8   52.11    7.56 
   0   0   8   59.17   10.50 
   0   0   8   60.93    4.28 
   0   0   8   67.82    4.89 
   0   0   9  215.01   20.06 
   0   0  -9  183.45   17.33 
   0   0  -9  192.01   18.17 
   0   0   9  174.48   16.40 
   0   0  -9  172.62   16.39 
   0   0   9  210.24   19.20 
   0   0  -9  216.86   19.80 
   0   0   9  178.61   16.42 
   0   0  -9  186.99   17.60 
   0   0   9  193.18   19.30 
   0   0  -9  190.67   19.01 
   0   0   9  197.43   18.06 
   0   0   9  195.61   17.96 
   0   0  10   -0.45    1.92 
   0   0 -10   -0.29    1.83 
   0   0  10    0.51    2.14 
   0   0 -10    2.04    3.80 
   0   0 -10   -1.13    7.71 
   0   0  10   -0.21    2.19 
   0   0  10    0.66    2.62 
   0   0  11   31.75    5.76 
   0   0 -11   28.08    5.47 
   0   0 -11   36.30    8.92 
   0   0 -11   30.40    6.84 
   0   0  11   30.35    5.71 
   0   0  11   31.08    6.09 
   0   0 -12  104.13   11.45 
   0   0  12   77.21    8.55 
   0   0  12   92.32   10.13 
   0   1   0    0.01    1.16 
   0  -1   0    0.76    1.44 
   0   1   0   -0.78    1.86 
   0  -1   0   -0.45    1.59 
   0   1   0   -0.88    2.30 
   0  -1   0   -0.07    1.50 
   0  -1   0    0.36    1.78 
   0   1   0    0.02    1.44 
   0   1   0    0.71    1.68 
   0   1   0   -3.86    3.32 
   0   1   0    0.27    1.42 
   0  -1   1 8757.91  197.71 
   0   1   1 9584.65  353.99 
   0   1  -1 8732.55  196.82 
   0  -1  -1 9999.00  369.26 
   0   1  -1 8462.47  191.07 
   0  -1  -1 8848.88  199.42 
   0   1   1 8694.89  196.19 
   0   1  -1 9057.80  334.66 
   0  -1   1 8929.93  201.30 
   0   1   1 8649.23  195.70 
   0   1  -1 9759.24  360.80 
   0  -1   1 9135.73  337.42 
   0   1   1 9047.09  334.38 
   0  -1  -1 8872.00  200.27 
   0  -1   1 8969.10  202.23 
   0   1  -1 8767.34  198.13 
   0   1   1 8563.17  194.31 
   0   1  -1 8967.71  202.38 
   0   1  -1 8896.37  200.76 
   0   1   1 9215.99  340.62 
   0  -1   2  600.69   14.11 
   0   1   2  600.44   14.39 
   0   1  -2  572.95   13.51 
   0  -1  -2  600.54   14.38 
   0   1  -2  563.70   14.07 
   0  -1  -2  586.32   14.47 
   0  -1   2  589.94   13.88 
   0   1   2  579.10   14.11 
   0  -1   2  611.14   14.32 
   0   1   2  592.40   14.27 
   0   1   2  585.24   14.25 
   0   1  -2  595.45   14.17 
   0  -1   2  597.24   14.07 
   0   1   2  588.54   14.17 
   0  -1  -2  598.00   14.62 
   0  -1   2  590.19   13.93 
   0   1  -2  600.25   14.74 
   0  -1  -2  600.30   14.59 
   0   1  -2  585.70   14.41 
   0  -1  -2  590.87   14.35 
   0   1  -2  618.10   15.16 
   0  -1   3 2599.60   61.79 
   0   1  -3 2719.46   61.80 
   0  -1  -3 2342.98   53.39 
   0   1  -3 2443.05   55.88 
   0  -1  -3 2449.66   56.07 
   0  -1   3 2507.62   56.95 
   0   1   3 2620.37   59.92 
   0  -1   3 2557.83   58.48 
   0   1   3 2417.42   55.06 
   0   1   3 2332.00  127.10 
   0   1  -3 2585.76   58.84 
   0  -1   3 2668.71   60.78 
   0   1   3 2587.80   58.89 
   0  -1  -3 2685.11   61.41 
   0  -1   3 2597.62   60.64 
   0   1  -3 2620.57   59.99 
   0  -1  -3 2773.60   63.30 
   0   1  -3 2566.76   58.82 
   0  -1  -3 2445.50   55.78 
   0   1  -3 2660.89   60.84 
   0  -1  -3 2377.61   54.07 
   0  -1   4 3685.18   95.24 
   0   1  -4 3758.32   86.13 
   0  -1  -4 3518.92   79.95 
   0   1  -4 3769.38   86.01 
   0  -1  -4 3695.23   84.23 
   0  -1   4 3791.86   86.49 
   0   1   4 3920.65   89.39 
   0  -1   4 3561.63   96.04 
   0   1   4 3866.97   88.16 
   0   1   4 3796.68   86.19 
   0   1  -4 3827.23   88.17 
   0  -1   4 3906.64   89.29 
   0   1   4 4080.94   92.81 
   0  -1  -4 3749.82   85.39 
   0  -1   4 3831.55   88.93 
   0   1  -4 3852.46   88.14 
   0  -1  -4 3723.77   84.64 
   0   1  -4 3671.09   83.95 
   0  -1  -4 3581.38   81.55 
   0   1  -4 3747.57   85.40 
   0  -1  -4 3580.03   81.11 
   0  -1   5  814.72   32.98 
   0   1  -5  838.40   31.65 
   0  -1  -5  802.56   30.07 
   0   1  -5  804.12   30.34 
   0  -1  -5  809.76   30.59 
   0  -1   5  811.17   30.59 
   0   1   5  841.87   31.72 
   0  -1   5  791.84   34.76 
   0   1   5  743.24   27.96 
   0  -1   5  815.26   30.71 
   0   1   5  840.90   31.55 
   0  -1  -5  799.03   30.18 
   0  -1   5  747.56   43.28 
   0   1  -5  836.78   31.67 
   0  -1  -5  835.43   31.43 
   0   1  -5  798.05   30.11 
   0  -1  -5  768.89   28.88 
   0   1  -5  814.24   30.69 
   0  -1   5  799.50   30.59 
   0   1   5  816.68   30.34 
   0   1  -5  801.69   30.14 
   0  -1  -5  756.14   28.13 
   0   1   5  767.99   28.60 
   0  -1  -5  783.58   29.56 
   0  -1   5  820.14   30.68 
   0   1   5  774.40   29.47 
   0  -1   5  803.06   30.42 
   0   1   5  780.47   29.02 
   0  -1   5  815.78   30.34 
   0  -1   6 1136.33   50.43 
   0   1   6 1311.46   55.55 
   0   1  -6 1100.15   47.72 
   0  -1  -6 1278.50   54.14 
   0   1  -6 1249.15   53.01 
   0  -1  -6 1164.34   49.43 
   0  -1   6 1211.09   51.25 
   0   1   6 1209.44   51.33 
   0  -1   6  965.13   67.86 
   0  -1   6 1243.85   53.39 
   0   1   6 1226.07   51.88 
   0   1  -6 1235.64   52.36 
   0  -1  -6 1174.44   49.82 
   0   1  -6 1190.35   50.71 
   0  -1  -6 1148.22   48.68 
   0   1  -6 1105.18   46.93 
   0  -1  -6 1086.80   46.04 
   0   1  -6 1185.12   50.25 
   0  -1   6 1234.53   53.93 
   0   1   6 1255.05   52.77 
   0   1  -6 1144.06   49.04 
   0  -1  -6 1144.91   48.16 
   0   1   6 1111.08   46.84 
   0  -1  -6 1234.84   52.06 
   0  -1   6 1216.55   51.42 
   0  -1   6 1133.23   49.35 
   0   1   6 1131.95   48.64 
   0  -1   6 1196.09   51.40 
   0   1   6 1206.12   51.98 
   0   1   6 1041.29   44.94 
   0  -1   6 1123.38   48.42 
   0   1   6 1135.44   47.80 
   0  -1   6 1271.13   53.49 
   0   1   6 1151.09   48.49 
   0  -1   7   38.11    3.44 
   0   1   7   36.97    3.22 
   0   1  -7   37.97    2.94 
   0  -1  -7   43.48    3.51 
   0   1  -7   42.94    4.04 
   0  -1  -7   41.12    4.00 
   0  -1   7   43.91    4.16 
   0   1   7   42.88    4.07 
   0  -1   7   28.73    3.23 
   0   1   7   35.34    3.54 
   0  -1   7   37.67    3.07 
   0   1   7   37.85    3.83 
   0   1  -7   44.50    4.37 
   0  -1  -7   35.98    3.68 
   0   1  -7   39.78    4.26 
   0  -1  -7   38.60    4.09 
   0   1  -7   37.67    3.63 
   0   1  -7   36.48    3.90 
   0  -1   7   41.95    2.94 
   0   1   7   42.41    2.79 
   0   1  -7   39.45    2.76 
   0  -1  -7   36.28    2.43 
   0  -1   7   28.88    3.00 
   0   1   7   43.13    3.45 
   0   1  -7   40.91    3.51 
   0  -1  -7   38.04    4.08 
   0  -1   7   29.83    3.89 
   0   1   7   52.16    7.18 
   0  -1   7   37.63    6.84 
   0   1   7   48.92    8.61 
   0  -1   7   35.36    2.47 
   0   1   7   37.77    2.60 
   0  -1   7   41.39    2.83 
   0   1   7   38.96    3.07 
   0  -1   8  112.08    6.62 
   0   1   8  110.08    6.93 
   0  -1  -8  109.66    6.53 
   0   1  -8  101.34    7.00 
   0  -1  -8  119.37    8.22 
   0   1   8  116.40    7.73 
   0  -1   8   83.59    5.21 
   0   1   8   95.98    5.94 
   0  -1   8   98.70    5.91 
   0   1   8   98.55    6.96 
   0   1  -8  100.14    6.88 
   0  -1  -8  110.91    7.83 
   0   1  -8  103.33    6.86 
   0  -1  -8  105.21    6.74 
   0   1  -8  100.71    6.65 
   0  -1   8  109.01    6.11 
   0   1   8  113.60    6.37 
   0   1  -8  103.35    5.80 
   0  -1  -8  105.65    5.92 
   0  -1   8  104.78    6.11 
   0   1   8  108.32    6.94 
   0   1  -8   96.12    6.15 
   0  -1  -8  100.79    6.16 
   0   1   8  110.71    8.38 
   0  -1   8  111.86   10.72 
   0   1   8  112.24   11.21 
   0  -1   8  104.38    6.28 
   0   1   8  105.22    5.93 
   0  -1   8  118.11    7.11 
   0   1   8  111.19    6.44 
   0  -1   9   36.77    5.18 
   0   1  -9   29.79    3.89 
   0  -1  -9   32.06    4.56 
   0   1  -9   30.73    5.01 
   0  -1  -9   35.28    5.74 
   0  -1   9   27.58    4.13 
   0   1   9   30.19    4.50 
   0  -1  -9   35.72    6.02 
   0   1  -9   29.48    5.19 
   0  -1   9   36.22    4.01 
   0   1   9   33.55    3.56 
   0   1  -9   30.93    3.59 
   0  -1  -9   32.59    3.48 
   0   1   9   31.71    4.13 
   0   1  -9   25.64    4.71 
   0  -1  -9   28.40    4.63 
   0   1   9   35.01    7.45 
   0  -1  -9   34.50    9.35 
   0  -1   9   33.18    3.53 
   0   1   9   29.24    3.70 
   0  -1   9   33.39    3.83 
   0   1   9   24.50    3.86 
   0  -1  10  173.29   11.85 
   0   1  10  172.06   11.56 
   0   1 -10  190.63   12.84 
   0  -1 -10  164.45   11.11 
   0   1  10  166.44   11.25 
   0   1 -10  144.80   11.41 
   0  -1 -10  173.80   12.04 
   0   1 -10  168.73   13.13 
   0  -1 -10  163.50   13.40 
   0  -1  10  134.81    9.77 
   0   1  10  166.43   11.34 
   0  -1  10  177.10   12.16 
   0   1  10  167.40   11.53 
   0  -1  11   75.15    4.41 
   0   1 -11   75.22    4.40 
   0   1 -11   85.39    6.12 
   0  -1 -11   55.04    7.00 
   0   1 -11   73.30    5.61 
   0  -1 -11   77.79    6.88 
   0  -1  11   73.31    4.43 
   0   1  11   70.03    4.20 
   0  -1  11   68.39    4.67 
   0   1  11   76.53    5.25 
   0   1 -12    1.67    2.40 
   0  -1 -12    1.29    1.99 
   0  -1 -12   -2.04    3.55 
   0  -1  12    2.12    1.56 
   0  -1  12    0.68    2.06 
   0   1  12    1.20    2.10 
   0  -2   0  305.67    8.11 
   0   2   0  320.96    8.55 
   0  -2   0  321.03    8.42 
   0   2   0  324.09    8.49 
   0  -2   0  323.22    8.69 
   0   2   0  327.88    9.57 
   0  -2   0  328.20    9.00 
   0  -2   0  314.72    8.47 
   0   2   0  339.03    8.76 
   0   2   0  335.94    9.26 
   0   2   0  311.84    9.00 
   0  -2   1  767.84   18.21 
   0   2   1  698.00   16.86 
   0   2  -1  750.82   17.81 
   0  -2  -1  717.27   17.21 
   0   2  -1  734.46   17.40 
   0  -2  -1  722.24   17.15 
   0   2   1  701.24   17.06 
   0   2  -1  789.40   18.61 
   0  -2  -1  725.92   17.40 
   0  -2   1  731.19   17.28 
   0   2   1  696.95   16.69 
   0   2  -1  698.89   16.60 
   0  -2   1  710.93   16.85 
   0   2   1  723.09   17.23 
   0  -2  -1  721.27   17.36 
   0  -2   1  731.92   17.34 
   0   2  -1  705.70   16.93 
   0   2  -1  741.49   17.71 
   0   2   1  717.57   17.23 
   0   2  -1  690.37   16.59 
   0   2   1  688.22   16.46 
   0  -2   2 1993.49   45.76 
   0   2   2 1989.53   45.78 
   0   2  -2 2047.09   46.87 
   0  -2  -2 2036.05   46.75 
   0   2  -2 2077.08   47.56 
   0  -2  -2 2000.64   45.88 
   0  -2   2 2042.00   46.65 
   0   2   2 2148.38   50.46 
   0  -2  -2 2015.96   46.27 
   0  -2   2 2107.81   48.30 
   0   2   2 2084.80   48.01 
   0   2  -2 2043.77   46.99 
   0  -2   2 2070.92   47.43 
   0   2   2 2036.91   46.81 
   0  -2  -2 2109.57   48.63 
   0  -2   2 2003.26   45.71 
   0   2  -2 2227.72   51.31 
   0  -2  -2 1973.48   45.16 
   0   2  -2 2032.64   46.85 
   0   2  -2 2097.08   48.18 
   0  -2   3 1049.62   24.80 
   0   2   3  992.31   23.25 
   0   2  -3  976.89   22.65 
   0  -2  -3  990.81   23.20 
   0   2  -3  981.71   23.04 
   0  -2  -3  995.35   23.41 
   0  -2   3  934.57   21.55 
   0   2   3 1004.25   23.88 
   0  -2  -3  988.75   23.23 
   0  -2   3  996.86   23.04 
   0   2   3  974.41   22.98 
   0   2  -3 1067.41   24.72 
   0  -2   3  965.98   22.40 
   0   2   3  917.04   21.59 
   0  -2  -3  984.15   23.26 
   0  -2   3  944.99   22.53 
   0   2  -3 1097.52   25.87 
   0  -2  -3  944.62   22.14 
   0   2  -3  993.67   23.69 
   0   2  -3  982.59   23.22 
   0  -2   4  880.90   34.63 
   0   2   4  872.03   32.87 
   0   2  -4  863.07   32.54 
   0  -2  -4  800.10   30.18 
   0   2  -4  813.48   30.74 
   0  -2  -4  795.94   30.05 
   0  -2   4  832.39   31.14 
   0   2   4  867.09   33.66 
   0  -2   4  843.19   32.43 
   0   2   4  740.94   27.99 
   0   2   4  804.31   30.26 
   0   2  -4  827.12   30.97 
   0  -2   4  824.89   35.58 
   0   2   4  840.66   31.58 
   0  -2  -4  853.81   32.21 
   0  -2   4  820.87   31.86 
   0   2  -4  838.61   31.76 
   0  -2  -4  822.01   30.95 
   0   2  -4  880.35   33.45 
   0   2  -4  808.57   30.54 
   0  -2   4  800.98   30.92 
   0   2  -4  834.74   31.09 
   0   2   4  747.01   27.85 
   0   2   4  864.20   33.09 
   0   2   4  863.06   34.23 
   0  -2   4  843.23   31.66 
   0   2   4  819.03   30.50 
   0  -2   5  854.29   35.49 
   0   2   5  929.59   35.70 
   0   2  -5  893.63   34.44 
   0  -2  -5  981.64   37.66 
   0   2  -5  900.35   34.77 
   0  -2  -5  886.80   34.17 
   0  -2   5  915.45   35.11 
   0   2   5  883.69   34.05 
   0  -2   5  890.31   35.95 
   0   2   5  887.34   34.09 
   0   2   5  860.89   33.00 
   0  -2   5  887.93   34.69 
   0   2   5  904.85   34.69 
   0  -2  -5 1013.03   39.03 
   0  -2   5  911.82   36.49 
   0   2  -5  959.53   36.92 
   0  -2  -5  888.05   34.09 
   0   2  -5  910.11   35.04 
   0   2  -5  913.45   35.14 
   0  -2   5  927.95   37.68 
   0   2  -5  907.74   34.80 
   0  -2  -5  881.14   33.50 
   0   2   5  933.24   35.47 
   0  -2  -5  893.76   33.98 
   0  -2   5  960.37   36.72 
   0  -2   5  859.74   34.19 
   0   2   5  945.78   36.84 
   0   2   5  954.66   37.54 
   0   2  -5  928.92   36.33 
   0   2   5  850.88   32.31 
   0   2   5  885.93   33.65 
   0  -2   6  128.02    9.52 
   0   2   6  127.13    9.32 
   0   2  -6  134.44    9.75 
   0  -2  -6  133.22    9.78 
   0   2  -6  121.96    9.14 
   0  -2  -6  132.48    9.81 
   0  -2   6  117.34    8.90 
   0   2   6  110.62    8.55 
   0  -2   6  120.22    8.75 
   0  -2   6  124.25    8.90 
   0   2   6  125.88    9.47 
   0   2  -6  139.57   10.06 
   0  -2  -6  139.47   10.96 
   0   2  -6  147.71   11.27 
   0  -2  -6  129.31    9.38 
   0   2  -6  154.09   11.49 
   0   2  -6  133.46    9.71 
   0  -2   6  131.37    9.36 
   0   2   6  140.23    9.89 
   0   2  -6  131.37    9.22 
   0  -2  -6  127.12    9.00 
   0   2   6  144.21   10.17 
   0  -2  -6  143.36   10.10 
   0  -2   6  145.96   10.59 
   0  -2   6  135.75    9.97 
   0   2   6  126.76   12.39 
   0  -2   6  129.45   11.38 
   0   2   6  144.42   14.41 
   0   2  -6  128.91    9.91 
   0   2   6  142.23   10.44 
   0  -2   6  142.27    9.99 
   0   2   6  124.69    8.76 
   0  -2   6  141.42    9.86 
   0   2   6  132.36    9.94 
   0  -2   7   99.57   10.13 
   0   2   7   94.51   10.22 
   0   2  -7   93.35    9.41 
   0  -2  -7   88.34    9.28 
   0   2  -7   98.30   10.46 
   0  -2  -7   98.84   10.05 
   0   2   7  101.52   10.84 
   0  -2   7   85.79    8.78 
   0   2   7   84.60    8.67 
   0  -2   7   91.00    9.09 
   0   2   7   89.93    9.31 
   0  -2  -7   98.13   10.54 
   0   2  -7   90.23    9.42 
   0   2  -7   87.41    9.62 
   0   2  -7   91.87    9.60 
   0  -2   7  102.41   10.14 
   0   2   7   91.85    9.14 
   0   2  -7   95.13    9.31 
   0  -2  -7   97.34    9.66 
   0   2   7   84.39    8.47 
   0   2  -7  100.53    9.97 
   0  -2  -7   91.17    9.31 
   0   2   7   96.28   11.24 
   0  -2  -7   83.35   11.51 
   0  -2   7   94.08   10.75 
   0   2   7   90.69    9.23 
   0  -2   7   96.71    9.52 
   0   2   7   90.30    8.88 
   0  -2   7  100.63    9.82 
   0   2   7   93.19    9.41 
   0  -2   8  171.14   10.72 
   0   2   8  203.09   12.68 
   0   2  -8  199.11   12.17 
   0   2  -8  210.66   13.68 
   0  -2  -8  203.08   12.99 
   0   2   8  196.04   13.01 
   0  -2  -8  181.44   11.45 
   0  -2   8  184.20   11.38 
   0  -2   8  186.19   11.95 
   0   2   8  231.11   14.47 
   0  -2  -8  201.25   12.77 
   0   2  -8  184.24   11.79 
   0   2  -8  200.59   12.93 
   0  -2   8  199.80   12.47 
   0   2   8  210.81   12.59 
   0   2  -8  192.03   11.60 
   0  -2  -8  199.49   11.96 
   0   2   8  252.84   15.28 
   0   2  -8  191.57   11.65 
   0  -2  -8  195.43   12.07 
   0   2   8  195.18   13.32 
   0  -2  -8  217.40   15.68 
   0  -2   8  196.09   14.12 
   0  -2   8  205.45   12.57 
   0   2   8  184.52   11.16 
   0  -2   8  211.10   12.62 
   0   2   8  204.44   12.51 
   0  -2   9  305.91   25.62 
   0   2   9  313.23   25.90 
   0   2  -9  312.67   26.08 
   0  -2  -9  325.23   26.93 
   0   2   9  221.71   19.71 
   0   2  -9  291.97   24.25 
   0  -2  -9  294.99   26.11 
   0   2   9  280.14   25.45 
   0   2  -9  284.13   24.15 
   0  -2  -9  318.20   28.35 
   0  -2   9  296.83   26.70 
   0   2   9  284.96   23.64 
   0  -2   9  299.46   24.87 
   0   2   9  323.69   26.88 
   0  -2  10  221.72   15.12 
   0   2  10  205.39   13.80 
   0   2 -10  228.30   15.51 
   0  -2 -10  217.88   14.65 
   0   2  10  188.46   12.96 
   0   2 -10  219.38   14.93 
   0  -2 -10  217.07   14.88 
   0   2  10  185.86   13.54 
   0  -2 -10  228.02   16.40 
   0  -2  10  165.34   13.24 
   0   2  10  212.52   14.26 
   0  -2  10  227.80   15.21 
   0   2  10  207.05   14.01 
   0  -2  11    6.29    2.10 
   0   2 -11    4.57    1.79 
   0   2  11    4.20    1.92 
   0   2 -11    3.56    2.73 
   0  -2 -11    6.66    2.67 
   0  -2 -11    1.87    5.49 
   0  -2  11    7.86    2.37 
   0   2  11    5.67    2.63 
   0  -2  11    4.25    2.64 
   0   2  11    6.17    2.80 
   0  -2 -12    1.01    3.17 
   0   2  12    4.28    2.17 
   0  -3   0   -0.17    2.35 
   0   3   0   -0.14    2.05 
   0   3   0    0.29    2.77 
   0  -3   0    0.71    2.82 
   0   3   0   -0.90    3.76 
   0  -3   0    1.86    2.27 
   0  -3   0    0.32    1.64 
   0   3   0    0.65    1.29 
   0   3   0    0.98    1.66 
   0   3   0   -0.34    1.68 
   0  -3  -1  797.54   30.19 
   0  -3   1  782.55   29.47 
   0   3   1  786.84   29.69 
   0   3  -1  776.72   29.23 
   0   3  -1  758.16   28.54 
   0   3   1  750.17   28.32 
   0   3  -1  798.76   30.08 
   0  -3  -1  788.72   29.93 
   0  -3   1  753.37   28.38 
   0   3   1  745.01   28.14 
   0   3  -1  733.19   27.65 
   0  -3  -1  745.86   28.21 
   0  -3   1  742.98   27.92 
   0  -3  -1  750.99   28.41 
   0  -3   1  712.68   26.80 
   0   3  -1  767.24   28.94 
   0   3  -1  762.54   28.84 
   0   3   1  697.46   26.28 
   0   3  -1  779.34   29.49 
   0   3   1  715.70   27.00 
   0  -3   2   64.68    3.33 
   0   3   2   74.04    4.46 
   0   3  -2   68.67    3.46 
   0  -3  -2   66.24    4.57 
   0   3  -2   71.67    3.56 
   0  -3  -2   57.63    2.91 
   0   3   2   62.34    3.87 
   0   3  -2   65.52    3.30 
   0  -3  -2   51.88    3.60 
   0  -3   2   69.20    3.87 
   0   3   2   60.00    4.80 
   0   3  -2   70.39    5.48 
   0  -3   2   63.04    4.48 
   0   3   2   65.01    4.30 
   0  -3  -2   61.41    6.41 
   0  -3   2   57.88    3.22 
   0   3  -2   60.35    5.83 
   0   3  -2   60.88    7.15 
   0   3  -2   62.97    6.27 
   0   3   2   59.94    2.85 
   0  -3   3  498.11   19.02 
   0   3   3  510.10   19.61 
   0   3  -3  502.43   19.11 
   0  -3  -3  568.67   21.72 
   0   3  -3  488.43   18.69 
   0  -3  -3  446.48   17.08 
   0  -3   3  486.03   18.32 
   0   3   3  494.68   19.24 
   0  -3  -3  474.47   18.31 
   0  -3   3  452.90   17.08 
   0   3   3  470.15   18.20 
   0   3  -3  486.40   18.44 
   0  -3   3  510.51   19.45 
   0   3   3  471.72   18.18 
   0  -3  -3  485.98   18.86 
   0  -3   3  470.34   17.79 
   0   3  -3  490.74   19.07 
   0   3  -3  494.34   19.19 
   0   3  -3  531.49   20.52 
   0   3   3  467.11   17.57 
   0   3  -3  444.40   16.66 
   0   3   3  444.67   17.31 
   0  -3   3  459.84   17.16 
   0   3   3  468.87   17.62 
   0   3   3  446.66   16.75 
   0  -3   4  229.89    9.47 
   0   3   4  285.63   11.50 
   0   3  -4  268.00   10.70 
   0   3  -4  283.05   11.50 
   0  -3  -4  252.44   10.21 
   0  -3   4  258.49   10.19 
   0   3   4  278.91   11.58 
   0  -3  -4  277.04   11.30 
   0  -3   4  259.01   10.95 
   0   3   4  292.07   11.66 
   0   3  -4  272.20   10.65 
   0  -3   4  270.40   10.91 
   0   3   4  277.57   11.19 
   0  -3  -4  273.02   11.20 
   0  -3   4  272.43   10.79 
   0   3  -4  280.92   11.52 
   0   3  -4  280.29   11.40 
   0   3  -4  276.95   11.49 
   0  -3  -4  258.65   10.27 
   0   3  -4  257.16    9.97 
   0   3   4  276.10   13.02 
   0  -3  -4  254.96   11.73 
   0   3  -4  262.37   13.84 
   0   3   4  287.90   12.29 
   0   3   4  271.70   10.55 
   0   3   4  261.92   10.17 
   0  -3   5  146.98   10.55 
   0   3   5  143.41   10.41 
   0   3  -5  163.26   11.55 
   0  -3  -5  160.83   11.58 
   0   3  -5  158.03   11.82 
   0  -3  -5  153.74   11.19 
   0   3   5  145.38   10.62 
   0  -3  -5  144.57   10.49 
   0  -3   5  154.06   10.95 
   0   3   5  135.97   10.03 
   0  -3   5  137.57    9.84 
   0   3   5  159.61   11.49 
   0  -3  -5  148.19   10.85 
   0   3  -5  148.98   10.95 
   0   3  -5  153.33   11.17 
   0   3  -5  149.90   11.01 
   0  -3   5  155.07   11.11 
   0   3   5  139.01    9.73 
   0   3  -5  160.04   11.17 
   0  -3  -5  151.11   10.58 
   0   3   5  161.48   11.48 
   0   3  -5  137.87    9.65 
   0  -3  -5  138.28    9.74 
   0  -3   5  136.05    9.60 
   0  -3   5  147.47   10.70 
   0   3   5  157.54   13.01 
   0  -3  -5  148.18   11.75 
   0   3  -5  160.03   12.48 
   0   3   5  163.81   12.08 
   0  -3   5  141.56    9.91 
   0   3   5  146.18   10.28 
   0  -3   5  146.40   10.28 
   0   3   5  152.49   10.73 
   0  -3   6   70.63    5.06 
   0   3   6   78.01    5.84 
   0   3  -6   81.16    5.37 
   0  -3  -6   69.74    5.24 
   0   3  -6   79.64    5.89 
   0  -3  -6   72.08    5.63 
   0   3   6   75.35    6.13 
   0  -3  -6   70.77    5.21 
   0  -3   6   69.78    4.58 
   0  -3   6   66.94    4.84 
   0   3   6   62.41    4.76 
   0  -3  -6   71.43    5.55 
   0   3  -6   68.76    5.44 
   0   3  -6   69.66    6.31 
   0   3  -6   71.01    5.32 
   0  -3   6   76.43    4.88 
   0   3   6   82.93    5.22 
   0   3  -6   74.59    4.68 
   0  -3  -6   65.36    4.24 
   0   3   6   75.20    4.95 
   0   3  -6   71.54    4.78 
   0  -3  -6   64.93    4.15 
   0  -3   6   67.47    4.91 
   0   3   6   61.26    7.70 
   0  -3  -6   71.40    8.39 
   0   3  -6   58.45    7.09 
   0   3   6   70.14    5.07 
   0  -3   6   78.71    5.01 
   0   3   6   60.30    4.93 
   0  -3   6   70.34    4.32 
   0   3   6   74.10    4.91 
   0  -3   7  131.41    8.26 
   0   3   7  159.20    9.39 
   0   3  -7  149.16    8.62 
   0  -3  -7  159.89    9.37 
   0   3  -7  156.58   10.16 
   0   3   7  145.03    9.44 
   0  -3  -7  157.89    9.96 
   0  -3   7  149.78    8.41 
   0  -3   7  142.00    8.66 
   0   3   7  151.56    8.91 
   0  -3  -7  147.38    9.24 
   0   3  -7  154.09    9.99 
   0   3  -7  156.94    9.41 
   0   3  -7  153.58    9.08 
   0  -3   7  177.11   11.90 
   0   3   7  152.58    8.42 
   0   3  -7  144.87   10.14 
   0  -3  -7  171.34    9.36 
   0   3   7  166.06    9.25 
   0   3  -7  157.77    8.80 
   0  -3  -7  158.17    8.76 
   0   3   7  165.75   11.29 
   0  -3  -7  162.61   11.25 
   0   3  -7  168.48   10.91 
   0   3   7  136.35    8.15 
   0  -3   7  155.10    9.45 
   0   3   7  147.98    8.18 
   0  -3   7  173.40    9.56 
   0   3   7  159.10    8.92 
   0  -3   8   46.00    5.10 
   0   3  -8   52.13    5.43 
   0   3  -8   47.77    5.81 
   0   3   8   43.52    7.00 
   0  -3   8   46.79    4.89 
   0  -3   8   58.98    6.21 
   0   3   8   45.99    5.68 
   0  -3  -8   55.40    6.87 
   0   3  -8   54.34    6.64 
   0   3  -8   51.47    6.53 
   0   3  -8   52.28    6.19 
   0  -3   8   42.40    6.51 
   0   3   8   61.67    5.96 
   0   3  -8   55.45    5.45 
   0  -3  -8   52.07    5.61 
   0   3   8   51.63    5.26 
   0   3  -8   53.51    5.30 
   0  -3  -8   53.44    5.61 
   0   3   8   43.11    8.38 
   0  -3  -8   59.70    9.93 
   0   3  -8   55.28    6.31 
   0   3   8   45.73    5.07 
   0  -3   8   53.69    5.57 
   0   3   8   55.94    5.59 
   0  -3   8   57.67    5.87 
   0   3   8   49.22    5.21 
   0  -3   9  177.03   15.15 
   0   3   9  168.53   13.79 
   0   3  -9  179.34   15.33 
   0  -3  -9  172.76   14.17 
   0   3   9  191.66   15.88 
   0   3  -9  183.06   15.01 
   0  -3  -9  146.02   12.23 
   0   3   9  183.09   16.58 
   0  -3  -9  185.05   16.64 
   0  -3   9  181.98   15.72 
   0   3   9  177.89   14.72 
   0  -3   9  179.44   14.65 
   0   3   9  181.05   14.86 
   0  -3  10   14.64    3.08 
   0   3 -10   13.73    2.85 
   0   3  10   16.82    3.67 
   0   3 -10   15.33    3.49 
   0  -3 -10   12.49    3.22 
   0   3  10   15.09    4.57 
   0  -3 -10   12.63    6.10 
   0  -3  10   14.56    3.01 
   0   3  10   15.02    3.22 
   0  -3  10   13.44    3.16 
   0   3  10   15.48    3.72 
   0  -3  11    1.43    1.58 
   0   3 -11    2.17    1.67 
   0   3  11    2.12    1.75 
   0   3 -11    1.19    2.26 
   0  -3 -11    5.69    3.65 
   0  -3  11    1.30    1.72 
   0   3  11    1.74    2.03 
   0  -4   0 3361.86  141.57 
   0   4   0 3333.92  140.46 
   0  -4   0 3409.43  143.50 
   0   4   0 3426.78  144.48 
   0  -4   0 3394.17  143.00 
   0  -4   0 3319.16  139.65 
   0   4   0 3204.65  121.45 
   0   4   0 3299.01  125.00 
   0  -4   0 3380.71  141.90 
   0   4   0 3137.39  118.75 
   0  -4   0 3362.14  141.30 
   0   4   0 3273.70  126.40 
   0   4   0 3268.91  123.87 
   0   4   0 3311.93  139.10 
   0   4   0 2994.38  113.35 
   0  -4  -1  422.17   16.55 
   0  -4   1  414.95   16.24 
   0   4   1  396.94   15.63 
   0   4  -1  415.86   16.29 
   0   4   1  413.78   16.33 
   0   4  -1  423.36   16.53 
   0  -4  -1  444.83   17.54 
   0  -4   1  412.27   16.11 
   0   4   1  486.52   19.14 
   0   4  -1  465.87   18.28 
   0  -4  -1  419.80   16.53 
   0  -4   1  408.29   16.02 
   0  -4   1  435.68   17.02 
   0   4  -1  398.68   15.72 
   0   4  -1  418.98   16.52 
   0   4   1  445.27   17.41 
   0  -4  -1  420.44   16.09 
   0  -4   1  412.05   15.75 
   0   4   1  396.64   15.21 
   0  -4  -1  425.64   16.33 
   0  -4   1  319.10   25.50 
   0   4   1  416.94   16.22 
   0   4  -1  409.95   15.79 
   0   4   1  412.62   15.80 
   0   4  -1  422.03   16.14 
   0   4   1  390.91   14.98 
   0   4  -1  384.44   14.78 
   0  -4  -2  441.60   19.10 
   0  -4   2  400.62   17.27 
   0   4   2  409.44   17.75 
   0   4  -2  390.20   16.82 
   0   4   2  418.37   18.44 
   0   4  -2  391.78   16.97 
   0  -4  -2  411.72   21.59 
   0  -4   2  386.82   16.65 
   0   4   2  391.72   17.45 
   0   4  -2  394.98   17.25 
   0  -4  -2  405.58   17.66 
   0  -4   2  377.81   16.31 
   0  -4  -2  409.59   18.03 
   0  -4   2  370.88   15.93 
   0   4  -2  451.10   19.51 
   0   4  -2  406.51   17.77 
   0   4  -2  409.40   17.90 
   0   4  -2  385.50   17.11 
   0  -4  -2  404.43   17.17 
   0  -4   2  417.24   18.63 
   0   4   2  393.55   16.71 
   0   4  -2  416.20   17.74 
   0  -4   2  414.20   17.58 
   0   4   2  447.82   21.02 
   0   4  -2  402.08   18.72 
   0   4   2  386.27   16.80 
   0   4  -2  367.31   15.79 
   0  -4   2  463.64   19.63 
   0   4   2  396.97   16.87 
   0   4   2  401.21   17.08 
   0   4  -2  388.09   17.07 
   0  -4   3   96.80    7.38 
   0   4   3   91.80    7.06 
   0   4  -3   95.73    7.30 
   0  -4  -3   93.50    7.25 
   0  -4   3   90.75    6.54 
   0   4   3   97.84    7.50 
   0  -4  -3   95.69    7.37 
   0  -4   3   93.86    6.81 
   0   4   3  109.79    8.18 
   0   4  -3   97.92    7.24 
   0  -4   3   96.70    7.20 
   0   4   3   96.98    7.38 
   0  -4  -3  103.04    8.07 
   0  -4   3   93.54    6.72 
   0   4  -3  102.99    7.68 
   0   4  -3   97.18    7.38 
   0   4  -3   96.22    8.14 
   0  -4   3   94.74    6.68 
   0   4   3   89.58    6.48 
   0   4  -3   92.96    6.62 
   0  -4  -3   89.89    6.45 
   0   4   3   91.19    6.55 
   0   4  -3   95.35    6.76 
   0  -4   3   89.17    6.74 
   0   4   3  107.33   10.08 
   0  -4  -3   96.71    7.79 
   0   4  -3  106.60   11.75 
   0   4   3  102.77    8.51 
   0  -4   3   98.00    6.91 
   0   4   3   97.76    7.03 
   0   4   3   95.45    6.88 
   0  -4   4  569.05   28.63 
   0   4   4  702.30   34.50 
   0   4  -4  542.79   26.58 
   0  -4  -4  560.16   27.63 
   0   4   4  524.20   25.81 
   0  -4  -4  561.99   27.69 
   0  -4   4  551.58   26.96 
   0   4   4  531.86   26.49 
   0   4  -4  607.69   29.72 
   0  -4   4  570.47   27.87 
   0   4   4  549.75   27.09 
   0  -4  -4  569.10   28.02 
   0   4  -4  554.17   27.21 
   0   4  -4  541.88   26.66 
   0   4  -4  576.94   28.32 
   0  -4   4  603.57   29.99 
   0   4   4  645.21   31.26 
   0   4  -4  578.40   28.21 
   0  -4  -4  574.20   27.88 
   0   4   4  570.57   28.79 
   0   4  -4  562.07   27.22 
   0   4   4  587.41   30.21 
   0  -4  -4  561.75   28.09 
   0   4  -4  627.79   31.28 
   0   4   4  599.75   29.38 
   0  -4   4  637.03   31.59 
   0   4   4  555.34   26.96 
   0  -4   4  554.90   27.29 
   0   4   4  556.68   27.02 
   0  -4   5   13.64    2.11 
   0   4   5   11.66    3.31 
   0   4  -5   14.63    2.25 
   0  -4  -5   11.55    3.04 
   0   4   5   12.88    3.49 
   0  -4  -5   11.05    3.23 
   0  -4   5   13.45    2.32 
   0   4   5    9.70    3.02 
   0  -4   5   12.05    2.63 
   0   4   5   13.08    3.38 
   0  -4  -5   10.10    3.98 
   0   4  -5   11.56    3.71 
   0   4  -5   11.04    4.91 
   0   4  -5    7.10    3.79 
   0  -4   5   13.30    1.73 
   0   4   5   10.91    1.78 
   0   4  -5   10.24    1.53 
   0  -4  -5   11.31    1.78 
   0   4   5   10.72    2.16 
   0   4  -5   12.04    1.57 
   0  -4   5    9.92    2.77 
   0   4   5    3.23    6.44 
   0  -4  -5   10.82    6.30 
   0   4  -5    9.84    7.49 
   0   4   5   12.18    4.03 
   0  -4   5   13.13    1.85 
   0   4   5   10.32    2.48 
   0  -4   5   11.68    1.82 
   0   4   5    9.91    2.49 
   0  -4   6   53.85    3.94 
   0   4   6   64.49    5.60 
   0   4  -6   56.79    3.82 
   0  -4  -6   64.47    5.45 
   0   4   6   67.79    7.29 
   0  -4  -6   66.82    5.07 
   0  -4   6   68.62    4.59 
   0  -4   6   64.42    4.91 
   0   4   6   62.11    4.76 
   0  -4  -6   62.26    5.29 
   0   4  -6   71.55    5.56 
   0   4  -6   80.36    7.06 
   0   4  -6   67.64    5.08 
   0  -4   6   66.86    4.14 
   0   4   6   64.96    3.97 
   0   4  -6   67.46    4.03 
   0  -4  -6   67.83    4.08 
   0   4   6   72.32    5.80 
   0   4   6   67.14    7.69 
   0  -4  -6   74.12    7.32 
   0   4  -6   69.05    8.36 
   0   4   6   71.04    5.39 
   0  -4   6   75.30    4.40 
   0   4   6   67.69    4.17 
   0  -4   6   72.11    4.29 
   0   4   6   65.83    4.27 
   0  -4   7   32.65    3.96 
   0   4  -7   37.09    4.44 
   0   4   7   32.83    5.20 
   0  -4  -7   36.81    6.05 
   0  -4   7   29.36    4.24 
   0  -4   7   34.18    4.50 
   0   4   7   33.28    5.50 
   0  -4  -7   39.72    5.36 
   0   4  -7   28.40    4.75 
   0   4  -7   36.48    4.94 
   0   4  -7   35.60    6.12 
   0  -4   7   34.76    3.50 
   0   4   7   31.39    3.64 
   0   4  -7   33.40    3.33 
   0  -4  -7   40.79    4.41 
   0   4   7   35.20    4.99 
   0   4   7   40.51   11.24 
   0  -4  -7   38.44    7.27 
   0   4  -7   23.80    5.96 
   0   4   7   33.77    4.19 
   0  -4   7   42.69    4.33 
   0   4   7   35.03    3.92 
   0  -4   7   37.69    3.70 
   0   4   7   39.83    4.54 
   0  -4   8   32.92    3.26 
   0   4   8   27.91    3.04 
   0   4  -8   32.92    3.29 
   0  -4  -8   26.56    2.78 
   0   4   8   33.16    3.62 
   0   4   8   27.87    7.16 
   0  -4  -8   39.87    7.07 
   0   4  -8   24.52    4.33 
   0   4   8   29.37    3.66 
   0  -4   8   36.52    3.42 
   0   4   8   36.68    3.94 
   0  -4   8   27.07    2.89 
   0   4   8   33.08    3.70 
   0  -4   9   12.93    3.02 
   0   4  -9   12.59    2.67 
   0   4   9   11.53    3.43 
   0   4   9   11.71    5.82 
   0  -4  -9    7.88    5.18 
   0   4   9   10.49    3.12 
   0  -4   9    9.33    2.46 
   0   4   9   12.28    3.35 
   0  -4   9   10.85    2.62 
   0   4   9   13.50    3.44 
   0  -4  10    5.87    2.29 
   0   4 -10    5.21    1.88 
   0   4  10    1.36    2.98 
   0  -4 -10    3.73    2.07 
   0  -4 -10    1.25    4.41 
   0  -4  10    5.01    1.80 
   0   4  10    4.94    2.95 
   0  -5   0    0.50    2.10 
   0   5   0   -0.16    2.25 
   0   5   0    2.02    2.55 
   0  -5   0    0.21    3.14 
   0   5   0    0.49    2.80 
   0  -5   0   -1.10    2.20 
   0  -5   0   -1.61    2.09 
   0   5   0   -1.01    1.85 
   0   5   0    0.89    1.37 
   0  -5   0    0.38    1.36 
   0   5   0    1.13    1.39 
   0   5   0   -0.36    1.58 
   0  -5   0    0.77    1.77 
   0   5   0   -1.67    5.18 
   0   5   0    1.35    1.68 
   0   5   0   -0.21    1.86 
   0   5   0    0.52    1.31 
   0  -5   1  271.93   13.59 
   0   5   1  291.13   14.65 
   0   5  -1  274.95   13.72 
   0   5   1  286.21   14.43 
   0   5  -1  290.32   14.45 
   0  -5  -1  302.79   15.38 
   0  -5   1  316.79   15.85 
   0   5   1  289.07   14.53 
   0   5  -1  307.79   15.51 
   0  -5  -1  291.73   14.62 
   0  -5   1  317.13   15.81 
   0  -5  -1  282.61   14.20 
   0  -5   1  282.72   14.02 
   0   5  -1  297.57   14.86 
   0   5   1  269.05   13.26 
   0   5  -1  291.64   14.38 
   0  -5  -1  289.39   14.21 
   0  -5   1  304.94   14.96 
   0   5   1  294.74   14.38 
   0   5  -1  289.78   14.11 
   0   5  -1  316.50   15.47 
   0   5   1  287.78   14.17 
   0  -5  -1  333.74   16.47 
   0  -5   1  309.63   15.10 
   0   5  -1  316.42   17.51 
   0   5   1  334.89   16.94 
   0   5   1  306.84   15.16 
   0   5  -1  286.34   14.16 
   0   5   1  302.16   14.82 
   0   5  -1  315.84   15.49 
   0   5   1  281.69   13.79 
   0   5  -1  293.95   14.40 
   0  -5  -2  262.86   17.08 
   0  -5   2  260.72   15.59 
   0   5   2  267.69   16.63 
   0   5  -2  267.75   16.02 
   0  -5   2  218.08   12.95 
   0   5   2  256.68   15.36 
   0  -5  -2  303.58   18.43 
   0  -5   2  271.52   16.30 
   0   5   2  275.03   16.46 
   0   5  -2  255.18   15.15 
   0  -5  -2  267.31   16.41 
   0  -5   2  246.31   14.60 
   0  -5  -2  254.99   15.28 
   0   5  -2  249.73   14.92 
   0   5  -2  261.49   15.70 
   0   5   2  250.64   14.70 
   0   5  -2  289.78   17.03 
   0  -5  -2  284.56   16.65 
   0  -5   2  302.24   17.71 
   0   5   2  249.96   14.66 
   0   5   2  275.31   16.19 
   0   5  -2  254.46   14.87 
   0  -5  -2  277.12   16.37 
   0  -5   2  267.85   15.60 
   0   5  -2  259.47   17.61 
   0   5   2  277.15   16.40 
   0   5  -2  270.98   15.88 
   0  -5   2  261.01   15.32 
   0   5   2  264.86   15.63 
   0   5   2  252.22   14.82 
   0  -5  -3  173.03   17.08 
   0  -5   3  185.32   18.54 
   0   5   3  186.88   18.42 
   0   5  -3  199.56   19.57 
   0   5   3  206.35   20.49 
   0  -5  -3  214.04   21.34 
   0  -5   3  185.05   18.00 
   0   5   3  188.71   18.58 
   0   5  -3  185.73   18.10 
   0  -5  -3  205.20   20.25 
   0  -5   3  181.79   17.73 
   0  -5  -3  185.40   18.51 
   0   5  -3  216.52   21.32 
   0   5  -3  193.62   19.04 
   0  -5   3  188.55   18.38 
   0   5   3  192.54   18.65 
   0   5  -3  189.83   18.40 
   0  -5  -3  190.41   18.44 
   0   5   3  203.70   19.75 
   0   5   3  187.68   18.68 
   0   5  -3  196.91   19.08 
   0  -5  -3  231.37   22.45 
   0  -5   3  208.05   20.10 
   0   5  -3  218.47   22.78 
   0   5   3  192.25   18.86 
   0  -5   3  217.97   21.09 
   0   5   3  220.51   21.36 
   0   5   3  189.00   18.30 
   0  -5  -4  424.58   27.87 
   0  -5   4  427.42   29.21 
   0   5   4  428.23   28.11 
   0   5  -4  456.36   29.88 
   0   5   4  390.28   25.79 
   0  -5  -4  428.92   28.22 
   0  -5   4  364.96   28.30 
   0   5   4  406.05   26.85 
   0   5  -4  404.34   26.40 
   0  -5  -4  412.67   27.44 
   0  -5   4  402.58   26.52 
   0  -5  -4  409.35   27.66 
   0   5  -4  410.82   27.13 
   0   5  -4  403.12   26.51 
   0  -5   4  414.17   28.19 
   0   5   4  420.25   27.30 
   0   5  -4  435.25   28.66 
   0  -5  -4  440.48   28.61 
   0   5   4  418.09   27.21 
   0   5  -4  422.70   27.46 
   0  -5  -4  406.53   26.53 
   0  -5   4  570.49   37.39 
   0   5  -4  343.19   23.41 
   0   5   4  443.64   29.04 
   0  -5   4  433.72   28.31 
   0   5   4  393.88   25.65 
   0  -5   4  404.84   26.50 
   0   5   4  386.57   25.15 
   0  -5  -5  607.53   38.87 
   0  -5   5  529.17   35.33 
   0   5   5  527.05   33.84 
   0   5  -5  571.80   36.82 
   0   5   5  537.68   34.75 
   0  -5  -5  604.78   38.75 
   0  -5   5  561.34   35.81 
   0  -5  -5  567.78   36.40 
   0  -5   5  549.89   35.38 
   0  -5  -5  584.62   38.12 
   0   5  -5  582.76   37.28 
   0   5  -5  578.25   37.24 
   0  -5   5  623.09   40.63 
   0   5   5  675.63   42.85 
   0   5  -5  583.02   37.81 
   0  -5  -5  611.94   38.82 
   0   5   5  621.87   39.56 
   0   5  -5  610.51   38.77 
   0  -5   5  573.99   36.72 
   0   5   5  625.75   40.80 
   0  -5  -5  597.88   38.70 
   0   5  -5  644.44   41.66 
   0   5   5  630.10   40.31 
   0  -5   5  648.69   41.48 
   0   5   5  577.48   36.75 
   0  -5   5  549.25   35.17 
   0   5   5  644.39   40.91 
   0  -5   6  235.52   20.36 
   0   5  -6  240.50   20.40 
   0   5   6  231.09   20.04 
   0  -5  -6  267.46   22.71 
   0  -5   6  263.15   21.98 
   0  -5   6  226.17   19.20 
   0  -5  -6  268.35   22.91 
   0   5  -6  253.45   21.61 
   0   5  -6  254.73   21.56 
   0  -5   6  281.23   23.89 
   0   5   6  258.67   21.48 
   0   5  -6  299.26   25.08 
   0  -5  -6  275.41   22.85 
   0   5   6  279.39   23.22 
   0   5  -6  254.89   21.07 
   0   5   6  260.59   23.22 
   0  -5  -6  276.06   23.53 
   0   5  -6  302.27   26.16 
   0   5   6  277.97   23.21 
   0  -5   6  292.51   24.34 
   0   5   6  251.42   20.86 
   0  -5   6  267.20   22.19 
   0   5   6  271.72   22.66 
   0  -5   7  172.13   15.03 
   0   5  -7  172.86   14.56 
   0   5   7  169.46   14.09 
   0  -5  -7  167.17   14.63 
   0   5  -7  205.93   18.26 
   0   5   7  188.07   15.70 
   0  -5   7  208.52   17.04 
   0   5   7  157.90   12.92 
   0   5   7  162.94   13.52 
   0  -5   8   13.60    3.04 
   0   5  -8   12.49    2.87 
   0   5   8   11.51    3.06 
   0  -5  -8   14.87    3.54 
   0  -5  -8   15.31    5.10 
   0   5  -8   13.49    3.99 
   0   5   8   16.30    3.92 
   0  -5   8   13.68    2.94 
   0   5   8   12.73    2.96 
   0   5   8   13.23    3.28 
   0  -5   9   15.27    3.87 
   0   5  -9   17.52    4.27 
   0   5   9   12.84    3.87 
   0  -5  -9   17.64    4.55 
   0  -5  -9   12.45    4.83 
   0   5   9   13.08    3.76 
   0  -5   9   16.77    4.11 
   0   5   9   14.42    4.13 
   0  -5  10    9.92    2.33 
   0   5 -10    9.98    2.31 
   0   5  10    8.51    2.63 
   0  -5  10   12.13    2.66 
   0  -6   0   97.68    6.58 
   0   6   0   83.82    5.79 
   0  -6   0   87.36    6.62 
   0   6   0   85.68    5.98 
   0  -6   0   85.95    6.59 
   0   6   0   88.89    5.49 
   0  -6   0   95.24    5.95 
   0   6   0   87.69    5.55 
   0   6   0   87.49    5.54 
   0  -6   0   87.81    5.46 
   0   6   0   85.51    8.09 
   0   6   0   89.54    5.95 
   0   6   0   91.81    6.02 
   0   6   0   81.11    5.19 
   0  -6  -1   77.75    5.93 
   0   6   1   81.53    6.52 
   0   6  -1   66.05    4.66 
   0  -6  -1   70.96    5.93 
   0  -6   1   69.47    5.45 
   0   6   1   66.06    5.61 
   0   6  -1   73.35    5.33 
   0  -6  -1   67.69    5.37 
   0  -6   1   67.75    5.19 
   0   6   1   71.07    4.55 
   0   6  -1   77.46    4.96 
   0  -6  -1   80.96    5.07 
   0  -6   1   79.19    4.93 
   0   6   1   74.64    4.70 
   0   6  -1   75.35    5.14 
   0   6   1   68.35    4.50 
   0  -6  -1   73.85    4.95 
   0  -6   1   63.71    4.73 
   0   6  -1   55.74    8.99 
   0   6   1   73.28    5.12 
   0   6  -1   72.10    4.60 
   0  -6   1   73.78    4.82 
   0   6   1   76.88    5.14 
   0   6   1   70.89    4.78 
   0  -6  -2   13.24    3.73 
   0  -6   2   11.41    2.93 
   0   6   2   15.48    3.53 
   0   6  -2   14.42    3.31 
   0   6   2   14.08    4.96 
   0  -6  -2   13.53    3.79 
   0  -6   2   11.96    2.34 
   0   6   2    8.71    3.57 
   0   6  -2    9.71    2.44 
   0  -6  -2   11.66    4.05 
   0  -6   2   12.56    2.53 
   0  -6  -2   11.62    3.49 
   0  -6   2   13.05    2.09 
   0   6   2   13.06    1.93 
   0   6  -2   11.94    1.99 
   0  -6  -2   11.82    1.89 
   0   6   2   12.45    1.98 
   0   6   2   11.99    1.89 
   0   6  -2   10.43    2.64 
   0  -6  -2    9.51    2.82 
   0  -6   2   10.26    1.46 
   0   6  -2    8.98    7.91 
   0   6   2   11.50    2.85 
   0  -6   2    9.74    2.64 
   0   6   2   10.20    1.95 
   0   6   2    8.25    1.79 
   0  -6  -3  407.72   37.37 
   0  -6   3  357.14   32.89 
   0   6   3  342.48   31.41 
   0   6  -3  385.69   35.23 
   0   6   3  381.28   34.95 
   0  -6  -3  415.58   38.20 
   0  -6   3  366.57   33.44 
   0   6   3  366.39   33.77 
   0   6  -3  364.87   33.32 
   0  -6  -3  381.31   37.84 
   0  -6   3  350.71   32.11 
   0   6  -3  384.64   35.32 
   0  -6   3  392.49   36.22 
   0   6   3  409.27   37.20 
   0   6  -3  413.32   37.94 
   0  -6  -3  461.23   41.90 
   0   6   3  427.46   38.91 
   0   6   3  327.72   31.26 
   0   6  -3  411.33   37.47 
   0  -6  -3  418.96   38.24 
   0  -6   3  373.20   38.53 
   0   6  -3  427.70   39.47 
   0   6   3  400.27   36.65 
   0  -6   3  435.61   39.63 
   0   6   3  387.46   35.28 
   0   6   3  378.25   34.40 
   0  -6   4   38.87    3.52 
   0   6   4   38.18    3.52 
   0   6  -4   39.10    3.65 
   0  -6  -4   39.01    3.65 
   0   6   4   43.66    4.46 
   0   6  -4   42.47    3.84 
   0  -6  -4   42.26    4.40 
   0  -6   4   38.54    4.44 
   0   6  -4   45.82    7.62 
   0   6   4   42.82    4.56 
   0  -6   4   46.96    4.19 
   0   6   4   35.23    3.49 
   0   6   4   39.11    4.18 
   0  -6   5  112.69    9.64 
   0   6   5  112.51    9.25 
   0   6  -5  114.89    9.47 
   0  -6  -5  118.02    9.69 
   0   6   5  114.35    9.49 
   0   6  -5  114.33    9.37 
   0  -6  -5  126.23   10.75 
   0   6  -5  125.03   12.01 
   0   6   5  112.98    9.77 
   0  -6   5  102.96    9.23 
   0   6   5  108.96    9.04 
   0   6   5  113.14    9.47 
   0  -6   6   11.27    1.74 
   0   6  -6   16.51    1.95 
   0   6   6   14.01    3.07 
   0   6  -6   16.38    1.65 
   0  -6  -6   11.38    3.33 
   0   6  -6   21.63    5.49 
   0   6   6   17.20    2.88 
   0  -6   6   15.32    2.06 
   0   6   6   12.93    2.22 
   0   6   6   12.49    2.88 
   0  -6   7   91.39    9.94 
   0   6  -7   90.15    9.56 
   0   6   7  117.28    6.73 
   0  -6  -7  105.13    6.37 
   0   6  -7  107.83    7.00 
   0   6   7   99.91    6.52 
   0  -6   7   95.94    7.42 
   0   6   7   87.04    5.10 
   0   6   7  102.58    6.15 
   0  -6   8   46.28    3.95 
   0   6  -8   42.77    3.59 
   0   6   8   43.84    4.38 
   0  -6  -8   21.09    5.50 
   0   6  -8   37.77    3.86 
   0   6   8   35.38    3.45 
   0  -6   8   44.12    3.65 
   0   6   8   36.01    3.57 
   0  -6   9   62.73    6.96 
   0   6   9   62.08    7.05 
   0  -6   9   73.32    8.00 
   0   7   0    0.62    1.50 
   0  -7   0    0.76    1.67 
   0   7   0    0.71    1.80 
   0  -7   0   -1.27    1.81 
   0   7   0    1.83    2.46 
   0  -7   0    0.43    2.05 
   0   7   1  239.04   19.76 
   0   7  -1  260.39   21.09 
   0  -7  -1  274.05   22.90 
   0   7  -1  242.99   20.61 
   0   7   1  225.23   19.67 
   0  -7  -1  204.85   25.71 
   0  -7   1  264.04   21.35 
   0   7  -1  225.44   21.42 
   0   7   1  253.65   20.66 
   0   7  -1  258.76   21.02 
   0  -7  -1  293.67   23.80 
   0  -7   1  276.28   22.34 
   0  -7   2    4.05    1.31 
   0   7   2    3.68    1.50 
   0   7  -2    3.51    1.49 
   0  -7  -2    4.69    1.41 
   0   7   2    3.01    1.32 
   0   7  -2    2.83    1.80 
   0   7   2    4.48    2.04 
   0  -7  -2    3.00    2.77 
   0  -7   2    4.23    1.39 
   0   7  -2    3.53    5.68 
   0   7   2    0.02    2.33 
   0  -7   2    4.62    1.58 
   0   7   2    2.26    2.01 
   0  -7   3  186.84   12.84 
   0   7   3  157.38   10.62 
   0   7  -3  162.25   11.04 
   0  -7  -3  192.22   12.88 
   0   7   3  161.78   10.98 
   0   7  -3  184.15   12.26 
   0   7   3  124.47    8.95 
   0  -7  -3  136.65   11.12 
   0  -7   3  174.04   12.18 
   0   7   3  170.03   11.83 
   0  -7   3  177.48   11.94 
   0   7   3  175.25   11.75 
   0  -7   4   35.66    7.20 
   0   7  -4   35.39    6.75 
   0   7   4   31.51    6.02 
   0   7  -4   37.29    7.09 
   0  -7  -4   30.88    6.94 
   0   7  -4   26.59    8.11 
   0   7   4   39.40    7.63 
   0  -7   4   34.16    6.49 
   0   7   4   34.71    6.57 
   0  -7   5   69.61    4.40 
   0   7  -5   77.48    4.74 
   0   7   5   70.12    4.45 
   0   7  -5   66.68    4.40 
   0  -7  -5   70.93    4.47 
   0   7  -5   80.10    5.79 
   0   7   5   84.77    5.29 
   0  -7   5   75.92    4.50 
   0   7   5   59.25    3.60 
   0  -7   6  118.07   10.38 
   0   7  -6  120.83   10.22 
   0   7   6  123.55    9.74 
   0  -7  -6  121.49    9.72 
   0   7  -6  137.88   11.68 
   0   7   6  121.91    9.73 
   0  -7   6  148.80   11.68 
   0  -7   7   29.85    3.80 
   0   7  -7   37.95    4.42 
   0   7   7   35.64    4.18 
   0  -7  -7   36.93    4.53 
   0   7  -7   42.41    5.36 
   0   7   7   37.13    4.47 
   0  -7   7   27.76    3.61 
   0  -8   0  112.78    6.42 
   0   8   0   91.63    6.12 
   0   8   0  119.40    6.87 
   0  -8   0  129.37    7.07 
   0  -8   0  128.19    7.11 
   0  -8   1   32.22    5.72 
   0   8   1   32.17    5.71 
   0   8  -1   28.55    5.21 
   0   8  -1   37.46    8.96 
   0   8   1   31.99    5.70 
   0  -8  -1   37.07    8.80 
   0  -8   1   40.70    2.68 
   0   8   1   35.39    6.31 
   0  -8  -1   37.18    8.82 
   0  -8   1   38.37    9.16 
   0  -8   2    2.47    1.30 
   0   8  -2    1.13    1.28 
   0   8  -2    3.14    1.67 
   0   8   2    1.19    1.39 
   0  -8  -2    2.43    1.83 
   0   8  -2    2.84    2.34 
   0   8   2    2.21    1.83 
   0  -8   2    2.53    1.52 
   0  -8   3   33.79    2.92 
   0   8  -3   30.60    2.68 
   0   8  -3   37.76    3.18 
   0  -8  -3   40.92    3.50 
   0   8   3   40.29    3.62 
   0  -8   3   44.37    3.67 
   0   8  -4   70.19    7.68 
   0   8  -4   79.94    8.80 
   0  -8  -4   87.38    9.54 
   0   8  -4   67.31    8.13 
   0   8   4   83.69    9.30 
   0  -8   4   73.71    8.22 
   0  -8  -5   10.62    2.60 
   0   8   5    9.01    2.38 
   1   0 -12   37.17    5.12 
   1   0 -12   42.23    6.34 
  -1   0  12   36.80    4.37 
  -1   0  12   39.04    4.62 
   1   0 -11   -2.85    2.65 
   1   0 -11   -1.11    3.98 
  -1   0  11    2.27    2.15 
  -1   0  11    1.26    2.79 
  -1   0  10   12.60    1.70 
   1   0 -10   12.60    1.76 
   1   0 -10    9.89    3.53 
  -1   0  10   15.35    5.38 
   1   0 -10   16.95    6.57 
  -1   0  10   15.06    2.21 
  -1   0  10   11.55    2.56 
   1   0  -9  383.76   35.42 
  -1   0   9  295.44   27.90 
  -1   0   9  333.57   30.80 
   1   0  -9  321.82   29.72 
   1   0  -9  296.01   27.68 
  -1   0   9  289.28   29.11 
   1   0  -9  355.42   32.52 
   1   0  -9  348.09   31.80 
  -1   0   9  306.58   28.70 
  -1   0   9  340.90   35.24 
  -1   0   9  355.20   32.40 
  -1   0   9  360.13   32.86 
   1   0  -8  604.48   39.50 
   1   0  -8  602.49   39.66 
  -1   0   8  524.64   34.30 
  -1   0   8  599.80   39.18 
   1   0  -8  546.57   35.94 
   1   0  -8  535.98   35.20 
  -1   0   8  643.57   41.79 
   1   0  -8  579.36   37.63 
  -1   0   8  541.19   35.76 
   1   0  -8  603.35   39.33 
  -1   0   8  567.78   37.63 
  -1   0   8  568.31   38.26 
  -1   0   8  611.32   39.70 
  -1   0   8  555.33   36.12 
  -1   0   7    4.61    1.89 
   1   0  -7    3.20    1.41 
   1   0  -7    7.30    3.15 
  -1   0   7    3.04    2.33 
  -1   0   7    1.37    1.70 
  -1   0   7    5.05    2.95 
   1   0  -7    3.68    2.55 
   1   0  -7    0.42    3.23 
   1   0  -7    1.27    2.67 
  -1   0   7    2.68    0.94 
   1   0  -7    3.20    0.78 
  -1   0   7    2.08    1.38 
  -1   0   7    1.43    2.71 
  -1   0   7    4.69    5.26 
  -1   0   7    5.30    9.90 
  -1   0   7    2.04    1.27 
  -1   0   7    2.69    1.48 
  -1   0   6  109.88    5.13 
   1   0  -6  106.42    4.99 
   1   0  -6  105.41    5.62 
  -1   0   6  109.81    5.69 
  -1   0   6  101.84    5.25 
  -1   0   6  100.43    5.13 
   1   0  -6  110.37    5.79 
   1   0  -6  113.85    6.02 
   1   0  -6  101.74    5.51 
   1   0  -6   96.74    5.08 
   1   0  -6   97.28    4.28 
  -1   0   6  111.98    5.46 
  -1   0   6  112.16    7.98 
  -1   0   6  102.27   10.36 
  -1   0   6   81.45    6.50 
  -1   0   6  105.90    4.75 
  -1   0   5   64.73    2.99 
   1   0  -5   59.99    2.77 
   1   0  -5   63.20    4.38 
  -1   0   5   48.76    4.47 
  -1   0   5   59.04    2.95 
  -1   0   5   60.58    3.44 
  -1   0   5   55.96    3.31 
   1   0  -5   60.28    4.22 
   1   0  -5   56.39    4.16 
   1   0  -5   53.70    3.35 
  -1   0   5   51.55    6.01 
  -1   0   5   50.82    9.38 
  -1   0   5   56.81    2.49 
  -1   0   4  176.04    4.84 
   1   0  -4  163.63    4.30 
   1   0  -4  179.18    5.79 
  -1   0   4  180.67    5.32 
  -1   0   4  165.13    4.83 
  -1   0   4  164.37    4.48 
  -1   0   4  164.11    5.19 
   1   0  -4  167.01    5.35 
   1   0  -4  170.00    5.46 
   1   0  -4  166.46    5.03 
  -1   0   3 4822.69  113.99 
   1   0  -3 4710.32  106.84 
   1   0  -3 4844.49  110.27 
  -1   0   3 4535.61  103.45 
  -1   0   3 4771.03  115.97 
  -1   0   3 4705.00  106.49 
  -1   0   3 4672.30  108.10 
   1   0  -3 4863.72  110.17 
   1   0  -3 4743.05  107.60 
   1   0  -3 4475.00  101.66 
  -1   0   2 4837.17  110.68 
   1   0  -2 4606.73  104.17 
   1   0  -2 4528.37  102.66 
  -1   0   2 4682.72  113.02 
   1   0  -2 4682.77  105.74 
   1   0  -2 4481.73  102.56 
  -1   0   2 4940.60  111.90 
  -1   0   2 4808.30  109.68 
   1   0  -2 4740.89  107.53 
   1   0  -2 4842.10  109.73 
  -1   0   1 1686.51   38.49 
   1   0  -1 1515.97   34.63 
  -1   0   1 1522.81   35.22 
  -1   0   1 1594.04   36.78 
  -1   0   1 1611.94   37.15 
  -1   0   1 1696.15   38.96 
  -1   0   1 1576.38   36.00 
  -1   0   1 1587.19   36.30 
  -1   0   1 1598.83   36.90 
  -1   0   1 1741.68   40.03 
  -1   0   1 1577.84   36.36 
  -1   0   0 1365.62   31.73 
   1   0   0 1392.36   32.20 
   1   0   1 5112.18  115.99 
  -1   0  -1 5257.96  118.63 
  -1   0  -1 5255.87  119.28 
   1   0   1 4960.51  112.07 
  -1   0  -1 5055.52  115.11 
   1   0   1 4895.18  110.41 
  -1   0  -1 5193.55  117.75 
  -1   0  -1 5121.37  116.08 
  -1   0  -1 5072.87  114.85 
  -1   0  -1 5091.63  115.04 
   1   0   2 3782.02   86.65 
  -1   0  -2 3665.96   83.05 
  -1   0  -2 3585.58   81.41 
   1   0   2 3296.74   74.68 
   1   0   2 3644.27   86.81 
  -1   0  -2 3699.55   90.31 
   1   0   2 3731.48   84.64 
  -1   0  -2 3609.29   82.43 
  -1   0  -2 3514.13   79.96 
  -1   0  -2 3862.18   87.90 
  -1   0  -2 3606.02   81.73 
   1   0   3   65.84    2.58 
  -1   0  -3   76.18    2.59 
  -1   0  -3   75.28    3.69 
   1   0   3   73.60    2.88 
   1   0   3   69.84    2.29 
   1   0   3   77.56    2.41 
   1   0   3   71.58    2.46 
  -1   0  -3   77.28    3.31 
  -1   0  -3   78.53    3.24 
  -1   0  -3   83.16    3.53 
  -1   0  -3   76.16    2.74 
   1   0   4    7.39    1.75 
  -1   0  -4    6.56    1.41 
  -1   0  -4    6.13    4.05 
   1   0   4    7.24    2.26 
   1   0   4    3.93    1.05 
   1   0   4    5.61    1.24 
   1   0   4    5.46    1.32 
  -1   0  -4    7.15    1.84 
  -1   0  -4    8.36    3.38 
  -1   0  -4    5.86    2.71 
  -1   0  -4    8.19    2.23 
   1   0   5  774.74   29.31 
  -1   0  -5  735.02   27.58 
  -1   0  -5  806.02   30.43 
   1   0   5  725.76   27.34 
   1   0   5  701.97   27.23 
   1   0   5  734.43   27.66 
   1   0   5  745.76   28.01 
  -1   0  -5  751.73   28.38 
  -1   0  -5  782.06   29.63 
  -1   0  -5  806.27   30.44 
  -1   0  -5  723.22   27.18 
   1   0   5  765.61   28.55 
  -1   0  -5  717.81   26.78 
   1   0   5  753.44   28.10 
   1   0   5  695.66   27.27 
   1   0   6  447.61   19.32 
  -1   0  -6  413.14   17.73 
  -1   0  -6  450.51   19.72 
   1   0   6  420.29   24.38 
   1   0   6  396.78   17.13 
   1   0   6  404.53   17.45 
  -1   0  -6  429.69   18.70 
  -1   0  -6  422.88   18.43 
  -1   0  -6  406.74   17.78 
  -1   0  -6  402.30   17.36 
   1   0   6  436.30   18.54 
  -1   0  -6  420.34   17.81 
   1   0   6  390.63   25.97 
  -1   0  -6  428.25   18.21 
   1   0   6  447.82   21.44 
   1   0   6  415.40   18.18 
   1   0   6  390.24   16.95 
   1   0   6  393.53   16.68 
   1   0   7   19.18    3.66 
  -1   0  -7   15.45    2.35 
  -1   0  -7   18.39    3.69 
   1   0   7   15.52    2.91 
   1   0   7    9.96    1.62 
   1   0   7   12.96    2.54 
  -1   0  -7   15.30    3.41 
  -1   0  -7   12.04    2.89 
  -1   0  -7   12.09    2.92 
   1   0   7   14.20    1.64 
  -1   0  -7   13.79    1.30 
   1   0   7   14.12    2.30 
  -1   0  -7   12.85    2.33 
   1   0   7   12.49    1.23 
   1   0   7   14.20    1.74 
   1   0   8   10.49    5.16 
  -1   0  -8    4.22    2.20 
  -1   0  -8    7.14    4.02 
   1   0   8    5.50    4.30 
   1   0   8    5.38    3.54 
  -1   0  -8    7.61    3.36 
  -1   0  -8    6.64    3.85 
  -1   0  -8    4.18    2.79 
   1   0   8    5.42    1.61 
  -1   0  -8    5.47    1.35 
   1   0   8    3.42    2.99 
  -1   0  -8    3.46    2.90 
  -1   0  -8    8.55    5.89 
   1   0   8    2.77    1.25 
   1   0   8    2.24    2.43 
   1   0   9   51.02    5.85 
  -1   0  -9   64.52    6.71 
  -1   0  -9   58.65    7.75 
   1   0   9   51.01    6.00 
  -1   0  -9   55.98    6.94 
   1   0   9   51.77    5.46 
  -1   0  -9   59.76    5.79 
   1   0   9   60.46    6.02 
  -1   0  -9   59.96    6.57 
  -1   0  -9   61.85   10.26 
   1   0   9   55.03    5.50 
   1   0   9   55.88    5.72 
   1   0  10   11.75    1.98 
  -1   0 -10   12.61    1.77 
   1   0  10   11.04    2.61 
  -1   0 -10   11.95    2.81 
  -1   0 -10   13.87    7.26 
   1   0  10   10.28    2.02 
   1   0  10   12.00    2.47 
   1   0  11   11.76    2.56 
  -1   0 -11   13.87    2.91 
  -1   0 -11   14.11    3.55 
  -1   0 -11   14.13    5.13 
   1   0  11   10.58    2.50 
   1   0  11    9.94    2.69 
  -1   0 -12    2.50    2.42 
   1   0  12   -1.69    2.50 
   1   1 -12    1.58    2.61 
   1  -1 -12    0.65    2.24 
   1  -1 -12   -0.71    4.44 
  -1  -1  12    1.82    1.81 
  -1   1  12    2.89    1.88 
  -1   1  12    3.09    2.31 
   1   1 -11   84.50    5.59 
   1  -1 -11   99.50    5.99 
   1   1 -11   94.50    6.40 
   1  -1 -11   93.24    7.96 
  -1  -1  11   98.49    5.79 
  -1   1  11   94.47    5.53 
  -1  -1  11   90.73    7.10 
  -1   1  11   90.24    5.37 
  -1  -1  10    7.35    1.60 
   1   1 -10    6.77    1.43 
   1   1 -10    9.16    3.49 
   1  -1 -10    9.28    3.89 
  -1   1  10   12.89    6.84 
   1  -1 -10   10.52    6.40 
  -1  -1  10    6.41    2.43 
  -1   1  10    6.17    2.54 
  -1  -1  10    9.30    2.60 
  -1   1  10    6.14    2.83 
  -1  -1   9  131.15   12.71 
   1   1  -9   99.59    9.70 
   1   1  -9  134.04   13.68 
   1  -1  -9  111.19   10.98 
  -1  -1   9   92.71    9.03 
  -1   1   9   98.37   10.23 
  -1  -1   9  111.54   10.92 
  -1   1   9  110.73   12.49 
   1  -1  -9  110.42   11.37 
   1   1  -9  107.95   11.15 
  -1  -1   9  130.55   12.18 
  -1   1   9  118.25   10.92 
   1   1  -9  107.85   10.01 
   1  -1  -9  121.12   11.16 
  -1   1   9  116.42   10.81 
   1   1  -9  117.19   11.10 
   1  -1  -9  116.74   11.01 
  -1  -1   9  114.26   11.89 
  -1   1   9  129.43   14.26 
  -1  -1   9  101.27   13.94 
  -1   1   9  124.54   17.68 
  -1  -1   9  115.64   10.70 
  -1   1   9  117.67   10.96 
  -1  -1   9  124.00   11.54 
  -1   1   9  125.04   11.64 
  -1  -1   8   99.33    6.47 
  -1   1   8  103.39    6.41 
   1   1  -8   93.32    5.60 
   1  -1  -8   93.47    5.77 
   1   1  -8  103.43    7.40 
   1  -1  -8   93.98    6.40 
  -1   1   8   88.24    6.46 
  -1  -1   8   87.72    5.52 
  -1   1   8   87.54    5.56 
  -1  -1   8  102.49    6.45 
  -1   1   8   99.21    6.29 
   1   1  -8   96.00    6.47 
   1  -1  -8   96.00    6.72 
   1   1  -8   88.57    6.45 
   1  -1  -8   90.63    6.10 
   1   1  -8   83.42    6.26 
  -1  -1   8   92.91    5.52 
  -1   1   8   95.64    5.36 
   1   1  -8   91.45    5.24 
   1  -1  -8   93.43    5.23 
  -1   1   8   91.12    5.41 
   1   1  -8   89.85    5.59 
   1  -1  -8   92.37    5.46 
  -1  -1   8   89.21    6.91 
  -1   1   8   91.29    8.55 
  -1  -1   8   91.31   10.81 
  -1   1   8   90.04   12.82 
  -1  -1   8   95.83    5.49 
  -1   1   8   89.22    6.19 
  -1  -1   8  107.48    6.15 
  -1   1   8   97.23    5.73 
  -1  -1   7  174.21   10.49 
  -1   1   7  185.53   11.19 
   1   1  -7  184.49   11.09 
   1  -1  -7  192.06   11.63 
   1   1  -7  191.54   11.92 
   1  -1  -7  184.07   11.35 
  -1   1   7  186.68   11.52 
  -1  -1   7  165.41   11.84 
  -1   1   7  173.59   10.69 
  -1  -1   7  178.26   10.76 
  -1   1   7  184.30   11.19 
   1   1  -7  180.42   11.18 
   1  -1  -7  171.36   10.76 
   1   1  -7  173.62   10.94 
   1  -1  -7  167.80   10.55 
   1   1  -7  192.51   12.14 
   1   1  -7  170.04   10.63 
  -1  -1   7  144.60   10.65 
  -1   1   7  149.75    8.97 
   1   1  -7  163.57   10.03 
   1  -1  -7  156.09    9.21 
  -1   1   7  182.72   10.81 
   1  -1  -7  184.10   11.00 
  -1  -1   7  177.21   10.77 
  -1  -1   7  157.68   13.57 
  -1   1   7  181.11   12.10 
  -1  -1   7  179.03   13.13 
  -1   1   7  184.56   14.11 
  -1  -1   7  191.92   11.35 
  -1   1   7  166.36    9.90 
  -1  -1   7  183.32   10.78 
  -1   1   7  179.26   10.83 
  -1  -1   6  117.02    5.53 
  -1   1   6  142.46    6.68 
   1   1  -6  120.06    5.52 
   1  -1  -6  124.10    5.83 
   1   1  -6  127.04    6.62 
   1  -1  -6  118.54    6.12 
  -1  -1   6  115.20    5.67 
  -1   1   6  118.92    5.89 
  -1  -1   6  112.87    5.68 
  -1   1   6  154.29    7.20 
  -1  -1   6  117.01    5.49 
  -1   1   6  126.01    5.96 
   1  -1  -6  125.84    6.80 
   1   1  -6  125.44    7.53 
   1  -1  -6  120.13    6.48 
   1   1  -6  120.08    6.24 
   1  -1  -6  111.50    5.53 
   1   1  -6  127.11    6.43 
  -1  -1   6  118.28    5.65 
   1   1  -6  120.15    5.30 
   1  -1  -6  106.13    5.00 
  -1   1   6  145.33    6.58 
  -1  -1   6  121.68    5.68 
  -1   1   6  129.33    6.07 
  -1  -1   6  101.57    9.74 
  -1   1   6  127.20    8.23 
  -1  -1   6  125.02   11.24 
  -1   1   6  106.82   10.57 
  -1  -1   6  122.90    5.43 
  -1   1   6  127.23    5.73 
  -1  -1   6  126.65    5.58 
  -1   1   6  120.68    5.46 
  -1  -1   5    1.90    1.44 
   1   1  -5    1.56    1.30 
   1   1  -5    0.32    2.97 
   1  -1  -5   -0.17    2.51 
  -1  -1   5    0.45    2.13 
  -1   1   5    1.42    3.09 
  -1  -1   5    0.57    1.30 
  -1   1   5    1.47    1.66 
  -1  -1   5    2.49    1.63 
  -1   1   5    0.87    2.15 
   1  -1  -5   -0.61    2.62 
  -1  -1   5    0.80    1.97 
   1   1  -5    2.17    3.64 
   1  -1  -5    0.37    2.58 
   1   1  -5   -1.52    3.34 
   1  -1  -5    1.86    1.83 
   1   1  -5   -0.17    2.68 
  -1  -1   5    2.04    1.35 
   1   1  -5    1.63    1.25 
  -1   1   5   -2.11    2.51 
  -1  -1   5   -1.10    3.68 
  -1   1   5   -0.90    3.12 
  -1  -1   5   -1.49    3.43 
  -1   1   5   -2.05    4.94 
  -1  -1   5    4.12    6.37 
  -1   1   5   -4.00    3.36 
  -1  -1   5   -3.36    1.92 
  -1  -1   4  402.69   15.96 
   1   1  -4  406.08   15.42 
   1  -1  -4  391.86   14.89 
   1   1  -4  369.33   14.38 
   1  -1  -4  384.51   14.97 
  -1  -1   4  409.04   15.70 
  -1   1   4  387.13   15.15 
  -1  -1   4  397.68   15.56 
  -1   1   4  372.38   14.43 
  -1   1   4  379.52   14.56 
  -1  -1   4  395.49   15.04 
  -1   1   4  394.22   15.11 
   1  -1  -4  391.31   15.20 
  -1  -1   4  392.21   15.29 
   1   1  -4  403.81   15.79 
   1  -1  -4  367.86   14.32 
   1   1  -4  399.53   15.77 
   1  -1  -4  385.93   14.92 
   1   1  -4  382.51   15.13 
   1  -1  -4  364.97   14.00 
  -1  -1   3  208.61    5.48 
   1   1  -3  194.50    5.07 
   1  -1  -3  199.82    5.31 
   1   1  -3  202.77    5.70 
   1  -1  -3  206.48    5.99 
  -1  -1   3  220.34    5.82 
  -1   1   3  198.67    5.62 
  -1  -1   3  199.52    6.60 
  -1   1   3  212.14    5.81 
   1   1  -3  204.04    5.38 
  -1   1   3  195.46    5.35 
  -1  -1   3  196.75    5.25 
  -1   1   3  206.13    5.94 
   1  -1  -3  225.56    6.41 
  -1  -1   3  197.83    5.34 
   1  -1  -3  226.01    6.48 
   1   1  -3  219.36    6.31 
   1  -1  -3  203.36    5.56 
   1   1  -3  238.13    7.11 
   1  -1  -3  213.12    5.78 
  -1  -1   2  536.09   12.91 
  -1   1   2  513.92   12.40 
   1   1  -2  505.03   12.23 
   1  -1  -2  492.49   11.90 
   1  -1  -2  494.92   12.26 
  -1  -1   2  483.71   11.71 
  -1   1   2  521.02   13.65 
  -1  -1   2  520.89   12.30 
  -1   1   2  501.05   12.15 
   1   1  -2  526.77   12.99 
  -1   1   2  497.54   11.95 
  -1  -1   2  526.01   12.53 
  -1   1   2  497.18   12.07 
  -1  -1   2  517.60   12.40 
   1   1  -2  515.72   13.14 
   1  -1  -2  479.34   12.03 
   1  -1  -2  490.62   12.04 
   1   1  -2  517.27   13.43 
   1  -1  -2  513.12   12.45 
   1   1  -2  515.23   13.19 
  -1  -1   1  325.57    8.37 
  -1   1   1  318.91    8.46 
   1   1  -1  321.94    8.24 
   1  -1  -1  302.85    7.78 
  -1  -1   1  327.98    8.67 
  -1   1   1  312.08    8.35 
   1   1  -1  340.16   12.97 
  -1  -1   1  320.54    7.86 
  -1   1   1  345.63    8.81 
   1   1  -1  336.88    8.97 
  -1   1   1  326.08    8.18 
  -1  -1   1  350.14    8.53 
  -1   1   1  333.21    8.67 
   1  -1  -1  336.62    8.79 
  -1  -1   1  328.39    8.24 
  -1   1   1  328.04    8.49 
  -1  -1   1  337.53    9.04 
   1   1  -1  330.13    8.80 
  -1   1   1  336.64    8.50 
  -1   1   1  351.94    8.69 
   1  -1   0 2177.16   49.65 
   1   1   0 2173.28   49.80 
  -1   1   0 2285.01   52.04 
  -1  -1   0 2207.39   50.55 
   1  -1   0 2160.46   49.65 
  -1   1   0 2278.10   52.25 
  -1  -1   0 2254.27   51.59 
   1   1   0 2233.73   51.05 
  -1   1   0 2408.10   56.99 
   1  -1   0 2203.68   50.38 
  -1  -1   0 2160.68   49.41 
   1   1   0 2199.46   50.23 
  -1   1   0 2288.17   52.16 
  -1  -1   0 2357.90   53.75 
  -1   1   0 2195.91   50.36 
   1  -1   0 2022.22   46.25 
  -1  -1   0 2207.71   50.49 
  -1   1   0 2155.32   49.25 
  -1  -1   0 2214.78   50.85 
  -1   1   0 2230.65   50.95 
  -1  -1   0 2231.51   51.12 
   1   1   0 2195.29   50.21 
  -1   1   0 2113.21   48.21 
   1  -1   1   16.36    1.83 
   1   1   1   14.63    2.48 
  -1   1  -1   12.10    1.74 
  -1  -1  -1   13.95    2.43 
  -1   1  -1   14.62    2.70 
  -1  -1  -1   12.94    3.53 
   1   1   1   13.21    2.34 
  -1   1  -1   14.04    2.22 
  -1  -1  -1   12.30    2.73 
   1  -1   1   12.43    2.18 
   1   1   1   15.27    3.46 
  -1   1  -1   13.63    1.75 
   1  -1   1   11.06    2.91 
   1   1   1   13.10    1.97 
  -1  -1  -1   14.54    3.01 
  -1   1  -1   12.97    2.56 
  -1  -1  -1   13.62    2.86 
  -1   1  -1   12.49    3.50 
  -1  -1  -1   14.50    2.13 
  -1   1  -1   13.60    2.70 
  -1  -1  -1   12.49    1.86 
   1  -1   2 2009.89   46.40 
   1   1   2 1985.60   45.43 
  -1   1  -2 1952.59   44.72 
  -1  -1  -2 2028.35   46.37 
  -1   1  -2 1907.83   43.91 
  -1  -1  -2 1908.71   43.97 
   1  -1   2 1984.03   45.28 
   1   1   2 1928.43   44.12 
  -1  -1  -2 2054.04   47.06 
   1  -1   2 1970.83   44.86 
   1   1   2 2002.84   46.01 
  -1   1  -2 2019.99   46.25 
   1  -1   2 2069.56   47.24 
   1   1   2 1969.05   45.03 
  -1   1  -2 1985.65   45.37 
  -1  -1  -2 1920.60   44.29 
  -1   1  -2 1970.77   45.26 
  -1  -1  -2 1900.46   43.78 
  -1   1  -2 1993.51   45.99 
  -1  -1  -2 1962.33   44.90 
  -1   1  -2 1975.25   45.28 
  -1  -1  -2 2005.16   45.78 
   1  -1   3 2618.97   62.00 
  -1   1  -3 2649.79   60.42 
  -1  -1  -3 2653.61   60.49 
  -1   1  -3 2689.52   61.53 
  -1  -1  -3 2652.88   60.66 
   1  -1   3 2373.92   53.92 
   1   1   3 2563.14   58.47 
   1  -1   3 2586.61   59.12 
   1   1   3 2391.78   54.66 
   1   1   3 2568.06   60.33 
  -1   1  -3 2694.91   62.29 
   1  -1   3 2471.24   56.21 
   1   1   3 2460.53   56.12 
  -1   1  -3 2553.72   58.20 
  -1  -1  -3 2624.29   60.19 
  -1   1  -3 2547.12   58.20 
  -1  -1  -3 2748.87   62.81 
  -1   1  -3 2575.42   58.97 
  -1  -1  -3 2506.16   57.10 
  -1   1  -3 2509.37   57.25 
  -1  -1  -3 2484.04   56.49 
   1  -1   4  945.81   36.28 
  -1   1  -4  942.01   35.13 
  -1  -1  -4  929.33   34.82 
  -1   1  -4  964.38   36.27 
  -1  -1  -4  966.46   36.46 
   1  -1   4  923.81   34.53 
   1   1   4  872.38   32.90 
   1  -1   4  906.69   34.97 
   1   1   4  881.28   33.08 
   1   1   4  898.26   33.78 
  -1   1  -4  868.52   34.29 
   1  -1   4  911.76   34.16 
   1   1   4  911.59   34.11 
  -1   1  -4  934.46   35.02 
  -1  -1  -4  925.29   34.80 
  -1   1  -4  897.85   34.01 
  -1  -1  -4  926.24   34.80 
  -1   1  -4  979.96   36.88 
  -1  -1  -4  860.11   32.28 
  -1   1  -4  896.65   33.82 
  -1  -1  -4  878.10   32.86 
   1  -1   5  563.20   23.39 
   1   1   5  685.39   26.43 
  -1   1  -5  648.08   25.24 
  -1  -1  -5  651.65   25.06 
  -1   1  -5  590.34   23.01 
  -1  -1  -5  622.77   24.35 
   1  -1   5  657.08   25.37 
   1   1   5  610.44   23.86 
   1  -1   5  593.00   25.34 
   1   1   5  577.30   22.34 
   1  -1   5  611.58   23.55 
   1   1   5  582.96   22.74 
   1  -1   5  615.17   23.87 
   1   1   5  614.32   23.75 
  -1   1  -5  593.56   26.72 
  -1  -1  -5  639.84   25.08 
  -1   1  -5  622.24   24.54 
  -1  -1  -5  625.07   24.30 
  -1   1  -5  616.08   23.95 
  -1  -1  -5  575.35   22.20 
  -1   1  -5  603.89   23.52 
  -1  -1  -5  590.33   22.72 
  -1  -1  -5  672.06   25.55 
  -1   1  -5  594.90   22.95 
  -1  -1  -5  605.44   23.23 
   1   1   5  648.50   26.62 
   1   1   5  624.27   24.52 
   1  -1   5  573.51   22.56 
   1   1   5  590.02   22.53 
   1  -1   6  289.43   20.42 
   1   1   6  298.97   20.99 
  -1   1  -6  305.85   21.47 
  -1  -1  -6  310.02   21.67 
  -1   1  -6  297.72   21.21 
  -1  -1  -6  307.26   21.65 
   1  -1   6  294.93   20.63 
   1   1   6  305.13   21.75 
   1  -1   6  275.05   19.57 
   1   1   6  277.30   19.50 
   1  -1   6  283.97   19.87 
   1   1   6  279.17   19.53 
  -1   1  -6  308.00   21.62 
  -1  -1  -6  303.20   21.51 
  -1   1  -6  289.90   20.43 
  -1  -1  -6  292.85   20.61 
  -1   1  -6  284.05   19.99 
  -1  -1  -6  265.87   18.64 
  -1   1  -6  286.00   20.03 
   1  -1   6  321.98   22.44 
   1   1   6  293.45   20.32 
  -1   1  -6  286.52   20.04 
  -1  -1  -6  304.28   21.06 
   1  -1   6  312.23   21.63 
   1   1   6  324.26   22.51 
  -1   1  -6  288.78   20.06 
  -1  -1  -6  298.86   20.86 
   1   1   6  268.10   19.61 
  -1  -1  -6  299.46   22.20 
   1  -1   6  289.05   21.64 
   1  -1   6  281.50   19.70 
   1   1   6  271.54   18.84 
   1  -1   6  291.96   20.22 
   1   1   6  286.31   19.86 
   1  -1   7  363.37   21.46 
   1   1   7  427.86   25.25 
  -1   1  -7  323.28   19.17 
  -1  -1  -7  349.73   20.66 
  -1   1  -7  362.91   21.54 
  -1  -1  -7  369.98   22.01 
   1  -1   7  414.89   24.54 
   1   1   7  366.40   21.75 
   1  -1   7  335.99   19.80 
   1   1   7  341.91   20.20 
   1  -1   7  335.56   19.76 
   1   1   7  354.00   20.84 
  -1  -1  -7  357.14   21.24 
  -1   1  -7  360.22   21.42 
  -1  -1  -7  345.85   20.67 
  -1   1  -7  346.41   20.48 
   1  -1   7  380.56   22.34 
   1   1   7  367.10   21.42 
  -1   1  -7  368.09   21.64 
  -1  -1  -7  407.63   23.78 
   1  -1   7  330.89   19.38 
   1   1   7  337.87   19.76 
  -1   1  -7  364.47   21.36 
  -1  -1  -7  378.98   22.17 
   1   1   7  319.33   19.71 
  -1  -1  -7  357.05   22.60 
   1  -1   7  333.77   20.63 
   1  -1   7  346.72   20.78 
   1   1   7  366.36   21.32 
   1  -1   7  371.76   21.80 
   1   1   7  394.18   22.95 
   1  -1   8   49.60    4.04 
   1   1   8   54.67    5.00 
  -1   1  -8   51.49    3.57 
  -1  -1  -8   59.33    4.85 
  -1   1  -8   55.18    6.30 
  -1  -1  -8   51.47    6.06 
   1  -1   8   46.78    4.39 
   1   1   8   47.77    4.46 
   1  -1   8   47.84    3.67 
   1   1   8   47.57    3.88 
  -1  -1  -8   45.81    4.83 
  -1   1  -8   46.51    4.63 
  -1  -1  -8   52.58    5.21 
  -1   1  -8   45.10    3.75 
   1  -1   8   51.45    3.24 
   1   1   8   46.59    3.55 
  -1   1  -8   50.94    3.12 
  -1  -1  -8   47.66    3.34 
   1  -1   8   50.43    3.85 
   1   1   8   51.03    3.95 
  -1   1  -8   48.48    3.66 
  -1  -1  -8   52.89    4.03 
  -1   1  -8   48.68    8.52 
  -1  -1  -8   57.06    9.90 
   1  -1   8   50.03    3.13 
   1   1   8   43.34    3.19 
   1  -1   8   49.93    3.24 
   1   1   8   48.14    3.60 
   1  -1   9  163.16   14.40 
   1   1   9  171.68   14.87 
  -1   1  -9  159.64   13.65 
  -1  -1  -9  169.13   14.56 
  -1   1  -9  175.84   15.32 
  -1  -1  -9  167.41   14.56 
   1  -1   9  152.31   13.11 
   1   1   9  149.85   13.24 
  -1   1  -9  165.12   14.39 
   1  -1   9  175.68   14.75 
   1   1   9  194.60   16.23 
  -1   1  -9  159.02   13.57 
  -1  -1  -9  177.57   14.85 
   1  -1   9  158.28   13.53 
   1   1   9  187.10   15.73 
  -1   1  -9  129.08   15.00 
  -1  -1  -9  176.20   14.90 
  -1   1  -9  161.41   14.91 
  -1  -1  -9  173.82   16.17 
   1  -1   9  164.49   13.70 
   1   1   9  166.82   13.93 
   1  -1   9  154.29   14.85 
   1   1   9  163.57   13.90 
   1  -1  10   46.74    3.60 
   1   1  10   46.21    3.60 
  -1   1 -10   51.03    3.84 
  -1  -1 -10   46.91    3.67 
   1   1  10   27.46    4.29 
  -1   1 -10   51.07    5.48 
  -1  -1 -10   42.17    5.75 
  -1  -1 -10   52.88    8.89 
  -1   1 -10   52.08    5.58 
   1  -1  10   43.67    3.36 
   1   1  10   42.38    3.38 
   1  -1  10   48.79    3.99 
   1   1  10   44.26    4.94 
   1  -1  11   75.69    4.58 
   1   1  11   80.23    5.00 
  -1   1 -11   72.68    4.41 
  -1  -1 -11   63.22    3.91 
   1   1  11   70.80    4.30 
  -1   1 -11   70.25    5.10 
  -1  -1 -11   64.04    6.13 
  -1  -1 -11   69.32    5.45 
   1  -1  11   72.42    4.37 
   1   1  11   62.15    3.96 
   1  -1  11   70.01    4.98 
   1   1  11   62.95    4.26 
  -1   1 -12    7.26    2.55 
  -1  -1 -12    7.64    2.44 
   1  -1  12    5.07    2.46 
   1   1  12    2.69    2.14 
   1  -2 -12    4.36    3.90 
   1   2 -11   52.73    4.37 
   1   2 -11   51.69    4.78 
   1  -2 -11   43.91    4.56 
   1  -2 -11   55.39    5.76 
  -1  -2  11   55.94    4.69 
  -1   2  11   49.26    4.33 
  -1   2  11   51.71    4.99 
  -1  -2  10   11.53    2.72 
   1   2 -10   10.69    1.73 
  -1   2  10   12.68    3.00 
   1   2 -10    8.41    2.56 
   1  -2 -10    8.43    2.78 
  -1   2  10    8.23    6.52 
   1   2 -10   13.63    5.59 
   1  -2 -10   13.92    7.68 
  -1  -2  10   11.93    1.98 
  -1   2  10   10.24    3.00 
  -1  -2  10   12.54    3.08 
  -1   2  10   12.76    3.06 
  -1  -2   9   21.83    2.81 
   1   2  -9   26.29    2.78 
  -1   2   9   26.31    3.57 
   1   2  -9   31.67    4.32 
   1  -2  -9   22.41    3.31 
  -1  -2   9   26.23    5.45 
  -1   2   9   27.15   10.60 
   1  -2  -9   27.60    8.56 
  -1  -2   9   34.68    8.35 
  -1  -2   9   32.90    3.16 
  -1   2   9   27.67    3.13 
  -1  -2   9   33.38    3.62 
  -1   2   9   33.07    3.83 
  -1  -2   8   28.36    3.50 
   1   2  -8   26.52    2.87 
   1   2  -8   28.02    5.92 
   1  -2  -8   25.39    4.74 
  -1   2   8   29.14    4.66 
  -1  -2   8   25.93    2.94 
  -1   2   8   27.78    4.58 
  -1  -2   8   28.37    3.89 
  -1   2   8   29.29    5.00 
   1  -2  -8   28.97    5.71 
   1   2  -8   25.53    4.43 
   1   2  -8   27.19    3.87 
  -1  -2   8   27.70    2.29 
   1   2  -8   26.51    2.35 
  -1   2   8   24.19    2.74 
   1   2  -8   28.21    3.59 
   1  -2  -8   22.84    2.69 
  -1  -2   8   20.93    5.76 
  -1   2   8   25.20    6.79 
  -1  -2   8   29.14    8.46 
  -1   2   8   19.03   10.03 
  -1  -2   8   29.91    3.02 
  -1   2   8   28.70    3.20 
  -1  -2   8   23.10    2.20 
  -1   2   8   24.54    3.74 
  -1  -2   7  588.97   57.54 
  -1   2   7  641.02   61.87 
   1  -2  -7  592.40   57.22 
   1   2  -7  674.86   65.20 
   1  -2  -7  629.93   60.83 
  -1   2   7  575.90   55.68 
  -1  -2   7  585.75   57.36 
  -1   2   7  624.24   60.25 
  -1  -2   7  598.55   57.85 
  -1   2   7  627.69   60.60 
   1  -2  -7  643.41   62.33 
   1   2  -7  458.79   44.48 
   1   2  -7  587.34   56.75 
   1   2  -7  592.14   57.19 
  -1  -2   7  651.24   63.90 
  -1   2   7  598.29   57.59 
   1   2  -7  632.75   61.47 
   1  -2  -7  523.78   50.45 
  -1   2   7  380.69   65.61 
   1  -2  -7  569.14   54.90 
  -1  -2   7  650.27   62.81 
  -1  -2   7  661.47   66.79 
  -1   2   7  727.69   70.67 
  -1  -2   7  561.78   55.35 
  -1   2   7  691.50   67.34 
  -1  -2   7  651.96   63.52 
  -1   2   7  627.91   60.47 
  -1  -2   7  649.27   62.50 
  -1   2   7  680.19   65.52 
  -1  -2   6   18.64    1.80 
  -1   2   6   20.36    2.94 
   1   2  -6   21.49    1.81 
   1  -2  -6   19.67    2.77 
   1   2  -6   18.98    3.65 
   1  -2  -6   22.37    3.05 
  -1   2   6   20.93    3.14 
  -1  -2   6   23.56    2.06 
  -1   2   6   22.16    2.88 
  -1  -2   6   21.95    2.17 
  -1   2   6   21.50    3.39 
   1  -2  -6   21.75    3.46 
  -1  -2   6   17.95    3.22 
   1   2  -6   20.52    3.77 
   1  -2  -6   22.36    2.73 
   1   2  -6   21.02    3.85 
   1   2  -6   19.72    3.02 
  -1  -2   6   21.04    1.57 
  -1   2   6   21.31    1.53 
   1   2  -6   18.74    1.25 
   1  -2  -6   20.61    1.48 
  -1   2   6   23.64    2.97 
   1  -2  -6   21.27    1.83 
  -1  -2   6   23.70    2.33 
  -1  -2   6   17.77    3.96 
  -1   2   6   22.48    5.68 
  -1  -2   6   21.65    8.03 
  -1   2   6   23.92    8.46 
   1   2  -6   16.76    4.33 
  -1   2   6   18.22    2.32 
  -1  -2   6   21.74    2.04 
  -1   2   6   21.20    2.31 
  -1  -2   6   20.50    1.61 
  -1   2   6   20.06    2.63 
  -1  -2   5  291.18   13.48 
  -1   2   5  305.04   13.44 
   1   2  -5  314.20   13.58 
   1  -2  -5  296.53   11.93 
   1   2  -5  306.97   13.94 
   1  -2  -5  301.45   13.32 
  -1   2   5  300.03   12.14 
  -1  -2   5  214.55   19.39 
  -1   2   5  292.42   12.82 
  -1  -2   5  293.12   13.12 
  -1   2   5  315.00   14.01 
   1  -2  -5  302.57   13.39 
  -1  -2   5  293.28   13.22 
   1   2  -5  329.37   14.98 
   1  -2  -5  281.53   11.31 
   1   2  -5  302.79   13.92 
   1   2  -5  283.11   12.59 
   1   2  -5  306.45   13.03 
   1  -2  -5  278.37   11.93 
  -1  -2   5  318.76   13.75 
  -1  -2   5  245.43   17.81 
  -1   2   5  317.79   15.73 
  -1  -2   5  290.97   14.41 
  -1   2   5  321.09   16.73 
   1   2  -5  298.65   14.09 
  -1   2   5  233.10   19.96 
  -1  -2   5  283.33   12.78 
  -1   2   5  306.45   13.12 
  -1  -2   5  291.39   12.40 
  -1  -2   4  386.27   14.99 
  -1   2   4  394.54   15.16 
   1   2  -4  391.13   14.87 
   1  -2  -4  410.55   15.78 
   1   2  -4  433.49   16.86 
   1  -2  -4  395.08   15.24 
  -1  -2   4  403.70   15.38 
  -1   2   4  432.95   17.01 
  -1  -2   4  402.88   15.52 
  -1   2   4  425.86   16.43 
  -1   2   4  380.32   15.23 
   1   2  -4  378.76   14.39 
  -1  -2   4  412.68   15.93 
  -1   2   4  412.98   16.05 
   1  -2  -4  400.90   15.73 
  -1  -2   4  400.05   15.37 
   1   2  -4  408.66   16.03 
   1  -2  -4  377.63   14.60 
   1   2  -4  398.54   15.66 
   1   2  -4  405.25   16.06 
  -1  -2   4  396.25   15.26 
   1   2  -4  393.65   14.86 
  -1   2   4  383.62   15.40 
  -1   2   4  397.19   16.16 
  -1   2   4  392.08   16.40 
  -1  -2   4  376.66   14.82 
  -1   2   4  404.17   15.22 
  -1  -2   3  203.50    5.52 
  -1   2   3  197.09    5.54 
   1   2  -3  192.20    5.18 
   1  -2  -3  180.99    5.28 
   1   2  -3  190.79    5.48 
   1  -2  -3  181.64    5.16 
  -1  -2   3  194.64    5.04 
  -1   2   3  183.85    5.49 
  -1  -2   3  203.34    5.35 
  -1   2   3  190.90    5.49 
   1   2  -3  190.05    5.28 
  -1   2   3  180.90    5.01 
  -1  -2   3  182.49    4.89 
  -1   2   3  193.26    5.55 
   1  -2  -3  195.04    6.05 
  -1  -2   3  188.02    5.12 
   1   2  -3  197.93    6.46 
   1  -2  -3  179.31    5.02 
   1   2  -3  195.04    6.47 
   1   2  -3  194.08    5.98 
  -1  -2   2   75.39    3.02 
  -1   2   2   67.94    2.61 
   1   2  -2   70.34    3.00 
   1  -2  -2   66.37    2.59 
   1   2  -2   68.17    3.18 
   1  -2  -2   63.19    2.61 
  -1  -2   2   68.43    2.08 
  -1   2   2   71.62    3.36 
   1  -2  -2   81.84    3.61 
  -1  -2   2   69.81    2.93 
   1   2  -2   74.06    3.12 
  -1   2   2   82.35    3.36 
  -1  -2   2   74.62    2.47 
  -1   2   2   74.89    4.11 
   1  -2  -2   67.79    3.03 
  -1  -2   2   69.01    2.47 
   1   2  -2   73.44    3.08 
   1  -2  -2   70.54    2.76 
   1  -2  -2   66.59    2.58 
   1   2  -2   81.31    3.40 
   1  -2  -2   75.90    2.88 
   1   2  -2   82.34    4.18 
  -1   2   2   72.20    2.55 
   1  -2  -1  657.65   15.82 
  -1  -2   1  654.49   15.64 
  -1   2   1  638.43   15.30 
   1   2  -1  659.58   15.72 
   1  -2  -1  595.97   14.31 
   1  -2  -1  625.41   22.10 
  -1  -2   1  658.62   15.84 
  -1   2   1  697.12   16.93 
   1   2  -1  664.50   15.82 
   1  -2  -1  659.14   15.96 
  -1  -2   1  642.61   15.17 
   1   2  -1  681.14   16.53 
  -1   2   1  651.01   15.44 
  -1  -2   1  657.63   15.53 
  -1   2   1  664.32   16.05 
   1  -2  -1  650.89   15.62 
  -1  -2   1  680.14   16.21 
   1   2  -1  638.73   15.42 
   1   2  -1  641.44   15.46 
  -1   2   1  694.08   16.35 
   1   2  -1  689.43   16.51 
  -1   2   1  664.19   15.63 
   1  -2   0 5928.78  134.22 
   1   2   0 5946.66  135.40 
  -1   2   0 5961.84  135.08 
  -1  -2   0 5489.18  131.85 
   1   2   0 5617.16  127.38 
  -1   2   0 5598.17  128.90 
   1  -2   0 5522.63  125.53 
  -1  -2   0 5579.95  126.84 
   1   2   0 5669.93  128.56 
  -1   2   0 5793.04  131.45 
   1  -2   0 5633.44  127.80 
  -1  -2   0 5751.90  130.42 
   1  -2   0 5560.82  126.12 
  -1  -2   0 5504.14  124.77 
  -1   2   0 5771.76  130.55 
  -1  -2   0 5612.34  127.46 
   1   2   0 5558.82  126.13 
  -1   2   0 5885.03  133.12 
   1   2   0 5602.45  127.09 
  -1   2   0 5881.40  133.21 
   1  -2   1   72.28    2.51 
   1   2   1   66.82    3.09 
  -1   2  -1   66.33    2.41 
  -1  -2  -1   71.82    3.12 
  -1   2  -1   68.65    2.60 
  -1  -2  -1   69.17    2.81 
   1   2   1   75.46    3.24 
  -1   2  -1   79.52    3.19 
  -1  -2  -1   73.38    3.71 
   1  -2   1   75.29    2.87 
   1   2   1   76.13    3.31 
  -1   2  -1   74.33    2.98 
   1  -2   1   79.26    3.55 
   1   2   1   73.13    3.09 
  -1  -2  -1   75.94    3.36 
   1  -2   1   69.68    2.50 
  -1   2  -1   85.37    3.20 
  -1  -2  -1   74.08    3.03 
   1   2   1   77.79    3.23 
  -1   2  -1   74.55    3.22 
   1   2   1   82.57    3.30 
  -1   2  -1   75.23    3.59 
   1  -2   2 1424.44   33.29 
   1   2   2 1435.27   33.18 
  -1   2  -2 1472.77   34.62 
  -1  -2  -2 1455.90   33.67 
  -1   2  -2 1432.96   33.10 
  -1  -2  -2 1436.89   33.29 
   1  -2   2 1414.80   32.46 
   1   2   2 1409.42   32.64 
  -1  -2  -2 1403.54   32.56 
   1  -2   2 1337.58   30.94 
   1   2   2 1436.77   33.54 
  -1   2  -2 1479.77   33.92 
   1  -2   2 1411.42   32.71 
   1   2   2 1371.62   31.78 
  -1  -2  -2 1431.63   33.33 
   1  -2   2 1432.61   32.80 
  -1   2  -2 1432.32   33.17 
  -1  -2  -2 1349.97   31.23 
  -1   2  -2 1457.84   33.70 
  -1  -2  -2 1433.25   33.18 
   1   2   2 1498.35   34.58 
  -1   2  -2 1455.63   33.74 
   1  -2   3  313.32    8.03 
   1   2   3  327.72    8.39 
  -1   2  -3  317.87    7.78 
  -1  -2  -3  318.70    8.23 
  -1   2  -3  319.13    8.21 
  -1  -2  -3  312.35   12.27 
   1  -2   3  313.51    7.66 
   1   2   3  319.26    8.54 
  -1  -2  -3  335.87    8.83 
   1  -2   3  310.90    7.49 
   1   2   3  336.77    9.59 
  -1   2  -3  317.40    7.72 
   1  -2   3  332.97   12.91 
   1   2   3  316.30    8.09 
  -1  -2  -3  351.32   13.95 
   1  -2   3  328.15    8.11 
  -1   2  -3  339.72    8.71 
  -1  -2  -3  320.17    8.22 
  -1   2  -3  313.61   12.40 
  -1  -2  -3  317.11    8.00 
   1   2   3  324.52    8.18 
  -1   2  -3  325.96    8.53 
   1  -2   4  648.91   25.59 
   1   2   4  711.94   26.93 
  -1   2  -4  645.27   24.39 
  -1  -2  -4  634.94   24.00 
  -1   2  -4  562.15   21.43 
  -1  -2  -4  622.81   23.66 
   1  -2   4  637.55   23.97 
   1   2   4  661.10   25.06 
  -1  -2  -4  645.07   24.42 
   1  -2   4  534.59   33.90 
   1   2   4  650.00   24.70 
  -1   2  -4  640.64   25.04 
   1  -2   4  618.08   23.24 
   1   2   4  617.27   23.34 
  -1   2  -4  629.27   23.76 
  -1  -2  -4  636.99   24.31 
  -1   2  -4  640.62   24.45 
  -1  -2  -4  601.78   22.83 
  -1   2  -4  675.05   25.80 
  -1  -2  -4  587.71   22.22 
  -1   2  -4  624.14   23.71 
   1  -2   4  651.94   25.51 
   1   2   4  645.18   24.04 
  -1   2  -4  644.69   24.13 
  -1  -2  -4  605.57   22.57 
   1   2   4  632.08   23.61 
  -1  -2  -4  628.53   24.98 
  -1   2  -4  622.30   23.76 
   1   2   4  636.86   24.72 
   1  -2   4  604.12   22.71 
   1  -2   4  619.98   23.09 
   1   2   4  614.51   22.96 
   1  -2   5   59.15    3.24 
   1   2   5   57.25    3.80 
  -1   2  -5   60.64    3.05 
  -1  -2  -5   57.38    3.60 
  -1   2  -5   65.51    3.92 
  -1  -2  -5   62.73    4.38 
   1  -2   5   58.39    3.58 
   1   2   5   64.83    4.63 
  -1  -2  -5   64.50    4.22 
   1  -2   5   60.20    3.05 
   1   2   5   59.11    3.84 
  -1   2  -5   59.67    3.05 
   1  -2   5   58.13    3.07 
  -1   2  -5   62.66    3.49 
  -1  -2  -5   63.33    4.67 
  -1   2  -5   65.14    4.22 
  -1  -2  -5   66.47    4.15 
  -1   2  -5   64.80    3.98 
  -1   2  -5   59.08    3.83 
   1   2   5   58.31    2.90 
  -1  -2  -5   62.96    3.04 
  -1  -2  -5   74.32    3.81 
   1   2   5   63.07    6.11 
  -1  -2  -5   56.60    6.60 
  -1   2  -5   57.80    4.74 
   1  -2   5   66.01    3.14 
   1   2   5   57.84    2.77 
   1  -2   5   62.93    2.95 
   1   2   5   61.73    3.19 
   1  -2   6  523.80   27.15 
   1   2   6  515.35   25.43 
  -1   2  -6  574.56   28.95 
  -1  -2  -6  485.42   24.03 
  -1   2  -6  488.81   24.06 
   1  -2   6  558.60   27.37 
   1   2   6  540.55   26.68 
  -1  -2  -6  505.11   24.80 
   1  -2   6  495.53   25.95 
   1  -2   6  511.75   25.44 
   1   2   6  481.36   23.64 
  -1  -2  -6  515.63   25.53 
  -1   2  -6  500.02   24.72 
  -1  -2  -6  506.09   24.92 
  -1   2  -6  532.11   26.14 
  -1   2  -6  543.08   26.68 
   1  -2   6  467.48   37.00 
   1   2   6  543.67   26.38 
  -1   2  -6  517.64   27.25 
  -1  -2  -6  560.45   27.17 
   1  -2   6  522.99   25.58 
   1   2   6  528.75   25.73 
  -1   2  -6  518.66   25.28 
  -1  -2  -6  502.21   24.55 
   1   2   6  517.71   25.88 
  -1  -2  -6  538.23   28.21 
  -1   2  -6  517.18   25.43 
   1   2   6  513.95   25.53 
   1  -2   6  538.95   26.73 
   1   2   6  474.05   23.01 
   1  -2   6  518.82   25.28 
   1   2   6  525.99   25.53 
   1  -2   7  139.98   13.93 
   1   2   7  156.29   15.45 
  -1   2  -7  140.85   13.91 
  -1  -2  -7  141.90   14.03 
  -1   2  -7  153.70   15.39 
  -1  -2  -7  141.18   14.24 
   1  -2   7  132.57   13.17 
   1   2   7  132.65   13.53 
  -1  -2  -7  135.91   13.60 
   1  -2   7  116.64   11.79 
   1  -2   7  143.53   14.26 
   1   2   7  132.99   13.18 
  -1  -2  -7  138.97   13.92 
  -1   2  -7  136.22   13.71 
  -1   2  -7  138.63   13.85 
  -1   2  -7  139.53   13.89 
   1  -2   7  159.03   15.57 
   1   2   7  146.82   14.28 
  -1   2  -7  145.04   14.13 
  -1  -2  -7  146.45   14.22 
   1  -2   7  149.98   14.63 
   1   2   7  159.28   15.55 
  -1   2  -7  142.29   14.04 
  -1  -2  -7  131.00   13.23 
   1   2   7  130.79   14.19 
  -1  -2  -7  145.13   17.18 
  -1   2  -7  132.83   13.18 
   1   2   7  132.71   14.93 
   1  -2   7  148.90   14.50 
   1   2   7  129.48   12.64 
   1  -2   7  142.04   13.90 
   1   2   7  144.27   14.19 
   1  -2   8   75.96    5.75 
   1   2   8   68.35    5.95 
  -1   2  -8   71.23    5.10 
  -1  -2  -8   70.27    6.05 
  -1   2  -8   80.54    6.53 
  -1  -2  -8   71.03    5.56 
   1   2   8   79.93    6.63 
   1  -2   8   64.61    4.89 
   1   2   8   72.45    6.68 
  -1  -2  -8   61.57    5.41 
  -1   2  -8   62.59    5.90 
  -1   2  -8   65.59    5.77 
  -1   2  -8   68.13    6.01 
   1  -2   8   64.73    5.66 
   1   2   8   74.01    5.28 
  -1   2  -8   66.91    4.35 
  -1  -2  -8   69.98    5.07 
   1  -2   8   73.75    5.34 
   1   2   8   63.61    4.68 
  -1   2  -8   52.61    4.25 
  -1  -2  -8   64.92    4.93 
   1   2   8   62.87    8.65 
  -1  -2  -8   64.74    9.15 
   1   2   8   67.94    5.07 
   1  -2   8   70.16    4.46 
   1   2   8   64.27    4.49 
   1  -2   8   74.95    5.39 
   1   2   8   71.85    5.09 
   1  -2   9  164.01   13.86 
   1   2   9  169.47   14.32 
  -1   2  -9  167.70   13.96 
  -1  -2  -9  170.96   14.43 
   1   2   9  118.15   15.45 
  -1   2  -9  158.96   13.42 
  -1  -2  -9  166.38   14.02 
  -1  -2  -9  169.42   15.89 
   1  -2   9  152.73   12.77 
   1   2   9  142.28   12.00 
   1  -2   9  157.00   13.24 
   1   2   9  158.38   13.36 
   1  -2  10   13.26    3.14 
   1   2  10   10.72    3.05 
  -1   2 -10   11.35    2.55 
   1   2  10   12.26    3.05 
  -1   2 -10   19.83    4.70 
  -1  -2 -10   13.76    4.00 
  -1  -2 -10   26.67    9.61 
   1  -2  10   10.92    2.71 
   1   2  10    9.88    2.90 
   1  -2  10   12.94    3.49 
   1   2  10   14.39    3.74 
   1  -2  11    9.04    2.82 
   1   2  11   13.56    3.65 
  -1   2 -11   10.27    2.94 
   1   2  11   13.69    3.72 
  -1   2 -11   17.58    4.65 
  -1  -2 -11   14.00    3.92 
  -1  -2 -11   12.23    5.04 
   1  -2  11   13.12    3.49 
   1  -2  11   14.32    3.77 
   1   2  11   13.17    3.82 
  -1  -3  11   37.94    4.30 
   1   3 -11   40.86    4.62 
  -1   3  11   37.63    4.38 
   1   3 -11   41.10    4.88 
  -1   3  11   33.17    5.53 
   1  -3 -11   43.37    5.85 
  -1  -3  11   36.71    4.52 
  -1   3  11   36.63    4.51 
  -1   3  11   41.40    5.15 
  -1  -3  10   63.49    3.98 
   1   3 -10   66.83    4.08 
  -1   3  10   50.45   10.22 
   1   3 -10   68.35    4.91 
   1  -3 -10   70.60    7.92 
  -1   3  10   66.48    8.45 
   1  -3 -10   74.79   10.23 
  -1  -3  10   79.01    8.65 
  -1   3  10   65.80    4.34 
  -1   3  10   72.04    4.56 
  -1  -3   9   26.10    2.57 
  -1   3   9   28.07    3.10 
   1   3  -9   27.00    4.01 
   1  -3  -9   30.30    3.11 
  -1   3   9   35.78    7.09 
   1  -3  -9   25.75    8.07 
  -1  -3   9   30.27    2.84 
  -1   3   9   28.63    3.16 
  -1  -3   9   29.15    2.81 
  -1   3   9   27.75    3.25 
  -1  -3   8   55.65    5.82 
   1   3  -8   61.86    6.05 
   1   3  -8   64.51    7.53 
  -1   3   8   56.05    6.90 
   1  -3  -8   63.21    7.88 
  -1  -3   8   46.73    5.26 
  -1  -3   8   59.15    6.36 
  -1   3   8   62.79    7.23 
   1  -3  -8   61.25    7.20 
   1   3  -8   56.75    7.13 
   1   3  -8   62.78    7.56 
   1   3  -8   58.73    7.05 
  -1  -3   8   48.87    5.54 
   1   3  -8   67.49    6.42 
  -1   3   8   65.61    6.50 
   1   3  -8   66.11    6.83 
   1  -3  -8   58.98    6.20 
  -1  -3   8   65.58    7.66 
  -1   3   8   57.20    9.88 
   1  -3  -8   67.26   11.31 
  -1  -3   8   70.01    6.67 
  -1   3   8   61.91    6.50 
  -1  -3   8   52.53    5.55 
  -1   3   8   66.28    7.28 
  -1  -3   7  137.81    8.33 
   1   3  -7  154.92    9.18 
   1   3  -7  154.14    9.28 
  -1   3   7  140.55   10.55 
   1  -3  -7  133.16    8.14 
  -1  -3   7  139.05    8.03 
  -1   3   7  157.06   10.22 
   1  -3  -7  156.17    9.68 
   1   3  -7  143.79   10.09 
   1   3  -7  141.59    8.75 
  -1  -3   7  143.14    8.48 
   1   3  -7  146.22    8.22 
  -1   3   7  154.26    8.92 
   1  -3  -7  136.05    8.09 
  -1  -3   7  148.65    8.45 
  -1  -3   7  113.76    9.39 
  -1   3   7  154.78   12.43 
   1  -3  -7  147.94   11.73 
   1   3  -7  149.20    9.36 
  -1   3   7  133.20    8.68 
  -1  -3   7  154.39    8.91 
  -1   3   7  140.65    8.33 
  -1  -3   7  150.37    8.42 
  -1   3   7  154.42    9.15 
  -1  -3   6   16.03    2.45 
  -1   3   6   17.63    3.51 
   1   3  -6   17.94    2.13 
   1  -3  -6   16.62    3.73 
   1   3  -6   20.14    4.38 
  -1   3   6   16.57    4.45 
   1  -3  -6   13.53    4.95 
  -1  -3   6   13.44    2.47 
  -1  -3   6   18.00    2.60 
  -1   3   6   16.97    3.63 
   1  -3  -6   12.58    3.40 
  -1  -3   6   14.92    2.91 
   1   3  -6   13.01    5.82 
   1   3  -6   10.87    3.60 
   1   3  -6   15.27    3.57 
  -1  -3   6   16.29    1.97 
   1   3  -6   14.86    1.83 
  -1   3   6   12.79    2.92 
   1  -3  -6   11.47    1.80 
  -1  -3   6   15.21    2.28 
  -1  -3   6   17.23    5.57 
  -1   3   6   12.56    8.81 
   1  -3  -6   17.77    5.13 
   1   3  -6   20.01    5.04 
  -1   3   6   13.58    3.25 
  -1  -3   6   12.41    1.90 
  -1   3   6   15.14    2.45 
  -1  -3   6   13.02    1.95 
  -1   3   6   11.09    2.29 
  -1  -3   5  145.34   10.53 
  -1   3   5  157.91   11.35 
   1   3  -5  157.84   11.19 
   1  -3  -5  145.28   10.43 
   1   3  -5  157.14   11.58 
   1  -3  -5  143.53   10.41 
  -1   3   5  158.82   12.03 
   1  -3  -5  151.69   11.45 
  -1  -3   5  161.45   11.54 
  -1  -3   5  151.70   10.97 
  -1   3   5  147.17   10.75 
   1  -3  -5  156.28   11.69 
  -1  -3   5  123.95   11.71 
   1   3  -5  173.33   12.99 
   1   3  -5  158.83   11.60 
   1   3  -5  148.66   10.85 
  -1  -3   5  151.12   10.76 
   1   3  -5  148.46   10.33 
  -1   3   5  145.98   11.20 
  -1  -3   5  149.62   10.61 
  -1  -3   5  143.89   10.68 
  -1   3   5  156.27   13.06 
   1   3  -5  171.87   13.30 
  -1   3   5  159.22   11.67 
  -1  -3   5  138.14   11.36 
  -1   3   5  157.95   11.08 
  -1   3   5  150.42   10.64 
  -1  -3   4  366.94   16.06 
  -1   3   4  316.41   13.85 
   1   3  -4  347.19   14.96 
   1  -3  -4  358.70   15.62 
   1   3  -4  359.34   15.76 
   1  -3  -4  333.97   14.65 
  -1   3   4  334.19   14.85 
   1  -3  -4  337.55   14.86 
  -1  -3   4  335.69   14.59 
  -1   3   4  314.64   13.95 
   1   3  -4  346.09   14.92 
  -1  -3   4  332.61   14.45 
  -1   3   4  342.90   15.17 
   1  -3  -4  347.40   15.55 
  -1  -3   4  348.28   15.16 
   1   3  -4  312.64   13.99 
   1   3  -4  333.04   14.82 
   1   3  -4  338.41   15.04 
  -1  -3   4  362.95   15.75 
  -1   3   4  309.13   13.17 
   1   3  -4  345.67   14.63 
  -1   3   4  357.48   15.33 
   1   3  -4  319.96   13.67 
  -1  -3   4  311.89   13.87 
   1   3  -4  341.56   16.49 
  -1   3   4  344.92   14.98 
  -1  -3   4  355.47   15.45 
  -1   3   4  342.15   14.58 
  -1   3   4  351.18   14.97 
  -1  -3   3  456.29   17.71 
  -1   3   3  525.54   20.55 
   1   3  -3  476.13   18.42 
   1  -3  -3  432.30   17.08 
   1   3  -3  464.65   18.12 
   1  -3  -3  397.16   15.58 
  -1  -3   3  442.30   17.07 
  -1   3   3  515.80   20.38 
   1  -3  -3  453.84   17.81 
  -1  -3   3  434.37   16.79 
   1   3  -3  510.60   20.51 
  -1   3   3  472.76   18.55 
  -1  -3   3  462.30   17.88 
  -1   3   3  455.93   17.95 
   1  -3  -3  486.47   19.45 
  -1  -3   3  430.19   22.25 
   1   3  -3  472.35   18.64 
   1   3  -3  450.95   18.06 
   1   3  -3  440.40   18.07 
   1   3  -3  475.45   18.41 
   1   3  -3  432.10   16.58 
  -1  -3   3  477.12   18.28 
   1   3  -3  471.80   19.93 
  -1  -3   3  404.33   16.22 
  -1   3   3  455.98   17.63 
  -1   3   3  440.86   17.45 
   1  -3  -2   70.81    3.60 
  -1  -3   2   74.18    3.80 
  -1   3   2   73.51    3.91 
   1   3  -2   77.14    3.76 
   1   3  -2   71.45    3.46 
  -1   3   2   79.09    5.04 
   1   3  -2   78.89    3.51 
   1  -3  -2   71.22    3.91 
  -1  -3   2   75.57    3.66 
   1   3  -2   75.38    4.38 
  -1   3   2   72.89    3.70 
  -1  -3   2   74.71    3.74 
  -1   3   2   71.97    4.05 
   1  -3  -2   71.75    4.01 
  -1  -3   2   75.64    3.52 
   1   3  -2   65.68    3.66 
   1   3  -2   68.95    4.35 
   1   3  -2   68.80    4.45 
  -1   3   2   70.79    3.12 
   1   3  -2   68.36    2.82 
  -1  -3   2   69.76    2.88 
  -1   3   2   70.41    3.04 
   1   3  -2   62.17    7.93 
  -1   3   2   68.41    4.52 
  -1   3   2   66.00    3.16 
   1  -3  -1 1314.60   49.11 
  -1  -3   1 1258.60   47.07 
  -1   3   1 1300.62   48.53 
   1   3  -1 1287.57   48.07 
  -1  -3   1 1344.36   50.26 
  -1   3   1 1309.85   49.14 
   1   3  -1 1319.62   49.25 
   1  -3  -1 1287.86   48.32 
  -1  -3   1 1268.05   47.36 
   1   3  -1 1299.70   48.72 
  -1   3   1 1265.63   47.39 
   1  -3  -1 1320.34   49.46 
  -1  -3   1 1230.64   45.90 
   1  -3  -1 1265.51   47.50 
  -1  -3   1 1287.07   48.05 
   1   3  -1 1282.61   48.14 
   1   3  -1 1278.19   48.03 
  -1   3   1 1338.20   49.85 
   1   3  -1 1288.11   48.77 
  -1   3   1 1303.36   48.59 
  -1  -3   0 2773.23  105.42 
   1  -3   0 2665.50   99.08 
   1   3   0 2808.88  106.66 
  -1   3   0 2690.83  100.00 
  -1  -3   0 2575.48   95.63 
   1   3   0 2549.13   94.70 
  -1   3   0 2629.63   97.76 
   1  -3   0 2674.88   99.39 
  -1  -3   0 2641.94   98.13 
   1   3   0 2643.45   98.37 
  -1   3   0 2751.96  102.14 
   1  -3   0 2718.07  100.97 
  -1  -3   0 2754.58  102.33 
   1  -3   0 2494.59   92.69 
  -1  -3   0 2670.27   99.39 
   1   3   0 2773.71  105.19 
  -1   3   0 2635.20   97.75 
   1   3   0 2679.87   99.47 
  -1   3   0 2463.45   91.42 
   1   3   0 2504.89   93.09 
  -1   3   0 2738.31  101.61 
   1  -3   1  584.33   22.21 
   1   3   1  628.22   23.91 
  -1   3  -1  583.35   22.11 
  -1  -3  -1  555.36   21.13 
  -1  -3  -1  585.87   22.25 
   1   3   1  548.38   21.01 
  -1   3  -1  575.62   21.88 
  -1  -3  -1  612.81   23.32 
   1  -3   1  601.65   22.98 
   1   3   1  594.26   23.14 
  -1   3  -1  629.36   24.09 
  -1  -3  -1  595.23   22.61 
   1  -3   1  581.31   22.33 
  -1  -3  -1  602.55   23.27 
   1  -3   1  565.48   21.38 
   1   3   1  514.92   19.65 
  -1   3  -1  607.75   23.14 
   1   3   1  596.38   22.75 
  -1   3  -1  618.65   23.50 
   1   3   1  553.89   21.37 
  -1   3  -1  598.03   23.06 
   1  -3   2  413.28   15.70 
   1   3   2  429.58   16.61 
  -1   3  -2  391.38   14.90 
  -1  -3  -2  424.19   16.37 
  -1   3  -2  419.20   16.09 
  -1  -3  -2  405.06   16.85 
   1   3   2  412.60   16.21 
  -1   3  -2  403.90   15.41 
  -1  -3  -2  441.51   17.03 
   1  -3   2  401.67   15.46 
   1   3   2  371.77   14.85 
  -1   3  -2  467.90   17.79 
   1  -3   2  425.49   16.33 
   1   3   2  442.54   17.03 
  -1  -3  -2  419.46   16.24 
   1  -3   2  407.77   15.44 
  -1   3  -2  409.55   15.91 
  -1  -3  -2  392.18   15.12 
   1   3   2  400.64   15.41 
  -1   3  -2  420.96   16.25 
   1   3   2  429.53   16.51 
  -1   3  -2  405.42   15.68 
   1   3   2  418.40   16.79 
  -1   3  -2  355.49   19.09 
   1   3   2  401.06   15.91 
  -1   3  -2  397.03   14.86 
   1  -3   3  103.72    4.67 
   1   3   3  103.33    5.70 
  -1   3  -3  106.86    4.89 
  -1  -3  -3  105.30    5.25 
  -1   3  -3  111.25    5.01 
  -1  -3  -3   99.03    4.53 
   1  -3   3  111.92    4.81 
   1   3   3  106.83    5.23 
  -1  -3  -3  100.78    4.96 
   1  -3   3   90.44    4.50 
   1   3   3  110.21    5.49 
  -1   3  -3  110.53    4.91 
   1  -3   3  100.69    4.63 
   1   3   3  104.15    4.82 
  -1  -3  -3  117.38    6.73 
  -1   3  -3  109.03    5.38 
  -1   3  -3  102.81    5.35 
  -1   3  -3  110.85    5.50 
   1  -3   3   84.96    5.05 
  -1  -3  -3   99.94    4.59 
   1   3   3  101.59   15.16 
  -1   3  -3   99.84    4.12 
   1   3   3  104.40    7.75 
  -1  -3  -3  102.44    8.55 
   1  -3   4 1177.41   52.01 
   1   3   4 1296.81   55.09 
  -1   3  -4 1263.69   53.71 
  -1  -3  -4 1199.86   50.92 
  -1   3  -4 1199.38   50.77 
  -1  -3  -4 1158.68   49.14 
   1  -3   4 1173.61   49.67 
   1   3   4 1188.83   50.58 
  -1  -3  -4 1170.39   49.60 
   1  -3   4 1157.40   48.95 
   1   3   4 1170.43   49.65 
  -1   3  -4 1265.70   53.97 
   1   3   4 1133.52   48.10 
  -1  -3  -4 1192.43   50.56 
  -1   3  -4 1204.57   51.05 
  -1   3  -4 1216.73   51.70 
  -1   3  -4 1204.95   51.13 
   1  -3   4 1287.18   55.77 
   1   3   4 1295.03   54.47 
  -1   3  -4 1173.30   49.57 
  -1  -3  -4 1235.92   51.97 
   1   3   4 1094.99   46.13 
  -1   3  -4 1241.21   54.69 
  -1   3  -4 1153.32   48.58 
  -1  -3  -4 1100.75   46.47 
   1   3   4 1214.93   51.85 
  -1  -3  -4 1163.86   49.87 
  -1   3  -4 1266.52   54.12 
   1   3   4 1217.03   51.88 
   1  -3   4  975.84   47.62 
   1   3   4 1084.39   45.75 
   1   3   4 1145.24   48.21 
   1  -3   5  143.52   10.42 
   1   3   5  161.61   11.72 
  -1   3  -5  148.04   10.54 
  -1  -3  -5  135.76    9.87 
  -1   3  -5  158.37   11.49 
  -1  -3  -5  144.21   10.43 
   1  -3   5  142.71   10.13 
   1   3   5  144.60   11.12 
  -1  -3  -5  146.92   10.72 
   1  -3   5  137.78    9.87 
   1   3   5  142.64   10.48 
  -1   3  -5  144.37   10.22 
   1  -3   5  147.41   10.62 
   1   3   5  130.51    9.65 
  -1  -3  -5  139.77   10.30 
  -1   3  -5  137.54   10.07 
  -1   3  -5  156.67   11.73 
  -1   3  -5  138.67   10.14 
   1  -3   5  150.25   10.69 
   1   3   5  149.58   10.51 
  -1   3  -5  152.47   10.73 
  -1  -3  -5  143.42   10.06 
   1   3   5  129.97    9.23 
  -1   3  -5  139.42   10.24 
  -1   3  -5  131.26    9.17 
  -1  -3  -5  146.39   10.36 
   1   3   5  142.60   11.58 
  -1  -3  -5  142.54   11.87 
  -1   3  -5  140.95   12.30 
   1   3   5  140.25   10.47 
   1  -3   5  107.78   10.89 
   1   3   5  132.25    9.28 
   1  -3   5  137.02    9.70 
   1   3   5  145.37   10.23 
   1  -3   6   33.07    3.73 
   1   3   6   27.62    4.49 
  -1   3  -6   33.37    3.73 
  -1  -3  -6   34.50    4.72 
  -1   3  -6   31.77    4.12 
  -1  -3  -6   34.67    4.71 
   1  -3   6   35.01    4.07 
   1   3   6   33.30    4.68 
  -1  -3  -6   33.67    4.84 
   1  -3   6   32.12    3.56 
   1  -3   6   34.95    3.94 
   1   3   6   28.12    4.00 
  -1  -3  -6   31.66    4.68 
  -1   3  -6   26.84    4.08 
  -1   3  -6   23.01    3.94 
  -1   3  -6   29.62    4.20 
   1  -3   6   35.99    3.76 
   1   3   6   33.80    4.09 
  -1   3  -6   33.71    3.46 
  -1  -3  -6   27.87    3.23 
   1  -3   6   30.59    3.27 
   1   3   6   29.84    3.67 
  -1   3  -6   28.64    3.29 
  -1  -3  -6   31.70    3.50 
   1   3   6   25.58    9.38 
  -1  -3  -6   36.12    8.74 
  -1   3  -6   30.99    7.01 
   1   3   6   25.76    4.33 
   1  -3   6   33.64    3.50 
   1   3   6   30.35    3.30 
   1  -3   6   32.27    3.40 
   1   3   6   32.34    3.84 
   1  -3   7  208.49   12.19 
   1   3   7  253.75   14.27 
  -1   3  -7  212.58   12.02 
  -1  -3  -7  210.00   11.99 
  -1   3  -7  237.43   13.58 
  -1  -3  -7  216.31   12.46 
   1   3   7  184.54   14.31 
  -1  -3  -7  208.56   11.91 
   1  -3   7  209.78   11.70 
   1   3   7  203.75   11.97 
  -1  -3  -7  221.92   12.96 
  -1   3  -7  234.39   13.40 
  -1   3  -7  225.35   12.78 
  -1   3  -7  220.62   12.66 
   1  -3   7  208.07   13.81 
   1   3   7  230.45   12.52 
  -1   3  -7  198.49   14.89 
  -1  -3  -7  226.52   12.35 
   1   3   7  199.84   11.13 
  -1   3  -7  194.88   12.90 
  -1  -3  -7  202.19   14.64 
   1   3   7  216.71   13.62 
  -1  -3  -7  222.53   13.88 
  -1   3  -7  212.22   12.36 
   1   3   7  205.03   11.64 
   1  -3   7  226.50   12.86 
   1   3   7  202.59   11.12 
   1  -3   7  195.07   11.15 
   1   3   7  228.92   12.68 
   1  -3   8   34.15    4.75 
  -1   3  -8   33.72    4.55 
  -1  -3  -8   35.23    5.59 
   1   3   8   30.66    6.14 
   1  -3   8   40.12    4.62 
  -1  -3  -8   32.09    6.34 
  -1   3  -8   43.02    5.95 
  -1   3  -8   36.17    6.16 
  -1   3  -8   36.46    5.43 
   1  -3   8   39.17    4.03 
   1   3   8   36.39    3.95 
  -1   3  -8   38.84    3.92 
  -1  -3  -8   42.29    4.39 
   1   3   8   27.61    4.98 
  -1   3  -8   40.16    4.27 
  -1  -3  -8   40.13    4.45 
   1   3   8   34.77    6.91 
  -1  -3  -8   37.67   10.28 
  -1   3  -8   32.63    4.58 
   1   3   8   31.74    5.46 
   1  -3   8   30.36    3.34 
   1   3   8   35.56    4.17 
   1  -3   8   41.60    4.29 
   1   3   8   39.41    4.53 
   1  -3   9   33.70    3.19 
   1   3   9   34.96    3.63 
  -1   3  -9   36.58    3.31 
  -1  -3  -9   36.75    3.77 
   1   3   9   35.63    3.91 
  -1   3  -9   27.93    4.43 
  -1  -3  -9   25.08    3.68 
   1   3   9   34.23    5.09 
  -1  -3  -9   40.47    6.75 
   1   3   9   35.50    4.27 
   1  -3   9   38.39    3.45 
   1   3   9   29.21    3.10 
   1  -3   9   41.77    3.79 
   1   3   9   34.81    4.55 
   1  -3  10   31.01    5.87 
   1   3  10   36.68    8.82 
  -1   3 -10   32.90    5.94 
  -1  -3 -10   23.13    4.33 
   1   3  10   31.30    6.14 
  -1   3 -10   30.92    5.76 
  -1  -3 -10   28.39    5.51 
  -1  -3 -10   41.33    6.89 
   1  -3  10   25.82    4.86 
   1  -3  10   31.35    5.69 
   1   3  10   25.09    4.83 
   1  -3  11    1.75    1.61 
  -1   3 -11    3.04    1.64 
   1   3  11    2.28    2.16 
  -1  -3 -11    1.70    2.01 
  -1  -3 -11    3.39    4.01 
   1  -3  11    0.27    1.51 
   1  -3  11    1.26    1.88 
   1   3  11    2.71    2.18 
  -1  -4  10   13.41    3.36 
   1   4 -10   15.02    3.71 
  -1   4  10   10.16    3.14 
  -1   4  10   10.42    4.24 
  -1  -4  10   15.35    3.94 
  -1   4  10   14.39    3.75 
  -1   4  10   13.83    4.01 
  -1  -4   9  139.74   15.58 
   1   4  -9  151.43   16.46 
  -1   4   9  101.57   13.41 
  -1   4   9  142.52   16.36 
  -1  -4   9  156.51   16.96 
  -1   4   9  141.81   15.45 
  -1   4   9  146.28   15.97 
  -1  -4   8   13.32    2.15 
   1   4  -8   15.45    2.04 
  -1   4   8   14.65    2.92 
  -1   4   8    8.60    7.79 
   1  -4  -8    8.61    6.85 
   1   4  -8   13.85    4.36 
  -1   4   8   11.44    2.84 
  -1  -4   8   15.50    1.78 
  -1   4   8   13.94    2.36 
  -1   4   8   10.35    3.00 
  -1  -4   7  188.22   17.85 
   1   4  -7  217.58   20.09 
  -1   4   7  224.25   21.29 
   1  -4  -7  210.16   19.73 
  -1  -4   7  231.58   21.46 
  -1  -4   7  212.22   19.61 
  -1   4   7  208.01   19.58 
   1  -4  -7  219.90   20.94 
   1   4  -7  217.67   20.42 
   1   4  -7  212.25   19.80 
   1   4  -7  210.82   19.77 
  -1  -4   7  223.87   20.94 
   1   4  -7  236.21   21.78 
  -1   4   7  186.49   19.19 
  -1  -4   7  236.02   22.03 
  -1   4   7  236.92   23.53 
   1  -4  -7  226.17   21.55 
   1   4  -7  245.86   23.18 
  -1   4   7  222.35   20.67 
  -1  -4   7  231.99   21.38 
  -1   4   7  221.47   20.30 
  -1   4   7  232.24   21.32 
  -1  -4   6   39.91    3.40 
   1   4  -6   45.19    3.45 
  -1   4   6   40.78    4.62 
   1  -4  -6   45.16    4.78 
  -1  -4   6   45.52    3.22 
  -1  -4   6   47.41    3.39 
  -1   4   6   46.27    4.59 
   1  -4  -6   50.04    5.58 
   1   4  -6   57.21    5.99 
   1   4  -6   46.75    5.54 
   1   4  -6   50.82    5.03 
  -1  -4   6   34.05    3.97 
   1   4  -6   44.59    3.09 
  -1   4   6   53.75    3.70 
  -1  -4   6   42.36    4.82 
  -1   4   6   46.58    9.00 
   1  -4  -6   49.07    8.45 
   1   4  -6   56.65    8.64 
  -1   4   6   45.74    4.23 
  -1  -4   6   53.33    3.25 
  -1   4   6   52.49    3.57 
  -1   4   6   46.03    3.53 
  -1  -4   5  868.25   84.72 
  -1   4   5  866.57   83.61 
   1   4  -5  919.59   88.73 
   1   4  -5  894.17   86.25 
  -1   4   5  889.82   85.83 
   1  -4  -5  872.00   84.12 
  -1  -4   5  892.25   86.23 
  -1  -4   5  792.63   76.64 
  -1   4   5  890.13   85.86 
   1  -4  -5  873.69   84.36 
   1   4  -5  831.36   80.21 
   1   4  -5  826.91   79.82 
   1   4  -5  822.56   79.41 
  -1  -4   5  893.15   87.69 
   1   4  -5  882.90   85.13 
  -1   4   5  950.04   91.44 
   1   4  -5  826.00   79.48 
  -1  -4   5  874.81   84.69 
  -1   4   5  937.50   90.67 
   1  -4  -5  833.44   80.52 
   1   4  -5  896.65   86.82 
  -1   4   5  894.36   87.22 
  -1  -4   5 1027.13   99.15 
  -1   4   5  936.17   90.12 
  -1   4   5  845.23   81.44 
   1  -4  -4  821.02   40.04 
  -1  -4   4  798.87   39.85 
  -1   4   4  856.73   41.73 
   1   4  -4  875.72   42.56 
   1   4  -4  873.85   42.60 
  -1   4   4  814.37   45.09 
   1  -4  -4  871.00   42.48 
  -1  -4   4  825.18   40.63 
  -1   4   4  768.89   38.97 
   1   4  -4  871.60   42.34 
  -1  -4   4  824.01   40.42 
  -1   4   4  893.38   43.57 
   1  -4  -4  854.49   41.69 
  -1  -4   4  801.28   38.99 
   1   4  -4  885.61   43.20 
   1   4  -4  795.48   38.88 
   1   4  -4  820.48   40.04 
  -1  -4   4  587.28   59.88 
  -1   4   4  780.42   37.76 
   1   4  -4  877.40   43.87 
  -1   4   4  900.34   43.60 
   1   4  -4  836.29   40.51 
  -1   4   4  958.35   47.21 
   1  -4  -4  830.96   40.63 
   1   4  -4  822.88   54.76 
  -1   4   4  918.27   44.99 
  -1  -4   4  913.96   44.72 
  -1   4   4  848.28   41.07 
  -1   4   4  846.81   41.03 
   1  -4  -3   82.26    6.34 
  -1  -4   3   78.91    5.90 
  -1   4   3   71.34    5.59 
   1   4  -3   80.53    6.00 
   1   4  -3   75.90    5.90 
  -1   4   3   76.23    6.34 
   1  -4  -3   85.50    6.82 
  -1  -4   3   85.66    6.26 
   1   4  -3   83.78    6.33 
  -1   4   3   80.38    6.09 
  -1  -4   3   88.85    6.68 
  -1   4   3   87.01    7.14 
   1  -4  -3   87.09    7.19 
  -1  -4   3   81.94    5.96 
   1   4  -3   80.95    6.25 
   1   4  -3   80.56    7.06 
   1   4  -3   74.31    6.18 
   1   4  -3   85.37    6.05 
   1  -4  -3   72.05    5.33 
  -1  -4   3   88.87    6.28 
  -1   4   3   80.39    5.83 
   1   4  -3   84.09    6.02 
  -1  -4   3   86.57    6.15 
  -1   4   3   86.77   11.62 
   1   4  -3   80.87   11.45 
  -1   4   3   82.79    6.39 
  -1  -4   3   86.00    6.11 
  -1   4   3   81.62    6.15 
  -1   4   3   81.65    6.19 
   1  -4  -2 1311.31   55.47 
  -1  -4   2 1267.30   53.71 
  -1   4   2 1278.50   54.06 
   1   4  -2 1346.25   56.92 
  -1   4   2 1360.52   57.76 
   1   4  -2 1297.04   54.87 
   1  -4  -2 1271.47   53.87 
  -1  -4   2 1379.37   58.26 
   1   4  -2 1256.17   53.13 
  -1   4   2 1284.45   54.92 
   1  -4  -2 1263.86   53.56 
  -1  -4   2 1292.47   54.67 
   1  -4  -2 1234.59   52.46 
  -1  -4   2 1278.22   53.96 
   1   4  -2 1216.56   51.61 
   1   4  -2 1226.08   51.96 
   1   4  -2 1220.68   51.74 
   1   4  -2 1278.71   53.79 
   1  -4  -2 1214.87   51.17 
  -1  -4   2 1348.64   56.75 
  -1   4   2 1293.45   54.47 
   1   4  -2 1289.25   54.23 
  -1  -4   2 1358.52   57.11 
  -1   4   2 1278.37   54.38 
   1   4  -2 1210.24   55.02 
  -1   4   2 1141.10   79.44 
  -1  -4   2 1222.63   51.42 
  -1   4   2 1278.75   55.05 
  -1   4   2 1269.01   53.39 
   1  -4  -1   63.43    4.11 
  -1  -4   1   61.96    3.47 
  -1   4   1   59.91    3.63 
   1   4  -1   64.73    3.61 
  -1   4   1   58.48    3.63 
   1   4  -1   63.12    3.46 
   1  -4  -1   69.37    4.45 
  -1  -4   1   62.46    3.27 
   1   4  -1   65.15    3.76 
  -1   4   1   66.49    4.14 
   1  -4  -1   71.57    4.24 
  -1  -4   1   62.17    3.09 
   1  -4  -1   60.09    3.24 
  -1  -4   1   71.05    4.15 
   1   4  -1   72.78    3.99 
   1   4  -1   66.18    3.98 
   1   4  -1   64.47    3.67 
  -1   4   1   67.48    3.48 
  -1   4   1   58.89    2.53 
   1   4  -1   61.70    2.75 
   1  -4  -1   64.42    2.75 
  -1  -4   1   62.35    2.72 
  -1   4   1   64.39    2.88 
  -1  -4   1   68.59    2.94 
   1   4  -1   59.26    2.93 
  -1   4   1   63.34    3.49 
  -1   4   1   72.01    3.58 
  -1   4   1   65.10    2.94 
  -1  -4   0  345.19   13.97 
   1   4   0  323.53   13.05 
  -1   4   0  320.12   12.67 
   1   4   0  326.41   12.96 
  -1   4   0  317.34   12.82 
   1  -4   0  324.02   12.95 
  -1  -4   0  340.36   13.69 
   1   4   0  313.78   12.87 
  -1   4   0  351.72   13.94 
   1  -4   0  321.26   12.84 
  -1  -4   0  317.28   12.62 
   1  -4   0  280.46   12.10 
  -1  -4   0  332.73   13.37 
   1   4   0  324.11   12.91 
  -1   4   0  329.95   13.00 
   1   4   0  317.76   12.65 
  -1   4   0  340.70   13.51 
   1   4   0  311.19   12.03 
  -1  -4   0  332.01   12.86 
   1  -4   0  276.80   12.16 
  -1   4   0  328.12   12.62 
   1   4   0  329.59   12.71 
   1  -4   0  318.17   12.26 
  -1  -4   0  345.14   13.36 
   1   4   0  306.56   12.01 
  -1   4   0  324.09   12.64 
  -1   4   0  329.24   12.70 
   1   4   0  309.25   11.95 
  -1   4   0  319.90   12.29 
  -1  -4  -1  579.95   22.49 
   1  -4   1  557.02   21.52 
   1   4   1  546.67   21.26 
  -1   4  -1  537.27   20.76 
   1   4   1  533.86   20.82 
  -1   4  -1  524.39   20.29 
  -1  -4  -1  609.08   23.73 
   1  -4   1  548.96   21.33 
   1   4   1  548.76   21.38 
  -1   4  -1  543.88   21.28 
  -1  -4  -1  562.97   21.85 
   1  -4   1  538.90   20.92 
  -1  -4  -1  530.94   26.13 
   1  -4   1  507.70   19.65 
  -1   4  -1  552.14   21.46 
   1   4   1  523.15   20.43 
  -1   4  -1  532.29   20.66 
   1   4   1  529.88   20.22 
  -1  -4  -1  566.04   21.59 
   1  -4   1  552.16   21.03 
  -1   4  -1  534.56   20.46 
   1  -4   1  541.54   20.66 
   1   4   1  491.35   20.35 
   1   4   1  561.95   21.91 
  -1   4  -1  592.18   22.80 
   1   4   1  530.79   20.33 
  -1   4  -1  561.95   21.43 
  -1   4  -1  573.66   21.88 
   1  -4   2  476.88   20.47 
  -1   4  -2  476.61   20.49 
   1   4   2  453.73   19.60 
  -1   4  -2  427.06   18.43 
  -1  -4  -2  481.74   20.88 
   1  -4   2  486.56   20.89 
   1   4   2  453.80   19.74 
  -1   4  -2  457.96   19.66 
  -1  -4  -2  457.26   19.74 
   1  -4   2  445.76   19.18 
  -1  -4  -2  454.76   19.71 
  -1   4  -2  443.02   19.14 
  -1   4  -2  469.56   20.28 
  -1   4  -2  462.28   19.93 
   1   4   2  452.61   19.25 
  -1  -4  -2  441.78   18.82 
   1   4   2  435.17   18.45 
  -1   4  -2  443.47   18.86 
   1   4   2  447.12   18.97 
  -1   4  -2  459.85   19.47 
  -1  -4  -2  470.76   19.98 
   1  -4   2  403.43   17.80 
  -1  -4  -2  424.31   19.41 
  -1   4  -2  490.10   22.17 
   1   4   2  466.72   20.33 
  -1   4  -2  451.99   19.22 
   1   4   2  453.24   19.24 
  -1   4  -2  491.71   20.89 
   1   4   2  411.24   17.49 
  -1   4  -2  464.73   19.85 
   1  -4   3  106.75    7.69 
   1   4   3  115.20    9.13 
  -1   4  -3  108.34    7.88 
  -1  -4  -3  114.38    8.62 
   1  -4   3  101.34    7.28 
   1   4   3  101.14    7.76 
  -1  -4  -3  119.36    9.20 
   1  -4   3   99.60    7.15 
   1   4   3   94.83    7.65 
  -1   4  -3   99.84    7.23 
  -1  -4  -3  104.70    7.82 
   1  -4   3  104.95    7.73 
  -1  -4  -3  112.00    8.56 
  -1   4  -3  103.05    7.63 
  -1   4  -3  101.63    7.62 
  -1   4  -3  101.35    7.80 
   1  -4   3  104.34    7.38 
   1   4   3  101.81    7.48 
  -1   4  -3  109.74    7.69 
  -1  -4  -3  102.13    7.43 
   1   4   3   94.40    6.77 
  -1   4  -3  100.58    7.08 
   1   4   3   97.87    7.09 
  -1   4  -3  105.35    7.43 
  -1  -4  -3   97.23    9.41 
  -1   4  -3  108.70    9.93 
   1   4   3  100.09    7.80 
  -1   4  -3   95.61    6.85 
   1  -4   3  103.54    7.29 
   1   4   3   93.49    6.68 
   1   4   3   91.73    6.51 
   1  -4   4   12.52    1.65 
   1   4   4   17.93    3.79 
  -1   4  -4   12.80    2.20 
  -1  -4  -4   17.29    3.38 
   1  -4   4   13.54    1.85 
   1   4   4   11.76    3.55 
  -1  -4  -4   12.93    3.29 
   1  -4   4   12.33    1.67 
   1   4   4    9.67    2.72 
  -1   4  -4   13.08    2.03 
   1  -4   4   14.09    2.01 
   1   4   4   12.25    2.75 
  -1  -4  -4   10.58    4.41 
  -1   4  -4   13.51    3.44 
  -1   4  -4   12.08    3.66 
  -1   4  -4   11.73    2.79 
   1  -4   4   13.39    1.28 
   1   4   4   14.96    2.51 
  -1   4  -4   13.74    1.27 
  -1  -4  -4   12.49    2.32 
   1   4   4   15.39    2.28 
  -1   4  -4   12.85    1.17 
  -1   4  -4   12.37    1.30 
   1   4   4   10.16    6.43 
  -1  -4  -4    8.91    4.80 
  -1   4  -4   15.89    5.85 
   1   4   4   11.44    3.74 
   1  -4   4   11.17    1.57 
   1   4   4   13.63    1.74 
   1   4   4   11.87    1.71 
   1  -4   5   92.88    9.34 
   1   4   5   99.66   10.24 
  -1   4  -5   95.22    9.48 
   1   4   5   95.79    9.94 
  -1  -4  -5  101.15   10.51 
   1  -4   5   89.33    8.96 
   1   4   5   96.53   10.22 
  -1   4  -5   92.53    9.30 
   1  -4   5   89.25    9.03 
   1   4   5   91.67    9.40 
  -1  -4  -5   98.86   10.50 
  -1   4  -5   96.48   10.05 
  -1   4  -5   94.32   10.62 
  -1   4  -5  100.31   10.20 
   1  -4   5   90.82    8.99 
   1   4   5   99.05    9.76 
  -1   4  -5   90.48    8.97 
  -1  -4  -5   95.47    9.40 
   1   4   5   97.04    9.61 
  -1   4  -5  100.36    9.79 
   1   4   5   97.18   11.68 
  -1  -4  -5   95.50   10.65 
  -1   4  -5  108.32   11.70 
   1   4   5   98.65   10.12 
   1  -4   5  104.27   10.27 
   1   4   5   87.80    8.65 
   1  -4   5   91.74    8.97 
   1   4   5   85.10    8.53 
   1  -4   6   15.46    2.58 
   1   4   6   17.43    4.79 
  -1   4  -6   14.65    2.99 
  -1  -4  -6   13.25    3.50 
   1   4   6   17.71    4.45 
  -1  -4  -6   14.47    4.07 
   1  -4   6   14.46    2.24 
   1  -4   6   14.17    2.64 
   1   4   6   11.45    3.99 
  -1  -4  -6    8.83    6.02 
  -1   4  -6   17.75    4.09 
  -1   4  -6   14.69    3.72 
  -1   4  -6   13.76    3.39 
   1  -4   6   15.72    2.07 
   1   4   6   17.08    2.75 
  -1   4  -6   17.48    1.90 
  -1  -4  -6   12.26    2.42 
   1   4   6   14.98    2.57 
  -1   4  -6   14.36    1.27 
   1   4   6   10.24    5.88 
  -1  -4  -6   13.05    7.34 
  -1   4  -6   13.24    5.61 
   1   4   6   14.43    4.71 
   1  -4   6   14.97    1.59 
   1   4   6   12.73    1.81 
   1  -4   6   15.99    2.22 
   1   4   6   13.53    2.34 
   1  -4   7    7.10    3.37 
   1   4   7    9.40    4.01 
  -1   4  -7    8.31    2.99 
   1   4   7    7.71    5.40 
   1  -4   7    9.12    2.52 
  -1  -4  -7   12.52    4.01 
  -1   4  -7   15.62    5.19 
  -1   4  -7    8.51    3.86 
  -1   4  -7    6.26    5.31 
   1  -4   7    9.58    1.78 
   1   4   7   10.44    4.02 
  -1   4  -7   10.37    2.37 
  -1  -4  -7    9.88    2.22 
   1   4   7   11.66    2.85 
   1   4   7    7.76    6.02 
  -1  -4  -7    6.99    7.25 
  -1   4  -7   -0.48    4.29 
   1   4   7    6.17    3.51 
   1  -4   7    9.21    1.74 
   1  -4   7    8.16    1.73 
   1   4   7    9.43    2.42 
   1  -4   8  164.35   13.73 
   1   4   8  165.09   13.53 
  -1   4  -8  172.40   14.28 
  -1  -4  -8  166.14   13.65 
   1   4   8  148.18   12.37 
   1   4   8  154.58   14.20 
  -1  -4  -8  152.94   13.89 
  -1   4  -8  149.42   13.24 
   1   4   8  152.18   13.44 
   1  -4   8  148.44   13.18 
   1  -4   8  121.33   10.59 
   1   4   8  146.06   12.04 
   1  -4   9  229.53   25.30 
   1   4   9  207.38   22.46 
  -1   4  -9  237.95   25.87 
  -1  -4  -9  245.69   26.45 
   1   4   9  218.03   23.62 
  -1  -4  -9  202.21   21.89 
  -1  -4  -9  226.46   25.49 
   1   4   9  189.48   20.63 
   1  -4   9  232.91   25.17 
   1  -4   9  215.95   23.31 
   1   4   9  215.60   23.34 
   1  -4  10   80.47   10.19 
  -1   4 -10  106.33   10.22 
   1   4  10  142.16   11.30 
  -1  -4 -10  181.57   15.12 
   1  -4  10  133.68   10.57 
   1  -4  10  132.22   10.42 
   1   4  10  128.31   10.19 
  -1   5  10  177.36   19.15 
  -1  -5  10  175.91   19.39 
  -1   5  10  173.51   18.74 
  -1  -5   9    7.66    2.40 
   1   5  -9    7.97    2.28 
  -1   5   9    8.96    2.99 
   1  -5  -9    5.13    2.78 
   1  -5  -9    7.23    4.56 
  -1  -5   9    7.26    2.48 
  -1   5   9    7.94    2.86 
  -1   5   9    4.90    2.67 
  -1  -5   8   25.95    5.19 
   1   5  -8   26.30    5.07 
  -1   5   8   28.27    5.92 
  -1   5   8   24.36    8.06 
   1  -5  -8   22.79    6.20 
   1   5  -8   21.59    5.68 
  -1   5   8   25.00    4.99 
  -1  -5   8   26.75    5.09 
  -1   5   8   31.42    6.26 
  -1   5   8   26.56    5.39 
  -1  -5   7    5.02    1.42 
   1   5  -7    4.53    1.21 
  -1   5   7    3.82    2.33 
  -1   5   7    5.49    9.21 
   1  -5  -7    2.96    4.56 
   1   5  -7    5.10    4.67 
  -1   5   7    7.23    2.96 
  -1  -5   7    6.28    1.64 
  -1   5   7    3.97    2.36 
  -1   5   7    7.08    2.93 
  -1  -5   6  285.34   23.99 
   1   5  -6  316.81   26.58 
  -1  -5   6  278.75   24.69 
   1   5  -6  279.26   23.90 
  -1   5   6  328.31   27.30 
   1   5  -6  320.68   26.54 
  -1  -5   6  263.57   24.32 
  -1   5   6  313.18   27.30 
   1  -5  -6  310.46   26.17 
   1   5  -6  353.39   30.10 
  -1   5   6  322.31   26.95 
  -1  -5   6  325.57   27.06 
  -1   5   6  316.49   26.35 
  -1   5   6  323.25   26.87 
  -1  -5   5   13.52    2.82 
   1   5  -5   16.57    2.42 
  -1   5   5   20.65    5.78 
   1  -5  -5   18.39    4.49 
  -1  -5   5   18.86    2.27 
   1  -5  -5   16.57    3.77 
  -1  -5   5   18.94    2.87 
   1  -5  -5   18.68    5.31 
   1   5  -5   20.76    3.96 
   1   5  -5   17.85    4.84 
  -1  -5   5   16.65    2.46 
   1   5  -5   20.47    2.50 
  -1   5   5   20.19    2.83 
   1   5  -5   17.88    1.73 
  -1  -5   5   18.66    4.04 
  -1   5   5   20.41    8.77 
   1   5  -5   21.42    8.21 
  -1   5   5   19.85    3.04 
  -1  -5   5   20.41    2.22 
  -1   5   5   20.16    2.43 
  -1   5   5   20.68    4.19 
  -1  -5   4  574.35   31.58 
   1   5  -4  639.10   42.32 
  -1   5   4  569.36   31.00 
   1  -5  -4  653.08   38.94 
  -1  -5   4  625.47   33.67 
  -1   5   4  547.54   31.22 
   1   5  -4  609.01   32.81 
   1  -5  -4  628.46   34.11 
  -1  -5   4  594.93   32.29 
   1  -5  -4  627.61   34.11 
   1   5  -4  599.91   32.64 
   1   5  -4  618.36   33.45 
  -1  -5   4  634.19   34.52 
   1   5  -4  685.78   41.06 
  -1   5   4  664.73   39.28 
   1   5  -4  638.29   37.70 
  -1   5   4  688.88   41.53 
   1   5  -4  676.91   40.91 
  -1   5   4  640.04   37.96 
  -1  -5   4  607.48   43.35 
  -1   5   4  646.30   38.27 
  -1   5   4  637.09   37.66 
   1  -5  -3  271.35   18.00 
  -1  -5   3  286.34   19.03 
  -1   5   3  264.72   17.56 
   1   5  -3  274.22   18.18 
  -1   5   3  309.86   20.76 
   1  -5  -3  286.00   19.24 
  -1  -5   3  249.56   16.94 
   1   5  -3  274.42   18.14 
  -1   5   3  250.29   16.95 
   1  -5  -3  267.50   17.88 
  -1  -5   3  272.02   18.06 
   1  -5  -3  262.47   17.51 
   1   5  -3  272.16   18.40 
   1   5  -3  285.81   19.14 
  -1   5   3  264.20   17.22 
   1   5  -3  303.24   19.78 
   1  -5  -3  253.94   16.55 
  -1  -5   3  318.54   20.91 
  -1   5   3  273.03   17.91 
   1   5  -3  269.09   17.57 
  -1  -5   3  295.27   19.21 
  -1   5   3  282.27   19.63 
   1   5  -3  284.86   19.66 
  -1   5   3  236.14   15.61 
  -1  -5   3  247.00   19.48 
  -1   5   3  278.89   18.37 
  -1   5   3  267.68   17.50 
   1  -5  -2   40.75    4.29 
  -1  -5   2   38.71    3.69 
  -1   5   2   39.16    3.64 
   1   5  -2   36.13    3.78 
  -1   5   2   35.47    3.42 
   1  -5  -2   42.57    4.82 
  -1  -5   2   37.71    3.48 
   1   5  -2   38.86    3.66 
  -1   5   2   34.94    3.26 
   1  -5  -2   42.56    4.93 
  -1  -5   2   39.11    3.17 
   1  -5  -2   37.08    3.78 
  -1  -5   2   34.83    3.54 
   1   5  -2   36.11    3.59 
   1   5  -2   35.94    3.79 
  -1   5   2   36.85    2.73 
   1   5  -2   41.29    2.84 
   1  -5  -2   36.52    2.69 
  -1  -5   2   42.72    2.90 
  -1   5   2   38.77    2.98 
   1   5  -2   38.41    2.85 
  -1   5   2   35.48    2.79 
   1  -5  -2   44.27    4.23 
  -1  -5   2   42.99    3.09 
   1   5  -2   43.62    8.69 
  -1   5   2   41.79    3.27 
  -1  -5   2   39.68    3.05 
  -1   5   2   41.75    3.35 
  -1   5   2   39.72    2.86 
  -1  -5   1  154.54   10.78 
   1  -5  -1  147.50    9.23 
  -1   5   1  162.84   10.05 
   1   5  -1  153.62    9.68 
  -1   5   1  130.18    8.22 
   1  -5  -1  142.46    9.41 
  -1  -5   1  139.32    8.60 
   1   5  -1  140.03    9.07 
  -1   5   1  128.28    8.10 
   1  -5  -1  136.15    8.58 
  -1  -5   1  129.94    8.00 
   1  -5  -1  118.91    7.66 
  -1  -5   1  132.80    8.45 
   1   5  -1  136.22    8.65 
  -1   5   1  143.26    8.50 
   1   5  -1  135.10    8.04 
   1  -5  -1  127.42    7.62 
  -1  -5   1  144.06    8.53 
  -1   5   1  133.15    7.94 
   1   5  -1  125.72    7.79 
  -1   5   1  127.79    7.89 
   1  -5  -1  126.97    7.78 
  -1  -5   1  134.60    8.00 
   1   5  -1  140.13   13.26 
   1   5  -1  134.90    8.16 
  -1   5   1  138.19    8.43 
  -1  -5   1  113.71    8.21 
  -1   5   1  132.19    7.99 
  -1   5   1  128.64    7.78 
  -1  -5   0   95.08    6.55 
   1  -5   0   83.19    4.67 
   1   5   0   89.12    5.91 
  -1   5   0   82.14    4.69 
   1   5   0   82.57    4.70 
  -1   5   0   86.41    5.04 
   1  -5   0   90.49    6.10 
  -1  -5   0   87.33    4.98 
   1   5   0   87.19    5.98 
  -1   5   0   93.04    5.45 
   1  -5   0   90.07    5.68 
  -1  -5   0   88.78    5.12 
  -1  -5   0   80.02    5.26 
   1   5   0   87.69    5.30 
  -1   5   0   83.56    4.77 
   1   5   0   90.48    5.84 
  -1   5   0   83.24    5.03 
  -1  -5   0   91.39    5.15 
   1  -5   0   81.31    4.94 
  -1   5   0   90.34    4.65 
   1   5   0   92.86    5.25 
  -1   5   0   90.38    5.54 
   1  -5   0   91.70    4.98 
  -1  -5   0   90.18    4.78 
  -1   5   0   89.08    6.15 
   1   5   0   88.71    5.60 
  -1   5   0   88.28    5.50 
  -1   5   0   86.92    4.73 
   1   5   0   86.62    5.33 
  -1   5   0   90.00    4.67 
  -1  -5  -1  152.52    9.50 
   1  -5   1  154.62    9.59 
   1   5   1  150.70    9.43 
  -1   5  -1  155.59    9.59 
   1   5   1  148.30    9.26 
  -1   5  -1  146.95    9.11 
  -1  -5  -1  152.18    9.61 
   1  -5   1  140.90    8.72 
   1   5   1  139.23    8.92 
  -1   5  -1  138.83    8.81 
  -1  -5  -1  145.91    8.92 
   1  -5   1  143.23    8.90 
  -1  -5  -1  141.01    8.85 
  -1   5  -1  152.93    9.49 
   1   5   1  144.70    8.67 
  -1   5  -1  149.69    8.83 
  -1  -5  -1  146.10    8.68 
   1  -5   1  158.54    9.32 
   1   5   1  140.73    8.33 
  -1   5  -1  143.79    8.51 
   1   5   1  148.04    8.95 
  -1   5  -1  149.91    8.89 
  -1  -5  -1  155.54    9.29 
   1  -5   1  142.22    8.41 
   1   5   1  166.26   11.75 
  -1   5  -1  131.02   11.83 
   1   5   1  146.76    9.00 
  -1   5  -1  158.26    9.39 
   1   5   1  142.10    8.43 
  -1   5  -1  156.89    9.31 
  -1   5  -1  147.86    8.75 
  -1  -5  -2  538.64   31.56 
   1  -5   2  595.15   34.68 
   1   5   2  599.20   35.07 
  -1   5  -2  589.43   34.43 
   1  -5   2  528.44   30.98 
   1   5   2  593.25   34.81 
  -1  -5  -2  596.56   35.08 
   1  -5   2  573.35   33.53 
   1   5   2  528.99   31.09 
  -1   5  -2  564.91   33.34 
  -1  -5  -2  547.20   32.01 
   1  -5   2  530.50   31.04 
  -1  -5  -2  583.03   34.22 
  -1   5  -2  582.93   34.13 
  -1   5  -2  545.01   31.90 
   1  -5   2  535.37   31.24 
   1   5   2  522.58   30.37 
  -1   5  -2  558.48   32.52 
  -1  -5  -2  578.88   33.63 
   1   5   2  543.97   31.58 
  -1   5  -2  568.31   33.00 
   1   5   2  531.77   30.96 
  -1   5  -2  581.20   33.79 
  -1  -5  -2  577.76   33.59 
   1  -5   2  425.56   29.39 
  -1   5  -2  563.44   35.28 
   1   5   2  533.08   31.14 
  -1   5  -2  546.94   32.21 
   1  -5   2  649.90   37.70 
   1   5   2  534.91   31.09 
   1   5   2  488.11   28.34 
  -1   5  -2  591.34   34.58 
  -1  -5  -3   54.31    4.60 
   1  -5   3   51.93    4.10 
   1   5   3   49.93    4.44 
  -1   5  -3   50.99    3.93 
   1  -5   3   44.57    3.42 
   1   5   3   41.06    4.15 
  -1  -5  -3   52.89    5.31 
   1   5   3   47.65    4.34 
  -1   5  -3   47.75    3.86 
  -1  -5  -3   49.92    4.71 
   1  -5   3   48.62    4.52 
  -1  -5  -3   46.46    4.58 
  -1   5  -3   48.86    4.47 
  -1   5  -3   46.71    4.16 
   1  -5   3   34.84    4.94 
   1   5   3   46.49    3.74 
  -1   5  -3   43.17    4.18 
  -1  -5  -3   51.66    3.88 
   1   5   3   53.48    4.17 
  -1   5  -3   48.57    3.47 
   1   5   3   49.14    3.91 
  -1   5  -3   52.14    3.73 
  -1  -5  -3   48.87    4.00 
   1  -5   3   48.72    3.31 
  -1  -5  -3   48.63    6.79 
  -1   5  -3   43.87    6.09 
   1   5   3   51.40    5.14 
  -1   5  -3   43.84    3.10 
   1  -5   3   52.13    3.79 
   1   5   3   46.84    3.62 
   1   5   3   44.22    3.38 
  -1  -5  -4  424.27   23.16 
   1  -5   4  411.25   23.56 
   1   5   4  403.44   21.98 
  -1   5  -4  403.32   22.29 
   1   5   4  417.16   22.99 
  -1  -5  -4  429.52   23.44 
   1  -5   4  425.00   22.91 
   1   5   4  408.25   22.68 
  -1   5  -4  388.32   21.23 
  -1  -5  -4  423.77   23.25 
   1  -5   4  399.38   22.33 
  -1  -5  -4  422.52   23.40 
  -1   5  -4  400.29   21.98 
  -1   5  -4  435.17   23.88 
   1  -5   4  465.38   25.66 
   1   5   4  415.46   22.30 
  -1   5  -4  395.23   21.68 
  -1  -5  -4  408.04   21.96 
   1   5   4  432.66   23.28 
  -1   5  -4  437.15   23.44 
  -1  -5  -4  421.03   22.68 
  -1  -5  -4  402.12   24.26 
  -1   5  -4  461.50   25.64 
   1   5   4  432.82   23.49 
   1  -5   4  432.45   23.88 
   1   5   4  420.40   22.62 
   1  -5   4  413.70   22.25 
   1   5   4  391.85   21.10 
  -1  -5  -5  542.48   34.86 
   1  -5   5  555.60   36.48 
   1   5   5  572.42   36.68 
  -1   5  -5  536.27   34.57 
   1   5   5  547.58   35.18 
  -1  -5  -5  584.98   37.48 
   1  -5   5  525.27   33.47 
   1   5   5  522.50   33.60 
   1  -5   5  536.03   34.28 
  -1  -5  -5  568.04   36.68 
  -1   5  -5  568.08   36.49 
  -1   5  -5  579.88   39.98 
   1  -5   5  545.31   38.57 
   1   5   5  559.89   35.58 
  -1   5  -5  558.38   37.26 
  -1  -5  -5  555.82   35.31 
   1   5   5  583.38   37.08 
  -1   5  -5  568.26   36.35 
  -1  -5  -5  600.21   38.17 
  -1  -5  -5  460.53   31.41 
  -1   5  -5  621.66   40.14 
   1   5   5  565.08   36.11 
   1  -5   5  464.47   40.56 
   1   5   5  545.77   34.67 
   1  -5   5  547.30   35.52 
   1   5   5  539.22   34.25 
   1  -5   6  287.97   36.37 
   1   5   6  343.62   28.52 
  -1   5  -6  353.60   32.19 
  -1  -5  -6  337.86   28.01 
   1   5   6  335.79   27.82 
  -1   5  -6  334.05   27.76 
  -1  -5  -6  341.02   28.28 
  -1  -5  -6  461.89   41.28 
  -1   5  -6  393.80   32.92 
   1   5   6  341.39   28.51 
   1  -5   6  381.10   31.63 
   1  -5   6  335.52   27.85 
   1   5   6  321.27   26.59 
   1  -5   7    3.86    1.73 
   1   5   7    5.27    2.04 
  -1   5  -7    4.85    1.62 
  -1  -5  -7    6.52    2.12 
   1   5   7    5.69    2.95 
  -1  -5  -7    8.57    2.79 
  -1  -5  -7   -3.00   18.00 
  -1   5  -7    8.78    4.65 
   1   5   7    1.35    4.25 
   1  -5   7    5.43    1.29 
   1  -5   7    6.02    1.48 
   1   5   7    4.22    2.43 
   1  -5   8  137.40   15.09 
   1   5   8  127.05   13.83 
  -1   5  -8  141.07   15.38 
  -1  -5  -8  134.98   14.65 
   1   5   8  131.51   14.55 
  -1  -5  -8  142.27   15.46 
  -1  -5  -8  141.21   21.42 
  -1   5  -8  107.24   13.36 
   1   5   8  138.02   15.12 
   1  -5   8  128.29   14.59 
   1  -5   8  145.00   15.67 
   1   5   8  128.55   14.00 
   1  -5   9  130.86   13.26 
  -1   5  -9  101.83    8.17 
   1   5   9  107.24   11.21 
  -1  -5  -9   94.00    7.80 
  -1  -5  -9  161.55   13.73 
   1   5   9  136.76   11.14 
   1  -5   9  150.39   11.73 
   1   5   9  134.33   10.60 
   1  -5  10   37.53    4.78 
  -1   5 -10   36.71    4.28 
   1   5  10   26.80    3.90 
   1  -5  10   38.97    4.59 
  -1  -6   8   11.25    2.94 
   1   6  -8   12.23    3.05 
  -1   6   8    9.88    3.34 
   1  -6  -8    3.67    2.48 
   1   6  -8   11.59    4.13 
  -1   6   8    9.92    3.20 
  -1  -6   8   11.99    3.04 
  -1   6   8   10.19    3.05 
  -1   6   8   13.55    3.64 
  -1  -6   7   31.82    5.82 
   1   6  -7   34.06    6.10 
  -1   6   7   33.15    6.41 
   1  -6  -7   32.73    6.13 
   1   6  -7   38.44    9.89 
  -1   6   7   27.79    5.38 
  -1  -6   7   26.37    5.00 
  -1   6   7   32.50    5.98 
  -1   6   7   31.24    5.77 
  -1  -6   6   24.83    2.24 
   1   6  -6   22.69    1.97 
  -1   6   6   21.29    2.73 
   1   6  -6   22.36    2.07 
   1  -6  -6   18.47    2.91 
  -1  -6   6   17.80    4.04 
   1   6  -6   24.48    5.19 
  -1   6   6   21.34    3.41 
  -1  -6   6   13.10    1.76 
  -1   6   6   23.59    2.89 
  -1   6   6   21.15    2.53 
  -1  -6   5    8.98    1.45 
   1   6  -5   10.53    1.61 
  -1   6   5   14.10    2.24 
   1   6  -5   11.98    2.03 
   1  -6  -5   12.43    2.74 
  -1  -6   5    9.60    3.32 
   1   6  -5    9.03    5.88 
  -1   6   5   11.80    3.49 
  -1  -6   5   11.82    1.67 
  -1   6   5   10.71    2.54 
  -1  -6   4   22.45    2.71 
   1   6  -4   21.21    2.87 
  -1   6   4   18.37    2.70 
   1   6  -4   19.81    2.95 
   1  -6  -4   17.52    3.87 
  -1  -6   4   15.94    4.23 
   1   6  -4   27.75    7.85 
  -1   6   4   19.08    3.31 
  -1  -6   4   21.67    2.22 
  -1   6   4   19.36    3.34 
  -1   6   4   19.96    2.62 
  -1  -6   3   39.53    4.40 
   1   6  -3   34.85    4.04 
  -1   6   3   39.32    6.62 
   1  -6  -3   38.39    5.09 
  -1  -6   3   41.55    4.80 
   1   6  -3   36.83    4.99 
  -1   6   3   30.31    3.86 
   1  -6  -3   45.10    6.33 
   1   6  -3   39.51    5.82 
  -1  -6   3   38.76    4.12 
   1   6  -3   37.71    3.84 
  -1   6   3   42.86    4.84 
   1   6  -3   41.92    4.24 
  -1   6   3   36.19    3.85 
   1  -6  -3   44.59    4.99 
  -1  -6   3   53.22    5.55 
   1   6  -3   47.87   11.05 
  -1   6   3   44.32    4.88 
  -1  -6   3   31.03    4.03 
  -1   6   3   44.03    4.57 
  -1   6   3   39.26    4.02 
  -1  -6   2  119.55    8.21 
   1   6  -2  146.87    9.89 
  -1   6   2  159.11   11.35 
   1  -6  -2  147.62   10.45 
  -1  -6   2  144.75    9.57 
   1   6  -2  140.98    9.62 
  -1   6   2  132.59    9.23 
   1  -6  -2  143.73    9.87 
   1   6  -2  145.65   10.07 
  -1   6   2  171.73   11.04 
   1   6  -2  168.32   10.86 
   1  -6  -2  151.82    9.80 
  -1  -6   2  165.99   10.75 
  -1   6   2  156.55   10.22 
   1   6  -2  151.08    9.86 
  -1   6   2  146.27   10.09 
   1  -6  -2  138.70    9.39 
  -1  -6   2  163.41   10.48 
   1   6  -2  126.07   16.99 
  -1   6   2  157.40   10.57 
  -1  -6   2  152.61    9.86 
  -1   6   2  160.10   10.65 
  -1   6   2  157.12   10.38 
   1  -6  -1   56.75    4.59 
  -1  -6   1   60.60    4.69 
   1   6  -1   57.70    4.74 
  -1   6   1   49.85    4.17 
  -1   6   1   51.27    4.30 
   1  -6  -1   52.35    4.54 
  -1  -6   1   50.28    4.48 
   1   6  -1   54.32    4.41 
  -1   6   1   48.67    4.48 
   1  -6  -1   60.32    5.14 
  -1  -6   1   53.54    4.24 
   1   6  -1   57.04    3.81 
  -1   6   1   55.81    3.62 
   1  -6  -1   58.14    3.92 
  -1  -6   1   62.30    4.19 
  -1   6   1   53.12    3.77 
   1   6  -1   61.24    4.31 
  -1   6   1   51.15    3.71 
   1  -6  -1   52.53    4.07 
  -1  -6   1   55.72    3.78 
   1   6  -1   47.32    9.30 
  -1   6   1   55.90    4.22 
   1   6  -1   52.88    3.61 
  -1  -6   1   52.62    3.63 
  -1   6   1   52.73    3.91 
  -1   6   1   52.81    3.67 
  -1  -6   0  138.32    8.82 
   1  -6   0  134.54    8.83 
   1   6   0  143.31    9.18 
  -1   6   0  132.49    8.48 
  -1   6   0  128.53    8.42 
   1  -6   0  130.97    8.50 
  -1  -6   0  138.50    9.89 
   1   6   0  129.14    8.66 
  -1   6   0  117.56    7.66 
   1  -6   0  128.17    8.16 
  -1  -6   0  119.13    8.01 
   1   6   0  140.94    8.58 
  -1   6   0  153.61    9.30 
  -1  -6   0  152.22    9.18 
   1  -6   0  167.24   10.09 
  -1   6   0  150.74    9.16 
   1   6   0  132.61    8.15 
  -1   6   0  133.86    8.19 
   1  -6   0  124.86    7.61 
  -1  -6   0  100.56    7.40 
   1   6   0  136.27   10.40 
  -1   6   0  113.45    8.59 
   1   6   0  130.59    8.07 
  -1   6   0  137.49    8.73 
  -1  -6   0  136.54    9.02 
  -1   6   0  129.16    7.96 
  -1   6   0  143.45    8.80 
  -1  -6  -1  161.97   10.27 
   1  -6   1  166.27   10.72 
   1   6   1  155.49    9.91 
  -1   6  -1  156.40   10.04 
  -1   6  -1  132.47    8.43 
  -1  -6  -1  151.06    9.80 
   1  -6   1  158.32   10.19 
   1   6   1  159.99   10.72 
  -1   6  -1  151.38    9.54 
   1  -6   1  143.24    9.10 
  -1  -6  -1  129.53    8.64 
   1  -6   1  155.34    9.47 
   1   6   1  170.41   10.33 
  -1   6  -1  139.81    8.71 
  -1  -6  -1  157.20    9.53 
  -1   6  -1  160.47    9.65 
   1   6   1  152.14    9.35 
  -1   6  -1  149.01    9.95 
  -1  -6  -1  154.72    9.44 
   1  -6   1  159.50    9.55 
  -1   6  -1  162.03   12.51 
   1   6   1  153.82    9.48 
  -1   6  -1  163.32    9.94 
   1  -6   1  152.47    9.25 
   1   6   1  158.32    9.60 
  -1   6  -1  154.04    9.41 
  -1  -6  -2  127.15    9.14 
   1  -6   2  117.14    8.25 
   1   6   2  122.15    8.65 
  -1   6  -2  122.21    8.48 
  -1  -6  -2  121.74    8.75 
   1  -6   2  105.30    7.17 
   1   6   2  114.12    9.36 
  -1   6  -2  116.92    7.98 
   1  -6   2  119.70    8.22 
  -1  -6  -2  113.66    8.69 
   1  -6   2  119.23    7.89 
   1   6   2  102.42    7.52 
  -1   6  -2  116.10    7.76 
  -1  -6  -2  104.83    7.81 
   1   6   2  118.04    7.74 
  -1   6  -2  119.38    7.71 
   1   6   2  126.64    8.32 
  -1   6  -2  128.02    8.92 
  -1  -6  -2  123.72    8.67 
   1  -6   2  118.14    7.61 
  -1   6  -2  120.53    9.52 
   1   6   2  117.07    7.89 
  -1   6  -2  123.97    8.09 
   1  -6   2  121.30    7.91 
   1   6   2  117.55    7.69 
  -1  -6  -3  212.79   19.79 
   1  -6   3  188.67   17.51 
   1   6   3  230.83   21.41 
  -1   6  -3  183.14   16.98 
   1   6   3  203.50   19.44 
  -1  -6  -3  221.28   20.61 
   1  -6   3  213.25   19.61 
   1   6   3  197.72   18.51 
  -1   6  -3  218.15   20.20 
   1  -6   3  208.07   19.22 
  -1  -6  -3  214.46   19.93 
  -1   6  -3  210.63   19.55 
   1  -6   3  212.19   23.45 
   1   6   3  218.13   19.98 
  -1   6  -3  183.43   18.82 
  -1  -6  -3  231.53   21.26 
   1   6   3  214.61   19.60 
   1   6   3  199.63   18.39 
  -1   6  -3  238.76   21.82 
  -1  -6  -3  211.66   21.08 
  -1   6  -3  250.90   23.58 
   1   6   3  230.52   21.19 
   1  -6   3  265.53   24.29 
   1   6   3  213.23   19.46 
   1  -6   4  466.34   39.40 
   1   6   4  432.16   35.75 
  -1   6  -4  425.10   36.12 
  -1  -6  -4  402.58   33.33 
   1   6   4  423.83   35.01 
  -1   6  -4  477.17   39.47 
  -1  -6  -4  421.16   36.87 
  -1   6  -4  498.29   41.68 
   1   6   4  475.96   39.41 
   1  -6   4  495.71   41.03 
   1   6   4  412.91   34.10 
   1  -6   4  451.39   37.36 
   1  -6   5  142.64   12.28 
   1   6   5  157.82   13.11 
  -1   6  -5  143.62   12.27 
  -1  -6  -5  160.86   13.26 
  -1   6  -5  151.93   12.52 
  -1  -6  -5  140.49   11.64 
   1   6   5  146.67   12.59 
   1  -6   5  155.79   12.73 
   1  -6   5  132.45   10.83 
   1   6   5  127.60   10.53 
   1  -6   6   77.78    5.75 
   1   6   6   71.38    5.07 
  -1   6  -6   73.64    5.27 
  -1  -6  -6   84.11    6.18 
   1   6   6   73.48    5.30 
  -1   6  -6   73.97    5.26 
  -1  -6  -6   81.57    6.12 
  -1   6  -6   43.45   10.74 
   1   6   6   80.06    6.07 
   1  -6   6   84.29    5.84 
   1  -6   6   77.61    5.32 
   1   6   6   74.63    5.36 
   1  -6   7   85.53    5.40 
   1   6   7   76.26    4.67 
  -1   6  -7   87.39    5.14 
  -1  -6  -7   91.25    5.43 
   1   6   7   77.47    5.02 
  -1  -6  -7   88.32    5.23 
  -1   6  -7   86.52    6.25 
   1   6   7   85.38    6.23 
   1  -6   7   79.61    4.85 
   1   6   7   77.16    4.56 
   1  -6   8  136.64   11.10 
  -1   6  -8  154.06   12.21 
   1   6   8  145.15   11.40 
  -1  -6  -8  131.70   10.76 
  -1   6  -8  132.17   10.83 
   1   6   8  131.93   10.47 
   1  -6   8  157.50   12.30 
  -1  -7   7    4.32    1.52 
   1   7  -7    6.30    1.64 
  -1   7   7    6.82    2.19 
   1  -7  -7    8.96    2.44 
   1   7  -7    3.21    2.39 
  -1   7   7    6.92    2.19 
  -1  -7   7    6.31    1.59 
  -1  -7   6   63.75    5.33 
   1   7  -6   58.70    4.79 
  -1   7   6   62.28    5.14 
   1  -7  -6   68.60    5.76 
  -1   7   6   73.82    6.27 
  -1  -7   6   54.92    5.63 
  -1   7   6   56.05    4.68 
  -1   7   6   58.29    4.99 
  -1  -7   5   93.41    6.12 
   1   7  -5   98.68    5.68 
  -1   7   5   95.17    5.47 
   1   7  -5   95.41    5.33 
   1  -7  -5   83.80    5.70 
   1   7  -5  103.15    7.49 
  -1   7   5   92.96    5.54 
  -1  -7   5   91.59    5.14 
  -1   7   5   86.66    5.16 
  -1   7   5   78.87    4.93 
  -1  -7   4  177.05   20.09 
   1   7  -4  208.38   22.57 
  -1   7   4  195.77   21.15 
   1   7  -4  186.57   20.86 
   1  -7  -4  174.55   18.95 
  -1  -7   4  204.00   22.20 
   1   7  -4  170.95   20.23 
  -1   7   4  180.63   19.59 
  -1  -7   4  194.75   21.03 
  -1   7   4  175.33   18.95 
  -1   7   4  166.22   18.01 
  -1  -7   3   49.07    3.59 
   1   7  -3   41.62    3.10 
  -1   7   3   37.19    3.00 
   1   7  -3   38.70    3.22 
   1  -7  -3   27.62    3.22 
  -1  -7   3   53.50    6.16 
   1   7  -3   32.87    7.38 
  -1   7   3   37.33    3.91 
  -1  -7   3   34.69    2.70 
  -1   7   3   33.45    3.32 
  -1  -7   2   45.33    3.39 
   1   7  -2   52.16    3.92 
  -1   7   2   48.93    3.77 
   1   7  -2   41.85    4.20 
  -1   7   2   38.15    3.45 
   1  -7  -2   42.14    3.57 
  -1  -7   2   53.22    4.00 
   1   7  -2   45.76    5.85 
  -1   7   2   48.90    4.43 
  -1  -7   2   45.65    3.42 
  -1   7   2   44.02    3.49 
  -1   7   2   42.49    3.38 
   1  -7  -1  121.94   10.00 
   1   7  -1  138.23   11.32 
  -1   7   1  111.64    9.25 
  -1  -7   1  125.76   10.33 
  -1   7   1  125.47   10.28 
   1   7  -1  119.09   10.00 
  -1   7   1  115.97   10.02 
   1  -7  -1  113.86    9.39 
  -1  -7   1  122.62   10.09 
   1   7  -1  123.95   11.55 
  -1   7   1  122.80   10.16 
  -1  -7   1  127.92   10.45 
  -1   7   1  133.08   10.97 
  -1   7   1  121.30   10.14 
   1  -7   0  106.05    8.69 
   1   7   0  100.73    8.48 
  -1   7   0   90.43    7.57 
  -1  -7   0  114.12    9.46 
  -1   7   0   91.42    7.62 
   1   7   0  100.99    8.48 
  -1   7   0   92.97    7.84 
   1  -7   0   87.52    7.29 
  -1  -7   0   84.09    7.53 
   1   7   0   80.89    8.54 
   1   7   0   97.45    8.07 
  -1   7   0  103.32    8.68 
   1  -7   0   87.22   10.07 
  -1  -7   0   99.51    8.26 
  -1   7   0   93.84    7.76 
   1  -7   1   60.34    5.54 
   1   7   1   64.68    5.54 
  -1   7  -1   53.52    5.30 
  -1  -7  -1   63.92    5.43 
   1   7   1   62.38    5.42 
  -1   7  -1   65.70    5.58 
  -1  -7  -1   71.24    6.02 
   1  -7   1   63.69    5.31 
  -1   7  -1   60.00    6.34 
   1   7   1   64.45    5.88 
  -1   7  -1   64.94    5.51 
   1  -7   1   66.95    6.00 
  -1  -7  -1   63.46    5.37 
   1  -7   2   16.20    1.67 
   1   7   2   13.10    1.99 
  -1   7  -2   12.02    1.52 
  -1  -7  -2   15.20    2.39 
   1   7   2   11.88    1.76 
  -1   7  -2   17.06    1.85 
  -1  -7  -2   11.15    2.01 
  -1   7  -2    4.96    5.04 
   1   7   2   12.33    2.60 
  -1  -7  -2   11.84    1.57 
   1  -7   2   12.32    2.68 
   1  -7   3  112.83    7.72 
   1   7   3  114.59    7.77 
  -1   7  -3   99.70    7.10 
  -1  -7  -3  112.35    7.69 
   1   7   3   88.50    6.22 
   1   7   3   97.30    6.75 
  -1   7  -3  116.28    8.00 
  -1  -7  -3   91.92   11.00 
  -1   7  -3  106.15    8.90 
   1   7   3  111.98    8.13 
   1  -7   3  112.23    7.80 
   1   7   4   19.21    3.82 
  -1   7  -4   17.24    3.36 
  -1  -7  -4   15.82    3.36 
   1   7   4   15.30    3.46 
  -1   7  -4   15.85    3.26 
  -1  -7  -4   11.50    2.92 
  -1   7  -4   15.49    5.36 
   1   7   4   15.41    3.78 
   1  -7   4   18.06    3.77 
   1  -7   5   54.30    3.38 
   1   7   5   50.46    3.12 
  -1   7  -5   50.20    3.28 
  -1  -7  -5   47.08    2.96 
   1   7   5   46.81    3.26 
  -1   7  -5   42.74    2.72 
  -1  -7  -5   53.16    3.71 
  -1   7  -5   56.99    4.84 
   1   7   5   50.26    3.64 
   1  -7   5   53.08    3.18 
   1  -7   6    1.97    1.34 
  -1   7  -6    0.94    1.25 
   1   7   6    1.05    1.97 
  -1   7  -6    0.92    1.26 
  -1  -7  -6    0.61    1.97 
  -1   7  -6    3.55    3.27 
   1   7   6    0.63    2.28 
   1  -7   6    0.81    1.48 
   1  -7   7  101.17   11.12 
  -1   7  -7   89.29    9.79 
  -1  -7  -7  108.28   11.72 
  -1   7  -7   89.92   10.30 
   1   7   7   83.77   10.11 
   1  -7   7   88.55   10.15 
  -1   8   5  146.60   16.14 
  -1  -8   4   42.48    4.75 
   1   8  -4   40.52    4.64 
   1   8  -4   44.59    4.91 
   1  -8  -4   36.25    4.25 
   1   8  -4   18.10    5.17 
  -1   8   4   45.59    5.23 
  -1  -8   3  271.53   53.92 
   1   8  -3  264.60   20.75 
   1   8  -3  271.71   53.99 
   1  -8  -3  269.77   53.46 
  -1   8   3  271.04   53.75 
   1  -8  -3  265.47   20.58 
  -1  -8   3  252.71   19.65 
  -1  -8   2   13.08    3.26 
   1   8  -2   12.37    3.14 
   1   8  -2   13.01    3.31 
  -1   8   2    9.33    2.46 
   1  -8  -2   12.41    3.15 
  -1  -8   2    4.28    2.45 
   1   8  -2    8.10    3.37 
  -1   8   2   13.28    3.51 
   1  -8  -2   10.37    3.03 
  -1  -8   1   17.41    3.30 
   1   8  -1   15.34    3.84 
   1   8  -1   13.98    3.62 
  -1   8   1    8.14    1.98 
   1  -8  -1   13.67    2.74 
  -1  -8   1   18.46    3.44 
  -1   8   1   13.84    3.59 
   1  -8  -1   14.35    3.64 
  -1  -8   0    0.76    1.24 
   1   8   0    0.64    1.51 
   1   8   0    0.48    2.18 
  -1   8   0    0.29    1.27 
   1  -8   0    1.69    1.38 
  -1  -8   0    1.36    1.25 
  -1   8   0    1.08    1.95 
   1  -8   0    0.72    1.43 
  -1  -8  -1    7.98    2.36 
   1   8   1    8.91    2.53 
   1   8   1   11.38    2.98 
  -1   8  -1   10.68    2.81 
  -1  -8  -1   10.36    2.82 
   1  -8   1    8.61    2.47 
  -1   8  -2    8.96    2.34 
   1   8   2   13.60    3.48 
  -1   8  -2   13.27    3.43 
  -1  -8  -2   11.50    3.08 
  -1   8  -2   10.94    3.48 
   1   8   2   15.40    4.23 
   1  -8   2   14.31    3.76 
   1  -8   3   45.43    3.75 
   1   8   3   38.65    3.35 
  -1   8  -3   39.14    3.30 
  -1   8  -3   46.29    3.81 
  -1  -8  -3   45.83    4.02 
  -1   8  -3   39.06    3.92 
   1   8   3   44.37    3.95 
   1  -8   3   53.00    4.51 
  -1   8  -4   26.80    3.18 
  -1  -8  -4   22.66    4.80 
  -1   8  -4   10.62    3.42 
   1   8   4   24.73    5.24 
   1  -8   4   26.95    3.16 
   2   0 -12  111.44   12.20 
   2   0 -12  116.37   13.08 
  -2   0  12  107.99   11.77 
   2   0 -11    0.43    2.45 
  -2   0  11    4.65    4.44 
   2   0 -11    4.60    4.19 
  -2   0  11    1.93    1.91 
  -2   0  11    1.12    2.31 
   2   0 -10  302.15   20.19 
  -2   0  10  284.32   21.04 
  -2   0  10  362.21   28.41 
  -2   0  10  309.14   20.65 
  -2   0  10  264.27   18.02 
   2   0  -9  720.19   58.37 
  -2   0   9  593.43   49.25 
  -2   0   9  687.65   56.91 
   2   0  -9  679.02   56.27 
   2   0  -9  794.21   64.14 
  -2   0   9  686.83   59.92 
  -2   0   9  722.12   59.90 
  -2   0   9  598.44   65.44 
  -2   0   9  739.62   60.25 
   2   0  -8  261.76   14.84 
  -2   0   8  220.08   12.25 
  -2   0   8  272.83   15.54 
   2   0  -8  262.65   15.11 
   2   0  -8  231.04   13.19 
  -2   0   8  239.51   14.01 
  -2   0   8  250.62   14.89 
  -2   0   8  272.55   18.51 
  -2   0   8  272.26   14.76 
  -2   0   8  246.54   13.64 
  -2   0   7 1260.87   73.48 
   2   0  -7 1020.51   59.56 
   2   0  -7 1141.15   66.45 
  -2   0   7  986.99   58.37 
  -2   0   7 1074.75   62.54 
   2   0  -7 1042.11   60.66 
   2   0  -7  883.93   51.50 
  -2   0   7  983.33   57.18 
  -2   0   7 1046.50   62.07 
  -2   0   7 1023.50   60.75 
  -2   0   7 1122.38   65.11 
  -2   0   7 1005.01   58.29 
  -2   0   6 1009.93   69.87 
   2   0  -6  985.47   68.38 
   2   0  -6 1111.43   54.06 
  -2   0   6 1026.98   71.05 
  -2   0   6 1051.81   74.56 
  -2   0   6 1129.46   54.89 
  -2   0   6 1061.75   75.88 
   2   0  -6 1076.58   74.53 
   2   0  -6 1075.81   74.43 
   2   0  -6 1009.60   69.86 
  -2   0   6 1136.12   54.95 
  -2   0   6 1231.69   60.78 
  -2   0   6 1114.94   55.26 
  -2   0   6 1143.38   55.46 
  -2   0   6 1102.96   53.30 
  -2   0   5   83.80    3.83 
   2   0  -5   85.54    3.81 
   2   0  -5   87.92    5.15 
  -2   0   5   82.44    4.87 
  -2   0   5   84.82    4.09 
  -2   0   5   95.27    5.04 
  -2   0   5   85.81    4.40 
   2   0  -5   77.66    5.80 
   2   0  -5   75.91    4.74 
   2   0  -5   83.68    5.04 
  -2   0   5   91.57    6.38 
  -2   0   5   82.27    3.87 
  -2   0   4   44.22    2.22 
   2   0  -4   39.33    1.95 
   2   0  -4   43.01    3.20 
  -2   0   4   46.06    2.88 
  -2   0   4   41.80    2.49 
  -2   0   4   47.35    3.34 
  -2   0   4   61.76    4.25 
   2   0  -4   72.51    6.94 
   2   0  -4   57.60    5.35 
   2   0  -4   66.89    6.63 
  -2   0   3  249.33    6.49 
   2   0  -3  238.35    6.08 
   2   0  -3  240.72    6.66 
  -2   0   3  242.39    7.61 
  -2   0   3  244.32    6.66 
   2   0  -3  242.99    6.17 
  -2   0   3  267.07    6.73 
  -2   0   3  252.70    6.67 
   2   0  -3  270.60    7.80 
   2   0  -3  259.22    6.99 
  -2   0   2  110.94    3.05 
   2   0  -2  106.00    2.95 
  -2   0   2  105.77    3.88 
  -2   0   2  104.09    3.56 
  -2   0   2  114.16    3.42 
   2   0  -2  105.56    3.23 
  -2   0   2  115.76    3.79 
  -2   0   2  111.56    3.66 
  -2   0   2  104.61    5.15 
   2   0  -2  107.10    4.90 
   2   0  -2  102.78    4.39 
  -2   0   1  436.29   11.17 
   2   0  -1  407.39   10.26 
  -2   0   1  401.23   10.70 
  -2   0   1  415.74   10.19 
  -2   0   1  426.16   10.35 
  -2   0   1  406.50   10.27 
  -2   0   1  422.86   10.49 
  -2   0   1  385.89    9.52 
  -2   0   1  409.32   10.84 
  -2   0   1  402.18   10.22 
  -2   0   1  404.68   10.44 
   2   0   0    2.34    1.85 
  -2   0   0    3.02    1.81 
  -2   0   0    4.45    2.87 
   2   0   0    3.23    1.62 
  -2   0   0    3.41    1.12 
  -2   0   0    9.18    2.02 
  -2   0   0    3.92    1.77 
  -2   0   0    3.76    3.05 
  -2   0   0    2.24    3.26 
  -2   0   0    3.47    3.07 
  -2   0  -1 1216.52   27.93 
  -2   0  -1 1397.08   32.51 
   2   0   1 1328.24   30.45 
  -2   0  -1 1312.42   31.53 
  -2   0  -1 1283.57   29.74 
  -2   0  -1 1195.08   28.07 
  -2   0  -1 1429.62   33.04 
  -2   0  -1 1263.96   29.11 
  -2   0  -2  548.50   12.86 
  -2   0  -2  503.30   12.33 
   2   0   2  521.46   12.37 
  -2   0  -2  546.10   13.56 
   2   0   2  587.58   14.29 
  -2   0  -2  530.76   13.03 
  -2   0  -2  540.27   13.27 
  -2   0  -2  544.71   13.15 
  -2   0  -2  535.50   12.97 
   2   0   3 2545.09   58.15 
  -2   0  -3 2266.69   51.58 
  -2   0  -3 2402.90   55.07 
   2   0   3 2571.75   58.71 
   2   0   3 2424.25   55.19 
   2   0   3 2735.74   62.43 
   2   0   3 2455.80   56.20 
  -2   0  -3 2641.74   73.08 
  -2   0  -3 2563.36   58.66 
  -2   0  -3 2543.13   58.08 
  -2   0  -3 2522.28   57.45 
   2   0   4   22.42    2.23 
  -2   0  -4   22.86    2.27 
  -2   0  -4   22.16    3.34 
   2   0   4   22.76    3.32 
   2   0   4   23.78    1.57 
   2   0   4   24.54    2.36 
   2   0   4   21.72    1.74 
  -2   0  -4   26.57    3.52 
  -2   0  -4   18.87    6.31 
  -2   0  -4   19.71    5.26 
  -2   0  -4   19.80    3.77 
   2   0   5   25.65    2.42 
  -2   0  -5   21.68    1.97 
  -2   0  -5   25.87    2.93 
   2   0   5   22.79    2.57 
   2   0   5   16.73    1.73 
   2   0   5   27.03    2.20 
   2   0   5   20.18    1.64 
  -2   0  -5   20.15    2.63 
  -2   0  -5   21.81    2.86 
  -2   0  -5   24.53    3.23 
  -2   0  -5   20.57    1.91 
  -2   0  -5   21.78    4.80 
   2   0   5   26.06    4.49 
   2   0   5   21.44    1.36 
   2   0   6  228.25   16.12 
  -2   0  -6  191.91   13.48 
  -2   0  -6  193.27   13.86 
   2   0   6  172.60   13.32 
   2   0   6  179.72   12.76 
  -2   0  -6  176.68   12.81 
  -2   0  -6  192.42   13.99 
  -2   0  -6  191.10   13.73 
  -2   0  -6  177.90   12.68 
   2   0   6  203.92   14.20 
  -2   0  -6  189.87   13.17 
   2   0   6  169.85   11.87 
  -2   0  -6  199.83   14.02 
  -2   0  -6  197.06   14.60 
   2   0   6  150.37   13.90 
   2   0   6  172.42   12.02 
   2   0   6  198.01   13.77 
   2   0   7   40.87    5.29 
  -2   0  -7   20.93    2.39 
  -2   0  -7   20.40    3.63 
   2   0   7   19.60    3.12 
   2   0   7   19.05    2.85 
  -2   0  -7   21.14    3.20 
  -2   0  -7   17.63    2.72 
   2   0   7   19.81    1.96 
  -2   0  -7   19.94    1.75 
   2   0   7   18.64    2.47 
  -2   0  -7   16.11    2.65 
  -2   0  -7   18.23    6.44 
   2   0   7   15.28    4.55 
   2   0   7   15.94    1.29 
   2   0   7   18.66    1.83 
   2   0   8    3.90    4.71 
  -2   0  -8    2.60    3.06 
  -2   0  -8    5.01    3.83 
   2   0   8    4.74    3.60 
   2   0   8    7.21    2.95 
  -2   0  -8    9.36    4.98 
  -2   0  -8    1.59    3.83 
   2   0   8    7.13    2.21 
  -2   0  -8    5.72    2.35 
   2   0   8    5.66    2.63 
  -2   0  -8    1.12    4.53 
  -2   0  -8    4.87    7.23 
   2   0   8    5.38    1.32 
   2   0   8    3.15    2.24 
   2   0   9  129.92   11.02 
  -2   0  -9  131.67   11.05 
   2   0   9  125.12   11.01 
  -2   0  -9  137.33   12.07 
  -2   0  -9  124.77   12.67 
   2   0   9  100.75    8.57 
   2   0   9  115.25   10.02 
   2   0  10  141.65    9.71 
  -2   0 -10  145.58    9.90 
  -2   0 -10  123.36    9.47 
  -2   0 -10  142.02   11.08 
   2   0  10  115.01    7.87 
   2   0  10  142.64    9.72 
   2   0  11    4.86    1.96 
  -2   0 -11    2.99    1.80 
   2   0  11    2.44    2.27 
  -2   0 -11    4.32    2.70 
  -2   0 -11    3.26    3.75 
   2   0  11    3.71    2.16 
  -2   0 -12   43.53    5.09 
   2   0  12   33.54    4.29 
   2   1 -12   50.31    5.94 
   2  -1 -12   48.71    6.48 
  -2  -1  12   48.04    5.53 
  -2   1  12   51.15    5.78 
   2   1 -11   46.57    4.04 
   2  -1 -11   44.72    3.50 
  -2   1  11   47.53    4.41 
   2   1 -11   50.49    5.79 
   2  -1 -11   51.29    6.33 
  -2  -1  11   41.30    3.25 
  -2   1  11   40.36    3.61 
  -2   1  11   44.28    3.57 
   2   1 -10   37.07    3.70 
   2  -1 -10   41.35    3.78 
  -2  -1  10   28.89    6.06 
  -2   1  10   34.99    8.05 
  -2  -1  10   36.84    3.00 
  -2   1  10   39.08    3.94 
  -2  -1  10   36.64    3.24 
  -2   1  10   35.81    3.39 
  -2  -1   9  320.99   28.15 
   2   1  -9  446.53   37.02 
   2  -1  -9  406.46   33.80 
  -2  -1   9  405.82   34.42 
  -2   1   9  410.69   34.93 
  -2  -1   9  420.23   37.49 
  -2   1   9  458.15   39.71 
  -2  -1   9  469.00   38.79 
  -2   1   9  424.78   35.14 
  -2  -1   9  393.35   32.57 
  -2   1   9  434.00   36.00 
  -2  -1   8  754.40   45.26 
   2   1  -8  659.65   39.37 
   2  -1  -8  815.34   48.42 
  -2  -1   8  741.40   44.83 
  -2  -1   8  875.63   56.10 
  -2   1   8  816.74   48.51 
   2   1  -8  801.63   47.63 
   2  -1  -8  783.40   46.58 
   2  -1  -8  709.45   42.35 
   2   1  -8  718.99   42.98 
  -2  -1   8  761.84   46.06 
   2   1  -8  710.29   42.79 
  -2   1   8  773.46   45.69 
   2  -1  -8  861.41   54.80 
  -2  -1   8  897.45   57.25 
  -2  -1   8  892.94   57.92 
  -2   1   8  876.05   56.40 
  -2  -1   8  805.40   49.86 
  -2   1   8  749.25   46.13 
  -2  -1   8  850.86   54.22 
  -2   1   8  831.74   49.16 
  -2  -1   8  713.28   47.07 
  -2   1   8  855.74   54.30 
  -2  -1   7  130.94   12.88 
   2   1  -7  139.55   13.70 
   2   1  -7  140.49   14.28 
   2  -1  -7  151.84   15.12 
  -2   1   7  147.51   14.87 
  -2  -1   7  132.64   13.23 
  -2   1   7  119.28   11.84 
  -2  -1   7  151.28   14.94 
  -2   1   7  138.30   13.98 
   2  -1  -7  142.36   14.26 
  -2  -1   7  137.15   13.82 
   2   1  -7  136.09   13.79 
   2  -1  -7  122.28   12.67 
   2   1  -7  139.30   14.15 
   2   1  -7  133.51   13.55 
  -2  -1   7  133.66   13.06 
   2   1  -7  130.17   12.66 
  -2   1   7  126.02   12.34 
  -2  -1   7  139.39   13.64 
  -2   1   7  136.30   13.39 
  -2  -1   7  153.14   15.86 
  -2   1   7  160.75   16.84 
  -2  -1   7  126.78   17.97 
  -2   1   7  153.62   18.79 
  -2  -1   7  143.23   13.95 
  -2   1   7  143.61   14.06 
  -2  -1   7  143.48   13.96 
  -2   1   7  142.23   14.01 
  -2  -1   6   89.56    6.80 
  -2   1   6   91.86    6.91 
   2   1  -6   87.06    6.46 
   2  -1  -6   83.38    6.22 
   2   1  -6  113.03    9.16 
   2  -1  -6   89.20    6.87 
  -2   1   6   90.55    7.19 
  -2  -1   6   87.86    6.87 
  -2   1   6   89.43    6.65 
  -2  -1   6   84.48    6.91 
  -2   1   6   91.23    7.19 
   2  -1  -6  103.73    8.19 
  -2  -1   6   93.75    7.21 
   2   1  -6   97.40    7.70 
   2  -1  -6   93.43    7.45 
   2   1  -6  100.49    7.68 
   2   1  -6   89.65    7.16 
  -2  -1   6   75.96    5.63 
   2   1  -6   89.55    6.33 
  -2   1   6   89.33    6.38 
  -2  -1   6   92.81    6.73 
  -2   1   6   96.04    7.25 
  -2  -1   6  101.50   10.11 
  -2   1   6  102.16    9.28 
  -2  -1   6   96.69   10.56 
  -2   1   6  104.08   13.57 
  -2  -1   6   88.54    7.07 
  -2   1   6   99.62    7.06 
  -2  -1   6   97.08    6.88 
  -2   1   6   94.47    6.94 
  -2  -1   5  568.51   23.42 
  -2   1   5  568.67   21.93 
   2   1  -5  543.03   21.14 
   2  -1  -5  522.85   20.26 
   2   1  -5  557.33   21.71 
   2  -1  -5  550.67   21.46 
  -2   1   5  535.81   20.93 
  -2  -1   5  505.02   20.92 
  -2   1   5  557.78   22.34 
  -2  -1   5  556.73   21.62 
  -2   1   5  525.57   20.36 
   2  -1  -5  530.40   20.63 
  -2  -1   5  543.85   21.64 
   2   1  -5  522.57   20.57 
   2  -1  -5  526.44   20.67 
   2   1  -5  566.08   22.27 
   2  -1  -5  529.51   20.71 
  -2  -1   5  490.68   19.46 
   2   1  -5  474.70   18.37 
  -2   1   5  511.40   19.56 
  -2  -1   5  565.30   21.75 
  -2  -1   5  547.99   23.40 
  -2  -1   5  535.49   21.95 
  -2  -1   4  249.62   10.26 
  -2   1   4  231.09   10.09 
   2   1  -4  253.20    9.78 
   2  -1  -4  257.49   10.04 
   2   1  -4  255.55   10.61 
   2  -1  -4  248.40   10.14 
  -2   1   4  241.93    9.68 
  -2  -1   4  244.02    9.62 
  -2   1   4  253.67    9.91 
  -2  -1   4  256.41   10.05 
  -2   1   4  236.62    9.47 
  -2  -1   4  253.14   10.09 
  -2   1   4  253.18   10.30 
   2   1  -4  253.23   10.66 
   2  -1  -4  233.71    9.73 
   2   1  -4  227.49    9.53 
   2  -1  -4  221.02    8.89 
   2   1  -4  257.78   10.69 
   2  -1  -4  231.40    9.24 
  -2  -1   4  239.62    9.15 
  -2  -1   4  249.25   10.42 
  -2   1   4  245.54   11.38 
  -2   1   4  245.06    9.25 
  -2  -1   3 3022.15   70.55 
  -2   1   3 2802.72   63.79 
   2   1  -3 3072.98   69.89 
   2  -1  -3 2823.37   64.20 
   2   1  -3 3092.49   70.68 
   2  -1  -3 2990.24   68.15 
  -2   1   3 2856.87   65.50 
  -2  -1   3 2754.95   68.47 
  -2   1   3 2972.56   67.98 
   2   1  -3 2860.99   65.19 
  -2   1   3 2712.43   76.25 
  -2  -1   3 2949.14   71.02 
  -2   1   3 2947.06   67.14 
  -2  -1   3 2875.20   66.33 
  -2   1   3 2922.49   67.45 
   2   1  -3 2881.44   65.82 
   2  -1  -3 2948.52   67.39 
   2  -1  -3 2759.42   63.07 
   2   1  -3 2890.96   66.16 
   2  -1  -3 2786.79   63.60 
   2   1  -3 2803.18   64.13 
  -2  -1   2 1708.83   39.27 
  -2   1   2 1667.44   41.36 
   2   1  -2 1660.95   38.09 
   2  -1  -2 1675.91   38.54 
  -2  -1   2 1759.14   40.64 
  -2   1   2 1681.14   38.85 
  -2   1   2 1614.14   37.21 
  -2  -1   2 1692.67   41.05 
  -2   1   2 1697.05   38.95 
   2   1  -2 1781.70   40.97 
  -2   1   2 1669.21   43.71 
  -2  -1   2 1695.65   38.96 
  -2   1   2 1718.42   39.56 
  -2  -1   2 1754.52   40.67 
  -2   1   2 1666.27   38.36 
  -2   1   2 1714.49   39.77 
   2   1  -2 1701.45   39.21 
  -2   1   2 1738.38   41.03 
   2   1  -2 1645.46   37.88 
  -2   1   2 1811.08   41.52 
  -2  -1   1  667.75   16.00 
   2   1  -1  633.61   15.24 
  -2  -1   1  671.07   16.32 
  -2   1   1  624.58   15.08 
   2   1  -1  615.80   14.67 
  -2   1   1  631.02   15.12 
   2   1  -1  612.70   14.67 
  -2  -1   1  620.44   14.46 
  -2   1   1  653.37   15.50 
   2   1  -1  642.54   15.60 
  -2   1   1  601.41   23.76 
  -2  -1   1  607.32   17.71 
  -2   1   1  630.87   15.32 
  -2  -1   1  636.64   15.20 
  -2   1   1  630.02   14.97 
  -2   1   1  667.68   16.33 
  -2  -1   1  664.98   16.62 
  -2   1   1  640.92   15.42 
  -2  -1   1  637.78   16.22 
   2   1  -1  682.77   17.39 
  -2   1   1  663.12   15.84 
   2  -1   0 7003.36  209.15 
   2   1   0 6684.68  151.22 
  -2   1   0 6635.85  151.57 
  -2  -1   0 6419.73  145.30 
  -2  -1   0 6716.04  152.23 
   2   1   0 6666.48  150.64 
  -2   1   0 6894.02  156.48 
   2  -1   0 7205.18  162.91 
  -2  -1   0 7015.71  158.54 
   2   1   0 6859.81  155.57 
  -2   1   0 7160.65  173.69 
   2  -1   0 6711.50  152.30 
  -2  -1   0 7078.04  160.13 
  -2   1   0 6548.65  147.99 
  -2   1   0 6945.14  156.96 
  -2  -1   0 6892.90  156.65 
  -2   1   0 6690.09  151.07 
  -2  -1   0 6885.81  155.73 
  -2   1   0 7379.79  167.14 
  -2  -1   0 6902.41  156.37 
   2  -1   1 1219.78   28.80 
   2   1   1 1241.92   28.83 
  -2   1  -1 1370.42   31.44 
  -2  -1  -1 1270.47   29.41 
  -2   1  -1 1227.20   28.47 
  -2  -1  -1 1199.49   27.90 
   2  -1   1 1297.87   29.87 
   2   1   1 1206.00   27.87 
   2  -1   1 1216.98   28.31 
  -2  -1  -1 1307.52   30.15 
   2   1   1 1305.42   30.12 
  -2   1  -1 1308.74   30.45 
   2  -1   1 1274.88   29.48 
   2   1   1 1142.59   26.66 
   2  -1   1 1100.67   31.57 
  -2  -1  -1 1275.29   29.58 
  -2   1  -1 1268.24   29.44 
  -2  -1  -1 1330.98   31.02 
  -2   1  -1 1313.61   30.37 
  -2  -1  -1 1130.04   26.36 
  -2   1  -1 1267.41   29.43 
  -2  -1  -1 1222.37   28.36 
   2  -1   2  640.74   15.77 
   2   1   2  630.63   15.00 
  -2   1  -2  641.55   14.93 
  -2  -1  -2  648.09   15.35 
  -2  -1  -2  610.27   14.83 
   2  -1   2  641.82   15.03 
   2   1   2  620.47   14.79 
   2  -1   2  596.15   14.26 
   2   1   2  644.46   15.27 
  -2   1  -2  656.11   15.93 
   2  -1   2  643.17   15.18 
   2   1   2  611.82   14.48 
  -2  -1  -2  631.38   15.22 
  -2   1  -2  629.54   15.12 
  -2  -1  -2  679.30   16.28 
  -2   1  -2  601.21   14.49 
  -2  -1  -2  639.17   15.20 
  -2   1  -2  673.16   16.09 
  -2  -1  -2  686.81   16.23 
   2  -1   3  456.22   12.17 
   2   1   3  459.42   11.20 
  -2   1  -3  459.86   10.94 
  -2  -1  -3  478.94   11.63 
  -2  -1  -3  488.51   12.29 
   2  -1   3  512.29   12.16 
   2   1   3  442.30   10.91 
  -2  -1  -3  441.01   10.86 
   2  -1   3  446.27   12.85 
   2   1   3  457.60   11.33 
  -2   1  -3  444.22   11.05 
   2  -1   3  461.05   11.07 
   2   1   3  435.66   10.56 
  -2  -1  -3  438.85   11.10 
  -2   1  -3  445.11   11.00 
  -2   1  -3  455.64   11.38 
  -2  -1  -3  477.98   12.04 
  -2   1  -3  447.04   11.18 
  -2  -1  -3  446.12   10.97 
  -2   1  -3  454.42   11.13 
  -2  -1  -3  416.95   10.13 
   2  -1   4 1242.09   47.96 
   2   1   4 1218.30   45.47 
  -2   1  -4 1189.39   45.41 
  -2   1  -4 1193.50   44.72 
  -2  -1  -4 1262.79   47.42 
   2  -1   4 1233.83   45.97 
   2   1   4 1220.24   45.59 
  -2  -1  -4 1259.00   47.04 
   2  -1   4 1144.04   43.68 
   2   1   4 1160.99   43.50 
  -2   1  -4 1172.98   45.82 
   2  -1   4 1129.14   42.14 
   2   1   4 1129.05   42.14 
  -2  -1  -4 1251.88   47.01 
  -2   1  -4 1188.76   44.46 
  -2   1  -4 1249.90   46.84 
  -2  -1  -4 1200.78   44.98 
  -2   1  -4 1183.56   44.25 
  -2  -1  -4 1174.62   43.86 
  -2   1  -4 1024.90   38.38 
  -2  -1  -4 1136.08   43.11 
   2  -1   4 1166.93   44.71 
   2   1   4 1224.30   45.37 
  -2   1  -4 1134.53   42.45 
  -2  -1  -4 1102.41   40.87 
   2   1   4 1263.18   46.84 
  -2   1  -4 1252.70   49.46 
  -2  -1  -4 1180.48   43.88 
  -2  -1  -4 1166.30   44.16 
   2  -1   4 1158.60   43.11 
   2  -1   5  290.05   11.71 
   2   1   5  259.75   10.44 
  -2   1  -5  279.02   11.25 
  -2  -1  -5  285.14   11.35 
  -2   1  -5  286.56   11.88 
   2  -1   5  279.08   11.39 
   2   1   5  262.43   10.62 
  -2  -1  -5  260.29   10.39 
   2  -1   5  237.29   10.03 
   2  -1   5  265.05   10.57 
   2   1   5  270.51   10.89 
   2  -1   5  255.17   10.11 
   2   1   5  255.56   10.19 
  -2   1  -5  235.13    9.51 
  -2  -1  -5  264.10   10.84 
  -2  -1  -5  258.48   10.54 
  -2   1  -5  261.29   10.71 
  -2  -1  -5  237.91    9.69 
  -2   1  -5  269.14   10.78 
  -2  -1  -5  251.92   10.02 
   2  -1   5  280.26   11.18 
  -2   1  -5  263.98   10.48 
  -2  -1  -5  280.27   10.93 
  -2   1  -5  245.94   10.39 
  -2   1  -5  244.71   10.20 
   2  -1   5  257.74   10.16 
   2   1   5  247.73    9.57 
   2  -1   6   48.12    3.93 
   2   1   6   45.60    4.50 
  -2   1  -6   42.90    3.37 
  -2  -1  -6   39.28    3.99 
  -2   1  -6   43.78    5.21 
  -2  -1  -6   43.86    4.48 
   2  -1   6   41.31    3.60 
   2   1   6   37.77    4.47 
   2  -1   6   41.75    3.32 
   2   1   6   40.33    3.94 
  -2  -1  -6   34.93    3.77 
  -2   1  -6   35.71    4.04 
  -2   1  -6   39.05    3.84 
  -2  -1  -6   36.01    3.16 
  -2   1  -6   35.93    3.22 
   2  -1   6   42.78    3.22 
   2   1   6   42.40    3.62 
  -2   1  -6   40.81    3.03 
  -2  -1  -6   44.67    3.59 
   2  -1   6   37.17    3.48 
   2   1   6   36.08    3.26 
  -2   1  -6   31.49    3.13 
  -2  -1  -6   37.98    3.33 
  -2   1  -6   32.52    5.37 
  -2  -1  -6   40.60    6.45 
   2  -1   6   25.10    3.62 
   2   1   6   39.36    5.22 
   2  -1   6   36.80    2.72 
   2   1   6   30.12    2.32 
   2  -1   6   36.56    2.92 
   2   1   6   34.85    2.87 
   2  -1   7   53.78    5.93 
   2   1   7   59.63    6.47 
  -2   1  -7   68.62    7.07 
  -2  -1  -7   61.15    6.49 
  -2   1  -7   68.98    8.60 
  -2  -1  -7   63.24    7.63 
   2  -1   7   64.44    7.08 
   2   1   7   67.59    8.60 
   2  -1   7   62.22    6.31 
   2   1   7   60.22    6.36 
  -2  -1  -7   66.75    7.23 
  -2   1  -7   73.04    8.03 
  -2  -1  -7   61.98    6.65 
  -2   1  -7   62.15    6.62 
   2  -1   7   57.28    5.88 
   2   1   7   58.88    5.89 
  -2   1  -7   63.18    6.34 
  -2  -1  -7   65.08    6.46 
   2  -1   7   71.19    9.50 
   2   1   7   44.42    4.91 
  -2   1  -7   72.43    7.42 
  -2  -1  -7   72.27    7.38 
  -2   1  -7   55.67    7.46 
  -2  -1  -7   66.47   10.25 
   2   1   7   60.26    9.06 
   2  -1   7   59.87    5.91 
   2   1   7   57.82    5.76 
   2  -1   7   67.35    6.74 
   2   1   7   66.82    6.87 
   2  -1   8   85.53    6.28 
   2   1   8   76.79    6.19 
  -2   1  -8   75.25    5.15 
  -2  -1  -8   67.37    5.41 
  -2   1  -8   77.65    6.41 
  -2  -1  -8   77.70    6.13 
   2  -1   8   78.08    6.19 
   2   1   8   76.77    7.05 
   2  -1   8   70.13    5.17 
  -2  -1  -8   68.63    5.69 
  -2   1  -8   70.92    5.73 
  -2  -1  -8   66.52    5.74 
  -2   1  -8   71.31    5.46 
   2  -1   8   77.66    5.08 
   2   1   8   74.30    5.18 
  -2   1  -8   80.84    5.09 
  -2  -1  -8   76.50    5.31 
   2  -1   8   54.79    7.69 
   2   1   8   72.19    6.49 
  -2   1  -8   76.48    5.43 
  -2  -1  -8   78.58    5.58 
  -2   1  -8   78.11    8.98 
  -2  -1  -8   74.63    8.71 
   2   1   8   91.67    8.08 
   2  -1   8   62.00    4.13 
   2   1   8   63.28    4.08 
   2  -1   8   76.50    5.49 
   2   1   8   72.64    5.02 
   2  -1   9  227.28   18.97 
   2   1   9  182.93   16.34 
  -2   1  -9  219.29   18.27 
  -2  -1  -9  210.58   17.51 
   2  -1   9  190.66   15.95 
   2   1   9  174.48   17.08 
  -2   1  -9  217.91   18.23 
  -2  -1  -9  244.88   20.39 
  -2   1  -9  197.66   17.02 
  -2  -1  -9  215.64   19.35 
   2  -1   9  168.78   14.26 
   2  -1   9  211.28   17.62 
   2   1   9  203.43   17.23 
   2  -1  10  147.28   10.32 
   2   1  10  151.91   10.44 
  -2   1 -10  158.51   10.83 
  -2  -1 -10  153.29   10.57 
   2   1  10  172.92   11.91 
  -2   1 -10  154.62   11.17 
  -2  -1 -10  166.67   11.43 
  -2  -1 -10  155.66   12.06 
   2  -1  10  144.41    9.73 
   2  -1  10  153.59   10.39 
   2   1  10  143.26   11.17 
   2  -1  11   45.50    4.38 
   2   1  11   43.98    3.85 
  -2   1 -11   44.74    4.11 
  -2  -1 -11   47.09    4.08 
   2   1  11   33.60    3.59 
  -2   1 -11   23.42    6.89 
  -2  -1 -11   45.14    4.29 
  -2  -1 -11   42.77    5.07 
   2  -1  11   42.18    4.29 
   2   1  11   45.21    4.54 
  -2  -1 -12   13.48    3.43 
   2   1  12    9.84    2.60 
   2   2 -11   63.50    5.56 
   2  -2 -11   62.66    5.35 
  -2   2  11   55.24    5.81 
   2  -2 -11   66.39    6.95 
  -2  -2  11   65.52    5.64 
  -2   2  11   61.05    5.43 
  -2   2  11   57.93    5.29 
   2   2 -10  117.57   13.27 
   2  -2 -10  106.11   11.65 
  -2  -2  10   94.00   11.81 
  -2   2  10  115.11   14.80 
   2  -2 -10  114.42   14.76 
  -2  -2  10  117.31   14.51 
  -2  -2  10  116.34   12.75 
  -2   2  10  120.55   13.29 
  -2   2  10   92.63   11.07 
  -2  -2   9  126.96   10.83 
   2   2  -9  135.27   11.41 
  -2   2   9  109.88   10.66 
   2   2  -9  140.85   12.22 
   2  -2  -9  125.12   10.71 
  -2  -2   9  136.21   13.75 
  -2   2   9  140.23   14.75 
  -2  -2   9  139.59   15.45 
  -2   2   9  142.02   15.52 
  -2  -2   9  156.10   12.81 
  -2   2   9  131.32   10.90 
  -2   2   9  143.05   12.07 
  -2  -2   8   36.88    3.41 
   2   2  -8   37.19    3.47 
   2   2  -8   44.56    5.78 
   2  -2  -8   40.84    4.91 
  -2  -2   8   43.64    4.02 
  -2   2   8   41.60    5.02 
  -2  -2   8   39.75    4.31 
  -2   2   8   41.53    4.57 
   2   2  -8   43.02    4.48 
   2  -2  -8   40.80    5.33 
   2   2  -8   40.61    4.87 
   2   2  -8   41.43    6.02 
  -2  -2   8   38.00    2.90 
   2   2  -8   44.47    3.18 
  -2   2   8   46.87    3.77 
   2  -2  -8   41.61    3.76 
  -2  -2   8   44.09    4.80 
  -2  -2   8   49.20    6.73 
  -2   2   8   53.71   10.02 
  -2  -2   8   42.34    9.97 
  -2   2   8   34.53   17.17 
  -2  -2   8   38.04    3.21 
  -2   2   8   44.61    4.19 
  -2  -2   8   45.43    3.34 
  -2   2   8   42.30    3.54 
  -2  -2   7  188.16   12.83 
   2   2  -7  202.95   13.52 
   2   2  -7  214.86   14.93 
   2  -2  -7  200.23   13.51 
  -2   2   7  222.99   15.36 
  -2  -2   7  183.72   12.55 
  -2   2   7  202.75   13.79 
  -2  -2   7  203.05   13.82 
  -2   2   7  216.53   14.65 
  -2  -2   7  196.79   13.47 
   2   2  -7  222.88   15.76 
   2   2  -7  218.70   15.38 
   2   2  -7  196.20   13.32 
  -2  -2   7  214.74   14.67 
   2   2  -7  199.52   13.25 
  -2   2   7  211.16   14.31 
   2  -2  -7  214.93   14.20 
  -2  -2   7  213.06   14.08 
  -2  -2   7  211.84   16.19 
  -2   2   7  234.83   16.92 
  -2  -2   7  202.95   15.48 
  -2   2   7  224.07   17.85 
  -2  -2   7  211.39   14.43 
  -2   2   7  206.60   13.60 
  -2  -2   7  235.15   15.36 
  -2   2   7  233.29   15.38 
  -2  -2   6   20.99    1.91 
   2   2  -6   20.82    1.94 
   2   2  -6   22.45    4.14 
   2  -2  -6   24.50    2.83 
  -2   2   6   26.98    3.91 
  -2  -2   6   21.40    1.97 
  -2   2   6   22.67    2.66 
  -2  -2   6   22.87    2.44 
  -2   2   6   15.51    3.70 
   2  -2  -6   29.23    3.46 
  -2  -2   6   21.06    2.43 
   2   2  -6   25.39    4.14 
   2   2  -6   27.52    4.13 
  -2  -2   6   22.24    1.45 
   2   2  -6   22.68    1.39 
  -2   2   6   24.93    2.26 
  -2  -2   6   27.01    2.36 
  -2   2   6   29.75    2.44 
  -2  -2   6   24.62    4.39 
  -2   2   6   27.16    6.32 
  -2  -2   6   33.38    6.81 
  -2   2   6   25.96   11.93 
   2   2  -6   14.71    4.12 
  -2  -2   6   25.53    2.03 
  -2   2   6   23.05    2.49 
  -2   2   6   26.09    3.11 
  -2  -2   5  409.42   18.86 
  -2   2   5  431.30   18.64 
   2  -2  -5  357.49   15.63 
   2   2  -5  424.44   18.64 
   2  -2  -5  402.20   17.56 
  -2   2   5  415.67   18.29 
  -2  -2   5  394.07   18.89 
  -2   2   5  414.27   17.91 
  -2  -2   5  405.45   19.97 
  -2   2   5  440.01   19.01 
   2  -2  -5  409.82   17.87 
  -2  -2   5  408.24   18.53 
   2   2  -5  411.61   18.06 
   2  -2  -5  370.91   16.21 
   2   2  -5  411.43   18.06 
   2   2  -5  404.03   17.84 
  -2  -2   5  401.01   18.09 
   2   2  -5  391.06   16.65 
  -2   2   5  409.60   17.41 
  -2  -2   5  411.43   17.58 
  -2  -2   5  435.27   20.73 
  -2   2   5  440.00   19.88 
  -2  -2   5  402.85   18.69 
  -2   2   5  426.17   21.56 
   2   2  -5  408.54   19.11 
  -2  -2   5  418.45   19.12 
  -2   2   5  418.67   17.80 
  -2   2   5  433.95   18.44 
  -2  -2   4  594.09   23.66 
  -2   2   4  606.62   23.47 
   2   2  -4  625.00   24.04 
   2  -2  -4  586.75   22.72 
   2   2  -4  593.46   23.07 
   2  -2  -4  583.80   22.70 
  -2   2   4  605.57   23.76 
  -2  -2   4  591.63   23.69 
  -2   2   4  607.47   23.68 
   2   2  -4  564.80   21.84 
  -2   2   4  542.91   22.51 
  -2  -2   4  540.44   31.67 
  -2   2   4  617.14   23.93 
   2  -2  -4  611.53   23.77 
  -2  -2   4  620.43   24.62 
   2   2  -4  592.83   23.25 
   2  -2  -4  569.39   22.15 
   2   2  -4  620.70   24.37 
   2   2  -4  604.64   23.75 
  -2  -2   4  565.24   21.95 
   2   2  -4  579.68   22.10 
  -2   2   4  579.20   22.14 
  -2  -2   4  575.93   22.04 
  -2  -2   4  537.23   24.69 
  -2  -2   4  597.04   24.11 
  -2   2   4  579.14   24.20 
   2   2  -4  558.71   22.42 
  -2  -2   4  590.07   23.69 
  -2  -2   3 1786.89   66.68 
  -2   2   3 1549.11   57.75 
   2   2  -3 1753.78   65.23 
   2  -2  -3 1796.13   66.83 
   2   2  -3 1669.70   62.30 
   2  -2  -3 1553.90   57.92 
  -2   2   3 1717.34   64.17 
  -2  -2   3 1659.26   69.23 
  -2   2   3 1777.99   66.19 
   2   2  -3 1604.20   59.76 
  -2   2   3 1552.04   63.19 
  -2  -2   3 1667.15   62.39 
  -2   2   3 1811.58   67.56 
   2  -2  -3 1718.17   64.19 
  -2  -2   3 1678.22   62.87 
   2   2  -3 1616.94   60.85 
   2  -2  -3 1766.87   65.78 
   2  -2  -3 1572.92   58.62 
   2   2  -3 1698.44   63.71 
   2  -2  -3 1639.29   61.01 
   2   2  -3 1676.33   62.95 
  -2  -2   2  597.52   14.24 
  -2   2   2  566.84   13.62 
   2   2  -2  564.51   13.54 
  -2  -2   2  583.63   14.20 
  -2   2   2  600.59   14.90 
  -2  -2   2  605.38   14.67 
  -2   2   2  616.51   15.08 
   2   2  -2  615.33   15.02 
  -2   2   2  563.16   15.08 
  -2  -2   2  589.11   14.08 
  -2   2   2  625.67   15.27 
   2  -2  -2  582.20   14.06 
  -2  -2   2  623.86   14.91 
   2   2  -2  597.19   14.48 
   2  -2  -2  586.54   14.12 
   2   2  -2  607.11   14.92 
  -2   2   2  626.94   15.04 
   2   2  -2  628.67   15.37 
  -2   2   2  599.89   14.22 
  -2  -2   1    4.92    2.31 
   2  -2  -1    5.12    1.08 
   2   2  -1    4.98    2.14 
  -2   2   1    5.62    1.05 
   2  -2  -1    6.70    1.29 
  -2  -2   1    3.36    2.82 
   2   2  -1    4.80    1.26 
  -2   2   1    2.82    2.53 
   2  -2  -1    3.41    1.82 
  -2  -2   1    5.54    1.25 
   2   2  -1    3.38    2.59 
  -2   2   1    5.44    1.43 
  -2  -2   1    5.92    0.95 
  -2   2   1    2.56    3.01 
   2  -2  -1    4.02    2.06 
  -2  -2   1    4.04    1.90 
  -2   2   1    2.86    1.48 
  -2  -2   1    2.49    2.69 
   2   2  -1    1.16    3.08 
  -2   2   1    3.26    1.68 
   2   2  -1    0.45    2.36 
  -2   2   1    3.38    1.21 
   2  -2   0  809.66   18.83 
  -2   2   0  802.25   18.69 
  -2  -2   0  794.28   18.90 
  -2  -2   0  807.47   19.28 
  -2   2   0  802.10   18.93 
   2   2   0  793.68   18.78 
  -2   2   0  813.73   19.36 
   2  -2   0  841.12   19.89 
  -2  -2   0  798.28   18.73 
   2   2   0  817.41   19.38 
  -2   2   0  883.39   21.70 
   2  -2   0  819.52   19.45 
  -2  -2   0  771.41   18.04 
   2  -2   0  784.04   18.56 
  -2  -2   0  809.55   19.13 
  -2   2   0  809.78   19.13 
  -2  -2   0  777.29   18.49 
   2   2   0  824.85   19.54 
  -2   2   0  818.29   19.23 
   2   2   0  819.95   19.33 
  -2   2   0  804.46   18.84 
   2  -2   1 1674.07   40.70 
   2   2   1 1764.88   40.78 
  -2   2  -1 1670.82   44.56 
  -2  -2  -1 1749.88   40.36 
  -2   2  -1 1696.94   39.03 
  -2  -2  -1 1829.37   42.23 
   2   2   1 1579.05   36.49 
  -2   2  -1 1657.24   38.28 
   2  -2   1 1598.19   36.80 
  -2  -2  -1 1639.33   37.67 
  -2   2  -1 1821.95   44.70 
  -2  -2  -1 1564.00   35.96 
   2  -2   1 1605.42   37.14 
  -2  -2  -1 1686.35   38.94 
  -2   2  -1 1585.76   36.52 
  -2  -2  -1 1575.14   36.38 
  -2   2  -1 1683.84   38.74 
  -2  -2  -1 1652.13   38.20 
   2   2   1 1601.71   36.88 
  -2   2  -1 1675.64   39.91 
   2  -2   2  558.25   13.83 
   2   2   2  577.01   14.21 
  -2   2  -2  556.22   13.55 
  -2  -2  -2  589.68   14.32 
  -2   2  -2  596.19   14.44 
  -2  -2  -2  588.28   14.45 
   2  -2   2  544.96   12.92 
   2   2   2  572.90   13.88 
  -2  -2  -2  552.00   13.58 
   2  -2   2  575.33   13.64 
   2   2   2  519.83   12.93 
  -2   2  -2  636.25   15.64 
   2  -2   2  573.46   13.72 
   2   2   2  523.12   12.74 
  -2  -2  -2  577.65   14.13 
  -2   2  -2  594.75   14.58 
  -2  -2  -2  565.65   13.84 
  -2   2  -2  576.11   13.86 
  -2  -2  -2  550.62   13.30 
  -2   2  -2  550.73   13.42 
   2  -2   3   28.90    2.35 
   2   2   3   27.71    2.82 
  -2   2  -3   25.78    2.06 
  -2  -2  -3   27.35    2.91 
  -2   2  -3   23.59    2.62 
  -2  -2  -3   25.38    2.83 
   2  -2   3   26.02    1.92 
   2   2   3   21.32    3.21 
  -2  -2  -3   25.76    2.57 
   2  -2   3   26.61    1.48 
   2   2   3   26.22    3.80 
  -2   2  -3   25.69    2.17 
   2  -2   3   24.73    2.06 
   2   2   3   24.43    1.96 
  -2  -2  -3   23.02    4.59 
  -2   2  -3   28.45    3.26 
  -2  -2  -3   26.77    2.47 
  -2   2  -3   26.31    3.33 
  -2  -2  -3   24.86    2.03 
  -2   2  -3   24.83    2.56 
  -2  -2  -3   24.02    1.99 
   2   2   3   25.03    1.58 
  -2  -2  -3   24.60    1.46 
   2   2   3   30.02    4.39 
   2  -2   4   62.90    3.31 
   2   2   4   54.72    3.57 
  -2   2  -4   59.49    3.35 
  -2  -2  -4   53.43    3.34 
  -2   2  -4   60.55    3.82 
  -2  -2  -4   53.85    3.36 
   2  -2   4   51.17    2.74 
   2   2   4   51.74    3.46 
  -2  -2  -4   53.57    3.22 
   2  -2   4   51.49    2.98 
   2   2   4   57.92    5.10 
  -2   2  -4   51.81    2.73 
   2  -2   4   53.29    2.91 
   2   2   4   56.42    3.36 
  -2  -2  -4   54.50    5.38 
  -2   2  -4   53.30    5.09 
  -2  -2  -4   54.43    4.24 
  -2   2  -4   46.38    5.22 
  -2  -2  -4   49.78    2.98 
  -2   2  -4   53.70    3.87 
  -2  -2  -4   50.78    2.89 
   2  -2   4   56.30    3.02 
   2   2   4   50.42    2.95 
  -2   2  -4   56.30    3.03 
  -2   2  -4   49.08    2.22 
  -2  -2  -4   53.78    3.37 
  -2   2  -4   59.69    4.72 
   2   2   4   52.10    2.66 
   2  -2   5   14.03    1.70 
   2   2   5   12.35    2.61 
  -2   2  -5   10.92    1.51 
  -2  -2  -5   13.37    2.51 
  -2   2  -5   13.22    3.32 
  -2  -2  -5    9.59    2.57 
   2  -2   5   13.03    2.70 
   2   2   5   11.76    3.54 
  -2  -2  -5    8.17    2.32 
   2  -2   5    9.30    1.35 
   2   2   5   10.85    2.90 
  -2   2  -5   10.22    1.47 
   2  -2   5    9.96    1.75 
   2   2   5    8.82    1.80 
  -2  -2  -5    9.97    3.96 
  -2   2  -5   12.97    3.37 
  -2  -2  -5   10.23    2.26 
  -2   2  -5    8.71    2.68 
  -2   2  -5   11.79    2.61 
   2  -2   5   10.03    1.33 
   2   2   5   13.72    1.47 
  -2   2  -5    9.50    1.09 
  -2  -2  -5   14.57    1.57 
   2   2   5   11.36    1.77 
  -2   2  -5   11.79    1.35 
  -2   2  -5    8.65    0.71 
  -2  -2  -5    7.69    1.94 
   2   2   5    7.43    5.57 
  -2  -2  -5   16.07    8.10 
  -2   2  -5    7.34    3.93 
   2   2   5    9.33    5.47 
  -2   2  -5    9.48    1.00 
   2  -2   5    9.75    1.03 
   2  -2   5    8.77    1.04 
   2   2   5    9.01    1.37 
   2  -2   6   78.88    4.47 
   2   2   6   86.48    5.27 
  -2   2  -6   78.00    4.31 
  -2  -2  -6   77.10    4.93 
  -2   2  -6   80.01    5.00 
  -2  -2  -6   76.34    5.61 
   2  -2   6   81.64    5.07 
   2   2   6   81.21    5.46 
   2  -2   6   72.39    4.30 
   2   2   6   67.80    4.19 
  -2  -2  -6   86.64    5.89 
  -2   2  -6   83.02    6.19 
  -2  -2  -6   75.17    5.23 
  -2   2  -6   71.89    4.67 
  -2   2  -6   76.33    4.52 
   2  -2   6   78.75    4.60 
   2   2   6   77.84    4.22 
  -2   2  -6   80.74    4.24 
  -2  -2  -6   80.22    4.34 
   2  -2   6   79.85    4.17 
   2   2   6   87.97    5.23 
  -2   2  -6   80.60    4.36 
  -2  -2  -6   83.53    5.02 
   2   2   6   67.68    6.31 
  -2  -2  -6   73.78    9.44 
  -2   2  -6   54.31    6.88 
   2   2   6   77.92    6.75 
   2  -2   6   69.27    3.68 
   2  -2   6   73.14    4.03 
   2   2   6   78.25    4.25 
   2  -2   7   34.15    3.51 
   2   2   7   34.20    4.03 
  -2   2  -7   36.18    3.16 
  -2  -2  -7   34.45    3.70 
  -2   2  -7   34.54    4.31 
   2  -2   7   30.21    3.36 
   2   2   7   33.31    4.55 
   2  -2   7   30.03    2.86 
   2   2   7   27.77    3.12 
  -2  -2  -7   33.22    5.64 
  -2   2  -7   32.18    4.66 
  -2  -2  -7   26.14    3.14 
  -2   2  -7   30.07    3.58 
  -2   2  -7   28.05    3.07 
   2  -2   7   35.99    2.91 
   2   2   7   34.24    3.00 
  -2   2  -7   33.98    2.59 
  -2  -2  -7   35.15    2.89 
   2  -2   7   27.09    2.75 
   2   2   7   26.08    3.85 
  -2   2  -7   30.70    3.12 
  -2  -2  -7   35.20    3.36 
  -2  -2  -7   27.70    6.61 
  -2   2  -7   30.79    3.45 
   2   2   7   34.50    4.87 
   2  -2   7   32.28    2.42 
   2  -2   7   33.17    2.70 
   2   2   7   33.92    3.71 
   2  -2   8  104.54    7.24 
   2   2   8  111.87    8.50 
  -2   2  -8  104.09    7.10 
  -2  -2  -8  105.01    7.62 
  -2   2  -8  104.11    7.93 
  -2  -2  -8  115.61    8.74 
   2   2   8  101.67    8.36 
   2  -2   8  108.59    7.43 
  -2  -2  -8  112.32    8.75 
  -2   2  -8  101.66    8.59 
  -2   2  -8  102.94    7.51 
  -2   2  -8   99.71    7.30 
   2  -2   8  115.78    7.73 
   2   2   8  107.51    7.12 
  -2   2  -8  114.83    7.65 
  -2  -2  -8  106.73    7.16 
   2  -2   8   88.12    6.24 
   2   2   8  119.38    8.17 
  -2   2  -8  103.16    7.60 
  -2  -2  -8  122.09    8.40 
  -2  -2  -8  111.62   10.18 
   2   2   8  100.00    7.96 
   2  -2   8   95.92    6.82 
   2  -2   8  112.80    7.46 
   2   2   8  106.45    7.31 
   2  -2   9   92.22    7.90 
   2   2   9   86.13    7.33 
  -2   2  -9   95.75    7.92 
  -2  -2  -9   85.65    7.19 
   2  -2   9   78.68    8.07 
   2   2   9   71.11    7.63 
  -2   2  -9   80.74    7.16 
  -2  -2  -9   79.32    7.26 
  -2  -2  -9   95.50   10.88 
   2   2   9   79.18    7.68 
   2  -2   9   86.78    7.22 
   2  -2   9   88.12    7.47 
   2   2   9   81.89    7.33 
   2  -2  10   20.24    4.10 
   2   2  10   22.04    4.68 
  -2   2 -10   24.40    4.83 
  -2  -2 -10   18.35    4.18 
   2   2  10   21.83    4.80 
  -2   2 -10   10.38    3.55 
  -2  -2 -10   19.95    4.48 
  -2  -2 -10   22.00    6.87 
   2  -2  10   14.38    3.16 
   2  -2  10   21.17    4.45 
   2   2  10   19.29    4.11 
   2  -2  11    1.78    1.95 
   2   2  11    1.94    1.91 
  -2   2 -11    1.46    1.78 
  -2  -2 -11    1.06    1.75 
   2   2  11    2.75    2.02 
  -2   2 -11    1.71    2.61 
  -2  -2 -11    2.12    2.08 
  -2  -2 -11    0.33    4.56 
   2  -2  11    1.87    2.20 
   2   2  11    1.51    2.30 
   2   3 -11    2.05    2.27 
  -2   3  11    0.26    3.73 
   2  -3 -11    5.53    4.27 
  -2  -3  11    2.10    1.99 
  -2   3  11    2.07    1.78 
  -2   3  11    1.33    2.64 
  -2  -3  10   45.79    2.96 
   2   3 -10   49.23    2.95 
  -2   3  10   52.09    3.55 
   2   3 -10   50.05    3.81 
  -2   3  10   47.02    6.35 
   2  -3 -10   48.43    5.67 
  -2  -3  10   61.50    3.67 
  -2   3  10   49.70    3.81 
  -2   3  10   49.18    4.28 
  -2  -3   9  146.14   11.72 
   2   3  -9  137.94    9.55 
  -2   3   9  171.86   11.64 
   2   3  -9  161.08   10.92 
  -2  -3   9  135.69   12.21 
  -2   3   9  176.44   15.18 
   2  -3  -9  173.28   13.74 
  -2  -3   9  175.16   11.83 
  -2   3   9  167.92   11.53 
  -2   3   9  165.77   11.44 
  -2  -3   8  119.18   11.14 
   2   3  -8  109.54    9.61 
  -2   3   8  147.34   12.51 
   2  -3  -8  131.56   11.09 
  -2  -3   8  137.21   11.68 
  -2  -3   8  147.72   14.72 
  -2   3   8  147.41   15.13 
   2  -3  -8  123.40   12.36 
  -2  -3   8  135.01   13.13 
  -2  -3   8  149.93   12.76 
  -2   3   8  141.05   11.93 
  -2   3   8  134.16   11.43 
  -2  -3   7   60.42    4.50 
   2   3  -7   63.72    4.30 
   2   3  -7   67.69    5.67 
  -2   3   7   80.41    6.45 
   2  -3  -7   67.43    5.88 
  -2  -3   7   67.94    4.67 
  -2  -3   7   64.89    4.60 
  -2   3   7   71.17    6.02 
   2  -3  -7   62.31    5.76 
  -2  -3   7   54.35    4.49 
   2   3  -7   71.34    6.73 
   2   3  -7   69.98    5.74 
   2   3  -7   65.33    5.34 
  -2  -3   7   64.56    4.33 
   2   3  -7   63.45    4.13 
  -2   3   7   71.62    4.79 
  -2  -3   7   67.49    5.10 
  -2  -3   7   56.91    6.70 
  -2   3   7   71.71   10.95 
  -2  -3   7   66.31   10.11 
  -2   3   7   63.73   10.22 
   2   3  -7   64.89    7.79 
  -2   3   7   57.80    4.38 
  -2  -3   7   68.61    4.43 
  -2   3   7   74.15    5.26 
  -2   3   7   74.20    5.52 
  -2  -3   6  112.91    7.82 
   2   3  -6  122.34    8.33 
   2   3  -6  135.15    9.96 
  -2   3   6  138.45   10.22 
   2  -3  -6  120.40    8.69 
  -2  -3   6  121.98    8.45 
  -2  -3   6  124.10    8.47 
  -2   3   6  135.31    9.85 
   2  -3  -6  134.76   10.01 
  -2  -3   6  125.02    8.92 
   2   3  -6  142.29   10.57 
   2   3  -6  155.66   11.56 
   2   3  -6  126.86    9.10 
  -2  -3   6  131.83    9.19 
   2   3  -6  126.63    8.42 
  -2   3   6  146.73    9.94 
  -2  -3   6  137.34    9.33 
  -2  -3   6  137.89   10.04 
  -2   3   6  145.75   13.61 
  -2  -3   6  121.56   11.07 
  -2   3   6  132.36   12.26 
   2   3  -6  141.36   10.98 
  -2   3   6  125.59    8.84 
  -2  -3   6  105.76    9.97 
  -2   3   6  137.15    9.16 
  -2   3   6  147.00    9.94 
  -2  -3   5  692.69   36.41 
   2   3  -5  714.01   34.84 
   2   3  -5  742.48   36.43 
  -2   3   5  665.76   37.33 
   2  -3  -5  645.80   31.63 
  -2  -3   5  632.43   33.34 
  -2  -3   5  676.85   33.99 
  -2   3   5  662.61   32.47 
   2  -3  -5  664.44   32.63 
  -2  -3   5  691.18   34.04 
   2   3  -5  653.96   32.14 
   2   3  -5  649.04   31.89 
   2   3  -5  640.58   31.44 
  -2  -3   5  678.33   35.32 
   2   3  -5  689.62   33.41 
  -2   3   5  709.07   34.60 
  -2  -3   5  659.86   32.19 
  -2  -3   5  656.61   33.16 
  -2   3   5  714.66   35.72 
  -2  -3   5  638.40   31.77 
  -2   3   5  729.42   36.57 
   2   3  -5  670.74   33.27 
  -2   3   5  675.51   33.78 
  -2  -3   5  699.19   35.16 
  -2   3   5  674.11   32.89 
  -2   3   5  665.83   32.32 
  -2  -3   4  267.29   11.89 
  -2   3   4  247.45   10.94 
   2   3  -4  275.25   11.94 
   2   3  -4  285.87   12.81 
  -2   3   4  254.97   11.87 
   2  -3  -4  268.64   11.97 
  -2  -3   4  290.15   12.82 
   2   3  -4  245.99   10.97 
  -2   3   4  228.31   11.09 
  -2  -3   4  268.74   11.80 
  -2   3   4  276.94   12.31 
   2  -3  -4  295.39   13.51 
   2   3  -4  259.85   11.80 
   2   3  -4  255.49   11.70 
   2   3  -4  289.47   13.32 
  -2  -3   4  251.09   11.43 
   2   3  -4  239.92   10.22 
  -2   3   4  275.61   11.97 
   2   3  -4  246.87   10.58 
  -2  -3   4  254.54   10.96 
  -2  -3   4  277.72   13.45 
  -2   3   4  250.21   14.97 
  -2  -3   4  249.32   12.69 
   2   3  -4  266.01   13.77 
  -2   3   4  252.98   12.39 
  -2  -3   4  275.45   12.69 
  -2   3   4  282.82   12.12 
  -2   3   4  260.24   11.28 
   2  -3  -3  284.35   11.44 
  -2  -3   3  257.68   10.34 
  -2   3   3  268.40   10.80 
   2   3  -3  280.43   11.14 
   2   3  -3  282.18   11.45 
  -2   3   3  299.94   12.17 
   2  -3  -3  284.50   11.60 
  -2  -3   3  272.02   10.79 
   2   3  -3  283.25   11.47 
  -2   3   3  261.16   12.93 
  -2  -3   3  279.13   11.09 
  -2   3   3  288.05   11.64 
   2  -3  -3  283.62   11.52 
  -2  -3   3  276.76   10.93 
   2   3  -3  280.32   11.44 
   2   3  -3  281.96   11.69 
   2   3  -3  304.09   12.73 
   2   3  -3  254.29    9.78 
   2   3  -3  265.02   10.33 
  -2  -3   3  259.25   10.04 
  -2  -3   3  322.10   12.37 
  -2  -3   3  262.27   11.64 
   2   3  -3  283.89   13.78 
   2  -3  -2  572.57   21.67 
  -2  -3   2  563.47   21.40 
  -2   3   2  586.95   22.17 
   2   3  -2  552.10   20.93 
  -2  -3   2  568.81   21.63 
  -2   3   2  591.15   22.58 
   2  -3  -2  634.82   24.18 
  -2  -3   2  583.32   22.02 
   2   3  -2  566.66   21.67 
  -2   3   2  535.38   21.74 
  -2  -3   2  584.55   22.16 
   2  -3  -2  563.43   21.45 
  -2  -3   2  567.38   22.30 
   2   3  -2  564.24   21.52 
   2   3  -2  563.37   21.52 
   2   3  -2  561.41   21.68 
  -2   3   2  610.00   22.96 
   2   3  -2  530.80   19.79 
  -2  -3   2  568.21   21.18 
   2   3  -2  575.15   21.49 
  -2   3   2  569.16   22.30 
  -2   3   2  573.68   21.63 
  -2  -3   1 1450.10   54.13 
   2  -3  -1 1414.46   52.67 
   2   3  -1 1406.15   52.49 
  -2   3   1 1360.13   50.65 
  -2  -3   1 1435.55   53.70 
  -2   3   1 1521.80   59.41 
   2   3  -1 1354.27   50.49 
   2  -3  -1 1431.57   53.53 
  -2  -3   1 1479.19   55.44 
   2   3  -1 1407.76   52.59 
  -2   3   1 1326.68   51.24 
   2  -3  -1 1495.28   56.01 
  -2  -3   1 1409.22   52.98 
   2  -3  -1 1452.67   54.30 
  -2  -3   1 1421.86   53.00 
   2   3  -1 1573.13   58.72 
   2   3  -1 1432.90   53.63 
  -2   3   1 1425.32   53.07 
   2   3  -1 1393.07   52.10 
  -2   3   1 1376.30   51.20 
   2   3  -1 1351.51   50.09 
  -2  -3   1 1359.76   50.41 
  -2   3   1 1377.95   51.19 
   2   3  -1 1353.16   50.18 
  -2  -3   1 1477.89   54.70 
  -2  -3   1 1434.93   53.67 
  -2   3   1 1401.31   52.02 
  -2   3   1 1403.62   52.04 
  -2   3   1 1378.54   51.14 
  -2  -3   0  313.36   12.31 
   2  -3   0  332.55   16.80 
   2   3   0  306.18   12.02 
  -2   3   0  302.77   14.55 
  -2  -3   0  313.19   12.48 
   2   3   0  309.51   12.07 
  -2   3   0  312.67   12.35 
   2  -3   0  344.90   13.48 
  -2  -3   0  331.54   12.85 
   2   3   0  320.47   12.64 
  -2   3   0  323.28   12.76 
   2  -3   0  329.15   12.88 
  -2  -3   0  307.56   11.87 
   2  -3   0  333.40   12.96 
  -2  -3   0  321.69   12.78 
  -2   3   0  309.66   13.45 
  -2  -3   0  316.58   12.44 
   2   3   0  365.90   14.39 
  -2   3   0  335.17   12.95 
   2   3   0  324.89   12.80 
  -2   3   0  335.64   12.98 
   2   3   0  308.43   11.64 
  -2  -3   0  311.40   11.74 
  -2   3   0  305.30   11.51 
   2   3   0  326.32   12.44 
  -2  -3   0  314.27   11.81 
  -2   3   0  345.95   13.26 
  -2   3   0  347.75   13.11 
  -2   3   0  321.58   12.14 
   2  -3   1  673.65   25.36 
   2   3   1  662.53   25.21 
  -2   3  -1  669.33   25.24 
  -2  -3  -1  599.50   22.78 
  -2  -3  -1  598.60   22.78 
   2   3   1  562.52   21.36 
  -2   3  -1  581.41   22.04 
   2  -3   1  606.84   23.00 
  -2  -3  -1  602.75   22.82 
   2   3   1  649.69   24.82 
  -2   3  -1  635.66   24.35 
  -2  -3  -1  596.22   22.62 
   2  -3   1  605.71   22.94 
  -2  -3  -1  606.91   23.16 
  -2   3  -1  601.82   23.07 
  -2  -3  -1  590.02   22.42 
   2   3   1  596.24   22.68 
  -2   3  -1  614.16   23.34 
   2   3   1  613.66   23.49 
  -2   3  -1  618.27   23.37 
   2   3   1  579.10   21.65 
  -2  -3  -1  586.86   21.91 
  -2   3  -1  595.36   22.25 
   2   3   1  592.57   22.26 
  -2   3  -1  568.04   21.15 
  -2  -3  -1  588.93   22.03 
  -2   3  -1  593.67   23.12 
  -2   3  -1  603.14   22.57 
  -2   3  -1  583.57   21.78 
  -2   3  -1  598.57   22.32 
   2  -3   2  539.38   20.65 
   2   3   2  642.68   25.05 
  -2   3  -2  514.20   19.61 
  -2  -3  -2  619.24   23.66 
  -2   3  -2  592.42   22.89 
  -2  -3  -2  585.41   22.29 
   2  -3   2  576.01   21.74 
   2   3   2  591.51   23.09 
  -2  -3  -2  616.35   24.09 
   2  -3   2  536.89   20.70 
   2   3   2  534.25   20.49 
  -2   3  -2  585.47   22.85 
  -2  -3  -2  567.04   21.55 
   2  -3   2  554.24   21.06 
  -2  -3  -2  560.10   22.05 
  -2   3  -2  610.43   23.31 
  -2  -3  -2  548.83   22.55 
  -2   3  -2  577.13   21.89 
   2   3   2  565.34   23.85 
  -2   3  -2  623.50   23.86 
  -2   3  -2  571.31   21.61 
   2   3   2  552.88   20.80 
  -2   3  -2  584.01   21.86 
  -2  -3  -2  572.57   21.91 
   2   3   2  560.04   21.49 
  -2   3  -2  583.20   22.03 
  -2   3  -2  644.83   24.54 
  -2   3  -2  571.84   21.47 
   2  -3   3    0.41    1.40 
   2   3   3   -0.62    3.54 
  -2   3  -3    0.48    1.65 
  -2  -3  -3    2.61    2.98 
  -2   3  -3   -0.69    1.80 
  -2  -3  -3   -0.11    1.77 
   2  -3   3    1.57    1.48 
   2   3   3   -0.26    2.33 
  -2  -3  -3    0.14    2.61 
   2  -3   3    0.72    1.26 
   2   3   3    6.93    3.26 
  -2   3  -3   -1.55    1.76 
   2  -3   3   -0.21    1.85 
   2   3   3    0.01    2.11 
  -2  -3  -3    1.10    3.94 
  -2   3  -3    1.16    2.63 
  -2  -3  -3    1.80    1.91 
  -2   3  -3   -1.25    2.66 
  -2   3  -3   -0.09    2.42 
   2  -3   3    0.68    0.77 
   2   3   3   -0.47    1.41 
   2   3   3    0.67    1.30 
  -2   3  -3   -0.03    0.94 
   2   3   3   -0.31    1.60 
  -2   3  -3    0.47    1.34 
  -2  -3  -3    9.80    7.82 
   2   3   3    3.45    8.73 
  -2   3  -3   -0.02    0.81 
   2  -3   3    0.89    1.09 
   2  -3   4  128.28    9.47 
   2   3   4  133.36    9.92 
  -2   3  -4  133.46    9.76 
  -2  -3  -4  129.72    9.59 
  -2   3  -4  120.05    8.74 
  -2  -3  -4  140.03   10.57 
   2  -3   4  153.05   10.80 
   2   3   4  136.40   10.59 
  -2  -3  -4  128.80    9.39 
   2  -3   4  129.02    9.13 
   2   3   4  127.26    9.63 
  -2   3  -4  126.28    9.18 
   2  -3   4  138.12   10.03 
   2   3   4  122.01    8.95 
  -2  -3  -4  130.65    9.98 
  -2   3  -4  141.14   10.28 
  -2  -3  -4  124.34    9.19 
  -2   3  -4  150.40   11.13 
  -2   3  -4  128.35    9.57 
   2  -3   4  138.30    9.71 
   2   3   4  136.95    9.64 
  -2   3  -4  133.76    9.38 
  -2  -3  -4  132.57    9.34 
   2   3   4  144.69   10.32 
  -2   3  -4  129.95    9.36 
  -2   3  -4  130.42    9.13 
  -2  -3  -4  125.31    8.94 
   2   3   4  121.43   10.46 
  -2  -3  -4  131.32   11.14 
  -2   3  -4  149.46   13.33 
   2   3   4  132.78   10.22 
  -2   3  -4  123.20    8.91 
   2  -3   4  127.79    9.00 
   2   3   4  124.04    8.72 
   2  -3   5  135.55    7.08 
   2   3   5  141.26    7.93 
  -2   3  -5  135.11    7.11 
  -2  -3  -5  138.08    7.65 
  -2   3  -5  141.44    7.75 
  -2  -3  -5  125.86    7.00 
   2  -3   5  125.65    6.54 
   2   3   5  131.48    7.39 
  -2  -3  -5  150.69    8.45 
   2  -3   5  123.36    6.27 
   2   3   5  129.47    7.11 
  -2   3  -5  126.93    6.60 
   2  -3   5  130.48    7.06 
   2   3   5  122.68    6.60 
  -2  -3  -5  134.54    7.87 
  -2   3  -5  140.10    7.66 
  -2   3  -5  143.08    7.77 
  -2   3  -5  130.28    7.39 
   2  -3   5  122.98    7.83 
   2   3   5  134.37    6.86 
  -2   3  -5  134.12    7.07 
  -2  -3  -5  131.61    6.76 
   2   3   5  153.06    8.01 
  -2   3  -5  152.78    8.17 
  -2   3  -5  122.15    6.19 
  -2  -3  -5  137.51    6.98 
   2   3   5  114.44    8.33 
  -2  -3  -5  129.46    9.19 
  -2   3  -5  148.02    8.58 
   2   3   5  149.12    8.99 
  -2   3  -5  126.56    6.53 
   2  -3   5  136.09    6.78 
   2  -3   5  140.97    7.05 
   2   3   5  129.61    6.64 
   2  -3   6   94.99    6.90 
   2   3   6  104.98    8.00 
  -2   3  -6   99.95    7.02 
  -2  -3  -6   96.42    7.20 
  -2   3  -6  107.92    8.31 
  -2  -3  -6   91.35    6.69 
   2  -3   6  103.12    7.47 
   2   3   6  104.00    7.98 
   2  -3   6   97.39    6.82 
  -2  -3  -6  107.20    8.54 
  -2   3  -6  105.26    8.25 
  -2   3  -6  104.93    7.57 
  -2   3  -6  103.47    7.58 
   2  -3   6  110.73    7.57 
   2   3   6   97.87    6.88 
  -2   3  -6  103.47    6.99 
  -2  -3  -6   97.03    6.62 
   2  -3   6  100.57    6.76 
   2   3   6  112.12    7.98 
  -2  -3  -6  103.35    7.24 
   2   3   6   99.12    8.81 
  -2  -3  -6  111.43    9.29 
  -2   3  -6  102.71    8.75 
   2   3   6  103.25    9.29 
   2  -3   6   89.09    6.09 
   2  -3   6  107.07    7.23 
   2   3   6  103.54    7.04 
   2  -3   7   19.80    3.02 
   2   3   7   16.55    4.00 
  -2   3  -7   18.60    3.29 
  -2  -3  -7   15.85    3.80 
  -2   3  -7   17.35    4.56 
  -2  -3  -7   15.53    4.07 
   2   3   7   13.72    4.01 
   2  -3   7   16.96    3.11 
  -2  -3  -7   11.74    3.89 
  -2   3  -7   15.57    4.73 
  -2   3  -7   14.71    3.60 
  -2   3  -7   14.68    3.28 
   2  -3   7   17.42    1.85 
   2   3   7   15.24    2.28 
  -2   3  -7   17.83    1.58 
  -2  -3  -7   16.50    2.36 
   2  -3   7   14.19    2.25 
   2   3   7   16.59    3.08 
  -2   3  -7   11.81    1.86 
  -2  -3  -7   13.23    2.86 
   2   3   7   11.73    6.75 
  -2  -3  -7   12.35    8.02 
  -2   3  -7   19.10    5.04 
   2   3   7   11.82    5.92 
   2  -3   7   17.73    1.83 
   2  -3   7   14.59    1.86 
   2   3   7   10.76    2.27 
   2  -3   8   49.78    4.82 
   2   3   8   57.24    5.32 
  -2   3  -8   57.00    5.14 
  -2  -3  -8   60.99    5.46 
   2  -3   8   33.75    6.14 
   2   3   8   60.65    6.30 
  -2   3  -8   43.03    4.96 
  -2  -3  -8   60.68    5.99 
  -2  -3  -8   59.44    8.77 
  -2   3  -8   53.89    5.94 
   2   3   8   54.34    6.70 
   2  -3   8   56.10    4.89 
   2  -3   8   61.65    5.61 
   2  -3   9  275.64   18.58 
   2   3   9  263.57   17.69 
  -2   3  -9  289.27   19.22 
  -2  -3  -9  277.55   18.47 
   2   3   9  258.41   17.29 
  -2   3  -9  261.62   17.48 
  -2  -3  -9  265.08   17.69 
  -2  -3  -9  269.25   18.73 
   2   3   9  231.78   15.88 
   2  -3   9  257.70   17.52 
   2  -3   9  241.36   16.95 
   2   3   9  254.28   16.99 
   2  -3  10   74.69    4.56 
   2   3  10   67.82    4.28 
  -2   3 -10   73.76    4.31 
  -2  -3 -10   77.77    4.80 
   2   3  10   65.89    4.27 
  -2  -3 -10   66.42    4.55 
  -2  -3 -10   75.05    6.00 
   2  -3  10   69.86    4.15 
   2  -3  10   71.41    4.49 
   2  -3  11    2.74    1.68 
  -2   3 -11    3.03    1.53 
   2   3  11    4.32    2.23 
  -2  -3 -11    0.33    5.24 
   2  -3  11    2.07    2.14 
   2   3  11    4.63    2.20 
  -2  -4  10   24.27    5.83 
   2   4 -10   25.57    6.11 
  -2   4  10   29.49    3.22 
  -2   4  10   27.72    7.70 
   2  -4 -10   29.89    4.38 
  -2  -4  10   20.34    5.22 
  -2   4  10   25.85    6.50 
  -2   4  10   32.07    3.77 
  -2  -4   9   60.30    6.91 
   2   4  -9   58.62   10.85 
  -2   4   9   71.28    8.06 
   2   4  -9   68.55    7.64 
  -2  -4   9   61.19    7.61 
  -2   4   9   86.09   12.30 
   2  -4  -9   70.54    8.73 
  -2  -4   9   68.99    7.69 
  -2   4   9   82.11    9.32 
  -2   4   9   72.35    8.10 
  -2  -4   8  138.47   11.65 
   2   4  -8  138.92   11.67 
  -2   4   8  125.59   10.87 
   2   4  -8  112.69   10.91 
  -2  -4   8  142.41   14.20 
  -2   4   8  118.97   13.39 
   2  -4  -8  142.35   13.15 
  -2  -4   8  131.37   11.09 
  -2   4   8  130.63   10.91 
  -2   4   8  134.06   11.13 
  -2  -4   7  290.30   25.07 
   2   4  -7  358.48   29.88 
  -2   4   7  356.83   30.48 
   2  -4  -7  355.43   29.80 
  -2  -4   7  342.01   28.52 
  -2  -4   7  332.20   27.76 
  -2   4   7  387.68   32.51 
   2  -4  -7  366.55   30.83 
   2   4  -7  333.89   28.11 
   2   4  -7  340.16   28.63 
   2   4  -7  362.20   30.25 
  -2  -4   7  389.26   33.82 
   2   4  -7  408.01   34.09 
  -2   4   7  399.15   33.15 
  -2  -4   7  361.48   29.97 
  -2  -4   7  364.96   31.67 
  -2   4   7  397.32   34.11 
   2  -4  -7  356.05   30.06 
   2   4  -7  427.66   35.93 
  -2   4   7  358.44   32.16 
  -2  -4   7  370.99   31.09 
  -2   4   7  371.17   30.72 
  -2   4   7  412.02   34.22 
  -2  -4   6  322.22   20.27 
   2   4  -6  351.73   21.39 
  -2   4   6  374.73   22.77 
   2  -4  -6  340.70   21.12 
  -2  -4   6  350.95   21.58 
  -2  -4   6  331.36   19.95 
  -2   4   6  374.11   22.67 
   2  -4  -6  332.20   20.50 
   2   4  -6  337.83   20.61 
   2   4  -6  350.40   21.44 
   2   4  -6  341.88   20.69 
  -2  -4   6  359.98   22.67 
   2   4  -6  388.42   23.13 
  -2   4   6  387.51   23.06 
  -2  -4   6  358.55   21.34 
  -2  -4   6  354.63   24.64 
  -2   4   6  365.06   26.23 
   2  -4  -6  348.20   21.33 
   2   4  -6  384.81   23.79 
  -2   4   6  355.03   23.03 
  -2  -4   6  384.63   23.33 
  -2   4   6  383.41   22.88 
  -2   4   6  397.17   23.81 
  -2  -4   5  233.99   16.02 
   2   4  -5  253.29   16.74 
   2   4  -5  245.36   16.63 
  -2   4   5  258.24   17.41 
   2  -4  -5  254.16   17.10 
  -2  -4   5  267.86   17.88 
  -2  -4   5  248.40   16.42 
  -2   4   5  255.89   17.50 
  -2  -4   5  211.26   14.68 
   2   4  -5  247.43   16.69 
   2   4  -5  280.35   19.13 
   2   4  -5  246.96   16.76 
  -2  -4   5  246.27   16.59 
   2   4  -5  264.68   17.25 
  -2   4   5  256.50   16.81 
   2   4  -5  232.09   15.14 
  -2  -4   5  245.71   16.11 
  -2  -4   5  182.75   17.52 
  -2   4   5  277.64   20.74 
   2  -4  -5  253.62   17.23 
   2   4  -5  232.89   19.41 
  -2   4   5  255.70   17.13 
  -2  -4   5  201.67   15.77 
  -2   4   5  252.64   16.59 
  -2   4   5  260.19   17.10 
  -2  -4   4  492.85   29.32 
   2   4  -4  508.61   29.79 
   2   4  -4  478.38   28.18 
  -2   4   4  440.44   25.99 
   2  -4  -4  459.24   27.18 
  -2  -4   4  479.45   28.14 
   2   4  -4  469.05   27.45 
  -2   4   4  400.60   24.99 
  -2  -4   4  463.58   27.35 
  -2   4   4  516.34   30.41 
   2  -4  -4  473.63   27.95 
  -2  -4   4  388.62   29.28 
   2   4  -4  470.30   27.75 
   2   4  -4  446.00   26.36 
   2   4  -4  456.63   26.96 
  -2  -4   4  460.36   27.06 
   2   4  -4  467.57   27.19 
  -2   4   4  475.87   27.71 
   2   4  -4  460.22   26.80 
  -2   4   4  528.21   31.85 
   2   4  -4  488.03   29.22 
  -2   4   4  480.05   28.22 
  -2  -4   4  493.00   29.20 
  -2   4   4  510.69   29.69 
  -2   4   4  475.92   27.91 
  -2  -4   3  219.42   14.59 
   2   4  -3  233.99   11.85 
   2   4  -3  219.36   11.36 
  -2   4   3  216.65   11.51 
   2  -4  -3  209.97   11.17 
  -2  -4   3  206.85   10.36 
   2   4  -3  199.52   10.33 
  -2   4   3  205.67   11.13 
  -2  -4   3  214.29   10.95 
  -2   4   3  210.98   11.00 
   2  -4  -3  202.77   10.62 
  -2  -4   3  223.91   11.29 
   2   4  -3  192.36   10.41 
   2   4  -3  204.16   10.82 
   2   4  -3  188.13   10.05 
   2   4  -3  215.98   10.70 
  -2  -4   3  228.69   11.29 
  -2   4   3  217.77   10.83 
   2   4  -3  209.04   10.33 
  -2  -4   3  243.33   11.92 
  -2   4   3  208.34   13.27 
   2   4  -3  213.20   15.84 
  -2   4   3  220.50   11.46 
  -2  -4   3  211.46   10.53 
  -2   4   3  227.32   11.46 
  -2   4   3  201.31   10.05 
   2  -4  -2  326.37   22.81 
  -2  -4   2  338.18   23.76 
  -2   4   2  315.85   22.10 
   2   4  -2  338.94   23.71 
   2   4  -2  310.39   21.72 
  -2   4   2  332.74   23.47 
   2  -4  -2  304.44   21.38 
  -2  -4   2  300.54   21.32 
   2   4  -2  289.05   20.29 
  -2   4   2  286.90   20.43 
   2  -4  -2  307.36   21.57 
  -2  -4   2  308.35   21.47 
   2  -4  -2  304.75   21.40 
  -2  -4   2  305.65   21.34 
   2   4  -2  326.85   22.99 
   2   4  -2  313.18   22.04 
   2   4  -2  289.51   20.47 
   2   4  -2  316.77   21.99 
  -2  -4   2  335.39   23.28 
  -2   4   2  308.55   21.48 
   2   4  -2  308.86   21.43 
  -2   4   2  290.95   20.47 
  -2  -4   2  264.78   25.61 
  -2   4   2  327.83   23.59 
   2   4  -2  331.11   25.49 
  -2   4   2  329.01   22.90 
  -2  -4   2  312.55   21.72 
  -2   4   2  338.11   23.48 
  -2   4   2  306.46   21.26 
  -2  -4   1  261.11   11.55 
   2  -4  -1  255.45   11.20 
   2   4  -1  260.22   11.54 
  -2   4   1  260.89   11.37 
  -2  -4   1  261.28   11.69 
  -2   4   1  271.32   12.04 
   2  -4  -1  271.80   12.50 
  -2  -4   1  240.65   14.45 
   2   4  -1  249.92   11.26 
  -2   4   1  243.16   10.93 
   2  -4  -1  260.66   11.68 
  -2  -4   1  237.89   10.35 
   2  -4  -1  234.55   10.46 
  -2  -4   1  251.67   11.12 
   2   4  -1  261.17   11.72 
   2   4  -1  239.83   10.83 
   2   4  -1  234.31   10.78 
  -2   4   1  251.05   11.03 
   2   4  -1  257.40   11.06 
  -2  -4   1  240.67   11.02 
  -2   4   1  252.02   11.25 
   2   4  -1  255.29   11.00 
  -2   4   1  254.26   11.11 
  -2  -4   1  259.33   11.06 
  -2  -4   1  239.14   12.05 
   2   4  -1  241.82   12.82 
  -2   4   1  259.59   11.64 
  -2   4   1  267.06   11.59 
  -2   4   1  251.92   10.88 
  -2  -4   0  296.46   13.09 
   2  -4   0  298.84   12.95 
   2   4   0  293.52   12.94 
  -2   4   0  285.63   12.38 
  -2  -4   0  288.44   12.80 
   2   4   0  302.36   13.32 
  -2   4   0  283.62   12.47 
   2  -4   0  321.67   14.16 
  -2  -4   0  308.29   13.83 
   2   4   0  295.80   13.27 
  -2   4   0  310.93   13.78 
   2  -4   0  317.49   14.15 
  -2  -4   0  286.52   12.46 
  -2  -4   0  304.50   13.34 
   2   4   0  322.44   14.13 
   2   4   0  299.11   13.20 
  -2   4   0  294.85   12.84 
   2   4   0  293.40   13.27 
  -2   4   0  304.25   13.29 
   2   4   0  306.85   13.10 
  -2   4   0  274.96   11.74 
  -2  -4   0  309.12   13.19 
   2  -4   0  278.65   11.85 
  -2   4   0  297.09   12.69 
   2   4   0  311.56   13.44 
  -2   4   0  309.05   13.43 
   2  -4   0  275.95   11.80 
  -2  -4   0  314.98   13.40 
  -2  -4   0  283.78   13.91 
   2   4   0  309.74   15.23 
   2   4   0  294.22   12.81 
  -2   4   0  313.51   13.46 
  -2  -4   0  262.28   11.19 
  -2   4   0  310.46   13.37 
  -2   4   0  308.99   13.28 
  -2  -4  -1   33.33    2.91 
   2  -4   1   33.31    2.26 
   2   4   1   36.01    3.08 
  -2   4  -1   33.26    2.41 
  -2  -4  -1   29.83    2.96 
   2   4   1   32.21    3.32 
  -2   4  -1   33.73    2.80 
   2  -4   1   30.52    2.44 
  -2  -4  -1   30.72    2.58 
   2   4   1   28.27    3.10 
  -2   4  -1   29.43    2.26 
   2  -4   1   22.81    3.25 
  -2  -4  -1   32.43    2.36 
  -2  -4  -1   29.38    2.82 
   2   4   1   25.89    2.60 
  -2   4  -1   29.98    2.86 
   2   4   1   25.64    2.83 
  -2   4  -1   29.27    2.51 
   2  -4   1   26.40    1.36 
   2   4   1   30.80    2.01 
  -2  -4  -1   32.66    2.06 
  -2   4  -1   29.86    2.00 
   2   4   1   26.72    2.08 
  -2   4  -1   30.96    1.68 
  -2  -4  -1   25.65    2.36 
  -2  -4  -1   28.49    6.43 
  -2   4  -1   27.82    6.32 
   2   4   1   26.72    3.36 
  -2   4  -1   29.47    1.99 
  -2   4  -1   29.05    1.89 
  -2   4  -1   29.47    2.24 
   2  -4   2  197.04   13.87 
   2   4   2  207.67   14.92 
  -2   4  -2  194.18   13.65 
  -2  -4  -2  198.10   14.30 
   2  -4   2  186.67   13.13 
   2   4   2  208.66   14.93 
  -2  -4  -2  195.54   13.88 
   2  -4   2  184.32   13.00 
   2   4   2  204.30   14.83 
  -2   4  -2  195.51   14.12 
  -2  -4  -2  203.63   14.45 
   2  -4   2  201.64   14.24 
  -2  -4  -2  196.63   14.48 
  -2   4  -2  207.86   14.78 
  -2   4  -2  204.08   14.54 
   2  -4   2  192.31   13.47 
   2   4   2  200.06   14.05 
  -2   4  -2  184.35   12.85 
  -2  -4  -2  210.23   14.70 
   2   4   2  184.44   12.88 
  -2   4  -2  199.56   13.99 
   2   4   2  186.18   13.03 
  -2   4  -2  208.60   14.49 
  -2  -4  -2  191.13   13.42 
  -2  -4  -2  191.54   16.92 
  -2   4  -2  205.86   15.12 
   2   4   2  198.85   14.33 
  -2   4  -2  202.37   14.29 
  -2   4  -2  198.55   13.83 
  -2   4  -2  202.83   14.32 
   2   4   3  143.24    7.96 
  -2   4  -3  141.81    7.56 
  -2  -4  -3  144.06    7.71 
   2  -4   3  154.80    7.98 
  -2  -4  -3  149.54    8.17 
   2  -4   3  136.92    6.95 
   2   4   3  135.94    7.65 
  -2   4  -3  140.64    7.26 
  -2  -4  -3  140.26    7.49 
   2  -4   3  139.58    7.32 
  -2  -4  -3  150.10    8.22 
  -2   4  -3  141.79    7.57 
  -2   4  -3  149.98    8.09 
  -2   4  -3  139.38    7.49 
   2  -4   3  151.11    7.75 
   2   4   3  142.94    7.27 
  -2   4  -3  136.46    7.17 
  -2  -4  -3  149.74    7.57 
   2   4   3  137.79    6.92 
  -2   4  -3  150.89    7.69 
   2   4   3  134.80    6.83 
  -2   4  -3  143.96    7.31 
  -2  -4  -3  150.17    7.62 
  -2  -4  -3  144.74   12.37 
  -2   4  -3  146.22   10.74 
   2   4   3  143.99    8.43 
  -2   4  -3  152.66    8.03 
   2  -4   3  146.65    7.35 
   2  -4   4  111.08    7.04 
   2   4   4  120.22    8.13 
  -2   4  -4  105.84    6.63 
  -2  -4  -4  117.42    7.58 
   2  -4   4  107.11    6.65 
   2   4   4  104.14    7.05 
  -2  -4  -4  131.20    8.50 
   2  -4   4  115.23    7.20 
   2   4   4  108.48    7.72 
  -2   4  -4  109.11    6.84 
   2  -4   4  110.58    6.89 
  -2  -4  -4  114.70    8.27 
  -2   4  -4  118.05    7.65 
  -2   4  -4  115.61    7.47 
  -2   4  -4  114.63    7.37 
   2  -4   4  104.80    6.63 
   2   4   4  115.38    7.06 
  -2   4  -4  108.02    6.62 
  -2  -4  -4  111.33    6.81 
   2   4   4  111.70    7.13 
  -2   4  -4  118.86    7.34 
   2   4   4  104.64    6.41 
  -2   4  -4  115.47    6.87 
  -2  -4  -4  111.28    7.04 
  -2  -4  -4  128.12   13.30 
  -2   4  -4  124.68   10.25 
   2   4   4  112.84    7.83 
  -2   4  -4  103.81    6.67 
   2  -4   4  109.02    6.53 
   2   4   4   98.89    5.97 
   2  -4   5   26.93    3.11 
   2   4   5   28.09    4.28 
  -2   4  -5   26.80    3.10 
  -2  -4  -5   25.69    3.58 
   2  -4   5   28.75    2.75 
   2   4   5   31.93    4.13 
  -2  -4  -5   34.40    4.74 
   2   4   5   36.07    4.43 
  -2   4  -5   23.52    2.57 
   2  -4   5   35.73    3.98 
  -2  -4  -5   37.51    5.47 
  -2   4  -5   30.09    3.84 
  -2   4  -5   30.48    4.58 
  -2   4  -5   31.22    3.90 
   2  -4   5   30.42    2.43 
   2   4   5   32.68    3.34 
  -2   4  -5   31.54    2.43 
  -2  -4  -5   33.66    3.03 
   2   4   5   29.02    2.96 
  -2   4  -5   32.22    2.59 
  -2   4  -5   30.01    2.58 
  -2  -4  -5   32.84    3.32 
  -2  -4  -5   31.56    8.46 
  -2   4  -5   39.40    5.77 
   2   4   5   33.79    6.28 
   2  -4   5   37.78    2.85 
   2  -4   5   34.49    3.33 
   2   4   5   27.16    2.87 
   2  -4   6  105.19    7.13 
   2   4   6  115.30    8.12 
  -2   4  -6  116.28    7.41 
  -2  -4  -6  101.94    7.63 
   2   4   6  121.95    9.07 
   2  -4   6  118.82    7.55 
  -2  -4  -6  114.00    8.41 
  -2   4  -6  120.00    8.44 
  -2   4  -6  120.12    8.99 
  -2   4  -6  124.00    8.69 
   2  -4   6  121.36    9.62 
   2   4   6  115.83    7.33 
  -2   4  -6  118.31    7.49 
  -2  -4  -6  133.74    8.37 
   2  -4   6  128.17    7.83 
   2   4   6  123.10    8.13 
  -2   4  -6  112.91    7.03 
  -2  -4  -6  119.89    7.40 
  -2  -4  -6  125.81    8.27 
  -2  -4  -6  126.82   10.24 
  -2   4  -6  139.62    9.91 
   2   4   6  110.09    8.75 
   2  -4   6  135.91    8.42 
   2  -4   6  124.38    7.67 
   2   4   6  101.15    6.39 
   2  -4   7    7.57    1.53 
   2   4   7   10.70    3.28 
  -2   4  -7    7.71    1.59 
  -2  -4  -7    6.88    2.80 
   2  -4   7    7.80    1.88 
   2   4   7    7.32    2.70 
  -2  -4  -7    5.52    2.12 
  -2  -4  -7    8.46    2.76 
  -2  -4  -7    9.28    6.46 
   2   4   7    9.14    4.18 
   2  -4   7    8.31    1.50 
   2  -4   7    6.58    2.32 
   2   4   7    5.92    2.06 
   2  -4   8   20.08    2.70 
   2   4   8   25.73    3.29 
  -2   4  -8   19.80    2.16 
  -2  -4  -8   26.33    3.00 
   2   4   8   22.82    2.80 
  -2  -4  -8   17.84    2.55 
  -2  -4  -8   23.40    2.41 
  -2  -4  -8   19.60    5.99 
  -2   4  -8   23.13    4.78 
   2   4   8   18.79    3.51 
   2  -4   8   25.96    2.53 
   2  -4   8   25.42    2.60 
   2   4   8   21.75    2.93 
   2  -4   9  245.45   27.18 
   2   4   9  264.56   28.48 
  -2   4  -9  269.68   29.54 
  -2  -4  -9  295.02   31.73 
   2   4   9  283.97   30.61 
  -2  -4  -9  344.92   66.21 
   2   4   9  248.75   26.98 
   2  -4   9  261.31   28.23 
   2  -4   9  231.13   26.88 
   2   4   9  243.76   26.31 
   2  -4  10   78.77    6.77 
   2   4  10   88.27    7.08 
  -2   4 -10   93.14    7.44 
  -2  -4 -10   83.20    6.71 
   2   4  10   80.70    7.05 
  -2  -4 -10   92.87    9.21 
   2  -4  10   75.36    6.19 
   2  -4  10   88.29    7.02 
   2   4  10   91.20    7.40 
  -2  -5   9   56.17    4.90 
   2   5  -9   53.57    4.56 
  -2   5   9   55.26    5.35 
  -2  -5   9   66.31    5.31 
  -2   5   9   64.05    5.64 
  -2  -5   8   65.77    7.45 
   2   5  -8   66.35    7.51 
  -2   5   8   59.52   10.78 
  -2  -5   8   75.35    8.82 
  -2   5   8   70.03   10.45 
   2   5  -8   64.89    7.79 
  -2   5   8   63.94    7.25 
  -2  -5   8   62.28    6.98 
  -2   5   8   64.76    7.37 
  -2   5   8   62.72    7.18 
  -2  -5   7    1.41    1.59 
   2   5  -7    0.98    1.48 
  -2   5   7    1.47    2.95 
  -2  -5   7   -0.36    4.82 
  -2   5   7   -9.61    6.45 
   2   5  -7   -6.66    6.20 
  -2   5   7    2.42    2.32 
  -2  -5   7   -0.54    1.29 
  -2   5   7    0.99    2.72 
  -2   5   7   -0.48    3.01 
  -2  -5   6   76.89    6.76 
   2   5  -6   73.60    6.27 
  -2   5   6   75.43    6.71 
  -2  -5   6   86.34   10.03 
  -2   5   6   82.84   12.54 
   2   5  -6   96.46   10.71 
  -2   5   6   66.69    6.43 
  -2  -5   6   77.98    6.60 
  -2   5   6   74.95    7.01 
  -2   5   6   73.04    6.68 
  -2  -5   5   84.44    8.26 
   2   5  -5   91.88    8.85 
  -2   5   5   96.66    9.69 
   2  -5  -5   92.06    9.28 
  -2  -5   5  105.70   10.00 
   2  -5  -5  103.71   11.11 
   2  -5  -5   93.43    9.76 
   2   5  -5   97.47   10.06 
   2   5  -5  111.16   11.64 
  -2  -5   5   84.39    9.00 
   2   5  -5   96.68    9.96 
  -2   5   5  114.23   10.82 
   2   5  -5  104.70    9.71 
  -2  -5   5   72.89   10.54 
  -2   5   5  112.15   13.74 
   2   5  -5   94.09   12.16 
  -2   5   5   94.45    9.57 
  -2  -5   5   85.03    9.08 
  -2   5   5  106.12   10.04 
  -2   5   5  113.49   11.00 
  -2  -5   4  361.00   22.21 
   2   5  -4  407.62   24.48 
  -2   5   4  347.55   23.46 
   2  -5  -4  361.39   21.91 
  -2  -5   4  379.48   22.69 
  -2   5   4  305.50   19.41 
   2  -5  -4  391.97   23.72 
  -2  -5   4  337.10   20.20 
   2  -5  -4  359.11   21.91 
   2   5  -4  352.43   21.38 
   2   5  -4  380.70   23.50 
  -2  -5   4  397.19   24.06 
   2   5  -4  399.17   23.74 
  -2   5   4  402.51   23.95 
   2   5  -4  381.27   22.58 
  -2   5   4  415.35   26.05 
   2   5  -4  326.83   35.27 
  -2   5   4  330.64   25.00 
  -2  -5   4  392.10   23.56 
  -2   5   4  395.05   23.49 
  -2   5   4  388.45   23.13 
  -2  -5   3  342.32   22.63 
   2   5  -3  363.27   23.78 
  -2   5   3  356.22   23.58 
   2  -5  -3  375.72   24.80 
  -2  -5   3  361.06   23.67 
   2   5  -3  356.83   23.48 
  -2   5   3  312.56   22.98 
   2  -5  -3  369.51   24.51 
  -2  -5   3  325.12   21.39 
   2  -5  -3  342.45   22.62 
  -2  -5   3  345.58   22.60 
   2   5  -3  347.95   23.03 
   2   5  -3  352.60   23.33 
   2   5  -3  390.90   25.40 
  -2  -5   3  382.33   24.90 
  -2   5   3  391.44   26.22 
   2   5  -3  378.04   24.62 
  -2   5   3  290.03   20.56 
  -2  -5   3  320.60   26.72 
  -2   5   3  373.66   25.31 
   2   5  -3  361.54   25.39 
  -2   5   3  358.58   23.53 
  -2  -5   3  385.57   25.44 
  -2   5   3  397.27   25.88 
  -2   5   3  359.09   23.40 
  -2  -5   2  115.83   11.52 
   2   5  -2  122.98   12.22 
  -2   5   2  114.86   11.56 
   2  -5  -2  141.16   14.40 
  -2  -5   2  132.68   13.20 
   2   5  -2  124.14   12.71 
  -2   5   2  129.76   13.02 
   2  -5  -2  136.91   14.21 
  -2  -5   2  119.90   11.75 
  -2  -5   2  127.32   12.78 
   2   5  -2  129.68   13.15 
   2   5  -2  121.70   12.53 
   2   5  -2  133.36   12.97 
  -2  -5   2  132.90   12.93 
  -2   5   2  131.02   12.80 
   2   5  -2  131.89   13.03 
  -2   5   2  116.87   11.85 
   2  -5  -2  122.46   12.01 
  -2  -5   2  136.39   13.29 
   2   5  -2  136.84   16.98 
  -2   5   2  138.60   13.78 
  -2  -5   2  131.49   12.77 
  -2   5   2  148.69   14.58 
  -2   5   2  135.62   13.32 
  -2  -5   1   89.84    9.20 
   2  -5  -1   80.07    8.16 
   2   5  -1   93.07    9.48 
  -2   5   1   98.06    9.85 
  -2   5   1   88.82    9.15 
   2  -5  -1  100.19   10.65 
  -2  -5   1   82.56    8.35 
   2   5  -1   84.64    8.76 
  -2   5   1   88.81    9.48 
   2  -5  -1   91.48    9.76 
  -2  -5   1   81.14    8.72 
   2   5  -1   89.78    9.62 
   2   5  -1   81.07    8.53 
   2   5  -1   92.32    9.07 
  -2  -5   1   93.53    9.18 
  -2   5   1   96.64    9.49 
   2   5  -1   96.97    9.65 
  -2   5   1   89.62    8.92 
   2  -5  -1   90.78    9.10 
  -2  -5   1   81.83    8.17 
   2   5  -1   90.08   13.06 
  -2   5   1   91.11    9.06 
  -2  -5   1   86.75    8.45 
  -2   5   1   91.97    9.11 
  -2   5   1   96.62    9.51 
  -2  -5   0   88.12    5.99 
   2  -5   0   93.68    6.21 
   2   5   0   88.36    6.00 
  -2   5   0   88.64    5.82 
  -2   5   0   92.06    6.61 
   2  -5   0   86.65    5.94 
  -2  -5   0   84.06    5.61 
   2   5   0   80.90    5.92 
  -2   5   0   82.70    5.52 
   2  -5   0   89.69    6.25 
   2   5   0   84.19    5.85 
   2   5   0   86.35    5.37 
  -2   5   0   85.04    5.19 
  -2  -5   0   91.93    5.65 
   2  -5   0   92.35    5.50 
  -2   5   0   93.14    5.87 
   2   5   0   86.28    5.48 
  -2   5   0   84.32    5.49 
   2  -5   0   79.25    4.92 
  -2  -5   0   95.85    5.83 
   2   5   0   93.68    8.09 
  -2   5   0   89.62    6.49 
   2   5   0   85.69    5.41 
  -2   5   0   90.43    5.65 
  -2  -5   0   87.02    5.28 
  -2   5   0   92.13    5.73 
  -2   5   0   91.31    5.94 
  -2  -5  -1  246.69   24.09 
   2  -5   1  239.87   23.33 
   2   5   1  236.40   23.10 
  -2   5  -1  220.68   21.52 
   2   5   1  225.20   21.98 
  -2  -5  -1  225.99   22.01 
   2   5   1  231.73   22.86 
  -2   5  -1  230.68   22.53 
   2  -5   1  234.27   22.84 
  -2  -5  -1  231.61   22.77 
  -2   5  -1  240.94   23.50 
   2  -5   1  253.84   24.54 
   2   5   1  242.76   23.48 
  -2   5  -1  214.91   20.91 
  -2  -5  -1  247.50   23.92 
  -2   5  -1  231.84   22.43 
   2   5   1  241.35   23.48 
  -2   5  -1  241.23   23.35 
   2  -5   1  203.00   19.60 
  -2  -5  -1  220.73   21.37 
  -2  -5  -1  212.60   23.61 
   2   5   1  189.18   19.31 
  -2   5  -1  244.07   24.35 
   2   5   1  233.18   22.65 
  -2   5  -1  259.16   25.09 
  -2   5  -1  244.74   23.67 
  -2   5  -1  239.13   23.16 
  -2  -5  -2   20.26    3.24 
   2  -5   2   23.35    2.56 
   2   5   2   22.54    3.95 
  -2   5  -2   23.05    2.82 
   2  -5   2   23.87    2.88 
   2   5   2   22.96    3.15 
  -2  -5  -2   22.41    3.74 
   2  -5   2   20.47    2.45 
   2   5   2   19.66    4.24 
  -2   5  -2   25.58    2.77 
   2  -5   2   21.46    2.91 
  -2  -5  -2   22.74    4.13 
  -2   5  -2   22.19    3.24 
   2  -5   2   22.00    2.10 
   2   5   2   22.53    2.30 
  -2   5  -2   23.03    2.18 
  -2  -5  -2   21.10    2.28 
   2   5   2   20.52    1.91 
  -2   5  -2   24.67    2.50 
   2   5   2   21.97    2.38 
  -2   5  -2   23.73    2.14 
  -2  -5  -2   19.91    2.50 
  -2  -5  -2   18.63    6.04 
  -2   5  -2   19.07    4.88 
   2   5   2   22.06    3.12 
  -2   5  -2   22.21    2.48 
   2  -5   2   20.42    2.20 
  -2   5  -2   23.63    2.98 
  -2  -5  -3    7.05    2.93 
   2  -5   3   10.15    1.86 
   2   5   3    9.68    3.35 
  -2   5  -3    7.85    2.26 
   2  -5   3    5.82    2.22 
   2   5   3    8.75    3.69 
  -2  -5  -3    7.99    4.86 
   2  -5   3    6.83    1.99 
   2   5   3    6.13    4.46 
  -2   5  -3    8.82    2.20 
   2  -5   3    9.85    3.11 
  -2  -5  -3    8.45    3.47 
  -2   5  -3    7.24    2.75 
  -2   5  -3    8.79    2.77 
   2  -5   3    8.89    1.11 
   2   5   3    7.93    2.52 
  -2   5  -3    8.31    1.30 
  -2  -5  -3    9.10    2.29 
   2   5   3    8.97    1.75 
  -2   5  -3    6.50    1.68 
   2   5   3   10.28    2.21 
  -2   5  -3    7.29    2.17 
  -2  -5  -3    9.26    2.22 
  -2  -5  -3   10.76    9.78 
  -2   5  -3   10.60    5.10 
   2   5   3    7.73    3.02 
  -2   5  -3    9.37    1.41 
   2  -5   3    8.03    1.96 
   2  -5   4   74.86    5.00 
   2   5   4   73.44    5.99 
  -2   5  -4   71.86    4.91 
   2  -5   4   70.91    4.92 
   2   5   4   75.23    5.67 
  -2  -5  -4   82.73    5.94 
   2  -5   4   69.21    4.75 
   2   5   4   70.07    5.84 
  -2   5  -4   75.36    5.05 
   2  -5   4   73.33    5.16 
  -2  -5  -4   83.41    7.32 
  -2   5  -4   69.71    5.41 
  -2   5  -4   78.76    5.78 
   2  -5   4   78.32    5.00 
   2   5   4   78.42    5.12 
  -2   5  -4   71.89    4.68 
  -2  -5  -4   72.51    4.83 
   2   5   4   76.61    5.31 
  -2   5  -4   79.67    5.04 
   2   5   4   75.22    4.96 
  -2   5  -4   81.37    5.86 
  -2  -5  -4   80.21    5.74 
  -2  -5  -4   65.60   10.14 
  -2   5  -4   87.82    8.36 
   2   5   4   83.01    7.32 
  -2   5  -4   68.55    4.44 
   2  -5   4   81.53    5.23 
   2  -5   5   16.77    3.23 
   2   5   5   24.72    5.23 
  -2   5  -5   16.63    3.16 
   2   5   5   15.29    5.27 
   2   5   5   15.82    3.91 
   2  -5   5   20.02    2.89 
  -2  -5  -5   17.90    4.43 
  -2   5  -5   18.66    4.47 
  -2   5  -5   23.48    4.43 
   2  -5   5   19.38    2.16 
   2   5   5   17.13    2.76 
  -2   5  -5   21.11    2.65 
  -2  -5  -5   18.24    3.01 
   2   5   5   20.92    3.08 
  -2   5  -5   20.00    2.50 
  -2   5  -5   19.29    2.35 
  -2  -5  -5   23.18    3.22 
  -2  -5  -5   26.90   11.22 
  -2   5  -5   25.83    6.17 
   2   5   5   25.50    4.84 
   2  -5   5   23.51    2.79 
   2  -5   5   20.86    2.49 
   2  -5   6   50.28    4.88 
   2   5   6   53.90    5.24 
  -2   5  -6   53.09    5.03 
  -2  -5  -6   47.84    4.72 
   2   5   6   54.82    5.52 
  -2   5  -6   54.51    4.79 
  -2  -5  -6   59.16    5.43 
  -2  -5  -6   47.06   13.72 
  -2   5  -6   61.93    6.85 
   2   5   6   54.95    6.41 
   2  -5   6   47.80    4.42 
   2  -5   6   54.24    4.81 
   2   5   6   48.19    4.42 
   2  -5   7   66.79    4.95 
   2   5   7   68.39    5.06 
  -2   5  -7   72.60    5.14 
   2   5   7   71.13    5.20 
  -2  -5  -7   52.71    6.43 
  -2  -5  -7   88.36   12.60 
  -2   5  -7   72.41    6.51 
   2   5   7   72.56    6.00 
   2  -5   7   76.97    5.38 
   2  -5   7   71.13    5.14 
   2   5   7   64.82    4.77 
   2  -5   8  183.68   10.45 
   2   5   8  183.40   10.10 
  -2   5  -8  188.44   10.66 
  -2  -5  -8  161.75    8.92 
   2   5   8  164.29    9.36 
  -2  -5  -8  160.86    9.14 
  -2  -5  -8  165.42   12.32 
  -2   5  -8  155.17    9.69 
   2   5   8  157.63    9.81 
   2  -5   8  144.96   10.67 
   2  -5   8  171.65    9.41 
   2   5   8  149.64    8.33 
   2  -5   9  147.81   12.02 
   2   5   9  137.54   10.91 
  -2   5  -9  158.55   12.42 
  -2  -5  -9  176.42   13.80 
   2   5   9  141.65   11.50 
  -2  -5  -9  152.07   13.02 
   2   5   9  152.98   12.08 
   2  -5   9  108.76    9.34 
   2  -5   9  127.63   10.25 
  -2  -6   8    1.71    1.28 
   2   6  -8    1.52    1.15 
  -2   6   8    0.75    2.53 
   2  -6  -8    1.77    2.76 
   2   6  -8    1.34    3.00 
  -2   6   8    1.08    1.71 
  -2  -6   8    2.32    1.22 
  -2   6   8    1.38    2.20 
  -2   6   8    1.91    2.40 
  -2  -6   7   80.48    5.33 
   2   6  -7   83.72    4.95 
  -2   6   7   76.65    4.70 
   2  -6  -7   82.37    5.01 
  -2  -6   7   65.59    5.24 
   2   6  -7   85.01    5.81 
  -2   6   7   80.58    5.01 
  -2  -6   7   72.75    4.66 
  -2   6   7   80.67    4.82 
  -2   6   7   81.77    5.20 
  -2  -6   6  129.87   15.09 
   2   6  -6  139.36   15.32 
  -2   6   6  122.98   14.16 
   2  -6  -6  144.71   15.85 
  -2  -6   6  161.82   17.89 
   2   6  -6  106.36   15.65 
  -2   6   6  136.89   14.99 
  -2  -6   6  127.87   14.11 
  -2   6   6  124.51   13.58 
  -2   6   6  141.68   15.49 
  -2  -6   5   17.16    1.96 
   2   6  -5   18.62    2.39 
  -2   6   5   19.93    2.57 
   2   6  -5   20.94    2.82 
   2  -6  -5   13.80    3.38 
  -2  -6   5   17.96    4.27 
   2   6  -5   31.88    7.24 
  -2   6   5   18.08    3.23 
  -2  -6   5   18.26    1.98 
  -2   6   5   15.27    2.51 
  -2   6   5   19.39    2.65 
  -2  -6   4  319.47   27.11 
   2   6  -4  327.57   26.60 
  -2   6   4  323.82   27.61 
   2   6  -4  300.70   24.34 
   2  -6  -4  330.58   26.92 
  -2  -6   4  202.30   22.09 
   2   6  -4  341.88   28.96 
  -2   6   4  327.10   26.76 
  -2  -6   4  282.24   23.58 
  -2   6   4  314.51   25.53 
  -2   6   4  315.52   25.58 
  -2  -6   3  366.03   30.63 
   2   6  -3  389.82   32.35 
  -2   6   3  349.42   29.14 
   2  -6  -3  395.62   33.06 
  -2  -6   3  305.96   26.02 
  -2   6   3  288.76   24.90 
   2  -6  -3  391.67   32.73 
   2   6  -3  361.62   30.32 
  -2  -6   3  297.64   48.09 
   2   6  -3  315.51   27.31 
  -2   6   3  417.76   34.53 
   2   6  -3  398.95   32.98 
  -2   6   3  326.52   28.20 
   2  -6  -3  397.83   32.93 
  -2  -6   3  544.28   45.69 
   2   6  -3  424.50   37.12 
  -2   6   3  401.24   33.44 
  -2  -6   3  446.17   37.11 
  -2   6   3  378.26   31.30 
  -2   6   3  399.95   33.06 
  -2  -6   2    0.94    2.52 
   2   6  -2   -1.10    2.45 
  -2   6   2    2.21    3.21 
   2  -6  -2    2.07    4.01 
  -2  -6   2    0.53    2.74 
   2   6  -2    1.59    3.16 
  -2   6   2   -1.98    2.68 
   2  -6  -2   -2.38    4.65 
   2   6  -2   -0.46    4.81 
   2   6  -2   -0.54    2.19 
  -2  -6   2    1.59    1.95 
  -2   6   2    1.23    2.21 
   2   6  -2    1.04    2.34 
  -2   6   2    2.02    1.39 
   2  -6  -2    3.55    2.03 
  -2  -6   2    0.78    1.68 
   2   6  -2   -2.39   10.99 
  -2   6   2   -1.55    3.15 
  -2  -6   2    1.80    1.19 
  -2   6   2   -1.29    2.59 
  -2   6   2    0.12    2.52 
  -2  -6   1   43.11    3.93 
   2   6  -1   51.81    4.48 
  -2   6   1   44.45    4.84 
   2  -6  -1   50.25    5.47 
  -2  -6   1   44.57    4.31 
   2   6  -1   46.07    4.77 
  -2   6   1   41.61    3.85 
   2  -6  -1   48.46    5.03 
   2   6  -1   46.80    4.03 
  -2  -6   1   52.78    4.49 
  -2   6   1   41.83    3.14 
   2   6  -1   39.61    3.77 
  -2   6   1   42.92    3.67 
   2  -6  -1   43.76    3.29 
  -2  -6   1   48.37    3.62 
   2   6  -1   48.74    7.20 
  -2   6   1   45.82    4.29 
  -2  -6   1   48.96    3.41 
  -2   6   1   47.15    4.27 
  -2   6   1   48.22    3.64 
  -2  -6   0    5.14    3.72 
   2   6   0    8.32    4.07 
  -2   6   0    4.07    2.70 
  -2  -6   0    4.75    3.54 
   2   6   0    7.65    4.76 
  -2   6   0    4.80    2.50 
   2  -6   0    3.86    3.58 
  -2  -6   0    6.06    2.92 
   2   6   0    7.98    2.49 
  -2   6   0    4.20    1.02 
  -2  -6   0    6.61    2.73 
  -2   6   0    3.82    1.54 
   2   6   0    5.35    2.04 
  -2   6   0    7.32    1.51 
   2  -6   0    3.53    1.37 
  -2  -6   0    3.71    2.11 
   2   6   0    7.35    5.95 
  -2   6   0    2.85    3.35 
   2   6   0    2.34    2.20 
  -2   6   0    6.74    2.34 
  -2  -6   0    4.80    1.06 
  -2   6   0    3.82    2.32 
  -2   6   0    3.35    2.39 
  -2  -6  -1  216.96   14.30 
   2   6   1  212.70   14.18 
   2  -6   1  188.29   12.43 
  -2  -6  -1  200.83   13.16 
   2   6   1  200.11   13.85 
  -2   6  -1  187.84   13.38 
   2  -6   1  200.03   13.41 
  -2  -6  -1  212.88   14.28 
   2  -6   1  239.44   15.29 
   2   6   1  210.08   13.55 
  -2   6  -1  195.02   12.83 
  -2  -6  -1  198.75   12.93 
  -2   6  -1  217.04   13.98 
   2   6   1  204.49   13.17 
  -2   6  -1  215.25   14.08 
  -2  -6  -1  208.92   13.76 
   2   6   1  192.50   13.91 
  -2   6  -1  217.86   15.49 
   2   6   1  198.85   12.89 
  -2   6  -1  200.54   13.03 
  -2   6  -1  200.44   13.18 
  -2  -6  -2   25.36    5.99 
   2  -6   2   20.43    2.96 
   2   6   2   20.34    4.94 
   2  -6   2   19.95    3.03 
  -2  -6  -2   24.59    3.80 
   2   6   2   22.74    5.56 
  -2   6  -2   24.86    3.46 
   2  -6   2   25.53    3.76 
  -2  -6  -2   21.42    3.84 
   2  -6   2   26.63    2.65 
   2   6   2   26.74    3.67 
  -2   6  -2   24.93    2.52 
  -2  -6  -2   26.52    3.64 
  -2   6  -2   28.37    3.06 
   2   6   2   24.54    3.51 
  -2   6  -2   26.61    3.00 
  -2  -6  -2   28.52    3.93 
  -2   6  -2   19.79    6.35 
   2   6   2   29.19    3.73 
  -2   6  -2   27.71    3.19 
   2  -6   2   18.27    2.89 
  -2  -6  -3    2.50    5.26 
   2   6   3    3.08    4.09 
   2   6   3    3.74    3.69 
  -2   6  -3    3.37    2.86 
   2  -6   3    5.80    3.03 
   2  -6   3    4.62    1.34 
   2   6   3    8.50    2.56 
  -2   6  -3    2.63    1.24 
  -2  -6  -3    7.36    2.76 
   2   6   3    3.99    2.23 
  -2   6  -3    3.20    1.44 
   2   6   3    4.04    1.91 
  -2   6  -3    4.02    1.95 
  -2  -6  -3    4.27    2.29 
  -2   6  -3    2.91    5.42 
   2   6   3   -0.88    3.75 
  -2   6  -3    2.48    1.70 
   2  -6   3    2.55    1.81 
   2  -6   4   20.06    2.48 
   2   6   4   19.54    2.80 
  -2   6  -4   17.62    2.18 
  -2  -6  -4   17.82    2.33 
   2   6   4   20.16    2.76 
   2   6   4   18.78    2.30 
  -2   6  -4   20.47    2.61 
  -2  -6  -4   25.81    3.85 
  -2  -6  -4   24.99    6.36 
  -2   6  -4   19.59    6.55 
   2   6   4   22.36    4.03 
   2  -6   4   23.36    2.57 
   2  -6   4   20.83    2.45 
   2  -6   5  527.10   36.31 
   2   6   5  616.53  112.67 
  -2   6  -5  483.15   34.00 
  -2  -6  -5  551.35  100.77 
   2   6   5  499.02   33.15 
  -2  -6  -5  543.74   99.36 
  -2  -6  -5  525.10   35.77 
  -2   6  -5  530.06   43.78 
   2   6   5  568.64  104.03 
   2  -6   5  532.29   37.08 
   2  -6   5  552.11  100.96 
   2  -6   6  132.82   14.51 
   2   6   6  139.97   15.30 
  -2   6  -6  113.10   12.60 
  -2  -6  -6  116.87   12.80 
   2   6   6  119.89   13.15 
  -2   6  -6  120.22   13.01 
  -2  -6  -6  128.63   14.06 
  -2  -6  -6  123.84   14.95 
  -2   6  -6  139.01   16.03 
   2   6   6  133.91   14.71 
   2  -6   6  138.19   14.96 
   2  -6   6  119.37   12.93 
   2  -6   7   30.37    5.46 
   2   6   7   30.79    5.71 
  -2   6  -7   25.65    4.61 
  -2  -6  -7   30.68    5.55 
   2   6   7   29.12    5.41 
  -2  -6  -7   19.20    4.16 
  -2  -6  -7   28.07    7.13 
  -2   6  -7   29.87    5.82 
   2   6   7   26.45    5.67 
   2  -6   7   33.61    6.04 
   2  -6   7   28.76    5.16 
   2  -6   8   26.88    3.33 
  -2   6  -8   22.74    4.64 
   2   6   8   20.29    4.44 
  -2   6  -8    7.82    3.32 
   2   6   8   24.32    5.42 
   2  -6   8   25.15    3.01 
  -2  -7   7   37.07    4.30 
   2   7  -7   44.11    4.94 
  -2   7   7   42.20    4.90 
   2  -7  -7   41.60    4.96 
  -2  -7   6    2.06    1.63 
   2   7  -6    2.19    1.50 
  -2   7   6    1.94    2.17 
   2  -7  -6    2.19    2.67 
   2   7  -6    0.15    3.26 
  -2   7   6    1.24    2.19 
  -2   7   6    1.75    1.77 
  -2  -7   5   62.87    4.15 
   2   7  -5   68.04    4.08 
  -2   7   5   70.16    4.20 
   2   7  -5   65.22    3.71 
   2  -7  -5   59.17    4.03 
  -2  -7   5   64.54    4.20 
   2   7  -5   72.46    5.22 
  -2   7   5   66.63    4.65 
  -2  -7   5   51.86    3.66 
  -2   7   5   59.01    3.68 
  -2  -7   4   97.64   11.64 
   2   7  -4  103.95   11.50 
  -2   7   4  107.04   11.65 
   2   7  -4  101.64   11.11 
   2  -7  -4   92.34   10.17 
  -2  -7   4  105.46   12.30 
   2   7  -4  111.18   13.36 
  -2   7   4   98.43   10.84 
  -2  -7   4  104.97   11.38 
  -2   7   4  102.44   11.28 
  -2  -7   3   10.27    2.22 
   2   7  -3   10.55    2.30 
  -2   7   3    6.59    2.07 
   2   7  -3   10.18    2.53 
   2  -7  -3    6.09    2.14 
  -2  -7   3    4.44    4.22 
   2   7  -3    4.03    6.63 
  -2   7   3    9.85    3.09 
  -2  -7   3    8.04    1.80 
  -2   7   3    8.15    2.68 
  -2   7   3    8.56    2.30 
  -2  -7   2   88.56    6.08 
   2   7  -2   96.43    6.59 
  -2   7   2   98.66    6.80 
   2   7  -2   94.26    6.50 
  -2   7   2   77.43    5.94 
   2  -7  -2   79.07    5.69 
  -2  -7   2  110.20    8.89 
   2   7  -2   93.06    8.55 
  -2   7   2   86.41    7.15 
  -2  -7   2   93.48    6.33 
  -2   7   2   95.44    6.70 
  -2   7   2   87.28    6.06 
   2   7  -1   13.84    1.91 
  -2  -7   1   17.27    2.02 
  -2   7   1   13.82    2.37 
   2   7  -1   12.98    2.02 
  -2   7   1   11.99    1.42 
   2  -7  -1   15.93    1.79 
  -2  -7   1   15.82    2.17 
   2   7  -1   17.41    5.69 
  -2   7   1   12.49    1.89 
  -2   7   1   14.07    2.40 
  -2   7   1   14.64    2.43 
   2   7   0  182.32   12.18 
  -2  -7   0  190.36   12.70 
  -2   7   0  179.37   12.09 
   2   7   0  159.15   10.85 
  -2   7   0  168.19   11.61 
   2  -7   0  125.02    9.71 
  -2  -7   0  171.08   13.10 
   2   7   0  159.64   11.60 
  -2   7   0  171.55   12.05 
   2  -7   0  198.89   13.31 
  -2   7   0  174.47   11.87 
   2   7   1   65.76    4.89 
  -2  -7  -1   59.19    4.41 
  -2   7  -1   62.68    4.54 
   2   7   1   56.89    4.62 
  -2   7  -1   60.61    4.33 
  -2  -7  -1   62.88    4.61 
  -2   7  -1   38.64    5.08 
   2   7   1   58.31    4.60 
  -2   7  -1   60.05    5.00 
   2  -7   1   52.80    5.82 
   2  -7   2   54.57    4.58 
   2   7   2   72.21    5.22 
  -2  -7  -2   73.83    5.19 
  -2   7  -2   70.46    4.95 
   2   7   2   71.83    5.07 
  -2   7  -2   74.26    5.19 
  -2  -7  -2   69.04    5.39 
  -2   7  -2   53.81    6.01 
   2   7   2   68.51    5.16 
  -2   7  -2   61.39    4.77 
   2  -7   2   68.70    4.87 
   2  -7   3   23.89    4.57 
   2   7   3   22.37    4.58 
  -2   7  -3   18.49    3.56 
  -2  -7  -3   23.43    4.75 
   2   7   3   22.33    4.31 
  -2   7  -3   25.15    4.81 
  -2  -7  -3   24.67    5.01 
  -2   7  -3   20.67    5.90 
   2  -7   3   28.93    5.51 
   2  -7   3   21.31    4.15 
   2  -7   4   70.05    7.69 
   2   7   4   68.63    7.71 
  -2   7  -4   62.01    6.91 
  -2   7  -4   75.91    8.34 
  -2  -7  -4   74.47    8.42 
  -2   7  -4   77.91    9.27 
   2   7   4   69.78    7.93 
   2  -7   4   70.77    8.13 
   2  -7   4   72.69    7.94 
   2  -7   5    3.42    1.18 
   2   7   5    2.98    2.11 
  -2   7  -5    2.39    1.25 
  -2  -7  -5    3.21    1.94 
  -2  -7  -5    3.18    2.48 
  -2   7  -5    5.61    2.71 
   2   7   5    4.21    3.09 
   2  -7   5    2.89    1.43 
   2  -7   6   11.79    3.06 
   2   7   6   15.59    3.98 
  -2   7  -6   10.82    2.73 
  -2  -7  -6   14.33    3.78 
  -2  -7  -6   15.01    3.76 
  -2   7  -6   11.03    3.61 
   2   7   6   13.38    4.00 
   2  -7   6   15.22    3.74 
   2   7   7    2.71    2.16 
   2  -7   7    2.45    1.30 
  -2  -8   4  112.23   12.43 
   2   8  -4  103.87   11.42 
  -2   8   4   99.72   10.98 
   2   8  -4  108.72   11.77 
  -2   8   4  110.53   12.04 
   2  -8  -4  135.56   14.62 
  -2  -8   3  130.76   14.32 
   2   8  -3  120.15   12.99 
  -2   8   3   97.77   10.72 
   2   8  -3  116.04   12.98 
   2  -8  -3   98.69   10.72 
  -2  -8   3  114.91   12.62 
   2   8  -3   74.37    9.73 
  -2   8   3  115.86   12.61 
   2  -8  -3  107.55   11.71 
  -2  -8   2   19.05    4.61 
   2   8  -2   22.00    5.31 
  -2   8   2   14.65    3.82 
   2   8  -2   19.29    4.76 
   2  -8  -2   15.04    3.72 
   2   8  -2   11.32    4.37 
  -2   8   2   17.64    4.40 
   2  -8  -2   14.68    3.80 
  -2  -8   1   33.63    2.88 
   2   8  -1   31.87    2.93 
   2   8  -1   25.54    6.35 
  -2   8   1   21.62    5.31 
  -2  -8   1   44.69    4.41 
   2  -8  -1   27.36    6.68 
  -2  -8   0    5.14    1.67 
   2   8   0    4.97    1.80 
   2   8   0    5.24    2.26 
  -2   8   0    3.09    1.42 
  -2  -8   0    5.15    1.88 
  -2   8   0    5.19    1.72 
   2  -8   0    2.92    2.01 
   2   8   1   17.16    4.25 
  -2  -8  -1   16.81    4.13 
   2   8   1   12.61    3.36 
  -2   8  -1   14.43    3.72 
  -2  -8  -1   16.29    4.11 
   2  -8   1   14.74    3.81 
   2   8   2   30.35    2.81 
   2   8   2   28.08    6.69 
  -2   8  -2   29.66    2.79 
  -2  -8  -2   28.80    2.66 
   2  -8   2   18.99    5.06 
   2   8   3   26.08    3.07 
  -2  -8  -3   27.10    3.18 
  -2   8  -3   20.63    4.30 
  -2  -8  -3   27.92    3.28 
  -2   8  -3   23.56    5.27 
   2   8   3   21.48    4.83 
   2  -8   3   27.70    3.30 
  -2   8  -4   66.68    7.34 
  -2  -8  -4   71.97    8.59 
   2  -8   4   70.46    7.85 
   3   0 -11    8.42    3.35 
  -3   0  11    8.90    4.66 
   3   0 -11   13.77    5.20 
  -3   0  11   12.65    3.46 
   3   0 -10    0.55    2.47 
  -3   0  10    4.16    5.66 
  -3   0  10    4.85    9.65 
  -3   0  10    4.67    2.73 
  -3   0  10    2.54    2.07 
  -3   0   9   17.83    3.66 
  -3   0   9   16.29    7.62 
  -3   0   9   11.43   13.24 
  -3   0   9   17.90    2.48 
  -3   0   9   16.69    2.42 
   3   0  -8  921.09   83.81 
  -3   0   8  831.16   53.15 
  -3   0   8  871.18   55.55 
   3   0  -8  877.47   56.04 
   3   0  -8  842.67   53.93 
  -3   0   8  897.00   57.10 
  -3   0   8  887.76   59.00 
  -3   0   8  946.69   87.20 
  -3   0   8  819.60   56.12 
  -3   0   8  838.65   56.73 
   3   0  -7   52.75    5.15 
  -3   0   7   48.26    4.30 
  -3   0   7   52.17    4.31 
   3   0  -7   53.69    5.62 
   3   0  -7   48.85    4.78 
   3   0  -7   54.65    5.53 
  -3   0   7   55.12    4.25 
  -3   0   7   58.17    8.26 
  -3   0   7   53.93    9.78 
  -3   0   7   51.37    3.95 
  -3   0   7   58.10    4.54 
   3   0  -6  149.32    8.41 
  -3   0   6  135.56    7.44 
  -3   0   6  127.07    6.89 
  -3   0   6  142.49    8.36 
   3   0  -6  141.72    8.26 
   3   0  -6  125.48    7.08 
   3   0  -6  123.00    6.75 
  -3   0   6  148.91    7.63 
  -3   0   6  153.70   11.56 
  -3   0   6  142.31   11.12 
  -3   0   6  143.46    7.15 
  -3   0   6  116.70    7.61 
  -3   0   5  836.54   35.77 
   3   0  -5  859.82   36.68 
  -3   0   5  784.05   35.39 
  -3   0   5  779.34   33.13 
  -3   0   5  839.40   36.70 
   3   0  -5  779.86   33.38 
   3   0  -5  784.24   33.49 
   3   0  -5  807.64   34.47 
  -3   0   5  874.77   36.92 
  -3   0   5  689.75   72.14 
  -3   0   5  831.30   36.82 
  -3   0   5  883.58   37.31 
  -3   0   5  811.03   34.33 
  -3   0   4 1000.61   38.76 
   3   0  -4  912.51   35.77 
   3   0  -4 1073.40   41.13 
  -3   0   4 1038.39   39.69 
  -3   0   4 1038.78   47.00 
  -3   0   4 1055.79   40.38 
  -3   0   4 1043.60   40.77 
   3   0  -4  983.06   37.82 
   3   0  -4 1055.95   40.52 
   3   0  -4 1104.82   42.36 
  -3   0   4 1052.31   39.92 
  -3   0   3  113.48    4.57 
   3   0  -3  103.76    4.20 
  -3   0   3  112.49    5.38 
  -3   0   3  109.87    4.70 
  -3   0   3  112.07    4.74 
   3   0  -3  101.43    4.77 
  -3   0   3  111.91    4.86 
  -3   0   3  120.42    5.60 
   3   0  -3  134.53    7.42 
   3   0  -3  127.71    7.06 
   3   0  -3  125.64    7.84 
  -3   0   2  896.77   20.58 
   3   0  -2  852.38   19.64 
  -3   0   2  893.35   21.11 
  -3   0   2  856.34   19.95 
  -3   0   2  887.15   24.48 
   3   0  -2  854.23   21.48 
  -3   0   2  898.62   20.99 
  -3   0   2  864.69   20.57 
  -3   0   2  907.78   21.62 
  -3   0   2  897.97   21.15 
  -3   0   2  875.06   20.63 
  -3   0   1  334.08    8.30 
   3   0  -1  353.46    8.76 
  -3   0   1  334.79    8.63 
   3   0  -1  318.04    8.11 
   3   0  -1  338.88    9.15 
  -3   0   1  334.81    8.47 
  -3   0   1  376.51    9.18 
  -3   0   1  369.25    9.59 
  -3   0   1  327.49    8.68 
  -3   0   1  344.85    8.65 
   3   0   0    3.38    1.45 
  -3   0   0    1.59    1.36 
  -3   0   0    3.13    2.77 
  -3   0   0    3.67    0.93 
  -3   0   0    3.45    1.05 
   3   0   0    1.63    1.19 
  -3   0   0    3.15    1.76 
  -3   0   0    0.85    3.10 
  -3   0   0    2.14    2.09 
  -3   0   0    2.99    2.38 
   3   0   1   19.22    1.76 
  -3   0  -1   22.92    1.66 
  -3   0  -1   24.85    2.72 
   3   0   1   22.23    1.39 
  -3   0  -1   20.14    1.59 
   3   0   1   23.56    1.26 
  -3   0  -1   21.88    1.58 
  -3   0  -1   22.27    2.64 
  -3   0  -1   21.93    2.60 
  -3   0  -1   22.13    2.24 
   3   0   2 1800.11   41.43 
  -3   0  -2 1687.92   38.65 
  -3   0  -2 1792.98   42.02 
   3   0   2 1778.32   40.70 
   3   0   2 1936.63   46.25 
  -3   0  -2 1682.46   38.72 
  -3   0  -2 1858.77   42.98 
  -3   0  -2 1695.04   39.14 
  -3   0  -2 1681.57   38.65 
  -3   0  -3  423.62   16.08 
  -3   0  -3  402.48   15.86 
   3   0   3  398.44   15.24 
   3   0   3  329.09   13.64 
  -3   0  -3  385.51   14.91 
  -3   0  -3  376.77   15.17 
  -3   0  -3  377.38   15.60 
  -3   0  -3  405.50   15.75 
  -3   0  -4  587.40   22.61 
  -3   0  -4  543.25   21.18 
   3   0   4  595.17   22.98 
   3   0   4  567.43   21.83 
   3   0   4  500.02   20.45 
  -3   0  -4  575.20   22.47 
  -3   0  -4  555.93   21.72 
  -3   0  -4  559.98   21.75 
  -3   0  -4  591.64   22.97 
   3   0   4  562.39   21.52 
  -3   0  -4  558.09   22.09 
  -3   0  -4  620.87   23.85 
   3   0   4  529.48   20.38 
  -3   0  -5   30.44    2.30 
  -3   0  -5   24.98    3.14 
   3   0   5   35.91    3.47 
   3   0   5   28.90    2.20 
   3   0   5   28.82    1.88 
  -3   0  -5   27.85    2.63 
  -3   0  -5   28.76    3.11 
  -3   0  -5   28.47    3.24 
  -3   0  -5   30.13    2.62 
   3   0   5   30.43    1.83 
  -3   0  -5   32.80    1.88 
   3   0   5   29.40    1.88 
  -3   0  -5   31.17    2.45 
  -3   0  -5   22.45    2.99 
  -3   0  -5   29.11    2.04 
   3   0   5   26.82    1.59 
  -3   0  -6   58.20    3.53 
  -3   0  -6   51.68    4.12 
   3   0   6   54.40    3.85 
   3   0   6   46.82    3.13 
   3   0   6   48.69    3.29 
  -3   0  -6   52.76    4.18 
  -3   0  -6   46.30    3.52 
  -3   0  -6   49.34    3.41 
   3   0   6   55.52    3.09 
  -3   0  -6   51.87    2.93 
   3   0   6   45.42    3.59 
  -3   0  -6   49.69    3.84 
  -3   0  -6   49.15    5.43 
   3   0   6   43.67    5.86 
   3   0   6   46.82    2.93 
   3   0   7   48.09    4.62 
  -3   0  -7   38.20    3.65 
  -3   0  -7   49.23    5.91 
   3   0   7   46.07    5.37 
   3   0   7   35.46    3.32 
  -3   0  -7   46.18    4.63 
  -3   0  -7   41.58    3.79 
   3   0   7   42.86    3.36 
  -3   0  -7   49.54    3.72 
   3   0   7   61.03    4.58 
  -3   0  -7   54.09    4.40 
  -3   0  -7   54.23    9.03 
   3   0   7   42.37    6.53 
   3   0   7   53.72    4.19 
   3   0   8  707.95   45.26 
  -3   0  -8  601.86   38.53 
  -3   0  -8  770.97   49.39 
   3   0   8  694.83   44.42 
  -3   0  -8  680.95   43.53 
   3   0   8  703.83   45.56 
  -3   0  -8  687.52   43.72 
   3   0   8  808.71   51.43 
  -3   0  -8  813.37   51.68 
  -3   0  -8  744.57   47.61 
   3   0   8  688.69   44.47 
   3   0   8  719.69   45.69 
   3   0   9  155.52   12.79 
  -3   0  -9  146.53   12.03 
   3   0   9  141.14   11.77 
  -3   0  -9  142.02   11.94 
  -3   0  -9  138.54   12.41 
   3   0   9  137.78   11.34 
   3   0  10   75.64    8.44 
  -3   0 -10   81.47    9.05 
   3   0  10   83.94    9.32 
  -3   0 -10   83.01    9.43 
  -3   0 -10   48.68   13.05 
   3   0  10   68.74    8.35 
   3   0  11   56.27    5.18 
  -3   0 -11   61.94    5.36 
   3   0  11   49.91    4.36 
  -3   0 -11   54.24    5.03 
   3   0  11   49.00    4.35 
   3   1 -11   41.95    6.16 
  -3  -1  11   77.03    7.68 
  -3   1  11   55.42    6.42 
   3  -1 -11   73.90    7.15 
  -3  -1  11   71.09    5.85 
  -3   1  11   62.04    5.51 
  -3   1  11   60.15    5.09 
   3   1 -10   43.51    8.30 
   3  -1 -10   44.35    8.65 
  -3  -1  10   31.72    8.05 
  -3   1  10   48.98   13.21 
  -3  -1  10   54.28   13.50 
  -3   1  10   30.90   10.21 
  -3  -1  10   49.78    9.50 
  -3   1  10   37.09    7.24 
  -3   1  10   27.83    5.88 
   3  -1  -9    0.49    3.61 
  -3  -1   9    0.29    2.90 
  -3  -1   9   13.04    8.22 
  -3   1   9    0.91    6.89 
  -3  -1   9    2.47    9.43 
  -3   1   9    3.70   10.89 
  -3  -1   9    0.07    2.68 
  -3   1   9    2.17    2.34 
   3   1  -8  427.23   27.71 
   3  -1  -8  388.40   25.35 
  -3  -1   8  388.69   25.21 
  -3   1   8  404.28   26.04 
  -3  -1   8  361.57   23.31 
  -3   1   8  385.27   24.96 
   3   1  -8  401.39   25.89 
   3  -1  -8  408.33   26.69 
   3   1  -8  413.20   26.99 
   3   1  -8  344.39   22.50 
  -3  -1   8  402.59   25.99 
  -3   1   8  402.06   25.85 
  -3  -1   8  420.25   33.53 
  -3   1   8  418.92   28.26 
  -3  -1   8  386.44   27.18 
  -3   1   8  467.30   33.37 
  -3  -1   8  374.10   30.55 
  -3   1   8  420.49   26.80 
  -3   1   8  431.12   27.58 
   3   1  -7  853.95   46.13 
   3  -1  -7  831.28   44.84 
  -3  -1   7  780.50   43.67 
  -3   1   7  800.00   43.16 
  -3  -1   7  821.67   44.24 
  -3   1   7  740.79   48.30 
   3  -1  -7  790.71   42.60 
  -3  -1   7  722.78   49.88 
   3   1  -7  727.13   47.53 
   3  -1  -7  719.00   46.87 
   3   1  -7  713.08   46.55 
   3   1  -7  667.24   43.53 
  -3  -1   7  759.52   49.43 
  -3   1   7  720.42   46.84 
  -3  -1   7  866.18   48.52 
  -3   1   7  805.87   44.76 
  -3  -1   7  758.84   50.59 
  -3   1   7  791.62   44.49 
  -3  -1   7  809.49   43.68 
  -3   1   7  742.47   49.27 
  -3   1   7  745.48   48.43 
  -3  -1   6   24.69    1.87 
   3   1  -6   25.36    1.86 
   3   1  -6   28.12    5.19 
  -3   1   6   28.99    2.75 
  -3  -1   6   26.90    2.30 
  -3   1   6   28.29    3.56 
  -3  -1   6   29.54    2.56 
  -3   1   6   29.43    3.27 
   3  -1  -6   30.52    4.71 
  -3  -1   6   25.50    3.43 
   3   1  -6   28.69    4.05 
   3  -1  -6   20.53    3.23 
   3   1  -6   31.41    3.25 
  -3  -1   6   29.88    2.79 
  -3   1   6   29.29    2.63 
  -3  -1   6   26.67    4.83 
  -3   1   6   29.88    6.25 
  -3  -1   6   24.36   10.67 
  -3   1   6   39.05    8.98 
  -3  -1   6   28.34    1.81 
  -3   1   6   28.62    2.14 
  -3   1   6   29.02    2.34 
  -3  -1   5  111.17    5.28 
   3   1  -5  106.14    4.87 
   3   1  -5  112.97    5.78 
   3  -1  -5  118.72    5.85 
  -3   1   5  114.56    5.59 
  -3  -1   5  106.72    5.42 
  -3   1   5  111.43    5.27 
  -3  -1   5  111.72    5.33 
  -3   1   5  114.65    5.92 
  -3  -1   5  113.88    5.72 
  -3   1   5  105.30    5.72 
   3   1  -5  105.97    6.54 
   3  -1  -5  106.52    5.60 
   3   1  -5  110.03    6.12 
   3  -1  -5  101.52    5.17 
   3   1  -5  111.71    6.22 
  -3   1   5   89.72    4.56 
  -3  -1   5  112.11    5.34 
  -3   1   5  114.26    5.21 
  -3  -1   5  116.17    7.20 
  -3   1   5  118.23    9.36 
  -3  -1   5  114.86   10.29 
  -3   1   5  105.14   11.30 
   3   1  -5   96.14    7.18 
  -3  -1   5   92.55    5.92 
  -3   1   5  105.47    4.86 
  -3   1   5   93.52    5.23 
  -3  -1   4  158.37    7.34 
   3   1  -4  178.89    7.19 
   3  -1  -4  183.93    8.09 
  -3   1   4  138.15    9.41 
  -3  -1   4  176.38    8.14 
  -3   1   4  190.25    7.96 
  -3  -1   4  185.48    7.59 
  -3   1   4  189.40    8.00 
  -3  -1   4  192.80    8.04 
  -3   1   4  182.66    7.92 
   3   1  -4  219.01   11.01 
   3  -1  -4  160.14    7.22 
   3  -1  -4  181.05    8.24 
   3   1  -4  190.81    9.85 
   3  -1  -4  177.20    7.83 
   3   1  -4  189.11    8.80 
  -3   1   4  188.09    7.59 
  -3  -1   4  190.86   11.14 
  -3  -1   4  170.43    6.73 
  -3   1   4  179.15    7.21 
  -3  -1   3 2374.66   89.50 
   3   1  -3 2488.40   92.19 
   3  -1  -3 2499.36   92.89 
  -3  -1   3 2510.65   93.31 
  -3   1   3 2437.74   90.96 
  -3  -1   3 2291.76  101.30 
  -3   1   3 2386.23   89.40 
   3   1  -3 2248.84   84.13 
  -3   1   3 2523.93   97.68 
  -3  -1   3 2494.56   92.50 
  -3   1   3 2541.34   94.34 
  -3  -1   3 2408.16   89.93 
  -3   1   3 2676.43  100.46 
   3  -1  -3 2486.12   92.33 
   3   1  -3 2464.15   91.65 
   3  -1  -3 2573.19   95.59 
   3   1  -3 2525.77   93.92 
   3  -1  -3 2372.08   88.15 
   3   1  -3 2707.61  100.71 
  -3  -1   3 2343.18   87.76 
  -3  -1   3 2509.27   93.66 
  -3  -1   2  886.58   20.74 
   3   1  -2  888.51   20.72 
  -3  -1   2  902.86   21.59 
  -3   1   2  961.85   22.82 
  -3   1   2  843.33   20.27 
  -3  -1   2  866.17   22.09 
  -3   1   2  944.27   22.05 
   3   1  -2  941.65   21.95 
  -3   1   2  868.14   22.65 
  -3  -1   2  959.44   22.26 
  -3   1   2  944.29   22.34 
  -3  -1   2  891.51   21.17 
  -3   1   2  923.40   21.70 
  -3   1   2  935.57   22.14 
  -3  -1   2  913.49   21.86 
   3   1  -2  936.99   22.42 
  -3   1   2  960.79   22.87 
   3   1  -2  910.95   21.46 
  -3   1   2  951.80   22.19 
  -3  -1   1 1628.48   38.91 
   3   1  -1 1828.64   43.25 
  -3   1   1 1640.40   37.94 
   3   1  -1 1875.68   42.86 
  -3   1   1 1774.98   40.69 
  -3  -1   1 1799.87   43.19 
  -3   1   1 1812.75   41.58 
   3   1  -1 1871.57   42.80 
  -3   1   1 1798.10   50.40 
  -3  -1   1 1818.37   41.60 
  -3   1   1 1869.62   43.03 
  -3  -1   1 1738.94   40.11 
  -3   1   1 1843.00   42.59 
  -3   1   1 1851.81   42.78 
  -3  -1   1 1794.93   41.44 
  -3   1   1 1870.55   43.00 
  -3  -1   1 1847.33   42.61 
  -3   1   1 1662.30   38.10 
   3  -1   0 3078.20   69.96 
   3   1   0 2839.83   64.82 
  -3   1   0 2582.76   58.64 
  -3   1   0 2755.64   62.90 
  -3  -1   0 2869.29   65.72 
   3   1   0 2700.91   61.43 
  -3   1   0 2934.42   66.93 
   3  -1   0 2741.15   62.67 
  -3  -1   0 2710.34   62.46 
   3   1   0 2700.50   61.48 
  -3   1   0 2865.56   72.69 
   3  -1   0 2781.54   63.46 
  -3  -1   0 2796.31   63.60 
  -3   1   0 2829.18   64.48 
  -3   1   0 2867.12   65.39 
  -3  -1   0 2849.43   65.23 
  -3   1   0 2794.24   63.74 
  -3  -1   0 2746.95   62.66 
  -3   1   0 2773.72   63.18 
  -3  -1   0 2954.28   67.38 
   3  -1   1  527.89   12.66 
   3   1   1  540.72   13.24 
  -3   1  -1  524.99   12.32 
  -3  -1  -1  582.39   14.20 
  -3   1  -1  479.13   11.93 
  -3  -1  -1  506.12   12.81 
   3  -1   1  529.97   12.52 
   3   1   1  472.55   11.41 
   3  -1   1  486.80   11.81 
  -3  -1  -1  548.97   13.14 
   3   1   1  530.22   13.01 
  -3   1  -1  547.11   14.56 
   3  -1   1  539.08   13.02 
  -3   1  -1  501.73   11.88 
  -3   1  -1  525.64   12.97 
  -3  -1  -1  510.76   12.68 
  -3   1  -1  543.61   13.25 
  -3  -1  -1  563.48   14.19 
  -3   1  -1  518.71   12.53 
  -3  -1  -1  501.17   12.62 
   3  -1   2 2858.89  110.49 
   3   1   2 2455.81   91.18 
  -3   1  -2 2798.29  106.17 
  -3  -1  -2 2827.49  107.22 
  -3   1  -2 2710.60  100.62 
  -3  -1  -2 2835.94  107.58 
   3  -1   2 2869.57  108.82 
   3   1   2 2853.13  108.13 
  -3  -1  -2 2621.03   96.95 
   3   1   2 2831.72  107.31 
  -3   1  -2 2868.53  111.84 
   3  -1   2 2711.07  100.45 
   3   1   2 2671.49   99.13 
  -3  -1  -2 2704.15  100.36 
  -3   1  -2 2879.17  109.22 
  -3  -1  -2 2967.69  112.59 
  -3   1  -2 2693.05  100.07 
  -3  -1  -2 2814.58  106.68 
  -3   1  -2 2665.20   99.09 
  -3  -1  -2 2796.15  105.99 
   3  -1   3  305.26   12.01 
   3   1   3  312.50   12.14 
  -3   1  -3  310.19   11.87 
  -3  -1  -3  312.40   12.18 
  -3   1  -3  282.01   11.24 
  -3  -1  -3  321.58   12.62 
   3  -1   3  331.10   12.68 
   3   1   3  314.94   12.34 
   3   1   3  284.21   11.21 
  -3   1  -3  289.56   11.77 
   3  -1   3  310.65   11.92 
   3   1   3  296.63   11.42 
  -3  -1  -3  308.97   12.15 
  -3   1  -3  329.75   13.12 
  -3  -1  -3  276.60   11.29 
  -3   1  -3  291.70   11.52 
  -3  -1  -3  311.10   12.37 
  -3   1  -3  294.48   11.45 
  -3  -1  -3  301.27   11.86 
  -3   1  -3  318.72   12.61 
  -3  -1  -3  294.65   11.31 
  -3   1  -3  285.92   11.15 
   3  -1   4  818.39   31.67 
   3   1   4  841.60   32.35 
  -3   1  -4  813.91   31.35 
  -3  -1  -4  831.65   31.94 
  -3   1  -4  916.35   35.33 
  -3  -1  -4  961.20   37.00 
   3  -1   4  790.52   30.24 
   3   1   4  861.50   33.08 
   3   1   4  817.12   31.35 
   3  -1   4  813.83   31.29 
   3   1   4  777.96   29.77 
  -3  -1  -4  866.32   33.31 
  -3   1  -4  864.69   33.32 
  -3  -1  -4  808.43   31.15 
  -3   1  -4  825.91   31.76 
  -3  -1  -4  814.24   31.36 
  -3   1  -4  849.71   32.61 
   3  -1   4  832.19   32.01 
   3   1   4  835.05   31.93 
   3   1   4  820.31   31.24 
  -3   1  -4  719.13   29.25 
  -3   1  -4  798.54   45.43 
  -3   1  -4  785.51   32.35 
  -3   1  -4  867.40   33.63 
   3  -1   4  798.84   30.32 
   3   1   4  750.37   28.52 
   3  -1   5  747.26   51.89 
   3   1   5  660.67   45.90 
  -3   1  -5  713.42   49.49 
  -3  -1  -5  691.44   47.96 
  -3   1  -5  538.94   37.68 
  -3  -1  -5  692.88   48.11 
   3  -1   5  683.25   47.54 
   3   1   5  714.88   49.62 
   3  -1   5  681.43   47.40 
   3   1   5  653.58   45.32 
   3  -1   5  638.00   44.29 
   3   1   5  661.87   45.84 
  -3  -1  -5  718.32   49.85 
  -3   1  -5  675.82   46.90 
  -3  -1  -5  659.59   45.77 
  -3   1  -5  659.69   45.78 
  -3  -1  -5  669.80   46.47 
  -3   1  -5  665.93   46.13 
  -3  -1  -5  540.12   37.48 
   3  -1   5  676.57   47.05 
   3   1   5  672.36   46.40 
  -3   1  -5  684.30   47.38 
  -3  -1  -5  703.19   48.51 
   3  -1   5  679.13   46.87 
   3   1   5  736.25   50.82 
  -3   1  -5  551.01   38.26 
  -3   1  -5  691.14   47.79 
  -3  -1  -5  668.37   46.49 
  -3  -1  -5  692.42   48.28 
  -3   1  -5  662.17   45.94 
   3   1   5  710.11   51.04 
  -3   1  -5  652.99   45.57 
   3  -1   5  499.40   35.05 
   3  -1   5  641.41   44.35 
   3   1   5  631.85   43.60 
   3  -1   6  582.12   34.16 
   3   1   6  598.65   35.01 
  -3   1  -6  587.09   34.22 
  -3  -1  -6  595.57   34.81 
  -3   1  -6  541.81   31.77 
  -3  -1  -6  574.93   33.73 
   3  -1   6  597.02   34.86 
   3   1   6  584.56   34.29 
   3  -1   6  486.06   28.41 
   3   1   6  534.50   31.37 
   3  -1   6  534.21   31.61 
   3   1   6  512.63   29.95 
  -3  -1  -6  578.73   34.03 
  -3   1  -6  596.70   34.99 
  -3  -1  -6  564.61   33.16 
  -3   1  -6  565.32   33.06 
  -3  -1  -6  524.80   30.72 
  -3   1  -6  580.92   33.96 
   3  -1   6  585.94   34.28 
   3   1   6  600.23   34.87 
  -3   1  -6  600.19   34.87 
  -3  -1  -6  583.12   33.83 
   3  -1   6  677.97   39.34 
   3   1   6  648.65   37.79 
  -3   1  -6  613.04   35.64 
  -3  -1  -6  654.74   38.23 
  -3  -1  -6  616.83   36.54 
  -3   1  -6  554.73   32.91 
   3   1   6  530.31   31.81 
  -3   1  -6  554.81   32.49 
   3  -1   6  512.38   29.94 
   3  -1   6  590.14   34.36 
   3   1   6  551.55   32.09 
   3  -1   7  102.36    7.99 
   3   1   7   84.48    6.55 
  -3   1  -7   85.47    6.51 
  -3  -1  -7   78.82    6.10 
  -3   1  -7   71.47    6.06 
  -3  -1  -7   84.37    6.80 
   3  -1   7   71.12    5.52 
   3   1   7   75.53    6.34 
   3  -1   7   76.37    5.56 
  -3   1  -7   79.15    6.57 
  -3  -1  -7   71.66    5.77 
  -3   1  -7   69.40    5.39 
   3  -1   7   78.59    5.56 
   3   1   7   79.60    5.59 
  -3   1  -7   83.87    5.72 
  -3  -1  -7   80.05    5.55 
   3  -1   7   78.79    5.49 
   3   1   7   78.86    5.70 
  -3   1  -7   77.43    5.82 
  -3  -1  -7   76.87    5.97 
  -3  -1  -7   66.56    7.24 
   3  -1   7   70.11    6.22 
   3   1   7   77.99    7.42 
   3  -1   7   69.04    4.72 
   3  -1   7   79.40    5.46 
   3   1   7   74.37    5.18 
   3  -1   8   18.45    5.58 
   3   1   8    5.31    3.88 
  -3   1  -8   11.17    2.60 
  -3  -1  -8   10.21    3.71 
  -3   1  -8   14.99    4.76 
  -3  -1  -8    6.84    4.06 
   3  -1   8    8.11    3.53 
   3   1   8    9.03    4.33 
   3  -1   8   11.10    3.86 
  -3   1  -8   12.41    5.50 
  -3  -1  -8    7.24    4.78 
  -3   1  -8    5.72    4.24 
   3  -1   8    7.85    2.10 
   3   1   8    8.25    2.53 
  -3   1  -8    9.77    2.03 
  -3  -1  -8    9.39    2.22 
   3  -1   8    9.39    2.46 
   3   1   8    9.01    2.93 
  -3  -1  -8    7.46    3.77 
  -3   1  -8    7.65    2.94 
  -3  -1  -8   10.88    6.37 
   3  -1   8    4.54    4.43 
   3   1   8    5.63    4.42 
   3  -1   8    6.13    1.33 
   3  -1   8    8.76    2.20 
   3   1   8    7.17    2.89 
   3  -1   9  138.45   11.70 
   3   1   9  143.73   11.94 
  -3   1  -9  156.26   13.11 
  -3  -1  -9  151.04   12.47 
   3  -1   9  165.78   13.73 
   3   1   9  185.71   15.45 
  -3   1  -9   79.91   14.26 
  -3  -1  -9  176.05   14.56 
  -3  -1  -9  156.53   13.78 
   3   1   9  129.65   11.67 
   3  -1   9  136.02   11.36 
   3   1   9  151.05   12.58 
   3  -1  10   24.74    5.00 
   3   1  10   32.98    6.45 
  -3   1 -10   28.68    5.66 
  -3  -1 -10   31.08    5.96 
   3  -1  10   32.59    6.44 
   3   1  10   31.87    6.44 
  -3   1 -10   33.69    6.59 
  -3  -1 -10   37.18    7.32 
  -3  -1 -10   -7.00   17.95 
   3  -1  10   26.77    5.49 
   3   1  10   33.83    6.71 
   3  -1  11   19.37    5.12 
   3   1  11   21.57    5.66 
  -3   1 -11   20.39    5.18 
  -3  -1 -11   19.78    5.15 
   3  -1  11   14.85    4.07 
   3   1  11   15.86    4.39 
  -3   1 -11   21.68    5.44 
  -3  -1 -11   21.59    5.64 
  -3  -1 -11   16.40    6.56 
   3  -1  11   16.07    4.33 
   3   1  11   16.56    4.58 
   3   2 -11   36.36    4.86 
   3  -2 -11   32.03    4.27 
  -3   2  11   29.98    5.11 
   3  -2 -11   38.65    5.82 
  -3  -2  11   41.93    4.88 
  -3   2  11   36.68    4.43 
  -3   2  11   33.56    4.09 
   3   2 -10   79.59    5.61 
   3  -2 -10   68.81    4.54 
  -3  -2  10   62.56    6.40 
  -3   2  10   56.41    7.15 
   3  -2 -10   74.60    6.83 
  -3  -2  10   74.35    7.12 
  -3  -2  10   85.24    5.01 
  -3   2  10   82.96    5.17 
  -3   2  10   73.13    4.73 
   3  -2  -9  154.22   12.95 
  -3  -2   9  157.87   13.16 
  -3  -2   9  119.87   12.21 
  -3   2   9  162.22   16.71 
  -3  -2   9  157.71   15.74 
  -3   2   9  168.63   19.53 
  -3  -2   9  132.16   14.01 
  -3   2   9  141.87   12.64 
  -3   2   9  162.73   13.38 
   3   2  -8  141.30   13.59 
  -3  -2   8  110.60   11.94 
  -3   2   8  145.43   14.25 
  -3  -2   8  139.22   13.48 
  -3   2   8  139.81   13.60 
   3  -2  -8  129.31   12.96 
   3   2  -8  143.05   14.52 
   3   2  -8  122.43   12.03 
  -3   2   8  141.91   13.16 
   3  -2  -8  129.36   12.01 
  -3  -2   8  144.49   13.51 
  -3  -2   8  150.91   16.94 
  -3   2   8  165.91   17.84 
  -3  -2   8  141.92   17.42 
  -3   2   8  170.97   19.51 
  -3  -2   8  104.25   11.86 
  -3   2   8  130.00   12.16 
  -3   2   8  141.46   13.15 
   3   2  -7   39.12    4.78 
   3  -2  -7   36.72    4.29 
  -3  -2   7   38.55    3.03 
  -3   2   7   45.43    4.12 
  -3  -2   7   37.96    3.57 
  -3   2   7   40.42    4.89 
   3  -2  -7   42.21    4.47 
  -3  -2   7   30.34    3.29 
   3   2  -7   37.15    5.21 
   3   2  -7   36.93    5.31 
   3   2  -7   34.62    4.05 
  -3  -2   7   35.79    2.32 
   3   2  -7   34.84    2.13 
  -3   2   7   39.95    2.82 
  -3  -2   7   35.74    3.14 
  -3   2   7   42.21    3.78 
  -3  -2   7   33.27    5.29 
  -3   2   7   46.13    8.80 
  -3  -2   7   34.40    7.99 
  -3   2   7   39.63   10.64 
  -3  -2   7   41.79    2.77 
  -3   2   7   37.24    2.96 
  -3   2   7   38.27    3.18 
  -3  -2   6    7.22    1.67 
   3   2  -6    7.53    1.77 
   3   2  -6    7.44    4.06 
   3  -2  -6   10.91    4.18 
  -3   2   6    8.41    3.33 
  -3  -2   6   10.34    2.17 
  -3   2   6    7.02    2.71 
  -3  -2   6   10.39    3.12 
  -3   2   6    9.66    3.14 
   3  -2  -6    9.65    3.14 
  -3  -2   6   11.13    3.11 
   3   2  -6   12.04    3.88 
   3   2  -6   10.09    5.46 
   3   2  -6   10.92    3.57 
  -3  -2   6    7.80    1.18 
   3   2  -6    6.59    1.01 
  -3   2   6   10.64    2.33 
  -3  -2   6   12.97    2.51 
  -3   2   6    9.27    2.00 
  -3  -2   6    4.65    4.47 
  -3   2   6    1.47    9.10 
  -3  -2   6    9.71    8.88 
  -3   2   6    8.85    8.03 
   3   2  -6    6.18    4.90 
  -3  -2   6   12.89    2.07 
  -3   2   6    6.35    1.87 
  -3   2   6    9.25    2.14 
  -3  -2   5  143.70   10.36 
   3   2  -5  163.67   11.71 
   3   2  -5  160.05   11.68 
   3  -2  -5  159.12   11.53 
  -3   2   5  163.86   12.18 
  -3  -2   5  155.84   11.24 
  -3   2   5  167.52   12.20 
  -3  -2   5  165.88   11.73 
  -3   2   5  168.43   12.20 
   3  -2  -5  163.66   11.82 
  -3  -2   5  162.83   11.66 
   3   2  -5  161.10   11.92 
   3   2  -5  158.47   11.98 
   3   2  -5  160.19   11.79 
  -3  -2   5  145.67   10.32 
   3   2  -5  158.17   11.02 
  -3   2   5  136.71   11.56 
  -3  -2   5  163.94   11.62 
  -3   2   5  161.05   11.36 
  -3  -2   5  171.35   12.86 
  -3   2   5  178.07   14.34 
  -3  -2   5  154.78   14.98 
  -3   2   5  161.92   15.25 
   3   2  -5  148.59   12.49 
  -3  -2   5  165.16   11.63 
  -3   2   5  164.18   11.51 
  -3   2   5  148.28   11.33 
  -3  -2   4  419.47   18.58 
   3   2  -4  448.10   19.13 
   3   2  -4  476.94   20.84 
   3  -2  -4  417.64   18.22 
  -3   2   4  404.42   17.80 
  -3  -2   4  430.58   19.96 
  -3   2   4  421.23   19.31 
  -3   2   4  398.09   18.50 
  -3  -2   4  446.27   19.32 
  -3   2   4  439.38   19.06 
   3  -2  -4  432.66   18.76 
  -3  -2   4  432.06   19.10 
   3   2  -4  427.99   18.67 
   3  -2  -4  405.00   17.64 
   3   2  -4  434.52   18.92 
   3   2  -4  453.98   20.01 
  -3  -2   4  390.25   17.28 
   3   2  -4  402.02   17.01 
  -3  -2   4  435.49   18.58 
  -3   2   4  465.08   19.77 
  -3  -2   4  433.97   19.61 
  -3   2   4  434.19   19.75 
  -3  -2   4  427.99   19.99 
   3   2  -4  474.38   21.69 
  -3   2   4  389.05   17.08 
  -3   2   4  438.31   18.58 
  -3   2   4  443.41   18.81 
  -3  -2   3 1516.06   58.00 
   3   2  -3 1576.38   59.87 
   3  -2  -3 1489.15   56.70 
  -3  -2   3 1477.04   56.36 
  -3   2   3 1497.33   70.98 
  -3  -2   3 1588.65   63.99 
  -3   2   3 1561.47   59.45 
   3   2  -3 1490.92   56.86 
  -3   2   3 1383.00   59.93 
  -3  -2   3 1481.86   56.73 
  -3   2   3 1490.07   56.91 
   3  -2  -3 1451.25   55.33 
  -3  -2   3 1483.78   57.52 
   3   2  -3 1569.86   59.96 
   3  -2  -3 1324.41   50.51 
   3  -2  -3 1444.35   55.08 
   3   2  -3 1498.85   57.28 
   3  -2  -3 1454.84   55.46 
   3   2  -3 1490.48   56.95 
  -3   2   3 1428.76   54.21 
  -3  -2   3 1445.31   54.79 
  -3   2   3 1500.02   57.34 
  -3  -2   3 1420.94   55.14 
  -3   2   3 1429.18   54.18 
  -3  -2   2  504.33   19.27 
   3   2  -2  502.65   19.21 
   3  -2  -2  436.17   16.66 
  -3  -2   2  458.52   17.63 
  -3   2   2  395.74   15.29 
  -3  -2   2  463.90   18.53 
  -3   2   2  495.52   19.04 
   3   2  -2  458.48   17.61 
  -3   2   2  441.31   21.11 
  -3  -2   2  441.80   16.69 
  -3   2   2  452.91   17.52 
   3  -2  -2  445.69   17.39 
  -3  -2   2  455.11   17.32 
  -3   2   2  455.05   17.54 
  -3  -2   2  461.98   18.02 
   3   2  -2  458.84   18.63 
  -3   2   2  474.15   18.16 
  -3   2   2  467.06   17.77 
  -3  -2   2  447.32   18.35 
  -3  -2   2  459.13   18.60 
  -3  -2   1 1258.70   47.18 
   3   2  -1 1307.49   48.89 
  -3  -2   1 1149.49   43.26 
  -3   2   1 1254.06   46.89 
  -3   2   1 1285.85   48.01 
   3  -2  -1 1156.54   43.21 
  -3  -2   1 1242.84   46.81 
   3   2  -1 1254.20   47.18 
  -3   2   1 1171.41   48.45 
  -3  -2   1 1164.38   43.37 
  -3   2   1 1217.21   45.58 
   3  -2  -1 1146.96   42.88 
  -3  -2   1 1170.35   43.86 
  -3   2   1 1228.66   45.97 
  -3  -2   1 1351.44   50.87 
   3   2  -1 1254.54   47.34 
  -3   2   1 1283.76   48.00 
   3   2  -1 1213.42   45.67 
  -3   2   1 1221.91   48.19 
   3  -2   0   68.85    2.95 
   3   2   0   69.16    4.02 
  -3   2   0   70.95    3.04 
  -3  -2   0   69.79    3.63 
  -3  -2   0   71.82    4.00 
  -3   2   0   68.09    3.46 
   3   2   0   71.76    3.44 
  -3   2   0   74.21    3.72 
   3  -2   0   65.20    3.57 
  -3  -2   0   69.50    3.01 
   3   2   0   69.56    4.95 
  -3   2   0   74.49    3.74 
   3  -2   0   70.14    4.38 
   3  -2   0   65.29    3.17 
  -3  -2   0   69.11    4.89 
  -3   2   0   67.16    4.83 
  -3  -2   0   69.14    7.27 
  -3   2   0   65.65    3.98 
  -3  -2   0   63.92    5.61 
   3   2   0   55.14    8.06 
  -3   2   0   73.84    5.18 
   3  -2   1   37.38    2.01 
   3   2   1   40.04    3.91 
  -3   2  -1   35.56    1.82 
  -3  -2  -1   38.12    3.36 
  -3   2  -1   39.05    2.71 
  -3  -2  -1   38.39    4.02 
   3   2   1   38.89    2.99 
  -3   2  -1   35.42    2.66 
   3  -2   1   38.86    2.47 
  -3  -2  -1   41.19    2.50 
   3   2   1   33.84    4.05 
  -3   2  -1   39.20    3.29 
   3  -2   1   38.31    4.17 
  -3  -2  -1   42.70    4.93 
  -3   2  -1   39.56    3.46 
  -3  -2  -1   39.44    6.17 
  -3   2  -1   41.93    4.72 
  -3  -2  -1   39.03    6.15 
   3   2   1   41.86    5.21 
  -3   2  -1   39.26    5.03 
   3  -2   2  723.18   28.14 
   3   2   2  692.55   26.18 
  -3   2  -2  696.46   26.47 
  -3  -2  -2  723.46   27.36 
  -3   2  -2  620.18   25.58 
  -3  -2  -2  748.79   28.35 
   3  -2   2  675.39   25.47 
   3   2   2  745.74   28.11 
  -3  -2  -2  705.77   26.54 
   3   2   2  724.89   27.42 
  -3   2  -2  727.34   28.71 
   3  -2   2  695.34   26.20 
  -3  -2  -2  721.24   27.28 
  -3   2  -2  723.60   27.50 
  -3  -2  -2  712.59   27.01 
  -3   2  -2  714.21   26.94 
  -3  -2  -2  731.72   27.70 
  -3   2  -2  748.58   28.16 
  -3  -2  -2  735.64   27.82 
   3   2   2  654.35   24.41 
  -3  -2  -2  688.02   25.63 
  -3   2  -2  710.22   27.28 
   3   2   2  784.02   29.89 
  -3   2  -2  739.28   28.35 
  -3   2  -2  722.51   26.99 
   3   2   3 1042.64   39.98 
  -3   2  -3 1008.46   39.50 
  -3  -2  -3 1032.44   39.58 
  -3   2  -3  931.27   35.88 
  -3  -2  -3 1004.00   38.51 
   3  -2   3 1086.63   41.46 
   3   2   3  978.79   37.67 
  -3  -2  -3 1044.40   39.92 
   3  -2   3  964.11   36.87 
   3   2   3  948.54   36.45 
  -3   2  -3 1035.24   42.74 
   3  -2   3  985.63   37.69 
  -3  -2  -3  966.85   37.20 
  -3   2  -3 1007.02   38.71 
  -3  -2  -3  960.49   36.87 
  -3   2  -3  982.64   37.68 
  -3  -2  -3  946.19   36.24 
  -3   2  -3 1041.24   39.92 
  -3  -2  -3  943.71   36.22 
   3  -2   3  945.77   36.84 
   3   2   3  973.55   37.02 
  -3   2  -3  911.63   35.73 
   3   2   3  990.80   37.73 
  -3   2  -3  980.87   48.45 
  -3   2  -3  962.41   38.47 
  -3  -2  -3  917.88   35.18 
  -3  -2  -3 1017.72   38.70 
  -3   2  -3 1025.53   41.10 
   3   2   3 1014.32   39.53 
  -3   2  -3 1087.60   43.23 
   3  -2   4   12.71    1.55 
   3   2   4   12.70    2.82 
  -3   2  -4   14.03    1.57 
  -3  -2  -4   12.40    2.86 
  -3   2  -4   12.69    3.00 
  -3  -2  -4   14.16    3.43 
   3  -2   4   12.86    1.97 
   3   2   4   14.67    2.93 
   3   2   4   12.85    2.56 
  -3   2  -4   11.77    1.54 
   3  -2   4   12.50    1.56 
  -3  -2  -4   12.83    2.88 
  -3   2  -4   14.89    4.36 
  -3  -2  -4   15.79    2.58 
  -3   2  -4   12.98    2.42 
  -3  -2  -4   13.06    2.17 
  -3   2  -4   14.51    3.05 
  -3  -2  -4   11.19    2.03 
   3  -2   4   12.22    1.08 
   3   2   4   12.01    1.67 
  -3   2  -4   12.01    0.93 
  -3  -2  -4   10.11    1.63 
   3   2   4   12.77    1.61 
  -3   2  -4   12.17    1.67 
  -3   2  -4   11.78    0.89 
  -3  -2  -4   11.49    1.22 
  -3   2  -4   12.12    1.87 
  -3  -2  -4   14.34    1.86 
  -3  -2  -4   11.74    6.28 
  -3   2  -4   19.20    6.04 
   3   2   4   12.98    5.66 
  -3   2  -4   12.63    1.26 
   3  -2   4   11.02    0.86 
   3  -2   4   13.86    1.33 
   3   2   4   11.23    1.14 
   3  -2   5  177.84    9.38 
   3   2   5  198.41   10.29 
  -3   2  -5  193.22    9.93 
  -3  -2  -5  192.06    9.92 
  -3   2  -5  199.34   10.50 
  -3  -2  -5  187.61    9.80 
   3  -2   5  199.99   10.17 
   3   2   5  192.60   10.18 
   3   2   5  180.94    9.70 
  -3   2  -5  175.35    9.19 
  -3  -2  -5  182.07    9.57 
  -3   2  -5  174.04    9.29 
  -3  -2  -5  172.93   10.17 
  -3   2  -5  180.34    9.49 
  -3  -2  -5  164.72    8.49 
  -3   2  -5  171.98    8.91 
   3  -2   5  190.56    9.63 
   3   2   5  188.02    9.41 
  -3   2  -5  186.41    9.34 
  -3  -2  -5  194.28    9.67 
   3   2   5  192.48    9.72 
  -3   2  -5  195.02   12.40 
  -3   2  -5  164.21    8.46 
  -3   2  -5  183.79    9.14 
  -3  -2  -5  193.01    9.63 
  -3  -2  -5  181.59   11.70 
  -3   2  -5  177.63    9.92 
   3   2   5  157.86   11.05 
  -3   2  -5  163.94    8.35 
   3  -2   5  181.90    8.99 
   3   2   5  163.55    8.16 
   3  -2   6   70.65    7.39 
   3   2   6   67.65    7.26 
  -3   2  -6   69.35    7.34 
  -3  -2  -6   66.48    7.18 
  -3   2  -6   55.32    6.22 
  -3  -2  -6   65.96    7.44 
   3  -2   6   72.24    7.66 
   3   2   6   63.26    7.75 
   3   2   6   62.45    7.42 
   3  -2   6   60.24    6.17 
  -3  -2  -6   60.25    7.34 
  -3   2  -6   58.81    6.81 
  -3  -2  -6   57.71    6.41 
  -3   2  -6   65.10    7.61 
  -3   2  -6   60.58    6.89 
   3  -2   6   67.78    6.86 
   3   2   6   60.76    6.30 
  -3   2  -6   69.20    6.90 
  -3  -2  -6   69.66    7.05 
   3  -2   6   69.10    6.86 
   3   2   6   68.87    7.05 
  -3   2  -6   66.01    6.81 
  -3  -2  -6   65.79    6.75 
  -3  -2  -6   61.03    9.47 
  -3   2  -6   62.43    6.87 
   3   2   6   71.41    9.43 
  -3   2  -6   57.22    5.85 
   3  -2   6   52.55    5.35 
   3  -2   6   63.20    6.29 
   3   2   6   59.10    6.04 
   3  -2   7  212.59   13.20 
   3   2   7  217.77   14.17 
  -3   2  -7  203.78   12.47 
  -3  -2  -7  211.50   13.38 
  -3   2  -7  232.03   14.72 
  -3  -2  -7  230.06   14.76 
   3  -2   7  221.58   13.60 
   3   2   7  203.86   13.22 
   3  -2   7  199.05   12.18 
  -3  -2  -7  215.18   13.32 
  -3   2  -7  200.37   12.98 
  -3  -2  -7  198.13   12.91 
  -3   2  -7  199.22   12.48 
  -3   2  -7  202.10   12.46 
   3  -2   7  224.29   13.57 
   3   2   7  218.54   13.13 
  -3   2  -7  226.56   13.57 
  -3  -2  -7  224.89   13.51 
   3  -2   7  208.22   12.92 
   3   2   7  236.37   14.33 
  -3   2  -7  233.09   14.00 
  -3  -2  -7  225.43   13.89 
  -3  -2  -7  218.67   14.87 
  -3   2  -7  150.55   17.34 
   3  -2   7  220.77   13.77 
   3   2   7  210.55   14.64 
   3  -2   7  210.04   12.83 
   3  -2   7  211.87   12.71 
   3   2   7  199.05   11.97 
   3  -2   8    8.47    4.04 
   3   2   8    9.68    5.45 
  -3   2  -8    9.19    2.76 
  -3  -2  -8    7.81    4.80 
  -3  -2  -8    1.47    3.85 
   3  -2   8    8.57    3.61 
   3   2   8    9.18    4.87 
   3  -2   8    5.43    3.20 
  -3   2  -8    5.34    4.77 
  -3   2  -8    4.05    4.61 
   3  -2   8    6.03    1.91 
   3   2   8    9.16    3.33 
  -3   2  -8    5.93    1.66 
  -3  -2  -8    6.69    2.77 
   3  -2   8    4.84    2.32 
   3   2   8    6.97    3.66 
  -3   2  -8    8.67    2.51 
  -3  -2  -8    8.13    2.65 
  -3  -2  -8    6.07    7.51 
   3   2   8    7.52    4.39 
   3  -2   8    6.39    1.23 
   3  -2   8    7.27    2.25 
   3   2   8    8.09    2.11 
   3  -2   9    5.22    1.65 
   3   2   9    6.58    2.33 
  -3   2  -9    5.34    1.81 
  -3  -2  -9    7.50    2.13 
   3  -2   9    1.96    2.34 
   3   2   9    6.40    3.34 
  -3   2  -9    8.04    2.59 
  -3  -2  -9    4.21    3.07 
  -3  -2  -9    4.70    6.94 
   3   2   9    7.44    3.30 
   3  -2   9    4.69    1.09 
   3  -2   9    5.39    2.28 
   3  -2  10   20.30    3.97 
   3   2  10   21.19    4.49 
  -3   2 -10   27.72    5.11 
  -3  -2 -10   20.75    4.13 
   3  -2  10   24.45    4.71 
   3   2  10   11.74    3.68 
  -3   2 -10    5.88    2.92 
  -3  -2 -10   25.15    4.96 
  -3  -2 -10   58.20   26.08 
   3  -2  10   21.62    4.34 
   3  -2  11   41.19    4.90 
   3   2  11   48.29    5.52 
  -3   2 -11   44.92    5.24 
  -3  -2 -11   42.63    5.02 
  -3  -2 -11   41.02    6.28 
   3  -2  11   41.87    5.09 
   3   2  11   41.14    5.04 
  -3   3  11    8.68    4.27 
  -3  -3  11    9.05    2.34 
  -3   3  11    8.41    2.45 
   3   3 -10   -0.64    2.82 
  -3  -3  10   -3.56    3.80 
  -3   3  10    2.74    5.26 
   3  -3 -10    1.75    4.27 
  -3  -3  10   -0.06    1.71 
  -3   3  10   -1.01    2.31 
  -3   3  10   -0.39    2.20 
  -3   3   9   92.70   10.39 
   3   3  -9  106.71   11.95 
  -3  -3   9  106.09   12.73 
  -3   3   9  105.65   14.98 
   3  -3  -9  103.69   13.12 
  -3  -3   9   98.08   13.80 
  -3  -3   9  105.36   11.44 
  -3   3   9  112.92   12.38 
  -3   3   9  101.22   11.24 
  -3  -3   8   10.27    1.49 
   3   3  -8   11.58    1.41 
  -3   3   8   16.44    2.59 
  -3   3   8   24.34   10.26 
  -3  -3   8   10.29    8.38 
  -3  -3   8   12.20    2.16 
  -3   3   8   20.44    3.62 
  -3   3   8   14.03    3.40 
  -3  -3   7  256.78   17.32 
   3   3  -7  319.11   21.02 
   3  -3  -7  293.95   19.25 
  -3  -3   7  294.22   19.36 
  -3   3   7  302.11   19.75 
   3  -3  -7  317.15   21.06 
  -3  -3   7  287.96   18.85 
   3   3  -7  277.38   18.97 
   3   3  -7  288.28   19.07 
   3   3  -7  274.75   18.11 
  -3  -3   7  273.03   19.22 
   3   3  -7  306.07   20.15 
  -3   3   7  321.33   20.64 
  -3  -3   7  297.81   19.31 
  -3  -3   7  303.49   21.42 
  -3   3   7  295.50   23.87 
  -3  -3   7  292.04   20.69 
  -3   3   7  333.45   24.17 
   3   3  -7  262.56   18.88 
  -3  -3   7  247.86   23.97 
  -3   3   7  305.04   19.51 
  -3  -3   6   88.10    6.38 
   3   3  -6   88.99    5.45 
   3   3  -6   95.31    7.76 
  -3   3   6   99.41    7.82 
   3  -3  -6   87.80    6.99 
  -3  -3   6   86.26    6.25 
  -3  -3   6   89.38    6.27 
  -3   3   6   87.59    7.07 
   3  -3  -6   81.60    5.78 
  -3  -3   6   81.24    6.18 
   3   3  -6   94.70    8.03 
   3   3  -6   89.99    7.77 
   3   3  -6   87.28    6.24 
  -3  -3   6   89.23    6.49 
   3   3  -6   81.00    5.49 
  -3   3   6   88.43    6.39 
  -3  -3   6   97.34    7.37 
  -3  -3   6   80.19    9.42 
  -3   3   6   98.27   11.01 
  -3  -3   6   95.43   12.05 
  -3   3   6   95.02   10.35 
   3   3  -6   74.31    9.49 
  -3   3   6   73.73    5.65 
  -3  -3   6   75.13    6.58 
  -3   3   6   89.32    6.69 
  -3   3   6   97.12    6.76 
  -3  -3   5  367.90   23.38 
   3   3  -5  396.73   23.29 
   3   3  -5  433.47   25.56 
  -3   3   5  429.69   25.43 
   3  -3  -5  361.23   21.43 
  -3  -3   5  377.63   23.01 
  -3  -3   5  391.26   22.97 
  -3   3   5  426.72   25.36 
   3  -3  -5  375.85   22.27 
  -3  -3   5  360.72   21.43 
   3   3  -5  385.18   23.03 
   3   3  -5  365.99   21.79 
   3   3  -5  386.17   23.09 
  -3  -3   5  368.09   22.78 
   3   3  -5  393.26   22.90 
  -3   3   5  385.22   22.60 
  -3  -3   5  377.31   22.05 
  -3  -3   5  399.65   24.81 
  -3   3   5  371.80   23.10 
  -3  -3   5  369.76   23.04 
  -3   3   5  358.40   24.21 
   3   3  -5  295.44   28.56 
  -3   3   5  285.95   28.20 
  -3  -3   5  316.69   20.87 
  -3   3   5  403.68   23.55 
  -3   3   5  390.46   22.79 
  -3  -3   4  192.52   10.14 
   3   3  -4  207.18   10.46 
   3   3  -4  187.60    9.84 
  -3   3   4  197.26   10.23 
   3  -3  -4  205.89   10.72 
  -3  -3   4  210.76   11.04 
  -3   3   4  159.11    9.16 
  -3  -3   4  195.12    9.95 
  -3   3   4  198.55   10.35 
   3  -3  -4  203.84   10.80 
  -3  -3   4  185.54    9.60 
   3   3  -4  192.98   10.43 
   3   3  -4  200.26   10.73 
   3   3  -4  201.72   10.78 
  -3  -3   4  178.58    9.24 
   3   3  -4  187.80    9.23 
  -3   3   4  209.30   10.37 
   3   3  -4  184.49    9.12 
  -3  -3   4  192.10    9.62 
  -3  -3   4  214.99   11.98 
  -3   3   4  199.76   13.62 
  -3  -3   4  190.37   10.90 
  -3   3   4  213.26   12.97 
   3   3  -4  198.80   11.99 
  -3   3   4  194.47   10.62 
  -3  -3   4  188.72    9.49 
  -3   3   4  206.47   10.48 
  -3   3   4  214.69   10.79 
  -3  -3   3  304.45   13.41 
   3   3  -3  315.78   13.72 
   3   3  -3  316.48   13.90 
  -3   3   3  314.33   13.96 
   3  -3  -3  294.78   13.22 
  -3  -3   3  295.56   13.18 
   3   3  -3  287.55   12.72 
  -3   3   3  260.34   13.02 
  -3  -3   3  287.20   12.47 
  -3   3   3  306.53   13.89 
   3  -3  -3  278.84   12.40 
  -3  -3   3  264.92   14.94 
   3   3  -3  276.65   12.65 
   3   3  -3  296.45   13.26 
   3   3  -3  297.35   13.31 
   3   3  -3  304.20   12.96 
  -3  -3   3  236.36   15.78 
  -3   3   3  289.17   12.69 
   3   3  -3  293.17   12.60 
  -3  -3   3  290.10   12.48 
  -3   3   3  314.22   16.77 
  -3  -3   3  293.49   15.46 
   3   3  -3  344.59   20.26 
  -3   3   3  300.55   13.28 
  -3   3   3  281.66   12.10 
  -3   3   3  302.08   12.96 
  -3  -3   2  181.43    7.82 
   3   3  -2  186.01    7.81 
  -3   3   2  179.07    8.07 
   3  -3  -2  180.28    7.67 
  -3  -3   2  176.79    7.15 
   3   3  -2  178.10    8.01 
  -3   3   2  164.78    7.61 
  -3  -3   2  185.23    7.47 
  -3   3   2  174.74    7.63 
   3  -3  -2  160.23    7.11 
  -3  -3   2  182.43    7.48 
   3   3  -2  185.78    7.98 
   3   3  -2  181.56    7.98 
   3   3  -2  183.19    8.00 
  -3   3   2  179.48    7.36 
   3   3  -2  166.16    6.61 
  -3   3   2  174.07    7.01 
   3   3  -2  191.42    7.56 
  -3   3   2  151.01    6.22 
  -3  -3   2  172.99    6.94 
  -3  -3   2  196.62    7.68 
  -3  -3   2  169.00   12.06 
  -3   3   2  175.22    9.32 
  -3   3   2  184.64    7.30 
  -3   3   2  187.41    7.39 
  -3  -3   1   54.32    3.70 
   3   3  -1   53.86    3.37 
  -3  -3   1   55.10    3.71 
  -3   3   1   55.33    3.46 
   3  -3  -1   51.26    3.97 
  -3  -3   1   51.21    2.57 
   3   3  -1   54.03    3.77 
  -3   3   1   54.45    3.08 
   3  -3  -1   53.97    3.71 
  -3  -3   1   51.92    2.41 
   3  -3  -1   48.24    2.89 
  -3  -3   1   56.41    3.09 
   3   3  -1   60.77    4.82 
  -3   3   1   58.01    3.22 
   3   3  -1   57.04    4.34 
  -3   3   1   58.33    2.87 
   3   3  -1   51.20    2.62 
   3   3  -1   57.11    3.35 
  -3  -3   1   45.75    2.57 
  -3  -3   1   58.45    7.05 
  -3  -3   1   54.31    6.11 
  -3  -3   0  261.17   10.71 
   3  -3   0  264.36   10.49 
   3   3   0  255.82   10.43 
  -3   3   0  247.53   10.08 
  -3  -3   0  239.86   14.01 
   3   3   0  240.05    9.75 
   3  -3   0  258.96   10.48 
  -3  -3   0  254.46   10.02 
   3   3   0  261.23   11.06 
  -3   3   0  252.11   10.87 
   3  -3   0  275.08   11.32 
  -3  -3   0  252.50   10.19 
  -3   3   0  258.14   10.47 
  -3  -3   0  251.37   10.61 
   3   3   0  249.78   10.33 
  -3   3   0  266.22   10.76 
   3   3   0  283.39   12.19 
  -3   3   0  266.26   10.61 
   3   3   0  248.56    9.65 
  -3  -3   0  244.19    9.57 
  -3  -3   0  254.27   14.53 
  -3   3   0  174.80   24.67 
  -3  -3   0  257.48   11.12 
   3  -3   1  170.83    7.01 
   3   3   1  203.31    8.63 
  -3   3  -1  171.80    7.05 
  -3  -3  -1  184.14    7.86 
  -3  -3  -1  185.20    8.05 
   3   3   1  180.19    7.66 
  -3   3  -1  199.94    8.32 
   3  -3   1  205.01    8.53 
  -3  -3  -1  177.97    7.22 
   3   3   1  189.22    8.20 
  -3   3  -1  180.77    8.06 
   3  -3   1  195.16    8.10 
  -3  -3  -1  185.45    7.89 
  -3   3  -1  193.63    8.16 
  -3  -3  -1  191.80    8.24 
   3   3   1  181.74    7.66 
  -3   3  -1  189.37    7.87 
   3   3   1  179.82    7.91 
  -3   3  -1  196.01    8.24 
   3   3   1  180.70    7.11 
  -3  -3  -1  149.18    8.64 
  -3  -3  -1  176.78   13.64 
  -3  -3  -1  176.27    8.28 
  -3   3  -1  187.31    7.47 
   3  -3   2  239.90   11.02 
   3   3   2  248.52   11.24 
  -3   3  -2  228.13   10.17 
  -3  -3  -2  240.43   10.83 
  -3  -3  -2  257.27   11.77 
   3  -3   2  231.09   10.23 
   3   3   2  229.42   10.35 
  -3  -3  -2  235.87   10.50 
   3  -3   2  243.15   10.65 
   3   3   2  241.69   11.10 
  -3   3  -2  250.53   11.64 
   3  -3   2  241.02   10.67 
  -3  -3  -2  245.35   11.42 
  -3   3  -2  250.14   11.13 
  -3   3  -2  237.80   10.81 
   3   3   2  239.87   10.89 
  -3   3  -2  243.42   11.12 
   3  -3   2  219.49    9.52 
   3   3   2  244.34   10.52 
  -3   3  -2  208.12    8.99 
  -3  -3  -2  231.76    9.94 
   3   3   2  224.36    9.67 
  -3   3  -2  253.30   11.42 
  -3   3  -2  243.47   10.60 
  -3  -3  -2  199.64   10.36 
  -3  -3  -2  235.97   14.51 
  -3   3  -2  242.82   12.41 
   3   3   2  239.39   11.19 
  -3   3  -2  249.64   11.20 
   3  -3   3   63.39    3.32 
   3   3   3   64.01    5.33 
  -3   3  -3   61.25    3.08 
  -3  -3  -3   67.11    4.14 
  -3   3  -3   69.11    5.58 
  -3  -3  -3   76.19    5.16 
   3  -3   3   65.80    3.95 
  -3  -3  -3   64.59    3.69 
   3  -3   3   56.35    4.21 
   3   3   3   68.99    5.49 
  -3   3  -3   68.82    5.19 
   3  -3   3   61.01    3.66 
  -3  -3  -3   65.62    5.65 
  -3   3  -3   80.30    6.85 
  -3  -3  -3   58.72    3.72 
  -3   3  -3   72.19    6.26 
  -3  -3  -3   62.72    3.98 
   3   3   3   69.69    4.08 
  -3   3  -3   65.22    4.52 
   3  -3   3   62.65    4.49 
   3   3   3   65.33    3.21 
  -3  -3  -3   64.02    3.14 
   3   3   3   67.28    4.96 
  -3   3  -3   70.42    5.15 
   3   3   3   66.42    3.59 
  -3   3  -3   68.76    3.44 
  -3  -3  -3   62.08    3.19 
  -3  -3  -3   65.20    3.14 
  -3  -3  -3   58.44   14.44 
  -3   3  -3   74.20    6.59 
   3   3   3   73.31    7.37 
  -3   3  -3   69.87    3.71 
   3  -3   3   59.19    5.00 
   3  -3   4   64.99    3.98 
   3   3   4   62.01    4.63 
  -3   3  -4   65.86    3.95 
  -3  -3  -4   61.25    4.28 
  -3   3  -4   58.13    4.39 
  -3  -3  -4   66.09    5.03 
   3  -3   4   62.50    3.95 
   3   3   4   57.65    4.35 
   3   3   4   57.87    4.27 
  -3   3  -4   59.72    3.54 
   3  -3   4   62.89    4.02 
  -3  -3  -4   62.52    4.63 
  -3   3  -4   58.01    4.60 
  -3  -3  -4   56.39    3.99 
  -3   3  -4   63.00    4.76 
  -3   3  -4   58.96    3.92 
   3  -3   4   60.18    3.49 
   3   3   4   59.51    3.59 
  -3   3  -4   62.62    3.44 
  -3  -3  -4   65.01    3.68 
   3   3   4   63.33    3.82 
  -3   3  -4   58.39    3.97 
   3   3   4   55.65    3.40 
  -3   3  -4   61.97    3.32 
  -3  -3  -4   60.05    3.38 
  -3  -3  -4   60.74    3.30 
  -3  -3  -4   63.86   16.53 
  -3   3  -4   68.85    5.70 
   3   3   4   60.44    8.13 
  -3   3  -4   63.24    3.50 
   3  -3   4   58.97    3.13 
   3  -3   5  108.27   10.79 
   3   3   5  114.19   11.56 
  -3   3  -5  112.31   11.07 
  -3  -3  -5  116.59   11.75 
  -3   3  -5  117.32   12.01 
  -3  -3  -5  109.12   11.03 
   3  -3   5  109.08   10.81 
   3   3   5  113.52   11.52 
   3   3   5  118.62   12.31 
  -3   3  -5  111.89   11.25 
   3  -3   5  105.78   10.63 
  -3  -3  -5  117.10   11.81 
  -3   3  -5  127.21   12.73 
  -3   3  -5  123.79   12.65 
  -3   3  -5  119.21   11.86 
   3  -3   5  117.47   11.52 
   3   3   5  117.55   11.53 
  -3   3  -5  121.88   11.87 
  -3  -3  -5  120.44   11.80 
   3   3   5  125.26   12.33 
  -3   3  -5  122.52   12.23 
  -3   3  -5  107.79   10.56 
  -3  -3  -5  124.63   12.23 
  -3  -3  -5  127.38   12.40 
  -3  -3  -5  139.93   15.21 
  -3   3  -5  131.33   13.82 
   3   3   5  155.56   17.37 
  -3   3  -5  114.78   11.29 
   3  -3   5  120.10   11.71 
   3  -3   5  122.07   11.89 
   3   3   5  108.74   10.74 
   3  -3   6  563.86   31.35 
   3   3   6  556.58   30.30 
  -3   3  -6  565.28   30.93 
  -3  -3  -6  582.45   31.53 
  -3   3  -6  582.50   31.54 
  -3  -3  -6  535.44   29.00 
   3  -3   6  558.11   30.16 
   3   3   6  538.20   29.23 
   3  -3   6  503.28   27.22 
  -3  -3  -6  556.35   30.24 
  -3   3  -6  594.55   32.17 
  -3   3  -6  570.51   30.91 
  -3   3  -6  545.68   29.48 
   3  -3   6  575.64   31.69 
   3   3   6  588.08   31.57 
  -3   3  -6  582.77   31.97 
  -3  -3  -6  584.77   31.36 
   3  -3   6  565.52   30.38 
   3   3   6  594.70   31.92 
  -3   3  -6  512.89   27.93 
  -3  -3  -6  541.54   29.33 
  -3  -3  -6  631.10   34.63 
  -3   3  -6  564.12   31.25 
   3   3   6  620.67   33.66 
  -3   3  -6  524.95   28.41 
   3  -3   6  559.84   30.61 
   3  -3   6  570.09   30.59 
   3   3   6  495.55   26.66 
   3  -3   7   73.15    7.21 
   3   3   7   70.75    7.83 
  -3   3  -7   69.80    6.92 
  -3  -3  -7   83.05    8.51 
   3  -3   7   76.08    7.88 
   3   3   7   86.74    9.20 
   3  -3   7   70.13    6.89 
  -3  -3  -7   79.54    8.25 
  -3   3  -7   56.29    7.26 
  -3   3  -7   80.19    8.49 
  -3   3  -7   74.14    7.52 
   3  -3   7   67.54    6.77 
   3   3   7   77.60    7.47 
  -3   3  -7   79.09    7.52 
  -3  -3  -7   81.50    7.80 
   3  -3   7   90.26    8.49 
   3   3   7   60.89    6.64 
  -3  -3  -7   75.83    7.55 
  -3  -3  -7   92.34   14.51 
  -3   3  -7   82.21    8.70 
   3   3   7   93.88   10.63 
   3  -3   7   78.11    7.26 
   3  -3   7   82.45    7.94 
   3   3   7   74.57    7.06 
   3  -3   8   11.71    1.80 
   3   3   8   11.20    2.83 
  -3   3  -8   12.31    1.90 
  -3  -3  -8   13.30    2.32 
   3  -3   8   10.21    2.18 
   3   3   8   14.62    3.29 
  -3  -3  -8  -25.10   23.72 
  -3   3  -8    6.23    2.85 
   3   3   8   11.26    3.80 
   3  -3   8   13.13    1.63 
   3  -3   8   12.03    2.06 
   3   3   8    9.59    2.84 
   3  -3   9  207.79   22.54 
   3   3   9  207.31   22.68 
  -3   3  -9  220.21   23.73 
  -3  -3  -9  206.36   22.31 
   3  -3   9  217.74   23.56 
   3   3   9  211.63   22.87 
  -3  -3  -9  114.99   20.88 
  -3  -3  -9  237.66   40.23 
   3   3   9  184.50   20.32 
   3  -3   9  199.16   21.46 
   3  -3   9  218.67   23.59 
   3   3   9  165.29   17.94 
   3  -3  10   29.04    2.81 
   3   3  10   29.49    3.11 
  -3   3 -10   30.22    2.86 
  -3  -3 -10   25.85    6.33 
   3   3  10   30.96    3.19 
  -3  -3 -10   28.25    6.87 
  -3  -3 -10   30.76    9.72 
   3  -3  10   27.61    6.83 
   3   3  10   24.42    6.11 
   3  -3  11    4.61    1.80 
   3   3  11    4.90    2.11 
  -3   4  10   36.63    5.24 
  -3  -4  10   34.00    3.89 
  -3   4  10   26.24    3.47 
  -3   4  10   31.23    4.17 
  -3  -4   9   43.50    2.74 
  -3   4   9   47.73    3.14 
   3   4  -9   38.18    9.27 
  -3  -4   9   39.65    3.83 
  -3   4   9   51.12    5.33 
   3  -4  -9   49.19    4.69 
  -3  -4   9   32.86    6.52 
  -3   4   9   47.40    3.88 
  -3   4   9   48.77    3.74 
  -3  -4   8  314.22   22.10 
   3   4  -8  318.28   21.71 
  -3   4   8  373.95   24.81 
  -3  -4   8  341.39   22.92 
  -3  -4   8  401.78   29.61 
  -3   4   8  363.18   25.23 
   3  -4  -8  336.78   22.99 
  -3  -4   8  373.84   24.88 
  -3   4   8  326.62   21.74 
  -3   4   8  387.53   25.72 
  -3  -4   7   51.43    4.55 
   3   4  -7   50.10    4.31 
  -3   4   7   58.50    5.19 
  -3  -4   7   54.09    5.03 
  -3  -4   7   46.32    7.09 
  -3   4   7   55.50   12.18 
   3  -4  -7   62.88    7.05 
   3   4  -7   37.40    7.46 
  -3   4   7   45.37    4.84 
  -3  -4   7   54.88    4.88 
  -3   4   7   57.98    5.70 
  -3   4   7   60.69    5.98 
  -3  -4   6   37.92    4.18 
   3   4  -6   39.77    4.41 
   3   4  -6   41.34    6.16 
  -3   4   6   43.07    6.14 
   3  -4  -6   37.61    5.48 
  -3  -4   6   40.39    4.31 
  -3   4   6   32.91    5.43 
   3  -4  -6   41.02    6.51 
   3   4  -6   37.52    5.70 
   3   4  -6   41.29    6.25 
   3   4  -6   46.42    6.04 
  -3  -4   6   42.13    4.23 
   3   4  -6   45.43    4.35 
  -3   4   6   46.12    5.33 
  -3  -4   6   42.46    4.81 
  -3  -4   6   49.63    7.65 
  -3   4   6   38.26    8.88 
   3  -4  -6   38.10    6.66 
  -3  -4   6   43.13    9.76 
   3   4  -6   37.94   10.40 
  -3   4   6   42.28    4.84 
  -3  -4   6   43.65    4.36 
  -3   4   6   44.31    5.82 
  -3   4   6   42.16    5.12 
  -3  -4   5   36.11    2.92 
   3   4  -5   41.51    3.20 
   3   4  -5   41.51    4.27 
  -3   4   5   38.74    4.20 
   3  -4  -5   39.09    5.84 
  -3  -4   5   39.41    4.08 
  -3   4   5   46.64    5.21 
   3  -4  -5   37.47    3.93 
  -3  -4   5   32.45    3.15 
   3   4  -5   33.87    4.57 
   3   4  -5   38.42    5.49 
   3   4  -5   30.29    4.43 
  -3  -4   5   34.95    2.43 
   3   4  -5   41.18    2.60 
  -3   4   5   35.72    3.68 
   3   4  -5   36.80    2.71 
  -3  -4   5   37.73    3.31 
  -3  -4   5   34.06    5.01 
  -3   4   5   39.75    7.85 
  -3  -4   5   33.30    5.46 
   3   4  -5   40.02    7.74 
  -3   4   5   34.80    3.99 
  -3  -4   5   35.67    2.27 
  -3   4   5   37.50    3.33 
  -3   4   5   38.03    3.15 
  -3  -4   4    5.91    2.05 
   3   4  -4    6.33    4.16 
   3  -4  -4    8.39    4.98 
  -3  -4   4    4.92    1.99 
  -3   4   4    5.28    1.49 
  -3   4   4    8.67    4.43 
   3  -4  -4    8.42    3.96 
  -3  -4   4    8.26    2.78 
   3   4  -4    6.22    4.04 
   3   4  -4   11.52    4.63 
   3   4  -4    9.32    3.57 
  -3  -4   4    7.17    1.16 
   3   4  -4    8.58    1.25 
  -3   4   4    7.60    2.55 
   3   4  -4    7.44    1.83 
  -3  -4   4    7.50    1.56 
  -3  -4   4    4.75    4.71 
  -3   4   4    9.91    6.46 
  -3  -4   4    8.99    6.07 
   3   4  -4   10.52    7.30 
  -3   4   4    5.83    2.71 
  -3  -4   4    7.06    1.13 
  -3   4   4    7.10    2.90 
  -3   4   4    6.38    2.66 
  -3  -4   3  207.66   12.48 
   3   4  -3  241.49   14.33 
   3   4  -3  222.22   13.35 
  -3   4   3  255.18   15.37 
   3  -4  -3  217.05   13.24 
  -3  -4   3  223.83   13.34 
   3   4  -3  222.47   13.48 
  -3   4   3  203.99   13.23 
   3  -4  -3  215.65   13.24 
  -3  -4   3  220.33   13.11 
   3   4  -3  203.35   12.75 
   3   4  -3  213.97   13.12 
   3   4  -3  202.89   12.61 
   3   4  -3  220.79   12.90 
  -3  -4   3  235.06   13.75 
  -3   4   3  229.28   13.52 
   3   4  -3  225.91   13.43 
  -3  -4   3  215.48   12.69 
  -3  -4   3  243.86   18.73 
  -3   4   3  214.10   13.98 
  -3  -4   3  214.49   13.54 
   3   4  -3  225.08   15.34 
  -3   4   3  240.91   14.60 
  -3  -4   3  212.74   12.55 
  -3   4   3  235.55   14.03 
  -3   4   3  230.73   13.58 
  -3  -4   2  109.32    6.15 
   3   4  -2  118.40    6.46 
  -3   4   2  108.32    6.17 
   3  -4  -2  112.37    6.48 
  -3  -4   2  107.60    6.23 
   3   4  -2  103.77    6.47 
  -3   4   2  110.21    6.28 
   3  -4  -2  112.92    6.69 
   3  -4  -2   94.84    5.55 
  -3  -4   2  114.81    6.49 
   3   4  -2   86.66    5.25 
   3   4  -2  108.03    6.42 
   3   4  -2  101.94    6.90 
   3   4  -2  111.19    5.65 
  -3  -4   2  115.99    5.85 
  -3   4   2   97.19    5.77 
   3   4  -2  112.90    5.92 
  -3   4   2   97.34    5.22 
  -3  -4   2  101.92    5.31 
  -3  -4   2  120.12    6.13 
  -3   4   2  110.11    9.08 
  -3  -4   2  103.35    7.38 
   3   4  -2  122.41   11.70 
  -3   4   2  113.75    6.15 
  -3   4   2  115.26    6.10 
  -3   4   2  107.08    5.83 
  -3  -4   1  187.87   13.63 
   3   4  -1  195.20   10.30 
  -3  -4   1  184.39    9.68 
  -3   4   1  171.11    8.98 
  -3  -4   1  173.53   12.20 
   3   4  -1  195.93   10.53 
  -3   4   1  169.71   12.48 
   3  -4  -1  188.32    9.88 
  -3  -4   1  183.39   13.13 
   3   4  -1  186.47    9.86 
   3   4  -1  195.47   10.51 
   3   4  -1  179.41    9.49 
  -3   4   1  178.26    8.98 
   3   4  -1  186.81   13.01 
  -3  -4   1  185.76   12.94 
   3   4  -1  176.04   12.58 
  -3   4   1  169.18    8.87 
  -3  -4   1  167.84    9.69 
  -3   4   1  184.92    9.99 
  -3  -4   1  182.96   12.03 
   3   4  -1  215.07   18.14 
  -3   4   1  181.99   12.93 
  -3   4   1  187.01   13.17 
  -3   4   1  205.25   10.20 
  -3   4   1  182.43    9.12 
  -3  -4   0  589.91   41.02 
   3   4   0  576.92   40.08 
  -3   4   0  536.51   37.91 
  -3  -4   0  576.25   40.02 
  -3   4   0  648.88   45.25 
   3  -4   0  625.15   43.38 
  -3  -4   0  553.63   38.38 
   3   4   0  579.43   40.33 
  -3   4   0  574.18   41.25 
   3  -4   0  608.77   42.34 
  -3  -4   0  563.32   39.15 
   3   4   0  532.97   37.05 
   3   4   0  564.94   39.30 
   3   4   0  551.58   38.49 
  -3   4   0  593.94   41.15 
   3   4   0  582.36   40.23 
  -3  -4   0  571.35   39.46 
  -3   4   0  591.30   41.08 
   3   4   0  625.00   43.20 
  -3   4   0  509.68   41.29 
  -3  -4   0  613.88   42.37 
  -3  -4   0  566.70   39.88 
   3   4   0  632.56   44.58 
  -3   4   0  620.88   43.29 
   3   4   0  549.81   38.13 
  -3   4   0  626.00   43.50 
  -3   4   0  578.78   39.99 
  -3   4   0  598.49   41.37 
  -3  -4  -1  573.07   28.12 
   3  -4   1  571.67   28.02 
   3   4   1  587.80   28.82 
  -3   4  -1  538.02   27.43 
  -3  -4  -1  556.24   27.29 
   3   4   1  551.95   27.06 
  -3   4  -1  634.22   31.33 
   3  -4   1  597.43   29.33 
  -3  -4  -1  582.19   28.46 
   3   4   1  593.28   29.18 
  -3   4  -1  560.37   30.54 
   3  -4   1  577.20   28.26 
  -3  -4  -1  588.71   28.97 
   3   4   1  522.53   25.77 
  -3   4  -1  622.33   30.51 
   3   4   1  566.85   27.88 
  -3   4  -1  605.62   29.57 
   3   4   1  582.50   28.27 
  -3  -4  -1  605.74   29.39 
  -3   4  -1  631.42   31.71 
   3   4   1  535.95   27.27 
  -3   4  -1  598.85   30.02 
  -3  -4  -1  508.40   24.67 
  -3  -4  -1  573.04   30.05 
  -3   4  -1  633.89   31.08 
   3   4   1  553.25   27.08 
  -3   4  -1  622.90   30.95 
  -3   4  -1  584.93   29.48 
  -3   4  -1  559.80   27.70 
   3  -4   2   33.31    2.47 
   3   4   2   32.11    3.70 
  -3   4  -2   32.16    2.62 
  -3  -4  -2   36.27    3.41 
  -3  -4  -2   32.75    2.83 
   3  -4   2   34.95    2.61 
   3   4   2   30.82    2.92 
  -3  -4  -2   34.32    2.67 
   3  -4   2   33.19    2.53 
   3   4   2   29.62    4.18 
  -3   4  -2   33.02    2.67 
   3  -4   2   30.32    3.42 
  -3  -4  -2   32.43    3.90 
  -3   4  -2   32.03    2.85 
   3   4   2   25.51    2.69 
  -3   4  -2   32.11    2.89 
   3  -4   2   29.04    1.76 
   3   4   2   32.26    2.77 
  -3   4  -2   29.36    1.81 
  -3  -4  -2   34.06    2.88 
  -3   4  -2   30.23    2.01 
   3   4   2   32.74    2.88 
  -3   4  -2   31.79    2.31 
  -3  -4  -2   27.33    1.94 
  -3  -4  -2   31.72    2.27 
  -3  -4  -2   30.71    9.61 
   3   4   2   29.52    6.00 
  -3   4  -2   34.94    4.70 
   3   4   2   31.87    3.85 
  -3   4  -2   35.05    2.30 
  -3   4  -2   31.86    2.54 
  -3   4  -2   31.89    2.81 
   3  -4   3   39.97    2.94 
   3   4   3   49.95    4.70 
  -3   4  -3   41.03    2.86 
  -3  -4  -3   41.29    4.00 
  -3  -4  -3   37.81    3.45 
   3  -4   3   41.12    3.13 
   3   4   3   39.49    3.64 
  -3  -4  -3   45.35    3.92 
   3  -4   3   40.82    2.95 
   3   4   3   43.79    4.44 
  -3   4  -3   41.89    3.07 
   3  -4   3   44.05    3.95 
  -3  -4  -3   45.22    4.35 
  -3   4  -3   42.10    4.29 
  -3   4  -3   44.04    3.83 
  -3   4  -3   44.61    3.71 
   3  -4   3   39.70    2.59 
   3   4   3   45.34    3.29 
  -3   4  -3   38.64    2.44 
  -3  -4  -3   39.47    3.02 
   3   4   3   42.98    3.16 
  -3   4  -3   39.88    2.77 
   3   4   3   35.05    3.14 
  -3   4  -3   42.14    2.83 
  -3  -4  -3   40.84    2.79 
  -3  -4  -3   44.76    3.18 
  -3  -4  -3   35.78    9.90 
  -3   4  -3   44.28    5.17 
   3   4   3   54.47    6.58 
  -3   4  -3   41.73    3.39 
   3  -4   3   42.96    3.14 
   3  -4   4  149.48   10.30 
   3   4   4  161.19   11.44 
  -3   4  -4  145.99    9.94 
  -3  -4  -4  160.53   11.49 
   3  -4   4  141.02    9.52 
   3   4   4  145.45   10.09 
   3   4   4  150.99   10.65 
  -3   4  -4  141.09   10.06 
   3  -4   4  150.76   10.21 
  -3  -4  -4  159.39   11.30 
  -3   4  -4  136.31    9.63 
  -3   4  -4  150.19   10.36 
  -3   4  -4  157.43   11.08 
   3  -4   4  146.93   10.06 
   3   4   4  160.37   10.67 
  -3   4  -4  142.48    9.66 
  -3  -4  -4  153.28   10.21 
   3   4   4  150.33    9.98 
  -3   4  -4  162.35   11.58 
   3   4   4  150.93   10.13 
  -3   4  -4  156.07   10.52 
  -3  -4  -4  154.39   10.21 
  -3  -4  -4  161.12   11.03 
  -3  -4  -4  147.47   15.82 
  -3   4  -4  140.43   11.92 
   3   4   4  173.33   12.61 
  -3   4  -4  155.41   10.93 
   3  -4   4  155.31   10.31 
   3  -4   5  248.00   13.91 
   3   4   5  274.11   15.64 
  -3   4  -5  259.32   14.46 
  -3  -4  -5  246.95   14.01 
   3  -4   5  244.71   13.50 
   3   4   5  247.59   14.34 
  -3   4  -5  225.38   14.08 
   3  -4   5  243.92   13.64 
  -3  -4  -5  262.00   16.18 
  -3   4  -5  255.35   14.56 
  -3   4  -5  248.39   13.82 
  -3   4  -5  265.70   14.79 
   3  -4   5  263.38   15.14 
   3   4   5  270.82   14.73 
  -3   4  -5  235.23   13.56 
  -3  -4  -5  266.02   14.47 
   3   4   5  257.64   14.05 
  -3   4  -5  309.08   19.03 
  -3   4  -5  258.85   14.41 
  -3  -4  -5  251.75   13.67 
  -3  -4  -5  230.20   12.52 
  -3  -4  -5  283.16   23.58 
  -3   4  -5  280.75   17.49 
   3   4   5  256.98   16.18 
  -3   4  -5  241.42   13.28 
   3  -4   5  263.24   14.23 
   3  -4   5  264.72   14.29 
   3  -4   6  311.15   28.82 
   3   4   6  347.30   32.01 
  -3   4  -6  329.51   30.49 
  -3  -4  -6  312.18   28.80 
   3  -4   6  342.85   31.37 
   3   4   6  316.72   29.25 
   3  -4   6  328.95   30.10 
  -3  -4  -6  380.90   35.11 
  -3   4  -6  351.32   32.51 
  -3   4  -6  330.54   30.54 
  -3   4  -6  354.62   32.55 
   3  -4   6  314.94   32.76 
   3   4   6  377.25   34.49 
  -3   4  -6  348.37   32.20 
  -3  -4  -6  354.54   32.32 
   3   4   6  360.84   32.90 
  -3   4  -6  332.46   30.44 
  -3  -4  -6  354.26   32.27 
  -3  -4  -6  356.52   32.44 
  -3  -4  -6  391.25   39.24 
  -3   4  -6  371.75   34.33 
   3   4   6  373.82   34.60 
   3  -4   6  358.32   32.69 
   3  -4   6  307.66   29.51 
   3  -4   7   76.67    8.39 
   3   4   7   99.96    8.64 
  -3   4  -7   83.90    7.21 
  -3  -4  -7  102.67    8.60 
   3  -4   7   97.21    8.15 
   3   4   7  100.78    8.75 
  -3  -4  -7  100.06    8.33 
  -3  -4  -7   93.89   16.25 
  -3   4  -7  101.31    9.79 
   3   4   7  110.43   10.86 
   3  -4   7   82.29    7.37 
   3  -4   7  109.95    9.16 
   3   4   7   85.69    7.18 
   3  -4   8   38.86    2.98 
   3   4   8   36.14    3.74 
  -3   4  -8   39.95    3.14 
  -3  -4  -8   41.25    3.42 
   3  -4   8   39.76    3.36 
   3   4   8   38.03    3.55 
  -3  -4  -8   41.51    3.64 
  -3  -4  -8   43.16   15.71 
  -3   4  -8   23.88    4.05 
   3   4   8   42.62    4.83 
   3  -4   8   33.72    2.96 
   3  -4   8   42.97    3.84 
   3   4   8   34.54    3.24 
   3  -4   9  109.46    7.86 
   3   4   9  108.94    6.42 
  -3   4  -9  100.34    6.51 
  -3  -4  -9  106.39    6.24 
   3   4   9  112.94    6.55 
  -3  -4  -9   89.80    5.48 
  -3  -4  -9  123.82   10.79 
   3   4   9  115.04    7.23 
   3  -4   9  107.24    5.96 
   3  -4   9  124.27    7.08 
   3  -4  10   50.22    5.60 
   3   4  10   51.70    5.97 
  -3   4 -10   55.41    6.17 
  -3  -4 -10   61.99    6.95 
   3   4  10   54.95    6.32 
  -3  -4 -10   48.41    7.76 
   3  -4  10   53.18    6.08 
  -3   5   9    3.97    3.77 
  -3  -5   9    8.10    1.98 
  -3   5   9    7.28    2.53 
  -3   5   9    5.14    2.66 
  -3  -5   8    8.94    2.02 
   3   5  -8   10.00    2.00 
  -3   5   8   10.76    3.06 
  -3  -5   8   11.55    3.44 
  -3   5   8    5.43    4.25 
   3   5  -8    7.90    3.42 
  -3  -5   8    5.83    1.74 
  -3   5   8   10.62    2.82 
  -3   5   8    9.61    2.78 
  -3  -5   7    3.54    1.38 
   3   5  -7    4.46    1.40 
  -3   5   7    7.05    3.54 
  -3  -5   7    2.56    4.32 
  -3   5   7   11.09    8.56 
   3   5  -7    8.14    6.66 
  -3   5   7    5.82    2.43 
  -3  -5   7    5.30    1.49 
  -3   5   7    7.23    2.75 
  -3   5   7    4.71    2.24 
  -3  -5   6   24.02    2.35 
  -3   5   6   26.62    3.35 
  -3  -5   6   37.45    5.92 
  -3   5   6   23.76    8.15 
   3   5  -6   22.30    6.74 
  -3   5   6   26.03    4.09 
  -3  -5   6   27.46    2.67 
  -3   5   6   27.17    3.24 
  -3   5   6   27.63    3.23 
  -3  -5   5   40.00    4.21 
   3   5  -5   43.66    4.47 
  -3   5   5   47.34    5.35 
   3  -5  -5   47.76    7.11 
  -3  -5   5   50.46    4.96 
   3  -5  -5   49.77    6.57 
   3   5  -5   52.26    6.16 
   3   5  -5   44.84    6.11 
  -3  -5   5   50.37    4.74 
   3   5  -5   44.82    4.10 
  -3   5   5   52.29    4.95 
   3   5  -5   52.74    4.85 
  -3  -5   5   51.02    6.89 
  -3   5   5   54.39    8.30 
   3   5  -5   48.01   10.24 
  -3   5   5   50.44    5.39 
  -3  -5   5   50.54    4.35 
  -3   5   5   45.45    4.52 
  -3   5   5   56.27    5.33 
  -3  -5   4  852.34   55.34 
   3   5  -4  842.75   53.53 
  -3   5   4  852.27   55.01 
   3  -5  -4  887.93   56.61 
  -3  -5   4  715.22   49.27 
   3  -5  -4  942.06   85.72 
  -3  -5   4  925.32   84.38 
   3   5  -4  840.79   53.60 
   3   5  -4  821.37   52.44 
  -3  -5   4  899.85   59.63 
   3   5  -4  976.29   88.58 
  -3   5   4  930.45   84.58 
   3   5  -4  932.65   84.69 
  -3  -5   4  820.85   62.94 
  -3   5   4  934.89   85.28 
   3   5  -4  962.30   88.06 
  -3   5   4  907.91   60.35 
  -3  -5   4  902.70   58.18 
  -3   5   4  943.07   85.67 
  -3   5   4  962.38   87.40 
  -3  -5   3  182.53   11.33 
   3   5  -3  185.32   11.36 
  -3   5   3  168.05   10.65 
   3  -5  -3  177.40   11.29 
  -3  -5   3  178.36   10.92 
  -3   5   3  143.27    9.48 
   3  -5  -3  198.55   12.51 
  -3  -5   3  190.80   11.84 
   3   5  -3  172.22   11.24 
   3   5  -3  172.25   11.03 
   3   5  -3  198.13   11.87 
  -3  -5   3  182.94   11.07 
  -3   5   3  197.70   12.00 
   3   5  -3  183.34   11.06 
  -3   5   3  152.15    9.83 
  -3  -5   3  237.35   15.41 
  -3   5   3  201.06   15.46 
   3   5  -3  202.64   15.52 
  -3   5   3  188.36   11.78 
  -3  -5   3  174.38   10.51 
  -3   5   3  205.81   12.58 
  -3   5   3  187.17   11.41 
  -3  -5   2  548.93   30.33 
   3   5  -2  583.63   31.48 
  -3   5   2  546.36   29.66 
   3  -5  -2  576.15   31.42 
  -3  -5   2  531.31   28.67 
   3   5  -2  530.07   28.80 
  -3   5   2  468.40   28.34 
   3  -5  -2  568.08   30.83 
  -3  -5   2  545.33   29.35 
   3   5  -2  477.25   26.16 
   3   5  -2  506.50   27.74 
   3   5  -2  572.39   30.72 
  -3  -5   2  597.72   32.21 
  -3   5   2  539.00   29.50 
   3   5  -2  570.61   30.62 
  -3   5   2  487.36   28.80 
   3  -5  -2  525.65   28.19 
  -3  -5   2  626.30   33.51 
   3   5  -2  567.70   33.09 
  -3   5   2  573.11   31.34 
  -3   5   2  600.27   32.22 
  -3   5   2  620.85   33.40 
  -3  -5   1    7.61    4.48 
   3   5  -1   10.48    3.37 
  -3   5   1    9.74    2.74 
   3  -5  -1    6.82    4.16 
  -3  -5   1    7.63    1.64 
   3   5  -1    6.57    3.42 
  -3   5   1    9.23    2.30 
   3  -5  -1    9.94    3.67 
  -3  -5   1   12.48    3.12 
   3   5  -1    8.52    4.05 
   3   5  -1    5.74    4.75 
   3   5  -1   11.39    2.46 
  -3  -5   1   10.84    2.18 
  -3   5   1    6.44    1.74 
   3   5  -1    9.55    2.45 
  -3   5   1    6.89    1.33 
   3  -5  -1    4.83    1.96 
  -3  -5   1    8.02    1.88 
  -3  -5   1   10.08    7.03 
   3   5  -1    9.52    8.67 
  -3   5   1   10.87    2.61 
  -3   5   1    9.24    2.27 
  -3   5   1    5.78    2.20 
  -3  -5   0   95.46    7.05 
   3   5   0  102.64    7.49 
  -3   5   0   93.66    7.25 
   3  -5   0  103.84    7.54 
  -3  -5   0   90.24    6.30 
   3   5   0  110.29    8.63 
  -3   5   0   96.50    7.10 
   3  -5   0  106.82    7.81 
  -3  -5   0   98.57    7.56 
   3   5   0  101.17    7.67 
   3   5   0   99.75    6.76 
  -3  -5   0   96.06    6.51 
  -3   5   0  111.21    7.57 
   3   5   0  101.74    7.14 
  -3   5   0   96.23    6.82 
  -3  -5   0   82.88    8.87 
  -3  -5   0   90.44   10.13 
   3   5   0   83.53   12.60 
  -3   5   0   98.20    7.77 
   3   5   0   93.80    6.50 
  -3   5   0  100.01    6.89 
  -3   5   0   91.01    7.42 
  -3   5   0  102.14    6.95 
  -3  -5  -1   38.25    4.31 
   3   5   1   39.32    4.56 
  -3   5  -1   35.28    3.62 
   3  -5   1   34.26    3.16 
  -3  -5  -1   34.14    4.07 
   3   5   1   37.05    4.94 
  -3   5  -1   37.83    3.51 
   3  -5   1   38.51    5.21 
  -3  -5  -1   34.01    4.33 
  -3   5  -1   42.26    4.22 
   3   5   1   38.77    3.53 
  -3  -5  -1   37.79    3.45 
  -3   5  -1   42.07    3.23 
   3   5   1   35.60    3.84 
  -3   5  -1   35.11    2.67 
  -3  -5  -1   35.65    3.00 
  -3  -5  -1   38.62    7.50 
   3   5   1   39.70    7.51 
  -3   5  -1   36.97    4.98 
   3   5   1   36.13    3.58 
  -3   5  -1   39.23    3.05 
  -3   5  -1   43.12    3.82 
  -3   5  -1   39.00    3.27 
  -3  -5  -2    5.44    3.92 
   3   5   2    7.83    3.90 
  -3   5  -2    6.42    1.90 
   3  -5   2    6.33    1.96 
  -3  -5  -2    8.21    3.06 
   3  -5   2    4.09    1.99 
   3   5   2    5.77    5.45 
  -3   5  -2    7.75    2.08 
   3  -5   2    8.82    3.59 
  -3  -5  -2    8.37    4.07 
  -3   5  -2    6.43    4.12 
   3  -5   2    6.22    1.16 
   3   5   2    1.99    2.21 
  -3   5  -2    5.59    1.06 
  -3  -5  -2    5.48    2.14 
  -3   5  -2    4.86    1.59 
   3   5   2    4.95    2.27 
  -3   5  -2    6.36    1.47 
  -3  -5  -2    5.59    1.99 
  -3  -5  -2    1.19    9.72 
  -3   5  -2    9.83    5.46 
   3   5   2    3.44    2.93 
  -3   5  -2    5.48    1.97 
   3  -5   2    2.91    2.15 
  -3   5  -2    4.98    2.11 
  -3  -5  -3  115.16    7.84 
   3  -5   3  125.36    7.95 
   3   5   3  139.97    9.30 
   3  -5   3  119.51    7.72 
   3   5   3  123.03    8.75 
  -3  -5  -3  130.31    8.68 
   3   5   3  110.85    8.14 
  -3   5  -3  118.12    7.74 
   3  -5   3  127.78    8.38 
  -3  -5  -3  124.74   10.05 
  -3   5  -3  116.47    8.14 
  -3   5  -3  125.01    8.49 
   3  -5   3  137.73    8.46 
   3   5   3  136.69    8.66 
  -3   5  -3  117.79    7.51 
  -3  -5  -3  141.38    8.91 
   3   5   3  119.24    7.36 
  -3   5  -3  132.29    8.51 
   3   5   3  122.42    7.71 
  -3   5  -3  139.71    8.63 
  -3  -5  -3  122.61    7.63 
  -3  -5  -3  139.54   14.45 
  -3   5  -3  146.03   10.03 
   3   5   3  134.39    8.73 
  -3   5  -3  121.98    7.89 
   3  -5   3  131.50    8.05 
  -3  -5  -4  129.59    9.34 
   3   5   4  127.12    9.40 
   3  -5   4  134.63    9.41 
   3   5   4  117.31    8.88 
   3   5   4  106.12    7.91 
  -3   5  -4  113.00    7.77 
   3  -5   4  130.72    8.83 
  -3  -5  -4  135.36    9.52 
  -3   5  -4  126.27    9.38 
  -3   5  -4  135.33    9.35 
   3  -5   4  130.53    8.62 
   3   5   4  136.56    9.06 
  -3   5  -4  118.96    8.03 
  -3  -5  -4  135.82    9.02 
   3   5   4  120.98    8.03 
  -3   5  -4  137.43    9.55 
   3   5   4  131.39    8.63 
  -3   5  -4  131.09    8.64 
  -3  -5  -4  141.85    9.26 
  -3  -5  -4  126.47   12.34 
  -3   5  -4   79.34   15.23 
   3   5   4  135.02   10.15 
  -3   5  -4  127.91    8.76 
   3  -5   4  145.71    9.47 
   3  -5   5  297.54   25.78 
   3   5   5  355.77   29.46 
  -3   5  -5  265.05   26.03 
  -3  -5  -5  363.87   30.13 
   3   5   5  309.76   25.64 
  -3   5  -5  374.43   31.54 
  -3  -5  -5  333.37   27.63 
  -3  -5  -5  334.42   30.56 
  -3   5  -5  354.17   30.06 
   3   5   5  372.47   31.01 
   3  -5   5  300.37   40.11 
   3  -5   5  356.40   29.47 
   3  -5   6   71.82    6.69 
   3   5   6   84.78    7.40 
  -3   5  -6   55.84    5.84 
  -3  -5  -6   90.21    7.69 
   3  -5   6   55.03    7.91 
   3   5   6   81.63    7.01 
  -3   5  -6   81.40    6.89 
  -3  -5  -6   65.17    7.81 
  -3  -5  -6   79.35   16.31 
  -3   5  -6   80.20    9.83 
   3   5   6   87.67    8.01 
   3  -5   6   89.89    7.45 
   3  -5   6   90.27    7.54 
   3   5   7   26.54    5.55 
  -3   5  -7   25.71    4.89 
  -3  -5  -7   26.99    5.33 
  -3  -5  -7   22.30    4.37 
  -3  -5  -7   33.32   14.95 
  -3   5  -7   26.26    6.03 
   3   5   7   20.11    5.36 
   3  -5   7   22.61    4.42 
   3  -5   7   24.67    4.85 
   3  -5   8   28.50    5.37 
   3   5   8   37.67    9.11 
  -3   5  -8   30.15    5.44 
  -3  -5  -8   37.81    9.13 
   3   5   8   33.21    6.13 
  -3  -5  -8   32.12    9.82 
  -3   5  -8   30.55    6.05 
   3   5   8   33.84    8.22 
   3  -5   8   24.25    4.53 
   3  -5   8   32.83    6.00 
   3  -5   9   17.68    3.80 
   3   5   9   18.57    4.19 
  -3   5  -9   15.30    3.38 
  -3  -5  -9   24.35    5.18 
   3   5   9   18.82    4.35 
  -3  -5  -9   18.49    5.48 
   3   5   9   16.05    4.34 
   3  -5   9   19.66    4.20 
  -3   6   8    6.01    2.35 
   3  -6  -8    5.74    2.62 
  -3   6   8    5.68    2.12 
  -3   6   8    6.38    2.01 
  -3  -6   7   19.54    4.82 
   3   6  -7   20.91    5.17 
  -3   6   7   29.04    3.21 
   3  -6  -7   29.31    3.17 
  -3  -6   7   18.34    5.00 
   3   6  -7   22.64    6.54 
  -3   6   7   26.51    6.49 
  -3   6   7   23.87    6.14 
  -3   6   7   27.88    6.90 
  -3  -6   6   32.55    6.15 
   3   6  -6   31.99    5.99 
  -3   6   6   35.65    6.78 
   3  -6  -6   27.88    5.91 
  -3  -6   6   20.32    5.61 
   3   6  -6   29.10    7.39 
  -3   6   6   28.75    5.81 
  -3  -6   6   33.90    6.34 
  -3   6   6   36.05    7.06 
  -3   6   6   32.97    6.53 
  -3  -6   5  168.12   12.52 
   3   6  -5  179.87   12.15 
  -3   6   5  160.63   10.83 
   3   6  -5  163.91   11.23 
   3  -6  -5  170.97   11.71 
  -3  -6   5  187.81   13.41 
   3   6  -5  189.11   14.22 
  -3   6   5  168.08   12.04 
  -3  -6   5  165.10   11.06 
  -3   6   5  166.53   11.41 
  -3   6   5  169.96   11.52 
  -3  -6   4    6.51    1.64 
   3   6  -4    7.06    1.96 
  -3   6   4    8.41    2.05 
   3   6  -4    7.20    2.01 
   3  -6  -4   11.32    3.38 
  -3  -6   4   12.34    5.86 
   3   6  -4   12.72    7.17 
  -3   6   4    7.23    2.61 
  -3   6   4    7.63    2.66 
  -3   6   4    8.00    2.31 
  -3  -6   3  448.86   37.10 
   3   6  -3  463.30   37.44 
  -3   6   3  466.71   37.81 
   3   6  -3  487.33   32.22 
   3  -6  -3  420.96   34.05 
  -3  -6   3  560.12   39.05 
   3   6  -3  495.15   34.19 
  -3   6   3  473.99   41.72 
  -3   6   3  460.22   37.23 
  -3   6   3  449.44   36.81 
   3   6  -2  236.51   19.63 
  -3  -6   2  206.90   17.59 
  -3   6   2  214.83   17.88 
   3   6  -2  225.34   18.77 
  -3   6   2  188.95   16.46 
   3  -6  -2  193.22   16.21 
  -3  -6   2  262.49   21.73 
   3   6  -2  243.52   21.87 
  -3   6   2  220.63   18.99 
  -3   6   2  238.86   19.88 
  -3   6   2  218.66   18.18 
  -3  -6   1  646.88   53.63 
   3   6  -1  645.52   53.42 
  -3   6   1  552.67   45.98 
   3  -6  -1  595.90   54.43 
  -3  -6   1  615.87   50.90 
  -3   6   1  543.05   46.88 
   3  -6  -1  637.31   52.86 
  -3  -6   1  551.22   45.68 
   3   6  -1  642.97   53.00 
  -3  -6   1  696.21   56.19 
  -3   6   1  694.66   56.42 
   3   6  -1  677.74   55.99 
  -3   6   1  584.67   51.62 
   3  -6  -1  542.40   47.28 
  -3  -6   1  641.34   56.18 
   3   6  -1  666.92   56.14 
  -3   6   1  659.87   55.26 
  -3   6   1  691.12   55.99 
  -3   6   1  725.29   58.67 
  -3  -6   0   20.01    4.22 
   3   6   0   21.88    4.48 
   3  -6   0   15.48    3.78 
  -3  -6   0   18.11    3.67 
   3   6   0   21.44    5.29 
  -3   6   0   18.93    2.88 
   3  -6   0   22.49    5.30 
  -3  -6   0   22.28    3.55 
   3   6   0   24.32    3.12 
  -3  -6   0   23.45    3.25 
  -3   6   0   25.07    3.06 
   3   6   0   18.94    3.53 
  -3   6   0   19.12    2.26 
  -3  -6   0   24.78    2.92 
   3   6   0   29.29    9.80 
  -3   6   0   22.21    4.59 
  -3   6   0   21.20    2.74 
  -3   6   0   25.59    4.07 
  -3   6   0   26.12    3.56 
  -3  -6  -1  181.90   16.01 
   3   6   1  179.91   15.86 
   3  -6   1  134.29   11.55 
   3   6   1  158.85   14.13 
  -3   6  -1  143.88   12.59 
   3  -6   1  160.09   13.82 
  -3  -6  -1  150.96   12.93 
   3   6   1  169.26   14.35 
  -3  -6  -1  166.88   14.16 
  -3   6  -1  183.12   15.36 
   3   6   1  169.15   14.32 
  -3   6  -1  164.30   14.07 
  -3  -6  -1  147.69   18.42 
   3   6   1  168.77   16.07 
  -3   6  -1  170.00   21.30 
   3   6   1  169.23   14.33 
  -3   6  -1  174.50   14.92 
   3  -6   1  157.38   13.16 
  -3   6  -1  179.85   15.36 
   3   6   2  444.12   36.70 
  -3  -6  -2  465.67   38.45 
  -3   6  -2  466.39   38.63 
   3   6   2  421.44   34.84 
  -3   6  -2  445.81   38.37 
  -3  -6  -2  436.35   37.37 
  -3  -6  -2  391.85   33.41 
  -3   6  -2  472.77   39.86 
   3   6   2  428.84   35.57 
  -3   6  -2  419.04   35.79 
   3  -6   2  446.44   36.91 
   3  -6   3   45.53    3.92 
   3   6   3   48.97    4.61 
  -3   6  -3   41.21    3.65 
  -3  -6  -3   48.73    4.48 
  -3   6  -3   50.87    4.50 
   3   6   3   48.75    4.48 
  -3   6  -3   45.21    4.05 
  -3  -6  -3   56.91    5.28 
  -3  -6  -3   52.22    9.72 
  -3   6  -3   44.42    6.20 
  -3   6  -3   46.18    4.41 
   3  -6   3   51.99    4.59 
   3  -6   4    6.90    1.45 
   3   6   4    5.63    2.34 
  -3   6  -4    6.07    1.48 
  -3  -6  -4    6.63    2.03 
  -3   6  -4    8.04    1.63 
   3   6   4    6.41    1.94 
  -3   6  -4    6.69    2.18 
  -3  -6  -4    6.99    2.38 
  -3  -6  -4    0.89    7.94 
  -3   6  -4    4.23    4.18 
   3   6   4    4.81    2.85 
  -3   6  -4    6.69    1.58 
   3  -6   4    8.43    1.66 
   3  -6   4    5.98    1.84 
   3  -6   5    5.55    1.65 
   3   6   5    4.11    3.10 
  -3   6  -5    5.60    1.13 
  -3  -6  -5    4.31    2.58 
   3   6   5    4.40    1.98 
  -3   6  -5    8.53    1.63 
  -3   6  -5    4.61    1.21 
  -3  -6  -5    7.79    2.12 
  -3  -6  -5    6.63    8.01 
  -3   6  -5    0.87    3.91 
   3   6   5    4.84    2.74 
   3  -6   5    6.26    1.40 
   3  -6   5    7.04    1.48 
   3  -6   6   41.83    2.96 
   3   6   6   38.04    9.15 
  -3   6  -6   34.83    6.25 
  -3  -6  -6   39.24    3.08 
   3   6   6   27.74    5.17 
  -3   6  -6   37.26    8.80 
  -3  -6  -6   34.93    6.29 
  -3  -6  -6   37.21   11.29 
  -3   6  -6   21.76    5.32 
   3   6   6   40.77    3.71 
   3  -6   6   31.55    5.91 
   3  -6   6   36.71    8.76 
   3  -6   7   11.35    2.87 
   3   6   7   10.55    3.02 
  -3   6  -7    9.72    2.51 
  -3  -6  -7   10.33    2.97 
   3   6   7   10.14    3.03 
  -3  -6  -7    9.36    2.61 
  -3  -6  -7    6.97    4.98 
  -3   6  -7   12.60    3.69 
   3   6   7   15.20    4.87 
   3  -6   7   11.74    3.04 
   3  -6   7   10.81    3.04 
   3   6   8    9.04    2.83 
  -3  -7   6    6.76    1.75 
   3   7  -6    6.35    1.58 
  -3   7   6    5.61    2.28 
   3  -7  -6    3.26    1.89 
   3   7  -6    9.39    3.63 
  -3   7   6    4.49    1.72 
  -3   7   6    5.37    2.11 
  -3   7   6    4.34    1.77 
  -3  -7   5   12.88    3.37 
   3   7  -5    7.04    2.10 
  -3   7   5   17.33    4.43 
   3   7  -5   17.04    4.16 
   3  -7  -5   11.36    3.27 
  -3  -7   5   21.98    5.56 
   3   7  -5   17.10    5.84 
  -3   7   5   16.54    4.46 
  -3   7   5   18.79    4.82 
  -3   7   5   16.78    4.35 
  -3  -7   4   15.54    3.21 
   3   7  -4   12.41    2.64 
  -3   7   4   18.60    3.90 
   3   7  -4   17.41    3.37 
   3  -7  -4   17.17    3.60 
  -3  -7   4   16.33    3.97 
   3   7  -4   16.16    5.20 
  -3   7   4   19.42    3.83 
  -3   7   4   19.99    4.13 
  -3   7   4   18.87    3.72 
  -3  -7   3   92.49   10.16 
   3   7  -3  101.18   10.95 
  -3   7   3   85.07    9.65 
   3   7  -3   95.87   10.45 
   3  -7  -3   86.48    9.44 
  -3  -7   3   95.83   11.07 
   3   7  -3   95.41   12.73 
  -3   7   3   87.67    9.66 
  -3   7   3   98.45   10.81 
  -3   7   3   91.73   10.06 
  -3  -7   2   33.22    6.70 
   3   7  -2   23.18    4.52 
  -3   7   2   43.92    8.36 
   3   7  -2   40.01    7.55 
  -3   7   2   30.05    5.87 
   3  -7  -2   36.44    6.93 
   3   7  -2   41.61    9.57 
  -3   7   2   39.07    7.42 
  -3   7   2   40.97    7.90 
  -3   7   2   40.17    7.59 
   3   7  -1   -1.82    2.03 
  -3  -7   1   -0.17    1.95 
  -3   7   1    0.99    1.99 
   3   7  -1   -1.22    1.82 
  -3   7   1    0.78    1.63 
  -3  -7   1   -0.36    1.58 
   3   7  -1   -0.15    5.59 
  -3   7   1   -1.60    2.42 
  -3   7   1   -1.39    2.34 
  -3   7   1    0.69    2.34 
   3   7   0  145.10   15.67 
  -3  -7   0  149.54   16.17 
  -3   7   0  157.93   17.11 
   3   7   0  147.15   16.03 
  -3   7   0   99.63   11.25 
  -3  -7   0  166.91   18.02 
   3   7   0  104.34   13.13 
  -3   7   0  134.90   14.88 
   3  -7   0  164.16   17.74 
  -3   7   0  147.22   15.94 
   3   7   1  215.52   23.26 
  -3  -7  -1  200.73   21.98 
  -3   7  -1  209.30   22.59 
   3   7   1  210.65   22.81 
  -3   7  -1  202.00   22.10 
  -3  -7  -1  228.91   24.63 
  -3   7  -1  202.31   22.50 
   3  -7   1  211.93   22.82 
   3   7   2   39.27    7.50 
  -3  -7  -2   40.75    7.83 
  -3   7  -2   42.87    8.06 
   3   7   2   43.05    8.08 
  -3   7  -2   42.71    7.94 
  -3  -7  -2   30.57    6.41 
  -3   7  -2   41.25    8.59 
   3   7   2   41.70    8.05 
  -3   7  -2   36.35    6.85 
   3  -7   2   42.85    8.00 
   3   7   3   44.09    8.33 
  -3  -7  -3   43.20    8.20 
  -3   7  -3   40.26    7.49 
   3   7   3   28.45    5.78 
  -3   7  -3   42.65    8.01 
  -3  -7  -3   35.99    7.14 
  -3   7  -3   28.90    6.45 
   3   7   3   38.57    7.42 
  -3   7  -3   36.88    6.92 
   3  -7   3   51.77    9.64 
   3  -7   3   41.29    7.75 
   3   7   4   29.70    5.78 
  -3  -7  -4   29.84    5.60 
  -3   7  -4   27.79    4.99 
  -3  -7  -4   28.37    5.10 
  -3   7  -4   28.37    5.63 
   3  -7   4   29.62    5.30 
   3  -7   4   23.91    4.49 
   3   7   5    9.91    2.78 
  -3  -7  -5    7.05    2.17 
  -3  -7  -5    9.58    2.73 
  -3   7  -5    9.89    3.83 
   3   7   5    8.60    3.46 
   3  -7   5   10.32    2.74 
   3  -7   5    8.31    2.33 
   3   7   6    1.65    1.60 
  -3  -7  -6    1.37    1.43 
  -3   7  -6    3.14    2.59 
   3   7   6   -0.51    2.51 
   3  -7   6    2.01    1.32 
  -3  -8   3   46.94    5.27 
   3   8  -3   42.70    4.71 
  -3   8   3   35.61    4.09 
   3   8  -3   42.52    4.81 
  -3  -8   3   35.66    4.63 
  -3   8   3   28.43    3.80 
   3  -8  -3   29.66    3.65 
  -3  -8   2   16.75    3.49 
   3   8  -2   18.83    3.90 
  -3   8   2   14.78    3.30 
   3   8  -2   16.03    3.60 
  -3  -8   2   17.17    4.14 
  -3   8   2   14.24    3.19 
   3  -8  -2   15.10    3.48 
  -3  -8   1    2.39    1.23 
   3   8  -1    2.60    1.51 
  -3   8   1    4.36    1.63 
   3   8  -1    2.25    2.17 
  -3   8   1    1.65    1.22 
  -3  -8   1   -3.41    2.88 
  -3   8   1    2.69    1.88 
   3  -8  -1    4.12    2.20 
  -3  -8   0   11.25    3.01 
   3   8   0   12.22    3.46 
  -3   8   0   15.00    3.80 
   3   8   0   16.42    4.16 
  -3   8   0   13.36    2.86 
  -3  -8   0   28.59    5.89 
  -3   8   0   15.47    3.87 
   3  -8   0   14.12    3.85 
   3   8   1   78.12    8.90 
  -3  -8  -1   82.99    9.13 
   3   8   1   81.14    8.83 
  -3   8  -1   73.14    8.19 
  -3  -8  -1   96.55   10.49 
  -3   8  -1   70.07    7.75 
   3  -8   1   92.19   10.01 
   3   8   2   20.32    4.42 
  -3  -8  -2   20.21    4.26 
   3   8   2   15.18    3.36 
  -3   8  -2   15.29    3.35 
  -3  -8  -2   21.04    4.39 
   3  -8   2   17.78    3.73 
   3   8   3   16.80    3.65 
  -3  -8  -3   17.83    3.82 
  -3   8  -3   14.49    3.16 
  -3  -8  -3   20.29    4.21 
   3  -8   3   19.09    3.97 
   4   0 -11   15.83    3.99 
  -4   0  11   14.18    4.91 
  -4   0  11   15.32    3.67 
   4   0 -10   46.42    3.45 
  -4   0  10   26.62    7.23 
  -4   0  10   61.41   10.40 
  -4   0  10   39.13    3.42 
  -4   0   9   24.64    3.63 
  -4   0   9   29.17    7.51 
  -4   0   9   37.02   14.48 
  -4   0   9   24.93    2.84 
   4   0  -8   19.15    4.66 
  -4   0   8   17.39    4.47 
  -4   0   8   21.39    5.51 
   4   0  -8   21.73    4.68 
   4   0  -8   21.76    5.68 
  -4   0   8   21.98    3.57 
  -4   0   8   19.84    8.39 
  -4   0   8   34.80   16.53 
  -4   0   8   23.05    2.82 
   4   0  -7   -0.47    3.64 
  -4   0   7   -0.87    3.03 
  -4   0   7    0.87    3.26 
  -4   0   7    2.57    3.26 
   4   0  -7    0.46    3.87 
  -4   0   7   -1.62    3.39 
  -4   0   7   -1.55    8.42 
  -4   0   7   10.21   13.06 
  -4   0   7    0.72    1.70 
   4   0  -6   -1.00    3.99 
  -4   0   6    2.11    2.21 
  -4   0   6    2.22    3.62 
  -4   0   6    1.07    2.70 
   4   0  -6    1.43    3.67 
   4   0  -6    3.75    3.22 
  -4   0   6    2.02    2.53 
  -4   0   6    0.66    5.88 
  -4   0   6    0.25    9.30 
  -4   0   6    1.74    1.43 
   4   0  -5  182.37    9.51 
  -4   0   5  196.25   10.55 
  -4   0   5  184.35    9.73 
  -4   0   5  182.42   10.25 
   4   0  -5  182.61    9.68 
   4   0  -5  186.45   10.30 
   4   0  -5  194.76   10.45 
  -4   0   5  179.74    9.00 
  -4   0   5  205.45   13.22 
  -4   0   5  201.84   15.57 
  -4   0   5  186.84    9.20 
   4   0  -4  111.87    5.79 
  -4   0   4  109.50    5.27 
  -4   0   4  112.50    5.77 
  -4   0   4  111.99    5.53 
   4   0  -4  113.00    5.87 
   4   0  -4  126.71    6.40 
  -4   0   4  117.53    5.33 
  -4   0   4  128.84    7.93 
  -4   0   4  115.70   13.39 
  -4   0   4  114.73    5.95 
  -4   0   3  535.70   21.35 
   4   0  -3  454.86   17.53 
  -4   0   3  553.21   22.38 
   4   0  -3  477.82   18.47 
  -4   0   3  540.39   21.02 
  -4   0   3  526.90   20.66 
  -4   0   3  550.02   21.64 
   4   0  -3  563.56   22.14 
   4   0  -3  506.25   19.88 
  -4   0   3  477.95   21.06 
  -4   0   2   45.40    5.06 
   4   0  -2   37.75    1.87 
  -4   0   2   40.50    2.47 
   4   0  -2   38.15    2.24 
  -4   0   2   43.55    2.61 
  -4   0   2   46.49    3.15 
  -4   0   2   42.09    4.74 
  -4   0   2   42.57    3.57 
  -4   0   2   49.62    4.04 
  -4   0   2   36.42    2.51 
  -4   0   2   50.56    9.09 
  -4   0   1  290.15   11.17 
  -4   0   1  263.33   10.65 
   4   0  -1  264.64   10.29 
  -4   0   1  324.20   13.03 
   4   0  -1  300.58   11.73 
  -4   0   1  299.36   11.76 
  -4   0   1  305.75   11.91 
  -4   0   1  289.41   11.69 
  -4   0   1  302.82   12.04 
  -4   0   1  307.61   12.09 
   4   0   0   82.81    3.84 
  -4   0   0  107.36    4.72 
  -4   0   0   99.33    5.07 
   4   0   0   83.09    3.67 
  -4   0   0   88.58    3.75 
   4   0   0   92.67    4.40 
   4   0   0   83.11    3.68 
  -4   0   0   97.35    4.28 
  -4   0   0   81.90    5.54 
  -4   0   0   97.59    6.14 
  -4   0   0   93.09    6.89 
   4   0   1 2362.35   87.85 
  -4   0  -1 2469.97   91.80 
  -4   0  -1 2809.38  106.58 
   4   0   1 2479.80   91.96 
   4   0   1 2648.46   99.81 
   4   0   1 2377.81   88.13 
  -4   0  -1 2810.66  106.37 
  -4   0  -1 3019.95  114.68 
  -4   0  -1 2837.01  107.71 
  -4   0  -1 2712.90  100.75 
  -4   0  -1 2535.38   96.48 
  -4   0  -1 2519.79   96.51 
   4   0   2 1883.09   70.05 
  -4   0  -2 1787.32   66.47 
  -4   0  -2 1869.48   69.74 
   4   0   2 1788.63   66.55 
   4   0   2 1914.66   71.86 
  -4   0  -2 1672.01   62.18 
  -4   0  -2 1860.90   69.34 
  -4   0  -2 1908.09   71.08 
  -4   0  -2 1937.95   72.09 
  -4   0  -2 1753.76   69.31 
  -4   0  -2 1723.05   66.17 
  -4   0  -2 1882.58   69.81 
  -4   0  -2 1866.69   69.28 
  -4   0  -2 1926.64   72.41 
  -4   0  -3  132.10    5.58 
  -4   0  -3  133.67    6.59 
   4   0   3  116.21    5.21 
   4   0   3  138.34    6.14 
   4   0   3  120.70    4.92 
  -4   0  -3  125.09    5.33 
  -4   0  -3  138.86    6.31 
  -4   0  -3  147.85    6.50 
  -4   0  -3  143.20    6.14 
   4   0   3  125.07    4.95 
  -4   0  -3  131.49    5.18 
  -4   0  -3  123.09    4.87 
  -4   0  -3  140.75    9.70 
  -4   0  -3  133.62    6.07 
   4   0   4   25.37    2.24 
  -4   0  -4   26.57    2.35 
  -4   0  -4   21.54    2.99 
   4   0   4   26.36    2.68 
   4   0   4   22.62    2.10 
   4   0   4   22.65    1.78 
  -4   0  -4   23.16    3.04 
  -4   0  -4   23.58    2.51 
  -4   0  -4   24.47    2.80 
   4   0   4   24.35    1.64 
  -4   0  -4   28.26    1.63 
   4   0   4   28.81    2.16 
  -4   0  -4   19.60    1.16 
  -4   0  -4   25.82    2.17 
  -4   0  -4   23.32    3.04 
  -4   0  -4   26.52    1.89 
   4   0   4   21.74    1.36 
   4   0   5   11.08    2.09 
  -4   0  -5   10.70    2.20 
  -4   0  -5   11.89    2.83 
   4   0   5   12.18    2.80 
   4   0   5   14.35    2.15 
  -4   0  -5   15.13    3.46 
  -4   0  -5   13.84    2.84 
  -4   0  -5   10.45    2.86 
   4   0   5   13.61    1.53 
  -4   0  -5   13.89    1.37 
   4   0   5   18.03    1.96 
  -4   0  -5   10.34    0.90 
  -4   0  -5   11.06    2.22 
  -4   0  -5   27.65   15.05 
  -4   0  -5   11.85    2.23 
  -4   0  -5   17.05    2.43 
   4   0   5   13.27    1.64 
   4   0   6 1215.14  117.21 
  -4   0  -6 1287.40   83.51 
  -4   0  -6 1249.46   81.16 
   4   0   6 1344.19   87.28 
   4   0   6 1208.85  116.46 
  -4   0  -6 1253.63   81.46 
  -4   0  -6 1185.02  114.15 
  -4   0  -6 1145.70  110.33 
   4   0   6  996.12  115.20 
  -4   0  -6 1295.90   88.22 
   4   0   6 1333.08   86.34 
  -4   0  -6 1377.19   89.16 
  -4   0  -6 1516.76   99.06 
   4   0   6 1319.12   85.77 
   4   0   6 1184.72  114.14 
   4   0   7  337.63   20.38 
  -4   0  -7  330.33   19.90 
  -4   0  -7  404.68   24.90 
   4   0   7  309.15   18.93 
  -4   0  -7  340.52   20.76 
  -4   0  -7  316.89   19.20 
   4   0   7  357.47   21.31 
  -4   0  -7  396.47   23.50 
   4   0   7  364.88   21.93 
  -4   0  -7  383.64   23.00 
  -4   0  -7  469.57   32.06 
   4   0   7  331.57   19.71 
   4   0   8   46.30    5.80 
  -4   0  -8   62.00    5.78 
   4   0   8   75.22    7.05 
  -4   0  -8   66.74    6.22 
  -4   0  -8   95.07   18.68 
   4   0   8   84.84    8.44 
   4   0   8   64.88    5.83 
   4   0   9   86.59    6.23 
  -4   0  -9   92.62    6.58 
   4   0   9   87.90    6.70 
  -4   0  -9   86.50    6.95 
  -4   0  -9   77.66   10.75 
   4   0   9   83.97    6.64 
   4   0   9   77.68    5.80 
   4   0  10    7.23    2.76 
  -4   0 -10    8.46    2.83 
   4   0  10    5.34    2.90 
  -4   0 -10    4.37    3.59 
   4   0  10    8.13    2.97 
   4   0  11   12.49    3.13 
  -4   0 -11   14.58    3.41 
   4   0  11    5.59    2.41 
  -4   0 -11    3.99    2.77 
   4   0  11   11.24    2.84 
   4   1 -11   37.93    4.70 
   4  -1 -11   31.26    4.09 
  -4  -1  11   36.05    5.66 
  -4   1  11   29.02    5.18 
   4  -1 -11   32.10    5.82 
  -4  -1  11   27.79    5.63 
  -4  -1  11   32.13    4.05 
  -4   1  11   32.70    4.32 
   4   1 -10   17.29    4.13 
   4  -1 -10   13.93    3.69 
  -4  -1  10   14.81    4.62 
  -4   1  10   15.96    7.36 
  -4  -1  10   19.20    9.43 
  -4   1  10    8.09    7.68 
  -4  -1  10   11.06    2.88 
  -4   1  10   21.08    4.39 
  -4  -1   9  151.54   13.29 
  -4  -1   9  147.55   16.32 
  -4   1   9  167.09   13.38 
  -4  -1   9  153.74   14.19 
  -4   1   9  163.50   14.51 
  -4  -1   9  137.47    9.97 
  -4   1   9  161.65   11.77 
  -4   1   9  136.47    9.47 
  -4  -1   8   77.35    7.70 
  -4   1   8   88.80    7.88 
  -4  -1   8   80.30    9.60 
  -4   1   8   92.58   11.64 
  -4  -1   8   68.96   13.62 
  -4   1   8   79.81   17.59 
  -4  -1   8   92.52    8.01 
  -4   1   8   84.80    7.30 
  -4   1   8   85.05    7.31 
   4   1  -7  150.92   10.08 
   4  -1  -7  136.01    9.44 
  -4  -1   7  134.18    8.72 
  -4   1   7  132.77    9.09 
  -4  -1   7  126.16    8.31 
  -4   1   7  134.13    8.97 
   4  -1  -7  146.16   10.27 
  -4  -1   7  126.64    8.53 
   4   1  -7  110.65    7.97 
   4   1  -7  119.37    8.35 
  -4  -1   7  125.83    8.18 
  -4   1   7  129.81    8.06 
  -4  -1   7  150.03   13.81 
  -4   1   7  105.37   13.69 
  -4  -1   7  133.18   16.51 
  -4   1   7  130.15   12.40 
  -4  -1   7  140.54    8.60 
  -4   1   7  128.90    7.97 
  -4   1   7  132.70    8.22 
   4   1  -6   13.95    5.09 
   4  -1  -6    6.94    3.88 
  -4  -1   6    5.92    2.08 
  -4   1   6    7.01    2.82 
  -4  -1   6    6.93    3.29 
  -4   1   6    5.33    2.85 
   4  -1  -6    9.03    3.56 
  -4  -1   6    5.62    3.03 
   4   1  -6    7.44    4.15 
   4  -1  -6   12.36    4.00 
   4   1  -6    8.74    3.63 
   4   1  -6    4.11    3.98 
  -4  -1   6    8.74    2.41 
  -4   1   6    9.04    1.96 
  -4  -1   6   12.10    5.59 
  -4   1   6    5.38    7.36 
  -4  -1   6   12.21    7.25 
  -4   1   6    6.81   12.26 
  -4  -1   6    7.55    1.25 
  -4   1   6    8.81    1.70 
  -4   1   6    7.72    2.07 
   4   1  -5  244.69   12.57 
   4  -1  -5  242.60   12.38 
  -4  -1   5  225.73   11.97 
  -4   1   5  234.42   11.79 
  -4  -1   5  229.92   11.54 
  -4   1   5  250.65   12.86 
  -4  -1   5  227.64   11.83 
  -4   1   5  234.52   12.14 
   4   1  -5  225.97   11.81 
   4  -1  -5  214.38   11.07 
   4  -1  -5  207.87   10.87 
   4   1  -5  209.07   10.89 
   4   1  -5  213.69   11.20 
  -4  -1   5  238.49   12.07 
  -4   1   5  235.12   11.65 
  -4  -1   5  243.66   13.49 
  -4   1   5  227.99   14.69 
  -4  -1   5  237.11   14.26 
  -4   1   5  242.91   14.54 
  -4  -1   5  233.43   12.16 
  -4  -1   5  205.79   10.68 
  -4   1   5  250.95   12.41 
  -4   1   5  224.86   11.06 
   4   1  -4   27.00    2.98 
   4  -1  -4   31.97    2.90 
  -4   1   4   28.96    2.10 
  -4  -1   4   27.98    2.60 
  -4   1   4   35.04    2.93 
  -4  -1   4   34.03    2.78 
  -4   1   4   32.82    2.65 
  -4  -1   4   33.50    2.51 
  -4   1   4   31.50    2.89 
   4   1  -4   27.55    3.58 
   4  -1  -4   30.31    2.93 
   4  -1  -4   32.15    2.86 
   4   1  -4   22.06    3.33 
   4  -1  -4   28.36    2.52 
   4   1  -4   29.41    3.77 
  -4  -1   4   30.24    2.52 
  -4   1   4   29.98    2.05 
  -4  -1   4   35.77    5.24 
  -4   1   4   40.58    7.65 
  -4  -1   4   28.24    7.66 
  -4   1   4   45.69    9.05 
  -4   1   4   34.48    2.26 
  -4  -1   3   93.53    3.96 
   4   1  -3   98.40    4.13 
  -4  -1   3  100.97    5.47 
  -4   1   3  100.73    4.75 
  -4   1   3   99.16    4.71 
  -4  -1   3   88.31    4.79 
  -4   1   3   98.79    4.31 
   4   1  -3   93.26    4.43 
  -4   1   3   90.25    3.97 
  -4  -1   3   95.01    4.34 
  -4   1   3   98.87    4.93 
  -4  -1   3   92.57    4.47 
  -4   1   3   95.40    4.55 
   4   1  -3   96.83    5.05 
   4  -1  -3   85.23    4.25 
   4   1  -3   85.22    4.82 
   4  -1  -3   83.91    4.32 
   4   1  -3   89.00    5.08 
  -4   1   3   87.91    3.63 
  -4  -1   2  177.76    7.22 
   4   1  -2  192.22    7.77 
  -4  -1   2  185.01    7.97 
  -4   1   2  182.81    7.75 
  -4   1   2  202.59    8.36 
  -4  -1   2  185.93    7.79 
  -4   1   2  188.10    7.65 
   4   1  -2  187.73    7.79 
  -4   1   2  186.16    8.61 
  -4  -1   2  194.22    7.92 
  -4   1   2  191.47    8.22 
  -4  -1   2  178.74    7.40 
  -4   1   2  197.98    8.41 
  -4   1   2  193.36    8.79 
  -4  -1   2  198.10    9.40 
   4   1  -2  185.64    8.07 
  -4   1   2  159.23    7.50 
   4   1  -2  179.46    7.85 
  -4   1   2  186.16    7.91 
  -4  -1   2  162.55    7.76 
  -4  -1   2  192.08    8.93 
  -4  -1   1   94.81    5.08 
   4   1  -1  102.97    4.60 
  -4  -1   1  101.30    4.94 
   4   1  -1   98.36    4.18 
  -4   1   1  104.59    4.67 
  -4  -1   1   98.90    4.18 
  -4   1   1  101.08    4.33 
   4   1  -1   94.70    4.74 
  -4   1   1   94.50    4.21 
  -4  -1   1   98.78    6.56 
  -4   1   1   95.47    4.25 
  -4   1   1  104.84    6.15 
  -4  -1   1  101.77    5.25 
  -4   1   1  101.14    5.28 
  -4  -1   1   93.70    5.07 
  -4   1   1   89.97    4.27 
  -4  -1   1   92.73    4.83 
  -4  -1   1   91.63    3.66 
  -4  -1   1   94.79    8.05 
  -4  -1   1   93.76    5.56 
  -4  -1   0  462.84   17.65 
  -4   1   0  505.59   19.49 
  -4  -1   0  442.10   17.14 
   4  -1   0  504.26   18.98 
   4   1   0  432.50   16.46 
   4  -1   0  434.34   16.60 
  -4  -1   0  484.44   18.74 
   4   1   0  471.78   17.97 
  -4   1   0  491.83   20.87 
   4  -1   0  441.64   16.83 
  -4  -1   0  498.84   18.97 
  -4   1   0  458.39   17.50 
  -4   1   0  464.30   18.00 
  -4  -1   0  455.00   17.58 
  -4   1   0  469.89   18.08 
  -4  -1   0  470.02   18.03 
  -4   1   0  451.32   17.44 
  -4  -1   0  435.97   16.76 
  -4   1   0  467.22   17.85 
  -4  -1   0  453.06   16.91 
  -4  -1   0  460.74   17.36 
  -4  -1   0  456.46   18.82 
  -4   1   0  466.90   18.14 
  -4  -1   0  471.38   18.18 
   4  -1   1 1470.57   54.73 
   4   1   1 1436.77   53.62 
  -4   1  -1 1641.48   61.01 
  -4  -1  -1 1571.44   58.54 
  -4  -1  -1 1568.09   58.65 
  -4   1  -1 1430.67   53.44 
   4  -1   1 1697.71   63.22 
   4   1   1 1580.57   59.57 
   4   1   1 1533.57   57.22 
  -4   1  -1 1584.43   62.39 
   4  -1   1 1471.99   54.81 
  -4  -1  -1 1594.19   59.40 
  -4   1  -1 1488.98   55.35 
  -4   1  -1 1587.04   59.30 
  -4  -1  -1 1505.76   56.23 
  -4   1  -1 1568.29   58.48 
  -4  -1  -1 1462.63   54.70 
  -4   1  -1 1599.24   59.53 
  -4  -1  -1 1544.07   57.62 
  -4  -1  -1 1453.01   54.83 
  -4   1  -1 1600.57   59.51 
  -4  -1  -1 1508.02   56.28 
  -4   1  -1 1517.76   59.56 
   4   1   2 1476.89   56.29 
  -4   1  -2 1357.52   51.59 
  -4  -1  -2 1333.30   50.89 
  -4   1  -2 1493.95   57.06 
  -4  -1  -2 1346.44   51.54 
   4  -1   2 1338.58   51.18 
   4   1   2 1232.62   47.00 
   4   1   2 1399.29   53.30 
  -4   1  -2 1391.91   57.99 
   4  -1   2 1359.59   51.68 
  -4  -1  -2 1441.77   55.01 
  -4   1  -2 1345.55   51.44 
  -4  -1  -2 1379.93   52.73 
  -4   1  -2 1384.42   52.91 
  -4  -1  -2 1341.02   51.21 
  -4   1  -2 1646.73   62.71 
  -4  -1  -2 1309.62   49.97 
  -4   1  -2 1313.58   51.98 
  -4  -1  -2 1236.69   46.90 
  -4  -1  -2 1325.85   52.38 
  -4  -1  -2 1365.69   52.07 
   4  -1   3  355.80   14.18 
   4   1   3  339.41   13.49 
  -4   1  -3  350.92   13.75 
  -4  -1  -3  316.35   12.63 
  -4   1  -3  284.16   12.24 
  -4  -1  -3  305.33   12.61 
   4  -1   3  316.82   12.40 
   4   1   3  317.05   12.51 
   4   1   3  324.87   12.89 
  -4   1  -3  316.21   14.38 
   4  -1   3  307.24   12.01 
  -4  -1  -3  317.19   12.56 
  -4   1  -3  319.62   12.90 
  -4  -1  -3  336.04   13.66 
  -4   1  -3  322.18   12.82 
  -4  -1  -3  311.40   12.60 
  -4   1  -3  316.50   12.51 
  -4  -1  -3  290.13   11.66 
   4  -1   3  290.59   11.28 
   4   1   3  299.77   11.59 
  -4   1  -3  309.46   11.89 
   4   1   3  304.94   11.73 
  -4   1  -3  294.93   13.28 
  -4   1  -3  300.04   11.96 
  -4  -1  -3  322.05   12.38 
  -4   1  -3  289.63   15.01 
  -4  -1  -3  302.40   12.15 
  -4   1  -3  331.49   13.18 
  -4  -1  -3  307.99   11.87 
   4  -1   3  310.18   11.92 
   4  -1   4  491.10   34.31 
   4   1   4  410.86   28.64 
  -4   1  -4  411.83   28.62 
  -4  -1  -4  415.47   28.95 
  -4   1  -4  387.57   27.08 
  -4  -1  -4  380.07   26.62 
   4  -1   4  421.71   29.30 
   4   1   4  406.19   28.40 
   4  -1   4  407.37   28.67 
   4   1   4  393.44   27.43 
   4  -1   4  331.28   23.05 
  -4  -1  -4  393.85   27.52 
  -4   1  -4  397.64   27.85 
  -4  -1  -4  394.53   27.58 
  -4   1  -4  401.77   28.09 
  -4   1  -4  402.44   28.01 
  -4  -1  -4  379.79   26.52 
   4  -1   4  364.15   25.25 
   4   1   4  396.06   27.40 
  -4   1  -4  398.36   27.51 
  -4  -1  -4  439.02   30.35 
   4   1   4  412.17   28.50 
  -4   1  -4  398.58   30.59 
  -4   1  -4  352.67   24.68 
  -4  -1  -4  368.15   25.50 
  -4  -1  -4  381.80   26.53 
  -4   1  -4  429.54   29.77 
  -4  -1  -4  414.02   38.34 
  -4   1  -4  420.05   29.28 
  -4  -1  -4  375.92   26.35 
   4   1   4  448.29   31.44 
  -4   1  -4  384.75   27.11 
   4  -1   4  370.79   25.64 
   4   1   4  351.03   24.29 
   4  -1   5  336.48   16.83 
   4   1   5  279.72   14.30 
  -4   1  -5  279.17   13.78 
  -4  -1  -5  293.51   14.85 
  -4   1  -5  308.42   15.81 
  -4  -1  -5  294.68   15.07 
   4  -1   5  303.06   15.12 
   4   1   5  281.30   14.16 
   4  -1   5  277.23   13.84 
   4   1   5  267.66   13.45 
   4  -1   5  271.29   13.43 
  -4  -1  -5  272.65   13.67 
  -4   1  -5  275.45   14.02 
  -4  -1  -5  287.94   14.56 
  -4   1  -5  288.33   14.54 
  -4  -1  -5  265.00   13.31 
  -4   1  -5  289.79   14.57 
  -4  -1  -5  279.22   14.07 
   4  -1   5  296.24   14.56 
   4   1   5  277.68   13.67 
  -4   1  -5  288.29   14.03 
  -4  -1  -5  286.62   14.10 
   4  -1   5  311.58   15.20 
   4   1   5  305.76   15.12 
  -4   1  -5  246.23   12.24 
  -4  -1  -5  265.43   13.00 
  -4   1  -5  301.75   15.52 
  -4  -1  -5  300.75   14.78 
  -4   1  -5  287.03   14.40 
   4   1   5  323.83   17.05 
  -4   1  -5  283.63   14.28 
   4  -1   5  280.89   13.71 
   4   1   6  326.16   21.60 
  -4   1  -6  341.33   22.42 
  -4  -1  -6  338.90   22.38 
  -4   1  -6  339.89   22.51 
  -4  -1  -6  326.07   21.71 
   4  -1   6  341.22   22.71 
   4   1   6  346.55   23.14 
   4  -1   6  327.19   21.47 
   4   1   6  322.37   21.35 
   4  -1   6  305.74   20.19 
  -4   1  -6  348.17   23.15 
  -4  -1  -6  324.42   21.78 
  -4   1  -6  328.80   21.91 
  -4  -1  -6  294.94   19.45 
  -4   1  -6  327.61   21.62 
   4  -1   6  351.15   22.89 
   4   1   6  285.80   21.18 
  -4   1  -6  373.27   24.26 
  -4  -1  -6  328.05   21.62 
   4  -1   6  368.37   24.02 
   4   1   6  384.61   25.06 
  -4  -1  -6  309.40   20.48 
  -4   1  -6  375.63   24.47 
  -4  -1  -6  334.91   26.52 
  -4   1  -6  321.82   21.14 
   4   1   6  342.84   24.52 
  -4   1  -6  337.27   22.06 
   4  -1   6  319.80   20.84 
   4   1   6  326.77   21.28 
   4  -1   7  253.26   16.80 
   4   1   7  256.25   16.94 
  -4   1  -7  254.19   16.56 
  -4  -1  -7  262.95   17.59 
  -4   1  -7  240.89   16.07 
  -4  -1  -7  229.31   15.27 
   4  -1   7  253.27   17.01 
   4   1   7  242.72   16.08 
  -4   1  -7  250.06   16.63 
  -4  -1  -7  234.16   15.59 
  -4   1  -7  236.81   15.48 
   4  -1   7  266.49   17.15 
   4   1   7  257.56   16.73 
  -4   1  -7  288.03   18.40 
  -4  -1  -7  269.35   17.36 
   4  -1   7  289.12   18.53 
   4   1   7  248.15   16.42 
  -4  -1  -7  162.33   20.66 
  -4   1  -7  283.24   18.26 
  -4  -1  -7  260.22   23.69 
   4  -1   7  322.92   21.38 
   4   1   7  307.32   20.89 
   4  -1   7  257.75   16.81 
   4   1   7  251.97   16.23 
   4  -1   8   15.03    2.15 
   4   1   8   17.89    2.44 
  -4   1  -8   17.66    2.57 
  -4  -1  -8   17.84    2.63 
   4  -1   8   13.53    3.25 
   4   1   8   19.00    3.52 
  -4   1  -8   16.23    2.72 
  -4  -1  -8   12.33    2.76 
  -4  -1  -8   60.24   32.36 
   4  -1   8   19.21    4.31 
   4   1   8    9.18    5.94 
   4  -1   8   13.83    2.36 
   4   1   8   15.50    2.61 
   4  -1   9    3.39    2.24 
   4   1   9    2.34    2.04 
  -4   1  -9    4.98    2.29 
  -4  -1  -9    5.60    1.97 
   4  -1   9    3.89    2.78 
   4   1   9    3.99    2.38 
  -4  -1  -9    5.43    2.98 
  -4   1  -9    4.76    2.85 
  -4  -1  -9   10.24   14.53 
   4   1   9    4.50    3.24 
   4  -1   9    5.17    2.23 
   4   1   9    5.20    1.87 
   4  -1  10   11.97    3.06 
   4   1  10   13.90    3.20 
  -4   1 -10   14.19    3.22 
  -4  -1 -10   14.12    3.11 
   4  -1  10   10.07    3.16 
   4   1  10    8.72    3.23 
  -4  -1 -10    6.62    3.04 
  -4   1 -10   11.46    2.94 
  -4  -1 -10   14.64    6.95 
   4  -1  10   10.53    2.55 
   4   1  10    9.39    2.52 
   4  -1  11   24.85    5.29 
   4   1  11   23.39    5.04 
  -4   1 -11   28.73    3.66 
  -4  -1 -11   27.51    3.47 
   4   1  11   33.16    4.29 
  -4  -1 -11   26.84    3.88 
  -4   1 -11   20.43    4.56 
   4  -1  11   27.11    3.38 
   4   1  11   25.19    3.35 
   4   2 -11   54.20    6.37 
  -4   2  11   48.00    6.63 
   4  -2 -11   55.56    7.11 
  -4   2  11   60.74    6.89 
   4   2 -10   43.85    4.01 
   4  -2 -10   39.54    3.14 
  -4  -2  10   32.21    6.71 
  -4   2  10   32.96    7.71 
   4  -2 -10   39.98    5.15 
  -4  -2  10   40.84    5.58 
  -4  -2  10   36.32    8.79 
  -4   2  10   49.05    3.90 
  -4   2  10   35.74    8.62 
   4  -2  -9   85.14    9.69 
  -4  -2   9   87.90    9.78 
  -4  -2   9   98.69   11.97 
  -4   2   9   94.03   13.79 
  -4  -2   9   90.98   13.73 
  -4   2   9   96.50   14.72 
  -4  -2   9  100.49   11.05 
  -4   2   9   97.43   10.78 
  -4   2   9   99.12   10.88 
   4  -2  -8  318.67   25.97 
  -4  -2   8  311.14   25.67 
  -4  -2   8  355.90   29.90 
  -4   2   8  382.47   32.40 
  -4  -2   8  326.42   27.82 
  -4   2   8  338.57   30.69 
  -4  -2   8  319.97   27.13 
  -4   2   8  323.93   26.41 
  -4   2   8  273.14   22.62 
   4   2  -7  199.83   13.80 
  -4  -2   7  174.54   11.72 
  -4   2   7  197.77   13.35 
  -4   2   7  203.99   13.78 
   4  -2  -7  185.78   12.90 
  -4  -2   7  174.33   12.22 
   4   2  -7  193.97   13.28 
   4   2  -7  177.71   12.46 
  -4  -2   7  198.77   13.20 
  -4   2   7  182.13   11.98 
  -4  -2   7  243.42   17.91 
  -4   2   7  220.62   16.30 
  -4  -2   7  192.39   19.72 
  -4   2   7  219.54   20.47 
  -4  -2   7  202.96   13.06 
  -4   2   7  206.09   13.66 
  -4   2   7  193.68   12.56 
   4   2  -6   18.95    4.16 
   4  -2  -6   18.91    3.09 
  -4  -2   6   22.70    2.68 
  -4   2   6   23.54    4.01 
  -4  -2   6   27.92    3.65 
  -4   2   6   22.49    3.90 
   4  -2  -6   20.45    3.84 
  -4  -2   6   20.77    2.82 
   4   2  -6   22.05    5.61 
   4   2  -6   16.43    6.13 
   4   2  -6   28.40    4.12 
  -4   2   6   23.72    2.52 
  -4  -2   6   24.91    2.95 
  -4   2   6   29.04    2.77 
  -4  -2   6   19.82    7.50 
  -4   2   6   30.00   11.24 
  -4  -2   6   21.81    7.16 
  -4   2   6   13.43    9.73 
   4   2  -6   26.88    6.24 
  -4  -2   6   25.44    2.12 
  -4   2   6   21.48    2.63 
  -4   2   6   24.82    2.94 
   4   2  -5  440.93   25.98 
   4  -2  -5  432.01   25.48 
  -4   2   5  423.29   24.91 
  -4  -2   5  398.62   24.33 
  -4   2   5  480.44   28.35 
  -4  -2   5  458.40   26.81 
  -4   2   5  460.47   27.25 
   4  -2  -5  432.14   25.51 
  -4  -2   5  425.72   25.78 
   4   2  -5  462.82   27.53 
   4   2  -5  423.60   25.09 
   4   2  -5  436.97   26.12 
  -4   2   5  340.26   26.31 
  -4  -2   5  434.28   25.48 
  -4   2   5  437.81   25.50 
  -4  -2   5  459.61   28.91 
  -4   2   5  449.94   27.62 
  -4  -2   5  433.50   26.73 
  -4   2   5  441.91   27.05 
   4   2  -5  460.27   27.97 
  -4  -2   5  445.75   26.36 
  -4   2   5  486.83   28.29 
  -4   2   5  428.70   24.94 
  -4  -2   4   45.61    3.00 
   4   2  -4   48.15    3.05 
   4   2  -4   46.14    4.51 
   4  -2  -4   50.18    3.59 
  -4   2   4   43.74    3.24 
  -4  -2   4   51.25    3.61 
  -4   2   4   51.27    3.58 
  -4  -2   4   49.71    3.17 
  -4   2   4   45.86    3.46 
  -4  -2   4   46.35    3.83 
   4   2  -4   46.39    4.04 
   4  -2  -4   37.33    3.32 
   4   2  -4   46.34    4.34 
   4   2  -4   45.70    4.09 
  -4   2   4   46.09    2.69 
  -4  -2   4   48.35    3.20 
  -4   2   4   49.24    2.87 
  -4  -2   4   60.63    8.31 
  -4   2   4   60.52    6.13 
  -4  -2   4   52.88   13.35 
  -4   2   4   49.52    6.40 
  -4  -2   4   54.50    4.93 
  -4  -2   4   47.19    2.50 
  -4   2   4   50.11    3.23 
  -4   2   4   47.83    2.96 
  -4  -2   3   71.08    3.53 
   4   2  -3   78.88    4.08 
   4  -2  -3   72.53    3.83 
  -4  -2   3   77.15    4.89 
  -4   2   3   73.78    4.05 
  -4  -2   3   73.57    4.01 
  -4   2   3   77.66    4.19 
   4   2  -3   67.78    3.96 
  -4   2   3   72.05    3.64 
  -4   2   3   79.45    4.74 
   4  -2  -3   67.06    4.09 
  -4  -2   3   73.05    3.75 
   4  -2  -3   59.75    3.59 
   4   2  -3   85.14    5.92 
   4  -2  -3   74.32    4.36 
   4   2  -3   75.36    4.62 
   4   2  -3   75.42    4.95 
   4   2  -3   69.63    3.37 
  -4  -2   3   70.32    3.72 
  -4  -2   3   69.23    6.44 
  -4   2   3   85.60    6.64 
  -4  -2   3   69.30   10.09 
  -4  -2   3   74.97    6.00 
  -4   2   3   79.10    3.74 
  -4   2   3   76.29    3.86 
  -4  -2   2   71.94    3.72 
   4   2  -2   66.20    3.62 
  -4  -2   2   74.56    4.24 
  -4   2   2   69.50    3.64 
  -4   2   2   69.90    4.11 
   4  -2  -2   64.30    3.62 
  -4  -2   2   72.14    3.30 
   4   2  -2   75.87    5.20 
  -4   2   2   64.48    3.53 
  -4   2   2   76.78    4.55 
   4  -2  -2   60.55    3.16 
  -4  -2   2   72.66    3.58 
  -4   2   2   72.04    3.70 
  -4  -2   2   73.04    4.93 
   4   2  -2   81.21    5.27 
  -4   2   2   75.46    4.32 
   4   2  -2   70.47    4.09 
  -4   2   2   69.34    3.40 
  -4   2   2   60.12    2.59 
  -4  -2   2   67.05    3.09 
  -4   2   2   64.27    5.02 
  -4  -2   2   80.34    9.18 
  -4   2   2   61.34    3.72 
  -4  -2   2   71.02    7.37 
  -4  -2   1  220.09    9.06 
   4   2  -1  242.49    9.87 
  -4  -2   1  238.63    9.86 
  -4   2   1  258.30   10.48 
  -4   2   1  236.20    9.55 
   4  -2  -1  226.34    9.32 
  -4  -2   1  252.45   10.20 
   4   2  -1  225.42    9.48 
  -4   2   1  239.29   11.06 
   4  -2  -1  211.93    8.59 
  -4  -2   1  230.48    9.35 
  -4   2   1  224.65    9.33 
  -4  -2   1  229.94    9.81 
   4   2  -1  219.96    9.96 
  -4   2   1  217.74    9.08 
   4   2  -1  235.52   10.43 
  -4   2   1  219.47    8.96 
  -4  -2   1  222.78    8.77 
  -4  -2   1  273.30   12.31 
  -4   2   1  223.97    9.55 
  -4   2   1  196.88    7.73 
  -4   2   1  219.73    8.53 
  -4  -2   0  422.77   16.70 
  -4   2   0  440.93   17.28 
   4   2   0  412.92   16.16 
  -4   2   0  426.35   16.68 
   4  -2   0  400.89   15.68 
  -4  -2   0  414.33   16.06 
   4   2   0  433.54   17.30 
  -4   2   0  433.45   19.64 
   4  -2   0  431.47   16.89 
  -4  -2   0  415.79   16.33 
  -4   2   0  421.58   16.59 
  -4  -2   0  399.03   33.24 
  -4   2   0  414.71   16.40 
  -4  -2   0  394.59   16.16 
   4   2   0  422.41   17.02 
  -4   2   0  430.45   16.79 
  -4  -2   0  414.67   15.96 
  -4  -2   0  412.15   15.85 
  -4  -2   0  408.34   16.71 
  -4   2   0  414.34   15.94 
   4  -2   1  139.46    5.77 
   4   2   1  149.52    6.69 
  -4   2  -1  136.17    5.50 
  -4  -2  -1  154.60    6.70 
  -4   2  -1  152.57    6.72 
  -4  -2  -1  164.21    7.14 
   4  -2   1  168.04    6.86 
   4   2   1  144.57    6.13 
   4  -2   1  143.99    6.02 
  -4  -2  -1  160.60    6.38 
   4   2   1  147.44    6.53 
  -4   2  -1  148.03    6.44 
   4  -2   1  143.20    6.15 
  -4  -2  -1  144.10    6.29 
  -4   2  -1  148.94    7.06 
  -4  -2  -1  152.50    6.74 
  -4   2  -1  149.50    6.83 
  -4  -2  -1  142.66    6.46 
  -4   2  -1  155.43    6.97 
   4   2   1  133.63    5.43 
  -4  -2  -1  124.17    5.88 
  -4  -2  -1  150.42    6.05 
  -4  -2  -1  157.12    6.25 
  -4  -2  -1  151.56    7.55 
   4   2   1  148.04    7.94 
   4  -2   2   81.41    3.62 
   4   2   2   90.53    4.59 
  -4   2  -2   90.27    3.80 
  -4  -2  -2   88.17    4.51 
  -4   2  -2   97.87    4.66 
  -4  -2  -2   99.92    5.03 
   4  -2   2  105.37    4.80 
   4   2   2   80.29    4.09 
   4   2   2   92.65    4.78 
  -4   2  -2   86.46    4.00 
   4  -2   2   88.45    4.38 
  -4  -2  -2   92.30    4.97 
  -4   2  -2   84.13    4.29 
  -4  -2  -2   82.87    4.39 
  -4   2  -2   88.69    4.67 
  -4   2  -2   88.85    4.36 
   4   2   2   88.53    3.73 
   4   2   2   79.29    3.45 
  -4   2  -2   89.43    3.90 
  -4   2  -2   87.75    3.70 
  -4  -2  -2   86.30    3.71 
  -4  -2  -2   89.70    3.90 
  -4  -2  -2   92.81   13.28 
  -4  -2  -2   81.76    5.88 
   4   2   2   97.64    7.55 
   4  -2   3    2.13    1.42 
   4   2   3    1.28    2.30 
  -4   2  -3    0.90    1.04 
  -4  -2  -3    1.06    2.71 
  -4   2  -3    2.53    3.03 
  -4  -2  -3    0.83    4.26 
   4  -2   3    1.28    1.60 
   4   2   3    5.24    3.33 
  -4   2  -3    1.70    1.55 
   4  -2   3    1.59    1.57 
  -4  -2  -3    4.90    3.21 
  -4   2  -3    3.52    3.13 
  -4  -2  -3    0.34    2.59 
  -4   2  -3    1.30    2.51 
  -4  -2  -3    1.21    2.23 
  -4   2  -3    0.14    2.18 
  -4  -2  -3    3.19    2.47 
   4  -2   3    0.63    0.77 
   4   2   3    1.71    1.42 
  -4  -2  -3    2.02    1.29 
   4   2   3    1.38    1.91 
  -4   2  -3    2.84    1.48 
  -4   2  -3    2.25    0.83 
  -4  -2  -3    0.38    1.58 
  -4  -2  -3    0.69    2.35 
  -4  -2  -3   12.28   11.47 
  -4   2  -3    1.30    4.97 
  -4  -2  -3    1.43    4.95 
   4   2   3    4.90    5.78 
  -4   2  -3    1.16    1.88 
   4  -2   4  481.92   24.03 
   4   2   4  508.18   24.99 
  -4   2  -4  509.12   24.99 
  -4  -2  -4  525.17   25.88 
  -4  -2  -4  496.21   24.44 
   4  -2   4  497.85   24.37 
   4   2   4  477.80   23.68 
   4   2   4  473.99   23.53 
  -4   2  -4  487.32   25.08 
   4  -2   4  510.32   25.00 
  -4  -2  -4  511.11   25.25 
  -4   2  -4  514.18   25.56 
  -4  -2  -4  461.96   22.94 
  -4   2  -4  498.31   24.51 
  -4  -2  -4  496.64   24.48 
  -4   2  -4  534.08   26.17 
  -4  -2  -4  456.01   22.47 
   4   2   4  500.72   24.33 
  -4  -2  -4  486.43   23.64 
   4   2   4  515.54   25.14 
  -4   2  -4  410.07   31.71 
  -4   2  -4  468.77   23.95 
  -4  -2  -4  518.18   25.23 
  -4   2  -4  389.04   27.20 
  -4  -2  -4  523.38   25.46 
  -4  -2  -4  529.96   31.64 
  -4   2  -4  523.50   25.74 
   4   2   4  415.54   26.39 
  -4   2  -4  465.53   25.94 
   4  -2   4  478.12   23.19 
   4  -2   5  152.81   15.01 
   4   2   5  151.46   15.00 
  -4   2  -5  154.29   15.06 
  -4  -2  -5  159.19   15.81 
  -4   2  -5  169.55   16.78 
  -4  -2  -5  174.78   17.44 
   4  -2   5  167.17   16.53 
   4   2   5  170.53   16.86 
   4   2   5  169.28   16.87 
  -4   2  -5  137.95   13.70 
   4  -2   5  137.19   13.70 
  -4  -2  -5  167.49   16.74 
  -4   2  -5  158.64   16.16 
  -4  -2  -5  149.52   14.84 
  -4   2  -5  165.46   16.56 
  -4  -2  -5  138.78   13.77 
  -4   2  -5  151.09   14.98 
   4  -2   5  155.85   15.17 
   4   2   5  157.61   15.33 
  -4   2  -5  149.40   14.48 
  -4  -2  -5  161.65   15.71 
   4   2   5  161.21   15.72 
  -4   2  -5  171.01   17.62 
  -4   2  -5  141.53   13.79 
  -4  -2  -5  145.04   14.08 
  -4   2  -5  105.83   12.67 
  -4  -2  -5  154.94   15.27 
  -4  -2  -5  158.82   24.26 
  -4   2  -5  166.20   16.45 
   4   2   5  155.58   17.08 
  -4   2  -5  151.00   14.77 
   4  -2   5  162.08   15.76 
   4  -2   6  117.62    6.99 
   4   2   6  118.03    7.55 
  -4   2  -6  111.00    6.43 
  -4  -2  -6  110.25    7.01 
  -4   2  -6  119.42    7.68 
  -4  -2  -6  110.48    7.11 
   4  -2   6  119.84    7.40 
   4   2   6  119.13    7.72 
   4  -2   6  110.92    6.42 
   4   2   6  118.06    7.76 
   4  -2   6  101.76    6.06 
  -4  -2  -6  113.40    7.18 
  -4   2  -6  123.14    7.94 
  -4  -2  -6  111.68    6.96 
  -4   2  -6  119.02    7.31 
  -4   2  -6  121.30    7.64 
   4  -2   6  117.28    6.70 
   4   2   6  118.37    6.76 
  -4   2  -6  119.58    6.61 
  -4  -2  -6  123.85    6.91 
   4  -2   6  132.92    7.39 
   4   2   6  128.60    7.52 
  -4   2  -6  104.56    5.85 
  -4   2  -6  129.97    7.34 
  -4  -2  -6  147.02    8.40 
  -4  -2  -6  174.42   28.16 
  -4   2  -6   94.03   10.59 
   4   2   6  127.55   10.41 
  -4   2  -6  123.02    7.24 
   4  -2   6  122.91    7.12 
   4   2   6  112.38    6.44 
   4  -2   7   19.30    4.17 
   4   2   7   14.00    4.68 
  -4   2  -7   16.51    3.07 
  -4  -2  -7   14.76    4.50 
  -4   2  -7   15.31    5.01 
  -4  -2  -7   15.53    4.12 
   4  -2   7   15.82    4.06 
   4   2   7   15.46    4.44 
   4  -2   7   12.77    2.69 
  -4   2  -7   15.51    4.68 
  -4  -2  -7   11.89    5.27 
  -4   2  -7   15.10    3.96 
  -4   2  -7   13.95    3.19 
   4  -2   7   16.57    2.15 
   4   2   7   14.33    3.51 
  -4   2  -7   17.12    2.18 
  -4  -2  -7   13.76    3.40 
   4  -2   7   15.75    2.86 
   4   2   7   12.44    3.69 
  -4   2  -7   17.09    2.41 
  -4  -2  -7   17.51    3.38 
  -4  -2  -7   86.86   29.69 
  -4   2  -7   12.73    4.30 
   4   2   7   16.78    7.00 
   4  -2   7   13.34    2.58 
   4   2   7   14.45    2.33 
   4  -2   8   82.03    6.89 
   4   2   8   86.56    7.68 
  -4   2  -8   89.68    7.48 
  -4  -2  -8   87.47    7.64 
   4  -2   8   54.85    6.87 
   4   2   8   91.98    7.94 
  -4   2  -8   83.64    7.13 
  -4  -2  -8   64.48    9.12 
  -4  -2  -8  157.74   38.11 
   4  -2   8   70.95    6.89 
   4   2   8   80.85   12.73 
   4  -2   8   81.83    7.04 
   4   2   8   78.69    6.67 
   4  -2   9  140.39   15.25 
   4   2   9  143.62   15.59 
  -4   2  -9  154.16   16.70 
  -4  -2  -9  149.07   16.15 
   4  -2   9  112.14   12.38 
   4   2   9  131.52   14.38 
  -4   2  -9  103.90   12.73 
  -4  -2  -9  142.65   15.54 
  -4  -2  -9  148.18   19.57 
   4   2   9  118.22   13.96 
   4  -2   9  130.50   14.99 
   4   2   9  121.27   13.24 
   4  -2  10   24.59    6.17 
   4   2  10   16.98    4.56 
  -4   2 -10   24.01    5.99 
  -4  -2 -10   20.63    5.28 
   4  -2  10   20.17    5.35 
   4   2  10   25.18    6.47 
  -4   2 -10   21.77    5.48 
  -4  -2 -10   25.98    6.50 
  -4  -2 -10   27.72    9.35 
   4   2  10   14.47    4.45 
   4  -2  10   25.54    6.29 
   4   2  10   23.91    6.00 
   4   2  11   56.71    6.39 
   4  -2  11   57.07    6.50 
   4   3 -10   10.95    3.31 
  -4  -3  10    9.38    3.81 
  -4   3  10    7.09    5.11 
   4  -3 -10   10.29    4.74 
  -4  -3  10    9.61    2.63 
  -4   3  10   10.19    3.33 
  -4   3  10    7.98    2.61 
  -4  -3   9   17.91    4.34 
  -4  -3   9   15.15    6.19 
  -4   3   9   21.98    8.46 
   4  -3  -9   18.73    5.10 
  -4  -3   9   14.96    5.44 
  -4  -3   9   21.40    4.04 
  -4   3   9   18.29    3.80 
  -4   3   9   19.03    4.04 
  -4   3   8  212.11   14.31 
  -4  -3   8  243.25   16.34 
  -4  -3   8  277.70   20.35 
  -4   3   8  276.13   20.99 
  -4  -3   8  218.36   17.69 
  -4   3   8  257.79   19.56 
  -4  -3   8  295.05   19.60 
  -4   3   8  285.19   21.18 
  -4   3   8  268.38   17.90 
  -4   3   7  187.50   15.62 
  -4  -3   7  171.26   14.50 
  -4  -3   7  205.05   18.50 
  -4   3   7  162.51   16.73 
  -4  -3   7  174.84   16.87 
  -4   3   7  218.32   20.21 
   4   3  -7  160.24   15.25 
  -4  -3   7  182.06   15.15 
  -4   3   7  187.08   15.67 
  -4   3   7  195.56   16.34 
   4   3  -6  112.62    9.34 
  -4   3   6   94.25    6.93 
   4  -3  -6   97.53    7.40 
  -4  -3   6   94.43    7.10 
  -4   3   6  104.18    8.35 
   4  -3  -6   95.04    7.93 
   4   3  -6   89.14    8.11 
   4   3  -6  103.76    8.08 
   4   3  -6   98.71    7.54 
  -4  -3   6   91.84    6.39 
  -4   3   6  107.13    7.25 
  -4  -3   6  104.11    7.24 
  -4  -3   6  109.79    9.19 
  -4   3   6   94.33   10.27 
  -4  -3   6   99.39   10.86 
  -4   3   6  100.68   10.50 
   4   3  -6   68.47   10.40 
  -4  -3   6   93.97    6.43 
  -4   3   6  112.99    7.64 
  -4   3   6  113.55    7.95 
  -4  -3   5   36.06    3.18 
   4   3  -5   39.00    3.32 
   4   3  -5   41.50    4.24 
  -4   3   5   36.98    4.15 
   4  -3  -5   39.65    4.47 
  -4  -3   5   40.47    3.43 
  -4   3   5   37.71    5.67 
   4  -3  -5   42.27    4.66 
  -4  -3   5   44.12    3.96 
   4   3  -5   42.70    5.21 
   4   3  -5   44.59    5.44 
   4   3  -5   45.02    6.04 
  -4  -3   5   38.04    2.74 
   4   3  -5   39.46    2.83 
  -4   3   5   40.33    4.76 
  -4  -3   5   41.48    3.50 
  -4  -3   5   55.18    6.10 
  -4   3   5   43.96    8.75 
  -4  -3   5   43.99    8.54 
  -4   3   5   42.83    7.61 
   4   3  -5   39.57    8.14 
  -4   3   5   36.25    3.34 
  -4  -3   5   41.74    3.08 
  -4   3   5   50.41    4.26 
  -4   3   5   44.17    3.78 
  -4  -3   4   26.82    3.30 
   4   3  -4   29.79    3.89 
   4   3  -4   29.10    4.68 
  -4   3   4   32.42    3.97 
   4  -3  -4   30.54    4.56 
  -4  -3   4   26.83    3.24 
  -4   3   4   31.33    4.44 
   4  -3  -4   19.77    3.99 
  -4  -3   4   27.61    3.68 
   4   3  -4   26.07    4.98 
   4   3  -4   31.73    6.20 
   4   3  -4   26.93    4.51 
  -4  -3   4   25.54    2.72 
   4   3  -4   29.82    4.90 
  -4   3   4   18.55    3.46 
   4   3  -4   27.73    3.12 
  -4  -3   4   30.18    3.75 
  -4  -3   4   26.15    6.99 
  -4   3   4   28.73    9.44 
  -4  -3   4   29.63    7.01 
   4   3  -4   38.45   12.21 
  -4   3   4   26.86    3.08 
  -4   3   4   31.48    3.61 
  -4   3   4   31.50    3.64 
  -4  -3   3  145.45    7.82 
   4   3  -3  161.58    8.44 
  -4  -3   3  143.81    7.85 
  -4   3   3  155.32    8.37 
  -4  -3   3  146.18    7.72 
   4   3  -3  147.43    7.86 
  -4   3   3  133.03    7.38 
  -4   3   3  154.22    9.23 
   4  -3  -3  129.88    7.01 
  -4  -3   3  150.59    7.78 
   4   3  -3  136.07    7.89 
   4   3  -3  147.99    8.33 
   4   3  -3  146.07    8.42 
   4   3  -3  144.33    7.12 
  -4  -3   3  151.26    7.58 
  -4   3   3  143.99    7.65 
   4   3  -3  144.92    7.30 
  -4  -3   3  156.61    8.08 
  -4  -3   3  121.96    9.25 
  -4   3   3  165.40   11.14 
  -4  -3   3  148.94   10.46 
  -4  -3   3  155.23    9.63 
  -4   3   3  138.25    8.90 
  -4   3   3  147.89    7.48 
  -4   3   3  146.83    7.42 
  -4  -3   2   48.03    4.38 
   4   3  -2   51.27    4.65 
  -4  -3   2   44.95    4.22 
  -4   3   2   44.62    4.27 
   4  -3  -2   42.32    3.95 
  -4  -3   2   43.98    3.43 
   4   3  -2   43.99    4.29 
  -4   3   2   49.07    4.26 
   4  -3  -2   49.12    4.86 
   4  -3  -2   40.37    3.78 
  -4  -3   2   44.69    4.38 
   4   3  -2   42.46    4.21 
   4   3  -2   42.69    5.43 
   4   3  -2   42.36    5.19 
  -4   3   2   44.68    4.01 
   4   3  -2   43.40    3.25 
  -4  -3   2   46.50    3.41 
  -4   3   2   45.19    3.55 
   4   3  -2   45.95    3.83 
  -4   3   2   41.27    3.10 
  -4  -3   2   38.71    3.48 
  -4  -3   2   47.81    6.98 
  -4  -3   2   48.22    9.77 
  -4  -3   2   43.95    6.32 
  -4   3   2   43.24    3.48 
  -4   3   2   43.45    3.67 
  -4   3   2   43.62    3.53 
  -4  -3   1  537.30   37.38 
   4   3  -1  519.75   36.18 
  -4  -3   1  479.51   33.41 
  -4   3   1  456.66   31.78 
   4  -3  -1  414.55   29.04 
  -4  -3   1  484.97   33.79 
   4   3  -1  490.45   34.33 
  -4   3   1  469.49   34.34 
   4  -3  -1  474.94   33.08 
  -4  -3   1  392.94   27.35 
  -4  -3   1  454.41   31.76 
   4   3  -1  484.15   33.85 
  -4   3   1  464.72   32.30 
   4   3  -1  445.12   31.15 
  -4   3   1  505.08   35.08 
   4   3  -1  448.86   32.28 
  -4  -3   1  471.73   32.63 
  -4   3   1  470.21   33.14 
   4   3  -1  484.14   33.50 
  -4   3   1  431.80   30.47 
  -4  -3   1  447.05   30.95 
  -4  -3   1  489.15   33.98 
  -4  -3   1  465.80   33.54 
  -4  -3   1  474.14   33.34 
  -4   3   1  466.91   33.02 
  -4   3   1  442.86   31.00 
  -4   3   1  462.41   31.99 
  -4  -3   0  680.98   47.22 
   4   3   0  640.19   44.42 
  -4  -3   0  633.85   43.99 
  -4   3   0  641.60   44.50 
   4  -3   0  611.92   42.52 
  -4  -3   0  605.56   41.93 
   4   3   0  666.01   46.26 
  -4   3   0  628.44   45.62 
   4  -3   0  667.96   46.36 
  -4  -3   0  642.96   44.56 
  -4   3   0  639.97   44.43 
  -4  -3   0  685.02   47.61 
   4   3   0  656.05   45.65 
  -4   3   0  632.25   43.84 
   4   3   0  634.06   44.07 
  -4   3   0  613.23   42.46 
   4   3   0  626.15   43.23 
  -4  -3   0  671.65   46.36 
  -4   3   0  487.66   58.56 
  -4   3   0  613.40   43.93 
  -4  -3   0  657.82   45.53 
  -4  -3   0  635.15   43.90 
  -4  -3   0  667.84   46.07 
  -4  -3   0  651.98   46.26 
  -4   3   0  712.75   49.41 
  -4  -3   0  681.82   47.55 
  -4   3   0  662.79   46.64 
  -4   3   0  637.33   45.16 
  -4   3   0  647.16   44.82 
   4   3   1  125.78    9.75 
  -4  -3  -1  119.04    9.11 
   4  -3   1  111.79    8.04 
   4   3   1   98.88    7.36 
   4  -3   1  110.03    8.15 
  -4  -3  -1  117.10    8.33 
   4   3   1  105.89    8.20 
  -4   3  -1  115.49    8.41 
   4  -3   1  105.26    7.71 
  -4  -3  -1  108.73    8.46 
  -4   3  -1  109.65    8.09 
  -4  -3  -1  118.29    9.08 
   4   3   1  110.18    8.45 
  -4   3  -1  113.80    8.32 
   4   3   1  107.81    8.08 
  -4   3  -1  111.83    8.27 
   4   3   1  112.61    7.98 
  -4  -3  -1  112.76    8.11 
  -4   3  -1   93.82    9.56 
  -4   3  -1  105.90    7.58 
  -4  -3  -1  113.14    8.14 
  -4  -3  -1  106.36    7.64 
  -4  -3  -1  114.58    8.00 
  -4  -3  -1  107.39   12.41 
  -4   3  -1   95.32    8.75 
  -4  -3  -1  108.73    9.28 
   4   3   1  103.76    9.17 
  -4   3  -1  116.78    8.58 
  -4   3  -1  115.03    8.16 
  -4   3  -1  111.97    7.94 
   4  -3   2  895.72   62.28 
   4   3   2  940.27   65.11 
  -4   3  -2  893.74   62.29 
  -4  -3  -2  960.85   66.56 
   4  -3   2  955.57   66.06 
   4   3   2  899.07   62.22 
   4   3   2  942.65   65.30 
  -4   3  -2  932.99   68.64 
  -4  -3  -2  930.48   64.48 
  -4   3  -2  855.43   65.48 
  -4  -3  -2  875.16   60.63 
  -4   3  -2  927.57   64.27 
  -4  -3  -2  884.31   61.21 
   4   3   2  983.69   68.13 
  -4   3  -2  926.92   64.19 
   4   3   2  926.72   63.99 
  -4  -3  -2  866.52   59.85 
  -4   3  -2  911.47   67.13 
  -4   3  -2  921.65   66.73 
  -4  -3  -2  898.62   62.09 
  -4  -3  -2  903.05   62.53 
  -4  -3  -2  939.09   64.74 
  -4  -3  -2  909.85   63.77 
  -4   3  -2  779.22   68.83 
  -4  -3  -2  870.39   60.29 
   4   3   2  953.03   66.28 
  -4   3  -2  957.75   67.67 
  -4   3  -2 1120.23   54.18 
  -4   3  -2  994.05   69.28 
   4  -3   3   55.79    3.26 
   4   3   3   59.47    4.31 
  -4   3  -3   53.86    3.24 
  -4  -3  -3   62.44    4.62 
  -4  -3  -3   58.90    4.04 
   4  -3   3   56.87    3.69 
   4   3   3   57.93    4.02 
   4   3   3   57.82    5.16 
  -4   3  -3   57.52    3.76 
   4  -3   3   59.85    3.79 
  -4  -3  -3   55.25    4.30 
  -4   3  -3   59.36    4.11 
  -4  -3  -3   59.42    4.66 
  -4   3  -3   54.18    4.99 
  -4  -3  -3   56.85    4.32 
   4   3   3   47.77    3.52 
  -4   3  -3   58.39    3.89 
   4   3   3   58.87    3.41 
  -4   3  -3   51.85    2.67 
  -4  -3  -3   58.89    3.44 
   4   3   3   53.45    3.42 
  -4   3  -3   63.18    3.82 
  -4   3  -3   56.34    3.30 
  -4  -3  -3   52.77    3.18 
  -4  -3  -3   61.72    4.02 
  -4  -3  -3   53.54    2.86 
  -4  -3  -3   60.22   15.32 
  -4   3  -3   51.99    4.88 
  -4  -3  -3   52.62    4.65 
   4   3   3   51.15    6.98 
  -4   3  -3   52.76    3.40 
   4  -3   3   54.48    2.88 
   4  -3   4   26.99    3.61 
   4   3   4   23.52    3.72 
  -4   3  -4   26.32    3.19 
  -4  -3  -4   25.17    4.03 
  -4  -3  -4   26.89    5.19 
   4  -3   4   23.38    3.16 
   4   3   4   22.33    3.73 
   4   3   4   26.40    4.63 
   4  -3   4   27.09    3.23 
  -4  -3  -4   24.08    4.33 
  -4   3  -4   28.49    4.63 
  -4  -3  -4   28.99    4.94 
  -4   3  -4   28.81    4.58 
  -4   3  -4   33.63    4.22 
   4  -3   4   26.51    2.83 
   4   3   4   25.14    3.09 
  -4   3  -4   23.32    2.48 
  -4  -3  -4   27.54    3.23 
   4   3   4   26.76    3.26 
  -4   3  -4   30.44    3.68 
   4   3   4   27.81    3.24 
  -4   3  -4   25.91    2.90 
  -4  -3  -4   30.13    3.41 
  -4  -3  -4   29.68   16.45 
  -4   3  -4   27.09    5.06 
   4   3   4   27.92    5.56 
  -4   3  -4   25.64    2.86 
   4  -3   4   23.58    2.54 
   4  -3   5   53.66    4.34 
   4   3   5   65.61    5.69 
  -4   3  -5   60.95    4.80 
  -4  -3  -5   58.85    5.44 
  -4  -3  -5   57.88    5.46 
   4  -3   5   67.02    5.63 
   4   3   5   51.47    5.77 
  -4   3  -5   55.66    4.21 
   4  -3   5   54.64    4.15 
  -4  -3  -5   52.10    5.42 
  -4   3  -5   51.00    5.50 
  -4   3  -5   57.97    5.21 
  -4   3  -5   59.12    4.98 
   4  -3   5   60.71    4.27 
   4   3   5   56.55    4.27 
  -4   3  -5   62.53    4.26 
  -4  -3  -5   58.96    4.37 
   4   3   5   51.76    4.36 
  -4   3  -5   49.95    4.20 
   4   3   5   48.77    3.79 
  -4   3  -5   53.65    3.85 
  -4  -3  -5   57.18    4.87 
  -4  -3  -5   57.68   14.84 
  -4   3  -5   38.66    6.61 
   4   3   5   51.88    7.35 
  -4   3  -5   55.85    4.31 
   4  -3   5   54.35    3.70 
   4  -3   5   57.20    4.37 
   4  -3   6  165.76   11.37 
   4   3   6  163.44   11.47 
  -4   3  -6  160.78   10.80 
  -4  -3  -6  173.02   12.30 
  -4  -3  -6  178.33   12.41 
   4  -3   6  155.26   10.44 
   4   3   6  175.96   12.34 
   4  -3   6  156.78   10.56 
  -4  -3  -6  165.62   11.42 
  -4   3  -6  165.27   11.72 
  -4   3  -6  163.07   11.69 
  -4   3  -6  153.52   10.41 
   4  -3   6  164.76   11.06 
   4   3   6  168.28   11.44 
  -4   3  -6  170.56   11.17 
  -4  -3  -6  183.50   12.24 
   4  -3   6  182.16   11.90 
   4   3   6  153.90   11.67 
  -4   3  -6  149.38    9.69 
  -4  -3  -6  149.49   15.30 
  -4  -3  -6  177.69   20.56 
  -4   3  -6  184.59   12.99 
   4   3   6  236.67   17.01 
  -4   3  -6  158.25   10.57 
   4  -3   6  155.50   10.06 
   4  -3   6  185.45   12.16 
   4   3   7  274.77   22.82 
  -4   3  -7  264.45   22.02 
  -4  -3  -7  244.09   20.30 
   4  -3   7  290.92   24.12 
   4   3   7  302.81   25.15 
  -4  -3  -7  204.68   17.31 
  -4  -3  -7  299.24   29.72 
  -4   3  -7  232.85   21.62 
   4   3   7  281.12   24.01 
  -4   3  -7  227.53   18.95 
   4  -3   7  247.12   20.63 
   4  -3   7  285.58   23.66 
   4  -3   8   39.09    3.39 
   4   3   8   40.80    3.66 
  -4   3  -8   40.11    3.71 
  -4  -3  -8   45.48    3.82 
   4  -3   8   27.10    3.95 
   4   3   8   41.87    4.01 
  -4  -3  -8   48.96    3.90 
  -4  -3  -8   66.73   18.02 
  -4   3  -8   38.64    4.49 
   4   3   8   45.24    5.18 
   4  -3   8   47.04    3.55 
   4  -3   9  101.57    5.93 
   4   3   9  106.74    6.37 
  -4   3  -9  109.70    6.64 
  -4  -3  -9  127.51    7.29 
   4  -3   9   90.78    6.74 
   4   3   9  109.69    6.48 
  -4  -3  -9  102.82    6.16 
  -4  -3  -9  113.47   13.07 
   4   3   9   72.38    9.85 
   4  -3   9  114.06    6.71 
   4  -3  10   24.15    5.15 
   4   3  10   24.62    5.40 
  -4   3 -10   19.65    4.54 
  -4  -3 -10   28.52    3.54 
   4   3  10   29.43    3.80 
  -4  -3 -10   31.24    3.96 
  -4  -3 -10   30.63    7.02 
   4   3  10   18.84    4.79 
   4  -3  10   31.97    4.07 
  -4   4  10    7.64    4.18 
   4   4  -9    5.48    2.25 
  -4  -4   9    2.69    3.43 
  -4   4   9    7.16    4.29 
  -4  -4   9    8.27    2.43 
  -4   4   9    7.52    2.99 
  -4   4   9    5.97    2.43 
  -4   4   8  106.90   11.77 
  -4  -4   8   90.30    9.96 
  -4  -4   8  119.51   14.60 
  -4   4   8  123.91   15.24 
  -4  -4   8   86.28    9.57 
  -4   4   8   97.84   10.74 
  -4   4   8   98.16   11.13 
  -4  -4   7   49.18    3.98 
   4   4  -7   50.46    3.77 
  -4   4   7   62.69    4.73 
  -4  -4   7   51.02    4.34 
  -4  -4   7   70.93    7.61 
  -4   4   7   38.53   10.24 
  -4  -4   7   51.74    6.40 
   4   4  -7   62.32    7.70 
  -4  -4   7   62.08    4.59 
  -4   4   7   60.19    4.79 
  -4   4   7   60.87    4.85 
  -4  -4   6   27.43    2.69 
   4   4  -6   27.70    2.71 
  -4   4   6   29.70    3.66 
  -4  -4   6   36.15    4.00 
  -4  -4   6   27.83    6.17 
  -4   4   6   38.06    8.45 
  -4  -4   6   24.38    8.66 
  -4   4   6   29.93    3.37 
  -4  -4   6   27.82    2.79 
  -4   4   6   29.61    3.51 
  -4   4   6   31.08    3.48 
  -4  -4   5  146.69   10.14 
   4   4  -5  169.62   12.24 
  -4   4   5  158.77   10.77 
   4  -4  -5  153.38   10.71 
  -4  -4   5  158.53   11.08 
  -4   4   5  193.62   13.80 
  -4  -4   5  160.16   10.71 
   4   4  -5  150.20   10.76 
   4   4  -5  155.46   11.14 
   4   4  -5  153.30   10.74 
  -4  -4   5  153.86   10.72 
   4   4  -5  171.87   11.00 
  -4   4   5  174.54   11.67 
   4   4  -5  160.68   10.50 
  -4  -4   5  163.31   10.60 
  -4  -4   5  182.75   13.69 
  -4   4   5  205.83   15.28 
  -4  -4   5  162.84   13.01 
   4   4  -5  178.88   15.00 
  -4   4   5  154.99   12.14 
  -4  -4   5  160.20   10.37 
  -4   4   5  173.14   11.34 
  -4   4   5  170.29   11.08 
  -4  -4   4   27.08    2.61 
   4   4  -4   29.99    2.79 
   4   4  -4   27.56    3.60 
  -4   4   4   23.84    4.34 
   4  -4  -4   25.93    3.80 
  -4  -4   4   28.39    2.49 
   4  -4  -4   26.47    3.97 
  -4  -4   4   25.56    2.84 
   4   4  -4   25.43    4.27 
   4   4  -4   24.47    4.91 
   4   4  -4   23.30    5.05 
  -4  -4   4   22.84    1.68 
   4   4  -4   28.17    1.97 
  -4   4   4   25.92    3.22 
   4   4  -4   25.88    2.55 
  -4  -4   4   23.11    2.39 
  -4  -4   4   31.56    6.67 
  -4   4   4   22.68   10.63 
  -4  -4   4   20.32    8.35 
   4   4  -4   28.13    9.27 
  -4   4   4   26.43    2.56 
  -4   4   4   23.54    2.57 
  -4   4   4   23.82    2.57 
  -4  -4   3   87.03    6.29 
   4   4  -3   91.79    6.50 
   4   4  -3   93.07    6.87 
  -4   4   3   93.88    6.98 
   4  -4  -3   96.53    7.14 
  -4  -4   3   97.24    6.73 
   4   4  -3   86.00    6.42 
  -4   4   3   86.14    6.25 
   4  -4  -3   88.38    6.75 
  -4  -4   3   97.18    6.79 
   4   4  -3   87.78    7.14 
   4   4  -3   83.32    6.62 
   4   4  -3   88.35    8.48 
   4   4  -3   95.91    6.49 
  -4  -4   3   93.49    6.40 
  -4   4   3   96.85    6.64 
   4   4  -3   94.63    6.62 
  -4  -4   3   93.39    6.38 
  -4  -4   3   70.02    6.64 
  -4   4   3  128.32   24.69 
  -4  -4   3   90.15   10.75 
   4   4  -3  103.59   11.83 
  -4   4   3   95.33    7.64 
  -4   4   3   99.95    6.89 
  -4   4   3   93.60    6.50 
  -4  -4   2  295.40   28.65 
   4   4  -2  298.55   28.96 
  -4  -4   2  282.81   27.64 
  -4   4   2  279.71   27.25 
   4  -4  -2  304.04   29.65 
  -4  -4   2  300.76   29.16 
   4   4  -2  290.52   28.27 
  -4   4   2  251.50   25.43 
   4  -4  -2  304.98   29.70 
  -4  -4   2  302.74   29.39 
   4   4  -2  266.56   26.28 
   4   4  -2  289.89   28.41 
   4   4  -2  296.42   29.21 
   4   4  -2  296.93   28.66 
  -4  -4   2  305.92   29.57 
  -4   4   2  298.86   29.11 
   4   4  -2  291.58   28.27 
  -4   4   2  256.01   25.27 
  -4  -4   2  270.12   26.24 
  -4  -4   2  412.90   39.86 
  -4   4   2  306.37   29.98 
  -4  -4   2  265.02   28.62 
   4   4  -2  325.56   33.07 
  -4   4   2  302.47   30.19 
  -4   4   2  306.86   29.65 
  -4   4   2  295.41   28.53 
  -4  -4   1  213.81   12.93 
   4   4  -1  215.33   12.98 
  -4  -4   1  192.89   11.88 
  -4   4   1  199.15   12.04 
   4  -4  -1  215.85   13.13 
  -4  -4   1  209.59   12.62 
   4   4  -1  211.18   13.30 
  -4   4   1  189.18   12.47 
   4  -4  -1  208.95   12.70 
  -4  -4   1  209.53   12.74 
   4   4  -1  195.95   11.94 
   4   4  -1  209.58   12.96 
   4   4  -1  211.56   13.26 
   4   4  -1  210.58   12.35 
  -4  -4   1  211.62   12.43 
  -4   4   1  214.88   15.19 
   4   4  -1  222.02   13.25 
  -4   4   1  194.02   13.05 
  -4  -4   1  196.48   11.54 
  -4  -4   1  209.74   13.25 
  -4  -4   1  194.54   13.72 
  -4   4   1  219.98   13.22 
  -4  -4   1  223.57   14.30 
  -4   4   1  220.58   13.47 
  -4   4   1  219.56   13.03 
  -4   4   1  220.22   12.98 
  -4  -4   0   59.59    4.55 
   4   4   0   57.69    4.48 
  -4  -4   0   58.67    5.61 
  -4   4   0   51.49    4.42 
   4  -4   0   58.47    4.64 
  -4  -4   0   54.60    3.63 
   4   4   0   55.14    4.69 
  -4   4   0   55.47    4.44 
   4  -4   0   60.57    4.59 
  -4  -4   0   56.61    4.23 
   4   4   0   60.86    5.10 
   4   4   0   57.36    4.47 
   4   4   0   57.80    5.11 
  -4   4   0   62.12    4.26 
   4   4   0   59.55    4.13 
  -4  -4   0   61.62    4.07 
  -4   4   0   52.66    3.59 
   4   4   0   42.83    3.37 
  -4   4   0   56.56    3.91 
  -4  -4   0   59.10    3.76 
  -4  -4   0   61.02    4.05 
  -4  -4   0   56.24    9.17 
  -4   4   0   60.31    4.81 
  -4  -4   0   64.26    6.21 
  -4   4   0   51.99    4.03 
  -4   4   0   65.80    4.57 
  -4   4   0   59.58    3.95 
  -4  -4  -1 1030.12   59.94 
   4   4   1 1005.35   58.50 
  -4  -4  -1  995.68   57.95 
   4  -4   1 1008.96   58.62 
  -4  -4  -1 1001.21   58.12 
   4   4   1 1003.48   58.47 
  -4   4  -1  959.27   60.01 
   4  -4   1  989.07   57.53 
  -4  -4  -1 1011.60   58.89 
  -4  -4  -1  974.07   56.76 
   4   4   1  959.09   55.89 
  -4   4  -1 1024.47   59.59 
   4   4   1  968.08   56.36 
  -4   4  -1 1070.95   62.31 
   4   4   1 1021.65   59.18 
  -4  -4  -1 1096.13   63.49 
  -4   4  -1 1110.72   71.38 
   4   4   1 1050.27   60.96 
  -4   4  -1 1041.51   66.27 
  -4  -4  -1  875.91   51.12 
  -4  -4  -1 1074.19   62.25 
  -4  -4  -1 1060.17   62.90 
  -4   4  -1 1146.41   66.93 
  -4  -4  -1 1014.85   59.12 
   4   4   1  961.11   55.95 
  -4   4  -1 1084.91   65.81 
  -4   4  -1 1132.72   65.61 
  -4   4  -1 1007.18   58.88 
  -4  -4  -2  483.85   46.88 
   4   4   2  457.80   44.33 
  -4  -4  -2  444.91   43.07 
   4  -4   2  438.03   42.36 
   4   4   2  479.22   46.47 
  -4   4  -2  452.79   44.37 
   4  -4   2  464.98   44.93 
  -4  -4  -2  459.14   44.40 
  -4   4  -2  494.41   47.79 
   4   4   2  446.97   43.28 
  -4   4  -2  468.45   45.31 
   4   4   2  478.99   46.18 
  -4  -4  -2  475.37   45.82 
  -4   4  -2  479.19   50.12 
   4   4   2  483.99   46.74 
  -4   4  -2  502.34   49.25 
  -4  -4  -2  448.23   43.21 
  -4  -4  -2  384.46   41.34 
  -4  -4  -2  465.59   45.92 
  -4   4  -2  486.71   49.72 
  -4  -4  -2  444.59   43.28 
   4   4   2  474.10   45.88 
  -4   4  -2  499.91   50.34 
   4  -4   2  416.02   40.10 
  -4   4  -2  478.58   47.15 
   4   4   3  492.84   32.57 
  -4  -4  -3  469.90   31.10 
  -4  -4  -3  423.06   27.78 
   4  -4   3  462.37   30.23 
   4   4   3  397.31   26.19 
   4   4   3  449.41   29.63 
  -4   4  -3  406.55   27.59 
   4  -4   3  456.03   32.54 
  -4  -4  -3  451.54   29.77 
  -4   4  -3  475.68   31.57 
  -4   4  -3  486.46   31.94 
   4   4   3  465.14   30.24 
  -4  -4  -3  477.48   31.03 
  -4   4  -3  396.30   40.72 
   4   4   3  495.03   32.26 
  -4   4  -3  447.38   30.48 
  -4  -4  -3  449.42   29.25 
  -4  -4  -3  472.71   30.68 
  -4  -4  -3  437.57   31.06 
  -4   4  -3  500.42   33.04 
   4   4   3  480.20   31.66 
  -4   4  -3  461.30   34.17 
   4  -4   3  457.65   29.82 
   4   4   4   56.33    6.00 
  -4   4  -4   47.96    3.58 
  -4  -4  -4   50.30    5.98 
  -4  -4  -4   47.64    5.87 
   4  -4   4   50.46    3.71 
   4   4   4   45.77    5.33 
   4   4   4   57.32    6.18 
  -4   4  -4   45.27    3.53 
  -4  -4  -4   54.21    5.22 
  -4   4  -4   55.02    5.57 
  -4   4  -4   47.79    4.30 
   4  -4   4   47.90    3.16 
   4   4   4   53.57    4.60 
  -4   4  -4   45.49    2.99 
  -4  -4  -4   55.36    4.34 
   4   4   4   53.57    3.80 
  -4   4  -4   53.09    3.95 
   4   4   4   53.60    3.88 
  -4   4  -4   50.50    3.40 
  -4  -4  -4   56.06    3.98 
  -4  -4  -4   48.13    3.26 
  -4  -4  -4   53.39   18.28 
  -4   4  -4   58.00    6.16 
   4   4   4   63.10    7.20 
  -4   4  -4   54.32    4.06 
   4  -4   4   51.74    3.45 
   4   4   5  244.18   22.80 
  -4   4  -5  204.91   18.94 
  -4  -4  -5  249.52   23.22 
   4  -4   5  233.46   21.47 
   4   4   5  199.37   18.76 
   4   4   5  204.34   19.39 
  -4   4  -5  186.67   17.34 
   4  -4   5  203.57   18.75 
  -4  -4  -5  241.60   22.86 
  -4   4  -5  234.42   21.79 
  -4   4  -5  234.41   21.63 
   4  -4   5  225.96   20.85 
   4   4   5  235.99   21.81 
  -4   4  -5  224.74   20.64 
  -4  -4  -5  241.35   22.29 
   4   4   5  208.54   19.11 
  -4   4  -5  237.53   24.13 
   4   4   5  197.57   18.12 
  -4   4  -5  225.77   21.04 
  -4  -4  -5  237.14   21.73 
  -4  -4  -5  223.33   20.39 
  -4  -4  -5  234.26   28.01 
  -4   4  -5  278.11   25.90 
   4   4   5  247.39   23.24 
  -4   4  -5  230.96   21.50 
   4  -4   5  181.89   17.70 
   4  -4   5  170.16   15.68 
   4  -4   6  611.71   51.36 
   4   4   6  481.14   39.75 
  -4   4  -6  590.43   49.77 
  -4  -4  -6  617.62   50.97 
   4  -4   6  628.28   51.85 
   4   4   6  562.27   46.45 
  -4   4  -6  557.43   46.23 
  -4  -4  -6  521.48   46.76 
  -4  -4  -6  607.13   51.45 
  -4   4  -6  566.29   55.57 
   4   4   6  609.89   50.73 
  -4   4  -6  504.60   42.02 
   4  -4   6  429.76   38.55 
   4  -4   6  605.36   50.07 
   4  -4   7  116.86    8.13 
   4   4   7  123.94    8.53 
  -4   4  -7  127.39    8.59 
  -4  -4  -7  137.19    9.46 
   4  -4   7   81.60    8.29 
  -4  -4  -7   86.67    7.18 
  -4  -4  -7  138.47   14.90 
  -4   4  -7  127.14    9.29 
   4   4   7  123.10    9.72 
   4  -4   7  100.15    7.31 
   4  -4   7  122.48    8.32 
   4  -4   8  117.20   12.79 
   4   4   8  119.37   13.05 
  -4   4  -8  121.42   13.14 
  -4  -4  -8  128.10   13.92 
   4  -4   8  125.16   13.61 
   4   4   8  121.19   13.21 
  -4  -4  -8  115.77   12.66 
  -4  -4  -8  125.09   18.52 
  -4   4  -8  102.78   11.85 
   4   4   8  138.04   15.39 
   4  -4   8  117.50   12.67 
   4  -4   8  111.76   12.87 
   4  -4   9   63.10    5.64 
   4   4   9   83.02    6.81 
  -4   4  -9   76.98    6.51 
  -4  -4  -9   86.13    6.95 
   4   4   9   73.62    6.23 
  -4  -4  -9   77.00    8.88 
   4   4   9   82.23    7.23 
   4  -4   9   85.15    6.97 
  -4   5   9   51.43    6.01 
  -4   5   8   13.20    3.67 
  -4   5   8   19.22    6.42 
  -4   5   8   17.94    4.81 
  -4   5   8   19.11    5.16 
  -4  -5   7  114.44    7.03 
   4   5  -7  114.84    6.45 
  -4   5   7  125.65    7.05 
  -4  -5   7  138.21    8.85 
  -4   5   7  122.29    8.75 
   4   5  -7  139.62    9.81 
  -4   5   7  114.83    6.65 
  -4   5   7  129.55    7.62 
  -4  -5   6   13.31    1.63 
   4   5  -6   14.09    1.68 
  -4   5   6   18.57    2.32 
  -4  -5   6   18.68    5.27 
  -4   5   6   20.86    7.66 
   4   5  -6    8.96    9.17 
  -4   5   6   12.47    1.87 
  -4   5   6   16.27    2.60 
  -4   5   6   13.69    3.12 
  -4  -5   5   67.55    6.17 
   4   5  -5   74.12    6.27 
  -4   5   5   76.48    6.63 
   4   5  -5   61.29    5.38 
  -4  -5   5   72.64    8.39 
  -4   5   5   60.90    9.31 
   4   5  -5   72.32    9.89 
  -4   5   5   62.88    5.85 
  -4   5   5   67.95    6.36 
  -4   5   5   68.01    5.96 
   4   5  -4   90.36    8.93 
  -4  -5   4   80.82    7.05 
   4   5  -4   86.01    7.26 
  -4   5   4   86.83    7.58 
   4   5  -4   95.16    8.32 
  -4  -5   4   87.26    9.31 
  -4   5   4   98.33   11.09 
  -4  -5   4   84.99    9.19 
   4   5  -4   89.54   14.21 
  -4   5   4   87.90    8.42 
  -4   5   4   95.09    8.53 
  -4   5   4   92.52    8.05 
  -4  -5   3  331.01   30.59 
   4   5  -3  386.42   35.33 
  -4   5   3  326.45   30.10 
   4  -5  -3  335.77   30.89 
  -4  -5   3  347.19   31.80 
  -4   5   3  281.05   26.40 
   4  -5  -3  374.18   34.49 
  -4  -5   3  323.50   29.59 
   4   5  -3  303.57   28.10 
   4   5  -3  313.66   29.09 
   4   5  -3  377.99   34.37 
  -4  -5   3  353.23   32.56 
  -4   5   3  362.11   33.14 
   4   5  -3  354.73   32.41 
  -4  -5   3  237.34   23.08 
  -4   5   3  353.02   32.60 
  -4  -5   3  313.44   29.53 
   4   5  -3  371.19   35.76 
  -4   5   3  321.64   30.89 
  -4   5   3  378.12   34.44 
  -4   5   3  342.80   31.26 
  -4  -5   2  170.56   11.40 
   4   5  -2  171.29   11.34 
  -4   5   2  163.36   11.12 
   4  -5  -2  164.76   11.91 
  -4  -5   2  170.74   11.14 
   4   5  -2  158.36   11.06 
  -4   5   2  141.00    9.83 
   4  -5  -2  172.16   11.73 
  -4  -5   2  165.36   11.14 
   4   5  -2  153.75   10.73 
   4   5  -2  162.04   11.27 
   4   5  -2  181.31   11.65 
  -4  -5   2  178.05   11.51 
  -4   5   2  183.23   12.04 
   4   5  -2  179.33   11.71 
  -4   5   2  150.36   10.39 
   4  -5  -2  141.95    9.27 
  -4  -5   2  217.62   15.61 
  -4  -5   2  158.29   12.13 
   4   5  -2  175.29   17.07 
  -4   5   2  167.50   13.00 
  -4   5   2  173.65   11.41 
  -4   5   2  179.78   11.76 
  -4  -5   1   71.51    5.38 
   4   5  -1   72.91    5.37 
  -4   5   1   72.51    5.30 
   4  -5  -1   72.03    6.92 
  -4  -5   1   83.11    5.78 
  -4   5   1   69.84    5.04 
   4  -5  -1   81.88    6.01 
  -4  -5   1   81.45    5.54 
   4   5  -1   70.74    6.48 
   4   5  -1   78.13    5.03 
  -4  -5   1   78.81    5.06 
  -4   5   1   84.08    6.13 
   4   5  -1   77.71    5.43 
  -4   5   1   73.13    5.28 
  -4  -5   1   86.50    5.34 
  -4  -5   1   82.04    8.95 
   4   5  -1   78.41   10.61 
  -4   5   1   76.97    5.26 
  -4   5   1   78.69    5.39 
  -4   5   1   75.51    5.22 
  -4  -5   0  157.17   10.49 
   4   5   0  165.08   10.51 
  -4   5   0  147.27    9.45 
   4  -5   0  145.08    9.54 
  -4  -5   0  151.80    9.28 
   4   5   0  151.14   10.12 
  -4   5   0  143.04   10.26 
   4  -5   0  159.80   10.22 
  -4  -5   0  166.36   10.64 
   4   5   0  166.56   10.28 
  -4  -5   0  164.79   10.01 
  -4   5   0  177.29   11.44 
   4   5   0  171.41   10.63 
  -4   5   0  157.17   10.93 
  -4  -5   0  168.88   10.20 
  -4  -5   0  166.55   12.58 
   4   5   0  158.59   13.52 
  -4   5   0  188.81   12.45 
  -4   5   0  166.20   10.74 
  -4   5   0  164.93   10.03 
  -4   5   0  165.90   10.74 
  -4  -5  -1  220.43   14.44 
   4   5   1  216.37   13.90 
   4  -5   1  220.04   13.42 
  -4  -5  -1  193.72   11.74 
   4   5   1  194.00   12.55 
  -4   5  -1  180.74   11.68 
   4  -5   1  206.00   12.65 
  -4  -5  -1  209.64   13.69 
  -4   5  -1  209.05   13.09 
   4   5   1  209.26   12.65 
  -4  -5  -1  212.03   12.75 
  -4   5  -1  214.48   14.10 
   4   5   1  211.84   13.02 
  -4   5  -1  205.00   14.02 
  -4  -5  -1  210.82   12.61 
  -4  -5  -1  188.46   13.85 
   4   5   1  211.83   15.53 
  -4   5  -1  211.44   13.80 
   4   5   1  192.55   11.81 
  -4   5  -1  201.04   12.85 
  -4   5  -1  176.93   11.94 
  -4   5  -1  200.77   13.79 
  -4  -5  -2  815.79   51.98 
   4   5   2  836.54   53.26 
   4  -5   2  879.52   56.29 
   4   5   2  737.17   47.14 
  -4   5  -2  756.07   57.56 
   4  -5   2  767.06   48.95 
  -4  -5  -2  795.13   50.63 
  -4   5  -2  808.93   51.48 
   4   5   2  824.89   52.34 
  -4  -5  -2  836.19   53.04 
  -4   5  -2  843.39   56.69 
   4   5   2  821.15   52.11 
  -4   5  -2  878.10   57.76 
  -4  -5  -2  830.29   52.61 
  -4  -5  -2  794.15   51.46 
   4   5   2  692.59   44.99 
  -4   5  -2  852.72   54.80 
   4   5   2  799.91   50.83 
  -4   5  -2  799.32   53.08 
   4  -5   2  661.95   44.90 
  -4  -5  -3  322.35   29.66 
   4   5   3  297.74   27.53 
   4  -5   3  291.17   26.86 
   4   5   3  297.34   27.54 
  -4   5  -3  291.98   27.01 
   4  -5   3  314.43   28.79 
  -4  -5  -3  318.67   29.21 
  -4   5  -3  335.37   30.78 
   4   5   3  342.77   31.30 
  -4  -5  -3  315.01   28.78 
  -4   5  -3  308.88   29.28 
   4   5   3  321.82   29.38 
  -4   5  -3  328.04   30.46 
  -4  -5  -3  365.24   33.23 
  -4  -5  -3  339.34   34.13 
  -4   5  -3  362.17   33.46 
   4   5   3  337.32   30.89 
  -4   5  -3  312.33   30.00 
   4  -5   3  322.90   29.38 
   4   5   4  165.64   13.92 
  -4   5  -4  131.91   11.19 
  -4  -5  -4  165.57   13.94 
  -4   5  -4  186.04   16.17 
   4   5   4  134.12   14.22 
  -4   5  -4  160.13   13.53 
  -4  -5  -4  177.14   14.72 
  -4  -5  -4  161.46   20.92 
  -4   5  -4  167.55   15.57 
   4   5   4  158.41   17.34 
  -4   5  -4  148.48   12.73 
   4  -5   4  192.45   16.03 
   4  -5   5    1.29    1.09 
   4   5   5    2.65    2.27 
  -4   5  -5    0.24    1.00 
  -4  -5  -5   -0.56    2.24 
   4   5   5    1.68    2.24 
  -4   5  -5    0.85    1.97 
  -4   5  -5    1.48    1.20 
  -4  -5  -5    0.88    1.57 
  -4  -5  -5  -11.59   12.76 
  -4   5  -5    3.12    5.52 
   4   5   5   -1.23    3.35 
  -4   5  -5    0.77    1.28 
   4  -5   5    1.60    1.38 
   4  -5   5    0.32    2.06 
   4  -5   6  286.97   19.26 
   4   5   6  302.02   20.10 
  -4   5  -6  246.89   17.34 
  -4  -5  -6  322.99   21.46 
   4  -5   6  304.17   20.17 
   4   5   6  270.68   18.22 
  -4   5  -6  273.62   19.16 
  -4  -5  -6  305.54   22.67 
  -4   5  -6  337.34   22.80 
   4   5   6  322.63   21.69 
   4  -5   6  254.01   18.42 
   4  -5   6  307.32   21.12 
   4  -5   7  112.60    6.81 
   4   5   7  149.87    8.35 
  -4  -5  -7  152.88    8.49 
   4  -5   7  158.69    8.77 
   4   5   7  125.81    7.13 
  -4  -5  -7  131.20   11.33 
  -4   5  -7  134.51    8.68 
   4   5   7  148.72    8.73 
   4  -5   7  122.14    6.99 
   4  -5   7  148.41    8.26 
   4  -5   8   12.29    3.27 
   4   5   8   11.56    3.78 
  -4   5  -8   11.04    2.91 
  -4  -5  -8   11.63    3.50 
   4   5   8    9.90    2.88 
  -4  -5  -8   11.26    5.06 
  -4   5  -8    7.65    2.72 
   4   5   8   12.44    4.72 
   4  -5   8    8.83    2.68 
  -4   6   7    2.24    1.67 
   4  -6  -7    3.28    2.05 
  -4  -6   7    2.59    2.58 
  -4   6   7    0.69    2.09 
  -4   6   7    0.51    1.96 
  -4  -6   6   28.44    5.20 
   4   6  -6   30.09    5.33 
  -4   6   6   30.28    5.57 
   4  -6  -6   27.79    5.38 
  -4  -6   6   33.28    6.52 
   4   6  -6   31.52    6.93 
  -4   6   6   24.06    4.60 
  -4   6   6   26.49    4.98 
  -4   6   6   28.06    5.45 
  -4  -6   5   20.76    4.05 
   4   6  -5   20.61    4.05 
  -4   6   5   19.07    4.01 
   4   6  -5   19.99    3.94 
   4  -6  -5   20.20    4.48 
  -4  -6   5   24.23    6.38 
   4   6  -5   19.96    7.00 
  -4   6   5   17.22    3.80 
  -4   6   5   20.93    4.30 
  -4   6   5   18.07    3.95 
  -4  -6   4  303.39   21.33 
   4   6  -4  317.15   20.99 
  -4   6   4  287.82   19.33 
   4   6  -4  284.15   18.95 
   4  -6  -4  267.17   17.98 
  -4  -6   4  293.57   20.75 
   4   6  -4  332.78   24.19 
  -4   6   4  286.33   20.13 
  -4   6   4  291.16   19.37 
  -4   6   4  263.44   17.60 
  -4  -6   3    2.35    1.40 
   4   6  -3    2.90    1.37 
  -4   6   3    2.88    2.22 
   4   6  -3    2.32    2.92 
   4  -6  -3    1.15    1.96 
  -4  -6   3    3.51    4.23 
   4   6  -3    7.73    9.78 
  -4   6   3    1.62    1.96 
  -4   6   3   -0.76    3.02 
  -4   6   3    2.56    1.91 
   4   6  -2  157.81   12.89 
  -4  -6   2  159.52   13.05 
  -4   6   2  153.93   12.73 
   4   6  -2  156.28   12.94 
  -4   6   2  114.29   10.04 
   4   6  -2  152.56   15.10 
  -4   6   2  147.77   12.35 
  -4   6   2  156.14   12.94 
  -4   6   2  142.79   11.77 
   4   6  -1  183.56   14.93 
  -4  -6   1  176.97   14.45 
  -4   6   1  199.62   16.41 
   4   6  -1  193.90   15.89 
  -4  -6   1  227.40   18.47 
   4   6  -1  179.93   17.52 
  -4   6   1  179.00   14.96 
  -4   6   1  201.42   16.52 
  -4   6   1  209.96   17.21 
   4   6   0  166.20   13.62 
  -4  -6   0  149.07   13.43 
  -4   6   0  175.19   14.36 
   4   6   0  161.48   13.45 
  -4   6   0  133.37   12.02 
  -4  -6   0  149.25   12.31 
  -4  -6   0  143.34   12.67 
   4   6   0  154.03   16.05 
  -4   6   0  140.72   12.16 
  -4   6   0  143.23   12.10 
  -4   6   0  136.53   12.03 
  -4   6   0  157.82   13.15 
   4   6   1  124.49   10.26 
  -4  -6  -1  132.29   10.87 
  -4   6  -1  125.81   10.42 
   4   6   1  121.62   11.19 
  -4   6  -1  122.67   11.08 
  -4  -6  -1  128.57   10.60 
  -4  -6  -1  111.09   11.60 
   4   6   1  124.45   11.92 
  -4   6  -1   86.87   15.87 
  -4   6  -1  115.56   10.29 
   4  -6   1  155.93   12.77 
  -4   6  -1  127.44   10.83 
   4   6   2   12.63    2.40 
  -4  -6  -2   13.00    2.19 
  -4   6  -2   11.86    2.40 
   4   6   2   13.49    2.90 
  -4   6  -2   12.08    1.76 
  -4  -6  -2   12.93    1.94 
  -4  -6  -2   12.39    5.97 
  -4   6  -2    9.40    4.73 
   4   6   2   10.33    2.44 
  -4   6  -2   11.02    2.31 
   4  -6   2   11.54    2.17 
   4   6   3  164.02   11.05 
  -4  -6  -3  148.84   10.04 
   4   6   3  148.33   10.23 
  -4   6  -3  145.65   10.23 
  -4  -6  -3  131.46    9.31 
  -4  -6  -3  134.49   12.02 
  -4   6  -3  172.51   12.31 
   4   6   3  149.31   10.62 
  -4   6  -3  138.20   10.19 
   4  -6   3  145.76    9.87 
   4   6   4   55.55   10.37 
  -4  -6  -4   60.06    6.74 
  -4   6  -4   51.22    9.58 
   4   6   4   43.95    8.41 
  -4   6  -4   50.75    9.42 
  -4  -6  -4   54.97   10.22 
  -4  -6  -4   62.47    9.82 
  -4   6  -4   56.21   11.50 
   4   6   4   50.94    9.80 
  -4   6  -4   39.63    7.49 
   4  -6   4   49.58    9.24 
   4  -6   4   53.81   10.10 
   4   6   5   35.97    6.93 
  -4  -6  -5   38.36    7.27 
  -4   6  -5   42.99    8.08 
  -4   6  -5   32.40    6.14 
  -4  -6  -5   27.72    5.37 
  -4  -6  -5   32.35    8.59 
  -4   6  -5   43.99    9.06 
   4   6   5   35.71    7.60 
   4  -6   5   24.65    5.16 
   4  -6   5   30.42    5.95 
   4   6   6   67.64    5.72 
  -4  -6  -6   68.84    5.62 
  -4   6  -6   58.00    4.66 
  -4  -6  -6   68.79    8.12 
  -4   6  -6   69.26    6.09 
   4   6   6   66.93    6.13 
   4  -6   6   66.03    5.29 
   4  -6   6   70.74    5.76 
   4   6   7    9.00    2.58 
  -4  -6  -7    7.02    2.05 
  -4  -6  -7    8.67    4.24 
  -4   6  -7    2.73    2.39 
   4   6   7    3.18    2.53 
   4  -6   7    4.72    1.84 
  -4  -7   5   13.87    2.92 
   4   7  -5   16.14    3.34 
  -4   7   5   14.51    3.34 
  -4  -7   5   17.19    4.16 
   4   7  -5    6.05    4.03 
  -4   7   5   14.11    3.25 
  -4   7   5   17.72    4.07 
  -4   7   5   16.77    3.87 
  -4  -7   4   22.11    5.71 
   4   7  -4   30.42    3.37 
  -4   7   4   38.81    3.48 
   4   7  -4   37.61    3.25 
  -4  -7   4   41.73    4.19 
   4   7  -4   46.99    6.10 
  -4   7   4   40.04    3.87 
  -4   7   4   32.34    3.15 
  -4   7   4   40.65    3.57 
  -4  -7   3  141.21    8.94 
   4   7  -3  148.34    8.51 
  -4   7   3  147.07    8.22 
   4   7  -3  153.72    8.47 
  -4  -7   3  137.38   10.29 
  -4   7   3  151.43    9.06 
  -4   7   3  163.83    9.04 
  -4   7   3  154.15    8.55 
  -4  -7   2   10.73    2.65 
   4   7  -2   13.64    2.83 
  -4   7   2   16.41    3.47 
   4   7  -2   13.77    3.13 
  -4  -7   2   14.44    5.17 
   4   7  -2    2.12    4.64 
  -4   7   2    9.14    2.34 
  -4   7   2   10.04    2.90 
  -4   7   2   13.78    3.04 
   4   7  -1   31.01    5.59 
  -4  -7   1   33.05    5.93 
  -4   7   1   31.30    5.76 
   4   7  -1   32.77    6.32 
  -4   7   1   23.94    4.44 
   4   7  -1   32.39    8.39 
  -4   7   1   30.00    5.57 
  -4   7   1   35.12    6.36 
   4   7   0   31.50    6.08 
  -4  -7   0   31.92    6.14 
  -4   7   0   32.92    6.21 
   4   7   0   31.37    6.08 
  -4   7   0   26.92    5.14 
  -4  -7   0   25.13    5.61 
   4   7   0   26.93    6.34 
  -4   7   0   27.52    5.28 
   4  -7   0   30.18    5.79 
   4   7   1   16.91    3.40 
  -4  -7  -1   16.45    3.32 
   4   7   1   16.28    3.54 
  -4   7  -1   14.97    2.93 
  -4  -7  -1   17.12    3.38 
  -4   7  -1    9.90    2.66 
  -4   7  -1   13.04    2.84 
   4  -7   1   14.00    2.87 
   4   7   2   56.10    3.55 
  -4  -7  -2   52.59    3.63 
  -4   7  -2   46.46    3.12 
   4   7   2   24.82    5.90 
  -4   7  -2   43.58    3.03 
  -4  -7  -2   45.06    3.59 
  -4   7  -2   39.92    3.37 
  -4   7  -2   43.15    3.01 
   4  -7   2   47.79    3.19 
   4   7   3   47.68    3.39 
  -4  -7  -3   56.95    3.53 
  -4   7  -3   45.19    3.01 
   4   7   3   47.48    3.34 
  -4   7  -3   44.81    3.03 
  -4  -7  -3   47.21    3.13 
   4  -7   3   43.10    2.87 
   4  -7   3   50.52    3.30 
   4   7   4   60.50    5.00 
  -4  -7  -4   58.91    4.84 
  -4   7  -4   47.84    4.31 
  -4  -7  -4   47.45    4.57 
  -4   7  -4   42.29    4.17 
   4   7   4   43.84    4.39 
   4  -7   4   44.80    4.87 
   4  -7   4   56.48    4.64 
   4   7   5  154.72   16.70 
  -4  -7  -5  153.45   16.54 
  -4   7  -5  140.81   15.54 
   4   7   5  136.20   14.83 
   4  -7   5  151.09   16.25 
   4  -7   5  129.56   14.32 
  -4  -8   2    7.84    2.77 
  -4   8   2    6.73    1.84 
   4  -8  -2    6.87    2.15 
  -4  -8   1   12.01    2.58 
   4   8  -1   12.13    2.63 
   4   8  -1   10.15    2.47 
  -4  -8   1   11.40    3.33 
  -4   8   1    8.61    2.34 
   4  -8  -1    9.51    2.30 
  -4  -8   0   21.30    4.42 
   4   8   0   20.03    4.37 
   4   8   0   23.13    4.78 
  -4  -8   0   25.94    3.58 
   4  -8   0   27.21    3.20 
  -4   8  -1   26.34    3.33 
  -4  -8  -1   18.00    4.15 
   4  -8   1   29.17    3.56 
   5   0 -10    8.91    3.17 
  -5   0  10    5.84    4.52 
  -5   0  10   19.21    7.23 
  -5   0  10   13.63    3.82 
  -5   0   9  128.09   14.14 
  -5   0   9  128.92   15.12 
  -5   0   9  136.37   17.35 
  -5   0   9  131.05   14.26 
  -5   0   8  169.22   14.07 
  -5   0   8  130.22   14.65 
  -5   0   8  145.43   16.37 
  -5   0   8  151.25   12.43 
  -5   0   7  270.96   25.07 
   5   0  -7  250.13   23.58 
  -5   0   7  242.17   24.51 
  -5   0   7  290.82   27.45 
  -5   0   7  272.31   26.99 
  -5   0   7  238.09   22.61 
   5   0  -6   51.76    5.46 
  -5   0   6   38.18    3.23 
  -5   0   6   43.93    4.81 
  -5   0   6   44.36    4.42 
   5   0  -6   41.45    4.67 
   5   0  -6   46.53    6.15 
  -5   0   6   46.89    3.47 
  -5   0   6   51.12    8.77 
  -5   0   6   50.76    9.50 
  -5   0   6   46.50    2.99 
   5   0  -5   49.29    5.81 
  -5   0   5   44.80    5.12 
  -5   0   5   57.57    6.33 
  -5   0   5   48.51    5.71 
   5   0  -5   45.52    5.71 
   5   0  -5   48.68    5.69 
  -5   0   5   52.07    5.56 
  -5   0   5   59.63    7.68 
  -5   0   5   55.50   10.87 
  -5   0   5   52.44    5.33 
   5   0  -4  858.72   41.92 
  -5   0   4  883.74   43.73 
  -5   0   4  814.89   39.70 
  -5   0   4  821.43   41.46 
   5   0  -4  793.78   38.77 
   5   0  -4  912.90   44.62 
   5   0  -4  899.39   43.89 
  -5   0   4  875.76   42.40 
  -5   0   4  945.90   46.80 
  -5   0   4  878.29   43.70 
  -5   0   4  838.27   41.10 
  -5   0   4  892.70   43.19 
  -5   0   3  336.49   23.71 
  -5   0   3  328.75   23.09 
   5   0  -3  279.09   19.51 
  -5   0   3  310.58   21.75 
  -5   0   3  316.79   22.55 
  -5   0   3  334.51   23.89 
   5   0  -3  316.14   22.27 
   5   0  -3  303.08   21.40 
  -5   0   3  301.60   20.95 
  -5   0   3  351.07   25.75 
  -5   0   3  293.72   22.35 
  -5   0   3  287.18   20.40 
  -5   0   2   -0.34    3.53 
  -5   0   2    2.57    1.59 
   5   0  -2    4.27    1.59 
  -5   0   2    3.02    1.51 
  -5   0   2    4.73    3.53 
  -5   0   2    0.22    3.49 
  -5   0   2    4.95    1.37 
  -5   0   2    3.23   11.12 
  -5   0   2    2.04    4.33 
  -5   0   1  109.27    6.90 
   5   0  -1   87.61    4.09 
  -5   0   1   97.78    4.63 
   5   0  -1   88.42    4.43 
  -5   0   1   97.84    4.68 
  -5   0   1   92.35    5.25 
  -5   0   1   95.18    5.30 
  -5   0   1  102.63    5.42 
  -5   0   1   85.06    5.22 
  -5   0   1   96.10    6.33 
  -5   0   1   90.51    4.12 
  -5   0   0   14.18    3.29 
   5   0   0   11.00    1.22 
   5   0   0   10.35    2.17 
  -5   0   0   12.49    1.65 
  -5   0   0   10.55    3.00 
  -5   0   0    9.55    3.97 
  -5   0   0   11.02    2.65 
  -5   0   0    9.70    0.97 
  -5   0   0   11.27    4.42 
   5   0   1 1013.16   43.03 
  -5   0  -1  998.59   42.35 
  -5   0  -1 1081.08   45.91 
   5   0   1  929.81   39.43 
   5   0   1 1162.02   49.55 
  -5   0  -1  986.28   41.72 
  -5   0  -1 1133.28   48.20 
  -5   0  -1  925.65   39.41 
  -5   0  -1 1090.13   46.21 
  -5   0  -1  915.04   42.27 
  -5   0  -1 1079.64   45.57 
  -5   0  -1 1070.16   45.12 
  -5   0  -1 1041.74   44.16 
  -5   0  -1 1070.95   46.18 
   5   0   2  667.88   28.69 
  -5   0  -2  711.06   30.28 
  -5   0  -2  632.96   27.21 
   5   0   2  635.27   27.11 
   5   0   2  599.48   25.63 
  -5   0  -2  566.15   24.14 
  -5   0  -2  632.61   27.19 
  -5   0  -2  601.21   25.86 
  -5   0  -2  654.92   27.95 
  -5   0  -2  598.40   27.88 
  -5   0  -2  620.41   26.33 
  -5   0  -2  667.77   28.28 
  -5   0  -2  681.80   29.60 
  -5   0  -2  667.58   28.56 
   5   0   3  388.34   27.14 
  -5   0  -3  390.11   27.20 
  -5   0  -3  293.19   20.74 
   5   0   3  347.53   24.22 
   5   0   3  367.48   25.66 
  -5   0  -3  313.87   22.10 
  -5   0  -3  379.73   26.66 
  -5   0  -3  358.22   25.22 
   5   0   3  328.42   22.92 
  -5   0  -3  372.82   25.87 
   5   0   3  330.75   23.12 
  -5   0  -3  330.71   22.92 
  -5   0  -3  334.64   23.22 
  -5   0  -3  347.36   25.99 
  -5   0  -3  330.62   23.23 
  -5   0  -3  361.44   25.26 
   5   0   4 2293.09  220.85 
  -5   0  -4 2225.93  214.23 
  -5   0  -4 2309.12  222.28 
   5   0   4 2367.45  227.85 
   5   0   4 2245.07  216.07 
  -5   0  -4 2362.47  227.37 
  -5   0  -4 2141.29  124.10 
  -5   0  -4 2229.81  214.61 
   5   0   4 2355.23  226.65 
  -5   0  -4 2298.48  221.07 
   5   0   4 2105.95  131.57 
  -5   0  -4 2225.56  214.43 
  -5   0  -4 1930.45  157.63 
  -5   0  -4 2136.10  124.14 
  -5   0  -4 2023.86  117.23 
  -5   0  -4 2423.57  233.46 
   5   0   4 1953.66  113.10 
   5   0   5   14.08    2.97 
  -5   0  -5   16.91    3.26 
  -5   0  -5   12.62    3.82 
   5   0   5   15.26    2.79 
   5   0   5   16.03    3.37 
  -5   0  -5   13.28    3.91 
  -5   0  -5   13.83    4.33 
  -5   0  -5   12.95    2.57 
   5   0   5   15.61    2.27 
  -5   0  -5   17.67    2.19 
   5   0   5    8.92    2.25 
  -5   0  -5   13.02    1.55 
  -5   0  -5   12.27    2.41 
  -5   0  -5   47.83   10.38 
  -5   0  -5   12.79    3.20 
  -5   0  -5   11.30    2.07 
   5   0   5   13.98    1.45 
   5   0   6   79.84    5.80 
  -5   0  -6   94.40    6.52 
   5   0   6   78.54    5.89 
   5   0   6   93.26    6.48 
  -5   0  -6   93.56    6.85 
  -5   0  -6   91.77    7.17 
  -5   0  -6   93.54    7.19 
   5   0   6   89.51    5.81 
  -5   0  -6   95.99    5.99 
   5   0   6   86.87    7.20 
  -5   0  -6   88.55    5.47 
  -5   0  -6   87.75    7.87 
  -5   0  -6   95.78   14.69 
  -5   0  -6   87.91    6.20 
   5   0   6  124.82    9.32 
   5   0   6   92.19    5.73 
   5   0   7  477.21   39.65 
  -5   0  -7  522.07   43.32 
  -5   0  -7  543.59   45.21 
   5   0   7  480.95   40.03 
  -5   0  -7  517.91   43.29 
  -5   0  -7  426.01   35.62 
   5   0   7  439.74   37.91 
  -5   0  -7  509.54   42.12 
   5   0   7  508.72   42.55 
  -5   0  -7  503.37   42.38 
  -5   0  -7  482.95   41.35 
   5   0   7  465.89   40.06 
   5   0   7  475.31   39.22 
   5   0   8  145.95   12.02 
  -5   0  -8  155.25   12.75 
   5   0   8  144.84   12.00 
  -5   0  -8  151.46   12.62 
   5   0   8  142.64   12.79 
   5   0   8  131.19   10.92 
   5   0   9    1.51    2.02 
  -5   0  -9    2.81    2.17 
   5   0   9    2.19    2.33 
  -5   0  -9    1.92    3.41 
   5   0   9    0.11    3.48 
   5   0   9    2.72    1.82 
   5   0  10    7.37    2.51 
  -5   0 -10    5.90    2.45 
   5   0  10    4.73    2.65 
  -5   0 -10    7.44    3.06 
   5   0  10    5.05    2.25 
   5   1 -10  149.53   15.48 
   5  -1 -10  127.78   10.18 
  -5  -1  10  185.59   15.18 
  -5   1  10  171.17   14.44 
  -5  -1  10  181.15   16.02 
  -5   1  10  176.50   15.03 
  -5  -1  10  163.20   12.77 
  -5   1  10  174.97   13.87 
   5  -1  -9   32.93    6.51 
  -5  -1   9   32.37    6.42 
  -5  -1   9   21.88    7.91 
  -5   1   9   26.66    7.78 
  -5  -1   9   30.44   12.35 
  -5   1   9   23.38   10.26 
  -5  -1   9   29.66    5.82 
  -5   1   9   27.03    5.51 
  -5  -1   8  161.46   13.55 
  -5   1   8  163.87   13.66 
  -5  -1   8  182.59   16.10 
  -5   1   8  198.39   17.81 
  -5  -1   8  185.05   17.39 
  -5   1   8  166.15   17.72 
  -5  -1   8  187.37   15.31 
  -5   1   8  159.66   13.51 
   5   1  -7   50.95    6.77 
   5  -1  -7   47.47    7.26 
  -5  -1   7   41.51    4.98 
  -5   1   7   34.29    5.01 
  -5   1   7   49.82    6.36 
   5  -1  -7   49.75    7.54 
  -5  -1   7   42.65    5.71 
   5   1  -7   32.22    5.78 
   5   1  -7   33.24    6.13 
  -5  -1   7   46.96    5.94 
  -5   1   7   44.06    5.05 
  -5  -1   7   50.23    9.19 
  -5   1   7   33.01    9.68 
  -5  -1   7   45.46   12.07 
  -5   1   7   49.21   13.15 
  -5  -1   7   45.23    4.59 
  -5   1   7   39.97    4.34 
   5   1  -6   98.24    8.13 
   5  -1  -6   98.30    7.13 
  -5  -1   6   79.88    5.40 
  -5   1   6   92.62    6.25 
  -5   1   6   94.52    6.71 
   5  -1  -6   84.75    6.15 
  -5  -1   6   80.90    6.58 
   5   1  -6   80.17    6.59 
   5  -1  -6   72.32    6.12 
   5   1  -6   80.97    6.26 
   5   1  -6   79.55    6.87 
  -5  -1   6   98.71    6.53 
  -5   1   6   87.59    5.78 
  -5  -1   6  108.57    8.95 
  -5   1   6   70.13    8.86 
  -5  -1   6   86.63   13.47 
  -5   1   6   92.39   12.01 
  -5  -1   6   94.75    5.84 
  -5   1   6   96.61    6.46 
   5   1  -5  164.96   11.55 
   5  -1  -5  168.43   11.76 
  -5  -1   5  159.93   10.95 
  -5   1   5  169.56   11.57 
  -5   1   5  160.24   11.09 
  -5  -1   5  169.18   11.71 
  -5   1   5  161.25   11.14 
   5   1  -5  176.11   12.38 
   5  -1  -5  184.31   12.60 
   5   1  -5  168.62   11.75 
   5   1  -5  184.96   12.91 
  -5  -1   5  180.46   12.63 
  -5   1   5  178.47   11.87 
  -5  -1   5  198.81   14.51 
  -5   1   5  180.85   13.13 
  -5  -1   5  174.75   16.03 
  -5   1   5  179.42   15.79 
  -5  -1   5  177.71   12.70 
  -5  -1   5  181.12   11.89 
  -5   1   5  176.54   11.65 
   5  -1  -4   89.48    6.01 
  -5  -1   4   85.45    5.82 
  -5   1   4   86.14    5.63 
  -5   1   4   94.34    6.50 
  -5  -1   4   84.15    5.61 
  -5   1   4   86.37    6.04 
   5  -1  -4   79.97    5.58 
   5   1  -4   96.27    7.90 
   5  -1  -4   91.80    6.51 
   5   1  -4   91.50    6.59 
   5  -1  -4   89.52    6.27 
   5   1  -4   92.49    6.88 
  -5  -1   4   96.59    6.06 
  -5   1   4   90.76    5.60 
  -5  -1   4   94.27    8.05 
  -5   1   4   98.53    7.51 
  -5  -1   4  102.84   10.28 
  -5   1   4   97.48    9.26 
  -5  -1   4   94.36    6.85 
  -5   1   4   86.73    5.44 
  -5  -1   3   84.82    7.24 
  -5   1   3   86.34    6.83 
  -5  -1   3   78.68    5.99 
  -5   1   3   86.56    6.46 
   5  -1  -3   82.05    6.05 
   5   1  -3   85.91    6.45 
  -5   1   3   91.01    6.96 
  -5  -1   3   85.75    6.44 
  -5   1   3   83.56    6.59 
  -5   1   3   89.38    6.95 
   5  -1  -3   87.88    7.01 
   5   1  -3   91.76    7.65 
   5  -1  -3   90.64    7.06 
   5   1  -3   89.14    6.94 
  -5  -1   3   85.45    6.14 
  -5  -1   3   89.08    6.59 
  -5   1   3   90.51    6.51 
  -5  -1   3   90.92    7.54 
  -5   1   3   89.55    8.64 
  -5  -1   3   91.54   13.07 
  -5   1   3   86.62    8.74 
  -5   1   3   82.84    7.05 
  -5  -1   3   86.00    8.18 
  -5   1   3   86.49    6.25 
  -5  -1   2  166.89   12.41 
  -5   1   2  152.76   11.03 
   5  -1  -2  149.15   10.48 
  -5  -1   2  152.36   10.85 
  -5   1   2  148.90   10.72 
   5  -1  -2  145.33   10.65 
   5   1  -2  147.26   10.58 
  -5   1   2  155.13   11.18 
  -5  -1   2  160.34   11.55 
  -5   1   2  150.41   10.89 
  -5   1   2  152.96   11.11 
  -5  -1   2  161.93   11.83 
   5   1  -2  157.81   11.59 
  -5   1   2  167.17   12.14 
   5   1  -2  146.90   10.71 
  -5   1   2  168.08   12.01 
  -5   1   2  143.29    9.97 
  -5  -1   2  157.20   10.96 
  -5  -1   2  161.81   11.35 
  -5   1   2  143.07   10.06 
  -5  -1   2  147.75   11.54 
  -5  -1   2  149.43   13.24 
  -5   1   2  150.99   11.14 
  -5  -1   2  178.39   14.37 
  -5  -1   1  111.78    6.40 
  -5   1   1  101.36    5.09 
   5  -1  -1   85.56    4.16 
  -5  -1   1   93.02    4.41 
   5   1  -1   90.61    5.02 
  -5   1   1   88.99    5.36 
   5  -1  -1   95.90    4.93 
  -5  -1   1   91.68    4.64 
  -5   1   1  100.53    4.92 
  -5   1   1   94.90    5.72 
  -5   1   1  103.36    5.40 
  -5  -1   1  100.33    5.61 
   5   1  -1  102.68    5.26 
  -5   1   1   97.55    5.00 
  -5   1   1   91.02    4.10 
  -5  -1   1  102.67    4.55 
  -5  -1   1   97.03    4.50 
  -5  -1   1   89.87    5.49 
  -5  -1   1  105.31   10.24 
  -5   1   1  100.72    5.73 
  -5  -1   1  108.07    7.16 
  -5  -1   0 1563.10  107.92 
   5   1   0 1624.75  112.16 
  -5  -1   0 1648.37  113.92 
  -5   1   0 1640.55  113.32 
   5  -1   0 1480.90   62.70 
   5   1   0 1425.78   60.20 
   5   1   0 1512.35  104.42 
  -5   1   0 1450.90   63.97 
   5  -1   0 1494.03   63.00 
  -5  -1   0 1457.02   61.52 
  -5   1   0 1516.91  104.79 
  -5   1   0 1427.51   60.46 
  -5  -1   0 1505.40  104.02 
  -5   1   0 1425.34   60.41 
  -5  -1   0 1460.50   61.80 
  -5   1   0 1483.12   62.65 
  -5  -1   0 1566.92  109.25 
  -5   1   0 1452.51   62.35 
  -5  -1   0 1585.77  109.28 
  -5  -1   0 1420.03   59.74 
  -5  -1   0 1401.66   61.51 
  -5   1   0 1488.51   62.90 
  -5  -1   0 1608.45  111.03 
  -5   1   0 1495.56  107.46 
   5   1   1  150.68    7.19 
  -5  -1  -1  173.37    7.94 
  -5   1  -1  167.38    7.79 
  -5  -1  -1  147.17    7.07 
   5  -1   1  160.77    7.18 
   5   1   1  147.82    6.76 
   5   1   1  155.33    7.33 
  -5   1  -1  151.66    7.18 
  -5  -1  -1  156.75    7.39 
  -5   1  -1  146.22    7.19 
  -5  -1  -1  152.09    7.40 
  -5   1  -1  156.53    7.85 
  -5  -1  -1  140.40    6.90 
  -5   1  -1  164.09    8.40 
  -5  -1  -1  157.90    7.45 
  -5   1  -1  142.54    7.11 
  -5   1  -1  154.18    6.87 
  -5  -1  -1  154.12    6.70 
  -5  -1  -1  146.06    7.17 
  -5  -1  -1  151.38   14.31 
  -5   1  -1  156.28    8.47 
  -5  -1  -1  148.63    8.58 
  -5   1  -1  157.11    7.18 
  -5  -1  -1  152.72    6.67 
   5  -1   2  761.25   52.76 
   5   1   2  746.10   53.35 
  -5   1  -2  752.60   52.08 
  -5  -1  -2  779.03   53.97 
  -5  -1  -2  634.87   44.09 
  -5   1  -2  747.38   51.81 
   5  -1   2  760.89   52.69 
   5   1   2  668.59   46.30 
   5   1   2  732.77   50.73 
  -5   1  -2  665.05   48.04 
  -5  -1  -2  660.83   45.75 
  -5   1  -2  719.44   49.93 
  -5  -1  -2  736.39   51.21 
  -5   1  -2  696.81   48.37 
  -5  -1  -2  693.63   48.23 
  -5   1  -2  652.18   45.33 
  -5  -1  -2  712.02   49.36 
   5   1   2  642.22   44.37 
   5   1   2  727.30   50.22 
  -5   1  -2  625.72   48.80 
  -5   1  -2  684.71   47.87 
  -5  -1  -2  737.38   50.86 
  -5   1  -2  721.21   50.65 
  -5  -1  -2  714.19   49.33 
  -5  -1  -2  711.15   51.06 
  -5   1  -2  720.42   49.88 
  -5  -1  -2  750.32   52.07 
  -5   1  -2  756.14   53.03 
  -5  -1  -2  722.32   49.89 
   5  -1   3  123.72    6.59 
   5   1   3   93.27    5.53 
  -5   1  -3  122.01    6.69 
  -5  -1  -3  105.83    5.98 
  -5   1  -3  119.20    6.82 
  -5  -1  -3   86.92    5.51 
   5  -1   3  101.82    5.60 
   5   1   3  105.73    5.79 
   5  -1   3  104.97    5.74 
   5   1   3  104.78    5.99 
  -5  -1  -3  110.02    6.26 
  -5   1  -3   92.53    5.76 
  -5  -1  -3   89.47    5.62 
  -5  -1  -3  109.43    6.21 
  -5   1  -3  105.59    5.90 
  -5  -1  -3  103.94    5.84 
   5   1   3   97.81    5.05 
  -5  -1  -3   92.84    4.76 
   5   1   3   97.59    5.11 
  -5   1  -3  104.10    6.32 
  -5   1  -3   95.56    4.92 
  -5  -1  -3  100.69    5.21 
  -5   1  -3  111.54    5.76 
  -5  -1  -3  100.09    5.55 
  -5  -1  -3  118.15   11.93 
  -5   1  -3  108.74    7.60 
  -5  -1  -3  107.23    8.05 
  -5   1  -3  102.17    5.42 
   5  -1   3   86.61    4.45 
   5  -1   4   43.74    4.13 
   5   1   4   51.10    4.15 
  -5   1  -4   55.15    4.09 
  -5  -1  -4   46.95    3.83 
  -5   1  -4   49.59    4.21 
  -5  -1  -4   45.71    4.51 
   5  -1   4   48.21    3.72 
   5   1   4   49.29    3.99 
   5  -1   4   44.54    3.34 
   5   1   4   45.68    3.83 
  -5  -1  -4   44.09    3.89 
  -5   1  -4   46.98    4.69 
  -5  -1  -4   47.80    4.41 
  -5   1  -4   52.87    4.35 
  -5   1  -4   44.75    3.57 
  -5  -1  -4   47.73    3.91 
   5  -1   4   47.67    3.03 
   5   1   4   52.13    3.37 
  -5   1  -4   51.80    3.28 
  -5  -1  -4   46.23    3.04 
   5   1   4   38.97    3.03 
  -5   1  -4   46.41    4.05 
  -5   1  -4   46.52    2.94 
  -5  -1  -4   44.35    2.87 
  -5  -1  -4   47.46    3.96 
  -5   1  -4   49.97    3.75 
  -5  -1  -4   52.81   13.98 
  -5   1  -4   47.42    5.18 
  -5  -1  -4   45.66    4.62 
   5   1   4   48.30    6.73 
  -5   1  -4   49.48    3.43 
   5  -1   4   45.65    3.02 
   5  -1   5  385.48   25.32 
   5   1   5  429.72   28.32 
  -5   1  -5  458.88   29.99 
  -5  -1  -5  444.19   29.25 
  -5   1  -5  447.65   29.42 
  -5  -1  -5  431.35   28.61 
   5  -1   5  466.58   30.55 
   5   1   5  378.40   24.92 
   5  -1   5  435.46   28.49 
   5   1   5  405.53   26.64 
  -5   1  -5  462.95   30.45 
  -5  -1  -5  450.36   30.15 
  -5   1  -5  428.49   28.15 
  -5  -1  -5  402.84   26.49 
  -5   1  -5  411.68   27.05 
  -5  -1  -5  392.37   25.71 
   5  -1   5  436.55   28.45 
   5   1   5  419.31   27.26 
  -5   1  -5  493.48   32.02 
  -5  -1  -5  462.62   30.03 
   5  -1   5  479.91   31.17 
   5   1   5  476.23   30.99 
  -5   1  -5  382.49   25.28 
  -5  -1  -5  429.15   27.90 
  -5  -1  -5  470.70   30.65 
  -5   1  -5  342.00   35.97 
  -5  -1  -5  447.51   31.25 
  -5   1  -5  437.49   28.77 
  -5  -1  -5  407.13   26.70 
   5   1   5  484.83   32.13 
  -5   1  -5  451.55   29.61 
   5  -1   5  408.58   26.67 
   5  -1   6  529.71   31.69 
  -5   1  -6  601.07   35.78 
  -5  -1  -6  578.39   34.47 
  -5   1  -6  651.77   38.92 
  -5  -1  -6  588.26   35.15 
   5  -1   6  613.78   36.52 
   5   1   6  633.49   37.98 
   5  -1   6  556.82   33.15 
   5   1   6  563.63   33.79 
  -5   1  -6  580.91   34.79 
  -5  -1  -6  519.98   31.16 
  -5   1  -6  576.35   34.46 
  -5  -1  -6  528.75   31.81 
  -5   1  -6  573.62   34.09 
   5  -1   6  546.68   33.35 
   5   1   6  573.60   33.95 
  -5   1  -6  653.90   38.65 
  -5  -1  -6  634.63   37.50 
   5  -1   6  653.93   38.78 
   5   1   6  654.48   38.88 
  -5   1  -6  556.53   33.16 
  -5  -1  -6  663.12   39.35 
  -5   1  -6  602.13   35.62 
  -5  -1  -6  591.14   39.15 
  -5   1  -6  554.35   32.93 
   5   1   6  527.13   33.06 
  -5   1  -6  585.63   35.98 
   5  -1   6  572.56   33.86 
   5   1   6  509.28   30.13 
   5  -1   7  147.14   12.82 
  -5   1  -7  163.52   14.05 
  -5  -1  -7  169.45   14.61 
  -5   1  -7  180.35   15.99 
   5  -1   7  158.01   13.82 
  -5   1  -7  157.58   13.74 
   5   1   7  155.93   13.12 
  -5   1  -7  176.33   14.68 
  -5  -1  -7  165.76   13.85 
   5  -1   7  165.62   14.15 
   5   1   7  170.32   14.37 
  -5  -1  -7  177.45   15.26 
  -5   1  -7  171.08   14.41 
  -5  -1  -7  169.00   20.18 
  -5   1  -7  152.20   13.02 
   5  -1   7  190.81   17.47 
   5   1   7  140.73   17.33 
   5   1   7  150.64   12.58 
   5  -1   8    1.91    1.73 
   5   1   8    0.08    2.25 
  -5   1  -8    0.67    1.83 
  -5  -1  -8    1.12    2.45 
   5  -1   8    1.45    2.54 
   5   1   8   -1.27    2.61 
  -5  -1  -8    1.12    2.43 
  -5   1  -8   -1.20    2.35 
  -5  -1  -8  -10.41   14.21 
   5  -1   8    2.97    4.75 
   5   1   8    3.35    5.80 
   5  -1   8    0.38    2.05 
   5   1   8   -0.02    1.61 
   5  -1   9   92.29   10.20 
   5   1   9  105.99   11.65 
  -5   1  -9  107.88   11.92 
  -5  -1  -9   96.27   10.63 
   5  -1   9   92.66   10.51 
   5   1   9  110.92   12.40 
  -5  -1  -9   99.22   11.08 
  -5   1  -9   97.04   10.65 
  -5  -1  -9   94.74   13.29 
   5  -1   9   50.20   10.85 
   5   1   9   79.91   10.79 
   5  -1   9   87.68    9.78 
   5   1   9   83.23    9.12 
   5  -1  10   38.44    3.68 
   5   1  10   45.70    4.41 
  -5   1 -10   43.21    4.03 
  -5  -1 -10   49.46    4.64 
   5  -1  10   47.09    4.38 
   5   1  10   51.72    4.96 
  -5   1 -10   40.05    3.91 
  -5  -1 -10   50.79    5.13 
   5   2 -10    3.93    2.77 
  -5  -2  10    3.94    3.56 
  -5   2  10    5.59    4.31 
  -5  -2  10    2.49    1.65 
  -5  -2   9   57.49    4.00 
  -5  -2   9   58.83    6.43 
  -5   2   9   70.30    8.15 
  -5  -2   9   59.52    7.16 
  -5   2   9   59.84    7.62 
  -5  -2   9   61.65    3.83 
  -5   2   9   66.32    4.51 
   5  -2  -8   25.74    2.68 
  -5  -2   8   26.21    3.39 
  -5  -2   8   24.08    7.65 
  -5   2   8   37.23    8.41 
  -5  -2   8   30.66   11.19 
  -5   2   8   36.17   10.72 
  -5  -2   8   17.93    2.42 
  -5   2   8   31.08    3.08 
  -5   2   8   17.32    2.14 
  -5  -2   7    4.90    3.30 
  -5   2   7    5.27    2.01 
  -5  -2   7   -0.45    6.69 
  -5   2   7   12.54    7.93 
  -5  -2   7    1.77    9.73 
  -5   2   7    2.89   10.98 
  -5  -2   7    6.66    1.79 
  -5   2   7    5.96    2.13 
  -5   2   7    4.35    1.73 
   5   2  -6  263.93   17.60 
  -5  -2   6  237.80   15.66 
  -5   2   6  261.15   17.50 
  -5   2   6  240.16   15.92 
   5  -2  -6  250.99   16.70 
  -5  -2   6  245.34   16.36 
   5   2  -6  251.50   17.01 
   5   2  -6  236.79   15.90 
   5   2  -6  242.50   16.52 
  -5  -2   6  271.76   17.60 
  -5   2   6  253.44   16.27 
  -5  -2   6  282.00   21.75 
  -5   2   6  275.08   20.56 
  -5  -2   6  289.71   24.98 
  -5   2   6  264.96   19.83 
  -5  -2   6  282.51   18.00 
  -5   2   6  269.57   17.28 
  -5   2   6  257.41   16.49 
   5   2  -5  478.22   26.32 
  -5  -2   5  430.86   24.41 
  -5   2   5  508.94   27.63 
  -5   2   5  434.83   23.83 
   5  -2  -5  455.38   25.07 
  -5  -2   5  426.29   23.97 
   5   2  -5  426.64   24.00 
   5   2  -5  419.83   23.08 
   5   2  -5  419.94   23.09 
  -5  -2   5  428.08   23.21 
  -5   2   5  485.25   26.14 
  -5  -2   5  453.56   25.52 
  -5   2   5  439.38   24.96 
  -5  -2   5  459.74   26.42 
  -5   2   5  424.26   24.21 
   5   2  -5  453.11   27.19 
  -5   2   5  459.69   24.88 
  -5   2   5  411.22   22.09 
   5   2  -4  172.50   17.19 
   5  -2  -4  164.36   16.28 
  -5   2   4  155.81   15.33 
  -5  -2   4  147.82   15.22 
  -5   2   4  182.46   17.95 
  -5   2   4  160.56   16.21 
   5  -2  -4  160.19   15.86 
  -5  -2   4  170.03   16.74 
   5   2  -4  157.49   15.77 
   5   2  -4  163.28   16.42 
   5   2  -4  156.72   15.75 
  -5   2   4  154.92   15.09 
   5   2  -4  153.93   14.97 
  -5  -2   4  167.24   16.27 
  -5   2   4  167.73   16.31 
  -5  -2   4  202.49   20.51 
  -5   2   4  173.52   17.66 
  -5  -2   4  171.08   19.30 
  -5   2   4  161.94   17.51 
  -5  -2   4  168.35   16.96 
  -5   2   4  174.11   16.97 
  -5   2   4  151.29   14.83 
   5  -2  -3   98.63    5.68 
  -5  -2   3   94.03    5.80 
  -5   2   3   84.66    5.50 
  -5  -2   3   91.01    5.20 
   5   2  -3   97.71    5.63 
  -5   2   3   89.59    4.90 
  -5   2   3  107.68    6.78 
   5  -2  -3   99.12    5.74 
  -5  -2   3   98.85    5.46 
   5  -2  -3  102.97    5.80 
   5   2  -3   95.55    5.97 
   5  -2  -3   93.32    5.35 
   5   2  -3  100.48    6.52 
   5  -2  -3   99.94    5.77 
   5   2  -3   96.54    6.16 
  -5   2   3   94.89    5.07 
  -5  -2   3   99.17    5.13 
  -5  -2   3   97.89    5.42 
  -5  -2   3  101.07    6.57 
  -5   2   3   94.09    7.22 
  -5  -2   3  106.86    9.34 
  -5   2   3   83.77    8.85 
  -5  -2   3  102.10    7.12 
  -5   2   3   86.34    5.07 
  -5   2   3   92.00    4.75 
  -5   2   3   98.35    5.17 
  -5  -2   2  447.87   21.98 
  -5  -2   2  466.37   23.39 
  -5   2   2  433.63   21.43 
  -5   2   2  451.52   22.37 
   5  -2  -2  431.15   21.37 
  -5  -2   2  412.03   20.68 
   5   2  -2  418.61   20.75 
  -5   2   2  424.31   22.51 
   5  -2  -2  442.67   21.82 
   5  -2  -2  411.13   20.33 
  -5  -2   2  441.73   21.71 
  -5   2   2  438.93   21.89 
  -5  -2   2  485.45   24.22 
   5   2  -2  440.95   21.93 
  -5   2   2  460.51   22.75 
   5   2  -2  436.60   21.78 
  -5   2   2  384.05   24.83 
  -5   2   2  424.69   23.31 
  -5   2   2  415.13   20.35 
  -5  -2   2  454.94   22.16 
  -5  -2   2  446.40   21.77 
  -5  -2   2  450.25   23.25 
  -5  -2   2  454.77   25.54 
  -5   2   2  427.92   21.19 
  -5  -2   2  418.49   21.19 
  -5   2   2  411.07   27.05 
  -5   2   2  466.68   22.68 
  -5   2   2  425.78   20.71 
  -5  -2   1  464.61   32.34 
   5   2  -1  485.29   33.77 
  -5  -2   1  422.82   29.54 
  -5   2   1  433.91   30.26 
   5  -2  -1  459.22   31.96 
  -5  -2   1  455.14   31.85 
   5   2  -1  479.16   33.35 
  -5   2   1  463.12   33.07 
   5  -2  -1  486.25   33.80 
  -5  -2   1  464.86   32.32 
  -5   2   1  452.63   34.81 
  -5  -2   1  470.72   32.84 
   5   2  -1  497.05   34.87 
  -5   2   1  461.89   32.17 
   5   2  -1  476.13   33.33 
  -5   2   1  476.19   33.09 
  -5   2   1  487.44   34.50 
  -5   2   1  472.53   33.48 
  -5  -2   1  504.45   34.86 
  -5  -2   1  482.27   33.35 
  -5  -2   1  479.52   34.28 
  -5   2   1  487.80   33.87 
  -5  -2   1  493.55   34.57 
  -5   2   1  459.47   33.93 
  -5   2   1  482.78   33.42 
  -5  -2   0  102.19    7.71 
   5   2   0   95.33    7.18 
  -5  -2   0   96.19    7.75 
  -5   2   0   97.13    7.62 
   5  -2   0  114.35    8.34 
   5   2   0   93.50    7.52 
  -5   2   0   99.14    7.36 
   5  -2   0   94.64    6.93 
  -5  -2   0  110.88    8.29 
  -5   2   0   92.29    7.65 
  -5  -2   0   92.86    7.30 
  -5   2   0   95.80    7.36 
  -5  -2   0   87.40    6.97 
   5   2   0   95.94    7.67 
  -5   2   0   88.81    6.89 
   5   2   0   92.18    6.61 
  -5   2   0   71.31    8.96 
  -5   2   0   98.06    6.98 
  -5  -2   0   94.69    6.79 
  -5  -2   0   99.48    7.31 
  -5  -2   0   95.11   12.76 
  -5   2   0   91.15    7.44 
  -5  -2   0   96.84    8.28 
   5   2   0   82.99    7.34 
  -5   2   0   95.84    7.16 
  -5   2   0   90.72    7.34 
   5   2   1  257.90   18.33 
  -5  -2  -1  226.94   16.07 
  -5  -2  -1  218.44   15.56 
  -5   2  -1  181.60   13.39 
   5  -2   1  219.12   15.34 
   5   2   1  219.32   15.53 
   5   2   1  205.60   14.73 
  -5   2  -1  233.58   16.77 
   5  -2   1  201.38   14.21 
  -5  -2  -1  220.05   15.50 
  -5   2  -1  227.56   16.31 
  -5  -2  -1  229.07   16.30 
  -5   2  -1  247.09   17.51 
  -5  -2  -1  226.42   16.14 
   5   2   1  224.47   16.05 
  -5   2  -1  231.39   16.43 
   5   2   1  206.61   14.40 
  -5  -2  -1  224.74   15.63 
  -5   2  -1  217.11   16.56 
  -5   2  -1  222.44   16.02 
  -5  -2  -1  230.47   16.05 
  -5  -2  -1  238.38   16.60 
  -5  -2  -1  231.05   20.70 
  -5   2  -1  206.30   19.36 
  -5  -2  -1  217.60   15.92 
   5   2   1  212.13   15.95 
  -5   2  -1  222.67   16.32 
  -5   2  -1  236.73   17.01 
   5   2   2  265.82   13.74 
  -5  -2  -2  270.49   13.80 
  -5  -2  -2  276.10   14.31 
  -5   2  -2  250.66   12.94 
   5  -2   2  249.26   12.59 
   5   2   2  256.26   12.98 
   5   2   2  248.09   12.67 
  -5   2  -2  252.15   14.19 
   5  -2   2  237.02   11.76 
  -5  -2  -2  253.83   12.74 
  -5   2  -2  260.87   13.25 
  -5  -2  -2  250.51   12.80 
  -5   2  -2  262.09   13.66 
  -5   2  -2  252.45   12.91 
   5   2   2  248.26   12.28 
  -5  -2  -2  239.64   11.87 
  -5   2  -2  239.95   13.90 
  -5   2  -2  253.43   12.93 
  -5  -2  -2  243.29   11.96 
  -5  -2  -2  258.19   12.85 
  -5  -2  -2  262.52   16.87 
  -5   2  -2  252.26   13.04 
  -5  -2  -2  255.37   13.23 
   5   2   2  262.63   14.38 
  -5   2  -2  254.92   13.45 
   5   2   3   80.45    6.23 
  -5  -2  -3   75.97    5.74 
  -5   2  -3   90.09    6.49 
  -5  -2  -3   76.69    5.94 
   5  -2   3   71.68    4.68 
   5   2   3   71.12    5.17 
   5   2   3   75.23    6.13 
  -5   2  -3   71.05    4.74 
   5  -2   3   73.39    4.65 
  -5  -2  -3   75.96    5.36 
  -5   2  -3   70.16    5.13 
  -5  -2  -3   69.99    5.30 
  -5   2  -3   71.05    5.86 
  -5  -2  -3   75.24    5.86 
  -5   2  -3   72.02    5.09 
  -5  -2  -3   74.26    5.50 
   5   2   3   72.19    4.52 
  -5  -2  -3   72.66    4.72 
   5   2   3   65.25    4.08 
  -5   2  -3   66.01    6.82 
  -5   2  -3   75.36    4.90 
  -5  -2  -3   65.93    4.19 
  -5  -2  -3   75.89    4.92 
  -5   2  -3   70.89    4.44 
  -5  -2  -3   83.67   13.53 
  -5   2  -3   64.62    5.49 
  -5  -2  -3   63.92    5.44 
   5   2   3   65.14    6.47 
  -5   2  -3   73.88    4.83 
   5  -2   4    7.30    5.66 
  -5   2  -4    3.12    2.54 
  -5  -2  -4    3.00    4.24 
  -5   2  -4    3.63    3.71 
  -5  -2  -4   -0.35    5.05 
   5  -2   4    4.01    2.33 
   5   2   4    2.15    3.05 
   5   2   4    3.48    2.94 
  -5   2  -4    1.68    1.92 
  -5  -2  -4    3.23    2.52 
  -5   2  -4    6.31    2.97 
  -5  -2  -4    4.30    3.12 
  -5   2  -4    2.58    3.03 
  -5  -2  -4    2.20    2.79 
  -5   2  -4    5.11    3.79 
  -5  -2  -4    2.28    3.14 
   5  -2   4    3.20    1.04 
   5   2   4    2.84    1.73 
  -5   2  -4    4.58    1.11 
  -5  -2  -4    4.23    1.68 
   5   2   4    3.55    1.77 
  -5   2  -4    2.09    2.44 
  -5   2  -4    3.03    1.28 
  -5  -2  -4    2.02    1.71 
  -5   2  -4    1.63    1.64 
  -5  -2  -4    1.99    2.41 
  -5  -2  -4   -6.00   15.23 
  -5   2  -4    4.20    3.54 
  -5  -2  -4    2.31    4.04 
   5   2   4    7.11    6.51 
  -5   2  -4    2.85    1.70 
   5  -2   4    3.78    1.33 
   5   2   5  339.25   19.02 
  -5   2  -5  341.74   18.57 
  -5  -2  -5  325.18   18.16 
  -5   2  -5  360.51   19.83 
  -5  -2  -5  315.64   17.70 
   5  -2   5  317.26   17.52 
   5  -2   5  311.76   17.10 
   5   2   5  274.73   15.56 
  -5  -2  -5  328.21   17.97 
  -5   2  -5  334.92   18.50 
  -5  -2  -5  296.67   16.48 
  -5   2  -5  320.13   18.00 
  -5  -2  -5  290.69   16.13 
  -5   2  -5  369.18   21.99 
   5  -2   5  308.34   16.78 
   5   2   5  335.86   18.13 
  -5   2  -5  340.82   18.38 
  -5  -2  -5  337.05   18.19 
   5   2   5  345.08   18.63 
  -5   2  -5  281.74   31.57 
  -5   2  -5  312.81   17.06 
  -5  -2  -5  339.78   18.46 
  -5  -2  -5  347.04   18.80 
  -5   2  -5  334.57   18.02 
  -5  -2  -5  330.98   23.23 
  -5   2  -5  343.21   19.06 
   5   2   5  364.86   20.85 
  -5   2  -5  324.83   18.18 
   5  -2   5  318.39   17.15 
   5  -2   6  564.39   36.59 
   5   2   6  615.70   39.44 
  -5   2  -6  626.26   40.03 
  -5  -2  -6  628.48   40.27 
  -5   2  -6  638.82   40.92 
  -5  -2  -6  663.60   42.68 
   5  -2   6  700.49   44.82 
   5   2   6  644.98   41.31 
   5   2   6  556.36   35.99 
  -5   2  -6  642.04   41.37 
  -5  -2  -6  569.42   36.82 
  -5   2  -6  596.15   38.13 
  -5   2  -6  561.95   35.94 
   5  -2   6  646.04   41.31 
   5   2   6  626.64   39.85 
  -5   2  -6  693.21   43.97 
  -5  -2  -6  648.46   41.18 
   5  -2   6  663.92   42.21 
   5   2   6  645.12   41.03 
  -5   2  -6  574.27   37.09 
  -5  -2  -6  654.61   41.81 
  -5   2  -6  653.24   41.45 
  -5  -2  -6  635.42   42.48 
  -5   2  -6  631.28   40.59 
   5   2   6  687.35   45.10 
  -5   2  -6  640.17   42.22 
   5  -2   6  607.53   38.64 
   5  -2   7   94.14    8.28 
   5   2   7  101.68    8.50 
  -5   2  -7  111.93    9.43 
  -5  -2  -7  107.54    9.11 
   5  -2   7  114.24    9.59 
   5   2   7  111.84    9.41 
  -5  -2  -7  105.55    9.25 
  -5   2  -7  105.74    8.80 
  -5  -2  -7  119.86   16.31 
  -5   2  -7   95.00    8.41 
   5  -2   7  124.86   11.71 
   5   2   7  100.16   10.13 
   5  -2   7  101.77    8.46 
   5  -2   8   75.06    6.42 
   5   2   8   86.64    6.35 
  -5   2  -8   70.70    5.83 
  -5  -2  -8   95.97    6.91 
   5  -2   8   82.63    6.08 
   5   2   8   77.40    7.34 
  -5  -2  -8   83.39    6.19 
  -5   2  -8   80.52    5.80 
  -5  -2  -8   89.30   12.70 
   5  -2   8   67.75    6.41 
   5   2   8  104.03   10.27 
   5  -2   8   85.49    5.95 
   5   2   9   39.22    2.96 
  -5   2  -9   40.79    3.05 
  -5  -2  -9   37.76    9.04 
   5  -2   9   15.08    4.98 
   5   2   9   32.94    6.67 
  -5   2  -9   33.60    6.31 
  -5  -2  -9   45.38    4.08 
  -5  -2  -9   43.84    9.16 
   5   2   9   40.08    4.55 
   5  -2   9   38.75    9.23 
   5   2  10   81.66    9.46 
  -5   2 -10   86.11    9.44 
  -5  -2 -10   74.99    8.52 
   5  -2  10   96.83   10.60 
   5   2  10   99.76   11.01 
  -5  -2 -10   60.13    7.07 
  -5  -2 -10   84.96   10.70 
   5  -2  10   85.83    9.42 
  -5   3  10   34.45    5.19 
  -5  -3   9   59.00    5.12 
  -5  -3   9   71.92    6.64 
  -5   3   9   66.10    7.85 
   5  -3  -9   68.11    7.37 
  -5  -3   9   64.42    6.87 
  -5   3   9   63.20    5.42 
  -5   3   9   70.99    5.76 
  -5  -3   8   61.99    7.12 
  -5  -3   8   43.63   11.06 
  -5   3   8   65.02   11.34 
  -5  -3   8   60.62    9.45 
  -5   3   8   56.64   12.32 
  -5  -3   8   51.82    9.74 
  -5   3   8   68.24    8.04 
  -5   3   8   65.62    7.30 
  -5  -3   7   11.28    2.50 
  -5  -3   7    6.70    6.17 
  -5   3   7    2.42    8.52 
  -5  -3   7   11.62    7.65 
  -5   3   7   22.29    9.69 
   5   3  -7    9.46    5.29 
  -5   3   7   10.98    2.54 
  -5   3   7    9.10    3.14 
  -5   3   6   54.79    5.11 
  -5  -3   6   61.12    6.23 
  -5  -3   6   74.04    8.91 
  -5   3   6   70.81   11.59 
  -5  -3   6   59.05   12.75 
  -5   3   6   66.59    9.78 
   5   3  -6   59.47   10.11 
  -5   3   6   58.25    5.37 
  -5   3   6   66.15    6.24 
   5   3  -5  163.66   11.27 
   5  -3  -5  152.89   10.70 
  -5  -3   5  156.78   10.61 
  -5   3   5  176.49   12.16 
   5  -3  -5  148.70   11.11 
  -5  -3   5  167.90   11.25 
   5   3  -5  144.77   10.67 
   5   3  -5  161.81   11.62 
   5   3  -5  152.52   11.09 
  -5   3   5  135.50    9.80 
  -5  -3   5  167.37   11.00 
  -5  -3   5  142.30   16.38 
  -5   3   5  187.45   14.24 
  -5  -3   5  165.46   14.77 
   5   3  -5  174.44   13.96 
  -5   3   5  165.89   11.21 
  -5   3   5  171.97   11.23 
   5   3  -4    2.42    3.27 
  -5   3   4    0.80    2.74 
   5  -3  -4    5.35    3.57 
  -5  -3   4    1.46    2.29 
  -5   3   4   -0.06    3.85 
   5  -3  -4    4.61    2.98 
  -5  -3   4    0.06    2.34 
   5   3  -4    1.49    4.49 
   5   3  -4   -1.44    6.74 
   5   3  -4    1.54    4.41 
  -5   3   4    1.51    1.74 
   5   3  -4    0.20    1.86 
  -5  -3   4    1.35    2.22 
  -5  -3   4   -4.15    6.98 
  -5   3   4   11.36    8.06 
  -5  -3   4   11.56   10.98 
   5   3  -4   -4.68   11.06 
  -5   3   4    1.66    1.50 
  -5   3   4    2.07    1.94 
  -5   3   4   -0.68    2.35 
  -5  -3   3  365.64   24.08 
  -5  -3   3  393.56   26.09 
  -5   3   3  362.05   24.30 
   5  -3  -3  427.61   28.17 
  -5  -3   3  381.93   25.74 
   5   3  -3  382.08   25.29 
  -5   3   3  355.19   24.15 
   5  -3  -3  378.88   24.91 
  -5  -3   3  379.59   24.90 
   5   3  -3  358.09   23.80 
   5   3  -3  365.84   24.43 
   5   3  -3  395.30   26.28 
  -5   3   3  368.68   25.09 
   5   3  -3  307.41   20.10 
  -5  -3   3  405.06   26.51 
  -5  -3   3  403.91   27.00 
  -5   3   3  361.24   24.18 
  -5  -3   3  407.56   27.58 
  -5  -3   3  405.24   26.98 
  -5   3   3  348.40   27.45 
  -5   3   3  399.49   26.04 
  -5   3   3  381.88   24.85 
  -5  -3   2   40.46    4.87 
   5   3  -2   36.10    4.74 
  -5  -3   2   36.43    4.94 
  -5   3   2   38.12    4.34 
   5  -3  -2   38.91    5.41 
  -5  -3   2   29.73    3.34 
   5   3  -2   40.84    5.31 
  -5   3   2   33.23    4.16 
   5  -3  -2   42.77    4.93 
  -5  -3   2   33.88    3.98 
   5   3  -2   42.96    6.38 
   5   3  -2   37.91    5.82 
   5   3  -2   41.87    5.91 
   5   3  -2   35.97    3.76 
  -5  -3   2   35.56    3.74 
  -5   3   2   40.59    4.27 
   5   3  -2   41.88    4.64 
  -5   3   2   36.42    3.67 
  -5  -3   2   38.58    4.40 
  -5  -3   2   41.17    5.62 
  -5  -3   2   39.40   11.82 
  -5   3   2   34.90    3.77 
  -5  -3   2   51.91    7.36 
  -5   3   2   40.28    4.37 
  -5   3   2   40.95    4.46 
  -5   3   2   37.83    4.07 
  -5  -3   1  259.70   15.53 
   5   3  -1  256.38   15.41 
  -5  -3   1  272.89   16.44 
  -5   3   1  255.85   15.43 
  -5  -3   1  240.25   14.30 
   5   3  -1  236.35   14.32 
  -5   3   1  242.30   16.27 
   5  -3  -1  234.67   14.06 
  -5  -3   1  240.55   14.95 
  -5  -3   1  275.30   16.83 
   5   3  -1  238.50   14.46 
  -5   3   1  247.27   14.86 
   5   3  -1  259.51   16.07 
  -5   3   1  236.76   14.08 
   5   3  -1  232.16   13.62 
  -5  -3   1  254.48   14.91 
  -5   3   1  218.50   15.75 
  -5   3   1  238.79   14.31 
  -5  -3   1  243.53   14.43 
  -5  -3   1  308.61   19.95 
  -5  -3   1  239.98   15.97 
  -5   3   1  264.76   15.92 
  -5  -3   1  255.28   15.89 
  -5   3   1  238.69   16.95 
  -5   3   1  240.71   14.11 
  -5   3   1  246.95   14.67 
  -5  -3   0  211.15   12.92 
   5   3   0  200.99   12.31 
  -5  -3   0  209.38   13.22 
   5  -3   0  204.44   12.50 
   5   3   0  203.11   13.07 
  -5   3   0  200.30   13.23 
   5  -3   0  191.72   11.56 
  -5  -3   0  204.64   12.34 
  -5  -3   0  190.29   11.75 
   5   3   0  200.79   12.32 
  -5   3   0  218.31   13.35 
   5   3   0  191.17   11.81 
  -5   3   0  214.47   13.21 
   5   3   0  204.43   12.01 
  -5  -3   0  205.47   12.05 
  -5   3   0  202.83   12.68 
  -5   3   0  195.16   12.04 
  -5  -3   0  214.54   12.69 
  -5  -3   0  199.33   11.78 
  -5  -3   0  157.39   16.56 
  -5  -3   0  207.90   14.81 
  -5   3   0  218.55   13.47 
  -5  -3   0  207.89   13.58 
  -5   3   0  194.92   13.28 
  -5   3   0  198.42   11.82 
  -5   3   0  201.23   12.05 
  -5  -3  -1  400.57   23.67 
   5   3   1  348.43   20.61 
  -5  -3  -1  431.35   25.56 
   5  -3   1  386.34   22.66 
   5   3   1  430.37   25.51 
  -5   3  -1  381.96   23.26 
   5  -3   1  370.73   21.77 
  -5  -3  -1  407.19   23.95 
  -5   3  -1  363.50   21.69 
  -5  -3  -1  431.60   25.66 
   5   3   1  396.97   23.64 
  -5   3  -1  427.50   25.17 
   5   3   1  378.41   22.45 
  -5   3  -1  416.39   24.40 
   5   3   1  376.97   21.98 
  -5  -3  -1  403.19   23.54 
  -5   3  -1  381.68   26.31 
  -5   3  -1  426.33   25.82 
  -5  -3  -1  407.55   23.81 
  -5  -3  -1  402.29   23.44 
  -5  -3  -1  451.97   26.29 
  -5  -3  -1  433.01   28.46 
  -5   3  -1  452.34   26.58 
  -5  -3  -1  421.04   25.07 
   5   3   1  391.37   23.09 
  -5   3  -1  384.66   30.21 
  -5   3  -1  399.96   23.27 
  -5   3  -1  413.30   25.17 
   5   3   2   92.99    9.73 
  -5  -3  -2   86.27    8.86 
  -5  -3  -2   88.14    9.15 
   5  -3   2   86.75    8.79 
   5   3   2   84.10    9.42 
  -5   3  -2   84.70    8.64 
   5  -3   2   82.69    8.35 
  -5  -3  -2   86.91    9.18 
  -5   3  -2   91.50    9.49 
  -5  -3  -2   99.24   10.62 
  -5   3  -2   98.34    9.99 
  -5  -3  -2   82.16    8.94 
   5   3   2   82.79    8.74 
  -5   3  -2   89.58    9.09 
   5   3   2   88.05    8.72 
  -5  -3  -2   91.65    9.04 
  -5   3  -2   82.35    8.60 
  -5   3  -2   80.65    8.12 
  -5  -3  -2   81.27    8.15 
  -5  -3  -2   82.56    8.31 
  -5  -3  -2   84.34    8.22 
  -5  -3  -2   94.74   13.51 
  -5   3  -2   93.43    9.71 
  -5  -3  -2   81.71    9.36 
   5   3   2   89.30    9.70 
  -5   3  -2   89.18    9.73 
   5  -3   2   78.91    7.70 
   5   3   3    3.34    4.48 
  -5  -3  -3    2.01    4.17 
   5  -3   3    3.17    2.21 
   5   3   3    3.20    2.72 
   5   3   3   10.99    4.78 
  -5   3  -3    2.98    2.22 
   5  -3   3    5.19    1.73 
  -5  -3  -3    4.19    3.95 
  -5   3  -3    4.06    3.26 
  -5  -3  -3    4.17    2.94 
  -5   3  -3    4.61    2.78 
  -5  -3  -3    3.88    3.44 
   5   3   3    4.45    3.12 
  -5   3  -3    2.26    3.78 
   5   3   3    1.54    2.69 
  -5  -3  -3    4.39    2.60 
  -5   3  -3    2.76    2.06 
  -5   3  -3    2.29    1.41 
  -5  -3  -3   15.96    2.75 
  -5  -3  -3    5.75    2.53 
  -5  -3  -3   -4.31   10.52 
  -5   3  -3    4.08    5.38 
  -5  -3  -3    3.34    3.59 
   5   3   3    6.39    5.41 
  -5   3  -3    3.63    1.63 
   5   3   4  125.30    8.27 
  -5  -3  -4  127.22    8.01 
  -5  -3  -4  115.34    7.34 
   5  -3   4  119.08    7.24 
   5   3   4  108.55    7.14 
   5   3   4  124.05    8.61 
  -5   3  -4  109.70    6.75 
   5  -3   4  110.76    6.47 
  -5  -3  -4  121.96    7.43 
  -5   3  -4  132.59    9.01 
  -5  -3  -4   98.66    6.95 
  -5   3  -4  118.32    7.78 
  -5   3  -4  115.64    7.40 
   5   3   4  125.16    7.46 
  -5  -3  -4  125.03    7.49 
   5   3   4  107.40    6.32 
  -5   3  -4  118.19   12.21 
  -5   3  -4  120.67    6.89 
  -5  -3  -4  110.93    6.36 
  -5  -3  -4  114.69    6.61 
  -5  -3  -4  109.22   13.85 
  -5   3  -4  100.27    9.35 
   5   3   4  106.10    7.60 
  -5   3  -4  121.11    7.78 
   5  -3   4  118.83    6.58 
   5   3   5   99.97    8.32 
  -5  -3  -5  108.19    9.37 
  -5  -3  -5   95.02    7.49 
   5  -3   5  109.10    7.74 
   5   3   5   94.75    7.75 
   5   3   5  103.11    8.65 
  -5   3  -5   84.59    6.00 
  -5  -3  -5   99.34    7.55 
  -5   3  -5   94.46    7.43 
  -5   3  -5  102.77    7.74 
  -5   3  -5  110.56    7.78 
   5  -3   5   97.21    6.57 
   5   3   5  104.44    7.42 
  -5   3  -5   99.26    6.53 
  -5  -3  -5  104.32    7.14 
   5   3   5  101.39    6.79 
  -5   3  -5  109.75   10.05 
   5   3   5   96.20    6.61 
  -5   3  -5   86.88    7.13 
  -5  -3  -5  106.98    8.75 
  -5  -3  -5  102.14   14.62 
  -5   3  -5   87.03    9.36 
   5   3   5  105.43   13.57 
  -5   3  -5   96.43    7.01 
   5  -3   5  103.51    6.82 
   5  -3   6  227.70   18.97 
   5   3   6  237.85   19.79 
  -5   3  -6  259.09   21.48 
  -5  -3  -6  243.24   20.27 
   5  -3   6  236.72   20.94 
   5   3   6  242.63   20.27 
  -5   3  -6  219.76   18.35 
  -5  -3  -6  238.51   20.45 
  -5  -3  -6  257.44   27.68 
  -5   3  -6  253.57   21.45 
   5   3   6  302.76   26.12 
  -5   3  -6  240.48   20.27 
   5  -3   6  238.43   19.77 
   5  -3   7  160.45   10.92 
   5   3   7  161.16   10.93 
  -5   3  -7  181.17   12.11 
  -5  -3  -7  173.79   11.72 
   5  -3   7  115.90   16.49 
  -5  -3  -7  154.19   13.50 
  -5  -3  -7  182.69   21.05 
  -5   3  -7  157.06   11.66 
   5   3   7  182.31   13.70 
  -5   3  -7  136.24    9.46 
   5  -3   7  162.87   10.94 
   5  -3   8  122.95   13.49 
   5   3   8  135.73   14.76 
  -5   3  -8  146.58   15.94 
  -5  -3  -8  138.78   15.06 
   5  -3   8  137.12   15.02 
   5   3   8  140.31   15.27 
  -5  -3  -8  138.62   15.19 
  -5  -3  -8  132.69   19.66 
  -5   3  -8  117.38   12.90 
   5   3   8  134.00   15.10 
   5  -3   8  134.29   14.56 
   5  -3   9    1.83    1.79 
   5   3   9   -1.35    2.32 
  -5   3  -9    0.77    1.82 
  -5  -3  -9    1.74    2.12 
   5  -3   9    1.98    2.45 
   5   3   9    0.42    2.33 
  -5  -3  -9   -0.21    2.15 
  -5  -3  -9   -4.25    5.13 
   5   3   9    0.73    3.75 
   5  -3   9    1.84    1.85 
  -5  -4   9   27.50    4.23 
  -5   4   9   27.29    5.37 
  -5   4   9   30.99    4.15 
  -5  -4   8   42.38    3.21 
  -5  -4   8   49.43    4.25 
  -5   4   8   37.24   10.01 
  -5   4   8   42.85    3.47 
  -5   4   8   41.90    3.24 
  -5   4   7  110.98   12.09 
  -5  -4   7  111.50   12.27 
  -5  -4   7  131.49   15.37 
  -5   4   7  105.78   12.90 
  -5  -4   7  110.45   13.59 
   5   4  -7  110.06   13.31 
  -5   4   7  126.29   13.83 
  -5   4   7  118.80   13.10 
  -5   4   6    4.45    1.80 
  -5  -4   6    3.66    2.88 
  -5  -4   6    4.19    4.78 
  -5   4   6    1.14    6.16 
  -5  -4   6    8.96    7.69 
   5   4  -6    5.43    7.08 
  -5   4   6    4.36    2.39 
  -5   4   6    5.20    2.66 
  -5   4   5   43.64    4.27 
  -5  -4   5   46.20    4.49 
  -5  -4   5   51.35    9.77 
  -5   4   5   47.63    7.89 
  -5  -4   5   44.33   11.91 
   5   4  -5   46.82    8.94 
  -5   4   5   35.64    3.68 
  -5   4   5   45.55    4.83 
  -5   4   5   45.84    4.41 
   5   4  -4  258.40   23.93 
  -5   4   4  251.59   23.28 
   5  -4  -4  257.51   24.06 
  -5  -4   4  257.49   23.91 
   5  -4  -4  284.45   26.36 
  -5  -4   4  257.72   23.81 
   5   4  -4  237.05   22.15 
   5   4  -4  252.16   23.58 
   5   4  -4  261.61   24.34 
  -5  -4   4  239.11   22.11 
  -5   4   4  263.56   24.84 
   5   4  -4  254.07   23.23 
  -5  -4   4  267.73   24.47 
  -5  -4   4  291.94   27.43 
  -5   4   4  258.56   24.53 
  -5  -4   4  271.13   26.03 
   5   4  -4  266.08   26.74 
  -5   4   4  240.75   24.27 
  -5   4   4  268.12   24.52 
  -5   4   4  283.13   25.97 
   5   4  -3  165.62   10.97 
   5   4  -3  176.54   12.08 
  -5   4   3  173.32   11.66 
   5  -4  -3  165.68   11.52 
  -5  -4   3  166.16   11.09 
   5  -4  -3  174.26   11.93 
  -5  -4   3  167.55   11.08 
   5   4  -3  170.99   11.90 
   5   4  -3  175.89   12.25 
   5   4  -3  192.17   14.07 
   5   4  -3  180.13   11.58 
  -5  -4   3  170.16   11.43 
  -5   4   3  177.65   12.37 
   5   4  -3  175.31   11.43 
  -5  -4   3  145.09   12.53 
  -5  -4   3  179.38   13.34 
  -5   4   3  187.89   13.69 
  -5  -4   3  177.48   14.13 
   5   4  -3  192.69   17.36 
  -5   4   3  159.20   12.46 
  -5   4   3  195.22   12.60 
  -5   4   3  189.65   12.32 
  -5  -4   2  276.26   16.82 
   5   4  -2  264.81   16.25 
  -5  -4   2  245.43   15.16 
  -5   4   2  242.96   15.18 
   5  -4  -2  230.63   14.59 
  -5  -4   2  264.39   16.11 
   5   4  -2  242.97   15.09 
  -5   4   2  239.52   15.33 
   5  -4  -2  257.19   15.89 
  -5  -4   2  274.26   16.53 
   5   4  -2  242.41   15.56 
   5   4  -2  230.21   14.46 
   5   4  -2  221.71   14.25 
   5   4  -2  263.51   15.70 
  -5  -4   2  256.59   15.38 
  -5   4   2  219.07   23.62 
   5   4  -2  249.13   15.26 
  -5   4   2  231.43   14.20 
  -5  -4   2  249.06   15.02 
  -5  -4   2  262.77   17.13 
  -5  -4   2  253.20   16.82 
   5   4  -2  272.80   19.86 
  -5   4   2  237.86   16.47 
  -5   4   2  271.74   16.77 
  -5   4   2  235.08   15.04 
  -5  -4   1   58.92    4.87 
   5   4  -1   53.06    3.93 
  -5  -4   1   52.18    4.26 
  -5   4   1   55.78    4.76 
  -5  -4   1   59.87    4.00 
   5   4  -1   51.42    5.39 
  -5   4   1   49.45    3.58 
   5  -4  -1   58.43    4.39 
  -5  -4   1   61.90    5.16 
   5   4  -1   44.02    4.50 
   5   4  -1   51.35    5.36 
   5   4  -1   54.80    5.09 
   5   4  -1   56.58    3.76 
  -5  -4   1   55.32    3.48 
  -5   4   1   55.98    3.92 
   5   4  -1   56.33    4.69 
  -5   4   1   48.02    3.00 
  -5  -4   1   59.74    3.99 
  -5  -4   1   65.03    6.78 
  -5  -4   1   55.73   10.45 
  -5   4   1   54.67    5.58 
  -5  -4   1   65.15    7.17 
  -5   4   1   55.12    3.78 
  -5   4   1   56.67    3.86 
  -5   4   1   51.81    4.68 
  -5  -4   0   18.66    4.32 
   5   4   0   19.83    3.87 
  -5  -4   0   18.11    3.30 
   5  -4   0   20.11    3.35 
   5   4   0   21.87    4.63 
  -5   4   0   17.96    2.67 
   5  -4   0   19.20    3.42 
  -5  -4   0   19.59    3.24 
   5   4   0   21.96    3.91 
   5   4   0   20.16    3.82 
   5   4   0   24.42    4.77 
  -5   4   0   27.23    4.41 
   5   4   0   19.86    2.34 
  -5  -4   0   21.82    2.84 
  -5   4   0   20.95    2.38 
   5   4   0   24.49    3.01 
  -5   4   0   19.37    1.75 
  -5  -4   0   21.57    2.55 
  -5  -4   0   24.93    2.26 
  -5  -4   0   21.50    8.39 
  -5   4   0   24.20    5.09 
  -5  -4   0   28.08    6.15 
  -5   4   0   19.82    2.12 
  -5   4   0   25.01    2.24 
  -5   4   0   25.13    2.32 
  -5  -4  -1  320.66   17.68 
   5   4   1  316.76   17.44 
  -5  -4  -1  319.62   17.88 
   5  -4   1  334.08   18.37 
   5   4   1  301.82   17.04 
  -5   4  -1  300.91   18.14 
   5  -4   1  315.31   17.26 
  -5  -4  -1  316.32   17.89 
  -5  -4  -1  283.63   15.98 
   5   4   1  257.77   14.94 
   5   4   1  297.75   16.66 
  -5   4  -1  331.33   18.16 
   5   4   1  319.74   17.33 
  -5  -4  -1  312.03   16.82 
  -5   4  -1  309.59   19.67 
   5   4   1  306.38   19.48 
  -5   4  -1  279.26   16.59 
  -5  -4  -1  325.06   17.67 
  -5  -4  -1  362.26   19.45 
  -5  -4  -1  324.98   21.90 
  -5   4  -1  351.56   19.59 
  -5  -4  -1  320.30   18.16 
   5   4   1  302.84   16.65 
  -5   4  -1  336.91   24.45 
  -5   4  -1  231.30   21.72 
  -5   4  -1  320.02   19.12 
  -5  -4  -2  224.02   13.86 
  -5  -4  -2  193.09   12.41 
   5  -4   2  209.75   12.80 
   5   4   2  217.58   13.85 
  -5   4  -2  198.61   13.11 
   5  -4   2  208.73   12.71 
  -5  -4  -2  204.86   12.69 
  -5   4  -2  219.84   13.72 
  -5   4  -2  224.38   13.75 
   5   4   2  223.84   13.50 
  -5  -4  -2  228.11   13.78 
  -5   4  -2  210.93   16.34 
   5   4   2  224.40   13.91 
  -5   4  -2  194.55   12.18 
  -5  -4  -2  220.85   13.26 
  -5  -4  -2  218.85   13.70 
  -5  -4  -2  235.08   21.62 
  -5   4  -2  261.26   16.16 
  -5  -4  -2  219.44   14.15 
   5   4   2  231.86   14.91 
  -5   4  -2  222.49   16.58 
   5  -4   2  236.88   14.12 
  -5  -4  -3  116.94    9.17 
   5  -4   3  116.39    8.23 
   5   4   3  110.96    8.89 
  -5   4  -3  107.51    7.78 
   5  -4   3   97.02    6.91 
  -5  -4  -3  115.48    8.70 
  -5   4  -3  125.12    9.01 
  -5   4  -3  131.15    9.33 
   5   4   3  120.60    8.11 
  -5  -4  -3  131.42    8.72 
  -5   4  -3  122.75    9.92 
   5   4   3  117.82    8.25 
  -5   4  -3  116.66    7.83 
  -5  -4  -3  113.74    7.91 
  -5  -4  -3  122.86    7.98 
  -5  -4  -3  122.44   15.13 
  -5   4  -3   77.26    9.63 
  -5  -4  -3  112.72    8.83 
   5   4   3  109.37    8.24 
  -5   4  -3  113.93    8.24 
   5  -4   3  118.03    7.70 
   5   4   4   26.02    4.90 
  -5  -4  -4   28.30    4.84 
   5  -4   4   30.28    3.75 
   5   4   4   31.00    7.19 
  -5   4  -4   23.75    3.20 
  -5  -4  -4   28.97    4.67 
  -5   4  -4   27.68    4.64 
  -5   4  -4   27.64    4.14 
   5   4   4   26.34    3.79 
  -5  -4  -4   27.08    3.44 
  -5   4  -4   25.43    3.38 
   5   4   4   30.38    3.71 
  -5   4  -4   26.52    2.94 
  -5  -4  -4   30.27    4.17 
  -5  -4  -4   24.23   15.09 
  -5   4  -4   29.32    5.83 
   5   4   4   31.38    5.90 
  -5   4  -4   32.36    4.09 
   5  -4   4   25.92    2.86 
   5  -4   4   26.93    3.08 
   5   4   5  135.44   11.64 
  -5  -4  -5  133.09   11.59 
   5   4   5  111.78    9.55 
  -5   4  -5  126.39   11.49 
   5   4   5  112.04    9.71 
  -5   4  -5  122.29   10.33 
  -5  -4  -5  124.57   10.59 
  -5  -4  -5  125.87   18.77 
  -5   4  -5  127.67   11.56 
   5   4   5  129.63   11.55 
  -5   4  -5  119.70   10.64 
   5  -4   5   82.41    7.67 
   5  -4   5  124.62   10.45 
   5  -4   6   14.74    1.68 
   5   4   6   18.81    2.79 
  -5   4  -6   15.15    1.64 
  -5  -4  -6   20.23    2.54 
   5  -4   6   18.97    2.29 
   5   4   6   16.18    2.32 
  -5   4  -6   17.04    1.74 
  -5  -4  -6   21.12    3.34 
  -5  -4  -6   23.39   10.88 
  -5   4  -6   16.51    5.04 
   5   4   6   20.53    3.94 
  -5   4  -6   20.27    2.24 
   5  -4   6   21.01    2.52 
   5  -4   7  210.46   23.49 
   5   4   7  250.72   27.13 
  -5   4  -7  208.74   23.31 
  -5  -4  -7  276.75   29.85 
   5  -4   7  106.47   25.63 
   5   4   7  241.93   26.12 
  -5  -4  -7  245.11   26.61 
  -5  -4  -7  214.76   25.34 
   5   4   7  261.76   28.37 
   5  -4   7  266.72   28.89 
   5  -4   8   68.07    5.66 
   5   4   8   86.79    7.19 
  -5   4  -8   78.02    6.47 
  -5  -4  -8  100.16    8.10 
   5   4   8   78.55    6.46 
  -5  -4  -8   85.19    7.10 
  -5  -4  -8   98.77    9.91 
  -5   4  -8   86.37    7.04 
   5   4   8  101.15    8.73 
   5  -4   8   90.10    7.18 
   5   4   9   90.00    9.93 
  -5  -4  -9   94.97   10.40 
  -5  -4  -9   99.43   11.58 
   5   4   9   55.41    8.05 
   5  -4   9   93.04   10.10 
  -5  -5   8   39.73    5.27 
  -5   5   8   34.18    5.18 
  -5   5   8   37.42    4.70 
  -5   5   8   34.93    4.12 
  -5   5   7   20.71    5.27 
  -5  -5   7   27.42    6.96 
  -5   5   7   33.46    4.93 
   5   5  -7   23.74    6.43 
  -5   5   7   28.06    7.16 
  -5   5   7   20.67    5.32 
  -5   5   6    1.98    2.10 
  -5  -5   6    4.29    4.34 
  -5   5   6    0.66    4.91 
   5   5  -6    0.60    4.59 
  -5   5   6    1.32    3.15 
  -5   5   6   -0.36    2.64 
  -5  -5   5    1.38    0.86 
   5   5  -5    1.82    1.07 
  -5   5   5    1.09    1.85 
   5   5  -5    1.05    1.59 
  -5  -5   5    8.17    5.90 
  -5   5   5   -2.00    4.52 
  -5  -5   5    2.36    6.74 
   5   5  -5    8.58    8.91 
  -5   5   5    4.51    1.76 
  -5   5   5    1.88    3.07 
  -5   5   5    2.57    2.46 
  -5  -5   4   58.76    5.16 
   5   5  -4   67.94    5.70 
  -5   5   4   63.48    6.02 
   5   5  -4   58.70    5.81 
  -5  -5   4   78.90    8.50 
  -5   5   4   76.15    7.81 
  -5  -5   4   78.91    8.88 
   5   5  -4   68.75   11.51 
  -5   5   4   66.49    6.06 
  -5   5   4   71.68    6.30 
  -5   5   4   68.33    6.19 
  -5  -5   3  423.85   34.99 
   5   5  -3  478.01   38.56 
  -5   5   3  485.47   34.46 
   5   5  -3  483.75   32.11 
  -5  -5   3  470.25   40.70 
  -5  -5   3  485.44   33.04 
   5   5  -3  527.43   36.53 
  -5   5   3  435.13   38.40 
  -5   5   3  486.97   32.39 
  -5   5   3  465.85   37.87 
   5   5  -2  296.64   24.55 
  -5  -5   2  247.89   21.18 
  -5   5   2  312.22   26.20 
   5   5  -2  299.81   24.88 
  -5   5   2  238.44   20.55 
  -5  -5   2  287.56   24.51 
  -5  -5   2  282.85   24.94 
   5   5  -2  314.81   29.42 
  -5   5   2  293.63   26.67 
  -5   5   2  326.14   27.01 
  -5   5   2  311.20   26.01 
   5   5  -1  285.09   23.90 
   5  -5  -1  304.85   25.45 
   5   5  -1  276.79   23.57 
  -5   5   1  259.36   22.45 
   5  -5  -1  283.15   23.73 
  -5  -5   1  284.53   23.82 
   5   5  -1  314.29   25.99 
  -5  -5   1  273.77   23.62 
  -5   5   1  324.81   27.67 
   5   5  -1  314.94   26.12 
  -5   5   1  274.44   23.54 
  -5  -5   1  394.04   33.22 
  -5  -5   1  283.15   25.38 
   5   5  -1  319.69   27.89 
  -5   5   1  292.62   25.06 
  -5   5   1  299.21   25.02 
  -5   5   1  309.11   25.72 
  -5  -5   0   57.35    6.60 
   5   5   0   58.84    6.46 
   5  -5   0   58.42    6.68 
   5   5   0   52.72    6.60 
  -5   5   0   51.73    5.86 
   5  -5   0   55.28    6.46 
  -5  -5   0   57.59    6.40 
   5   5   0   60.37    5.89 
  -5  -5   0   59.66    5.82 
  -5   5   0   57.69    5.91 
   5   5   0   42.50    5.01 
  -5   5   0   52.71    5.39 
  -5  -5   0   67.67    6.39 
  -5  -5   0   54.21    9.05 
   5   5   0   62.10   14.42 
  -5   5   0   63.56    6.65 
  -5   5   0   49.01    5.71 
  -5   5   0   61.61    6.00 
  -5   5   0   55.93    5.53 
  -5  -5  -1   12.17    3.89 
   5   5   1   12.98    3.54 
   5  -5   1   13.62    3.17 
   5   5   1    6.73    4.69 
  -5   5  -1    8.47    2.80 
   5  -5   1   10.82    3.15 
  -5  -5  -1   10.34    3.65 
   5   5   1   10.54    2.34 
  -5  -5  -1    9.40    2.20 
  -5   5  -1    9.65    2.05 
   5   5   1    6.70    2.86 
  -5   5  -1   11.48    2.21 
  -5  -5  -1    9.73    1.61 
  -5  -5  -1   32.39   13.73 
   5   5   1   10.03   10.70 
  -5   5  -1   11.96    4.27 
  -5   5  -1    8.11    1.89 
   5  -5   1    7.10    1.82 
  -5   5  -1    7.27    2.35 
   5   5   2  470.12   38.82 
  -5  -5  -2  470.78   38.89 
  -5   5  -2  470.10   43.04 
   5   5   2  455.48   37.66 
  -5   5  -2  455.20   38.66 
  -5  -5  -2  453.85   40.36 
  -5  -5  -2  473.37   40.66 
   5   5   2  446.90   37.73 
  -5   5  -2  353.87   32.89 
   5   5   2  478.77   39.73 
  -5   5  -2  382.27   41.45 
   5  -5   2  449.19   37.04 
   5   5   3  110.43    9.26 
  -5  -5  -3  115.97    9.77 
  -5   5  -3  112.11    9.76 
   5   5   3  115.35    9.70 
  -5   5  -3  106.94    8.97 
  -5  -5  -3   80.06   12.36 
  -5  -5  -3  104.42   14.46 
  -5   5  -3  132.49   11.97 
   5   5   3  105.34    9.82 
  -5   5  -3  106.11    9.38 
   5  -5   3  112.78    9.31 
   5   5   4  147.43   12.14 
  -5  -5  -4  154.96   12.78 
  -5   5  -4  139.58   12.69 
   5   5   4  131.77   11.12 
  -5   5  -4  139.66   11.77 
  -5  -5  -4  143.72   11.71 
  -5  -5  -4  139.75   15.61 
  -5   5  -4  155.78   14.23 
   5   5   4  133.67   11.67 
   5  -5   4  142.60   11.62 
   5  -5   4  145.86   11.92 
   5   5   5    2.04    2.29 
  -5  -5  -5    2.51    2.56 
  -5   5  -5    1.44    2.07 
  -5   5  -5    2.39    1.24 
  -5  -5  -5    3.85   10.04 
  -5   5  -5   -0.41    4.18 
   5   5   5    0.69    3.29 
  -5   5  -5    1.14    1.61 
   5  -5   5    1.23    1.32 
   5  -5   5    1.03    1.65 
   5   5   6  152.39    8.56 
  -5  -5  -6  165.67    9.21 
   5  -5   6  161.46    8.87 
  -5   5  -6  134.01    7.50 
  -5  -5  -6  152.48   11.58 
  -5   5  -6  159.32    9.30 
   5   5   6  157.51    9.29 
  -5   5  -6  125.57    7.12 
   5  -5   6  149.67    8.26 
   5   5   7   12.79    3.76 
  -5  -5  -7   14.61    4.13 
   5  -5   7   12.95    3.61 
  -5  -5  -7   11.91    5.77 
  -5   5  -7   12.14    3.94 
   5   5   7   13.68    4.55 
   5  -5   7   12.46    3.51 
   5   5   8    1.54    1.91 
  -5  -5  -8    1.59    1.81 
  -5  -5  -8    0.72    5.05 
   5   5   8    0.81    2.41 
  -5   6   6    4.93    1.69 
  -5  -6   6    4.45    2.67 
   5   6  -6    2.33    3.73 
  -5   6   6    3.85    2.46 
  -5   6   6    6.62    2.26 
  -5  -6   5   27.88    6.61 
   5   6  -5   30.81    2.63 
  -5   6   5   31.73    3.64 
  -5  -6   5   26.82    6.95 
   5   6  -5   30.03    5.45 
  -5   6   5   27.57    6.72 
  -5   6   5   29.82    3.59 
  -5   6   5   26.82    6.63 
  -5  -6   4   65.94    3.97 
   5   6  -4   71.44    4.10 
  -5   6   4   73.71    4.96 
   5   6  -4   71.24    4.23 
  -5  -6   4   75.91    5.96 
   5   6  -4   44.63    9.88 
  -5   6   4   62.51    4.42 
  -5   6   4   77.65    4.80 
  -5   6   4   80.12    4.77 
  -5  -6   3   55.90   10.39 
   5   6  -3   63.65    7.00 
  -5   6   3   67.31    7.73 
   5   6  -3   63.85    7.17 
  -5  -6   3   61.80    8.00 
   5   6  -3   54.10   13.17 
  -5   6   3   55.91   10.65 
  -5   6   3   57.57   11.01 
  -5   6   3   64.94    7.28 
   5   6  -2   18.07    1.84 
  -5  -6   2   15.25    1.76 
  -5   6   2   15.49    2.00 
   5   6  -2   11.65    2.76 
  -5   6   2   12.03    1.54 
  -5  -6   2   19.66    5.58 
   5   6  -2   13.82   13.04 
  -5   6   2   16.15    2.10 
  -5   6   2   18.42    3.09 
  -5   6   2   14.72    2.10 
   5   6  -1    0.61    1.47 
  -5  -6   1    0.11    1.93 
  -5   6   1    2.27    1.62 
   5   6  -1    1.09    2.53 
  -5   6   1    1.12    1.24 
  -5  -6   1   -2.52    4.20 
  -5  -6   1   -7.80    6.12 
   5   6  -1    6.51    9.88 
  -5   6   1    0.77    2.18 
  -5   6   1    1.55    1.83 
  -5   6   1    0.94    1.90 
   5   6   0  145.19    9.78 
  -5  -6   0  154.37   10.37 
  -5   6   0  144.23    9.98 
   5   6   0  149.96   10.21 
  -5   6   0  134.35    9.32 
  -5  -6   0  128.91   15.06 
  -5  -6   0  132.58   11.60 
   5   6   0  144.21   13.15 
  -5   6   0  149.15   10.77 
   5  -6   0  119.32    8.07 
  -5   6   0  158.59   10.77 
   5   6   1  331.15   21.98 
  -5  -6  -1  338.62   22.57 
  -5   6  -1  332.47   22.53 
   5   6   1  330.89   22.03 
  -5   6  -1  284.49   21.78 
  -5  -6  -1  382.11   25.29 
  -5  -6  -1  314.71   22.90 
   5   6   1  300.92   21.24 
  -5   6  -1  301.58   20.56 
  -5   6  -1  278.98   22.00 
   5   6   2   20.62    4.28 
  -5  -6  -2   15.48    3.52 
  -5   6  -2   21.44    4.33 
   5   6   2   22.54    4.77 
  -5   6  -2   18.76    3.71 
  -5  -6  -2   20.66    4.08 
  -5  -6  -2   18.72    7.69 
  -5   6  -2   14.38    4.49 
  -5   6  -2   18.21    3.73 
   5  -6   2   14.02    3.18 
   5   6   3   79.27    8.89 
  -5  -6  -3   78.81    8.96 
  -5   6  -3   76.84    8.81 
   5   6   3   75.63    8.70 
  -5   6  -3   74.78    8.25 
  -5  -6  -3   84.97    9.21 
  -5  -6  -3   77.10   11.53 
  -5   6  -3   82.40    9.50 
   5   6   3   69.42    7.87 
   5  -6   3   47.90    9.48 
   5   6   4   61.94    4.13 
  -5  -6  -4   64.08    4.18 
  -5   6  -4   65.39    4.18 
   5   6   4   51.51    3.66 
  -5   6  -4   56.14    3.66 
  -5  -6  -4   65.92    3.82 
  -5  -6  -4   57.72    6.22 
  -5   6  -4   61.02    5.25 
   5   6   4   52.29    4.51 
  -5   6  -4   47.71    3.41 
   5  -6   4   59.18    3.39 
   5  -6   4   67.25    4.00 
   5   6   5   63.33    5.34 
  -5  -6  -5   67.87    5.57 
   5  -6   5   60.27    4.90 
  -5   6  -5   55.29    4.55 
  -5  -6  -5   58.90    6.78 
  -5   6  -5   60.01    5.59 
   5  -6   5   48.60    4.14 
   5  -6   5   58.07    4.74 
   5   6   6    6.46    2.13 
  -5  -6  -6    6.04    1.99 
   5  -6   6    6.60    2.10 
  -5   6  -6    3.89    1.32 
  -5  -6  -6    5.88    4.79 
  -5   6  -6    6.42    2.53 
   5   6   6    3.98    2.59 
   5  -6   6    5.81    2.35 
  -5   7   4   24.47    5.08 
  -5  -7   4   29.09    4.13 
   5   7  -4   29.71    4.82 
  -5   7   4   21.28    4.60 
  -5   7   4   30.10    3.81 
  -5   7   4   26.86    3.47 
  -5  -7   3   32.93    3.71 
   5   7  -3   41.38    4.58 
  -5   7   3   31.22    3.97 
   5   7  -3   39.03    4.42 
  -5  -7   3   38.77    5.01 
   5   7  -3   37.39    6.29 
  -5   7   3   33.06    3.96 
  -5   7   3   35.63    4.43 
  -5   7   3   34.86    4.17 
  -5  -7   2   61.97    4.97 
  -5   7   2   58.57    4.84 
   5   7  -2   62.73    5.15 
  -5  -7   2   63.54    5.53 
   5   7  -2   57.51    6.04 
  -5   7   2   54.01    5.00 
   5  -7  -2   48.85    4.16 
  -5   7   2   44.32    4.18 
  -5  -7   1   74.90    5.98 
   5   7  -1   80.90    6.36 
  -5   7   1   76.12    6.27 
   5   7  -1   83.02    6.91 
  -5   7   1   61.58    5.04 
  -5  -7   1   53.74    6.47 
   5   7  -1   66.94    6.65 
  -5   7   1   67.27    6.02 
   5  -7  -1   77.62    6.25 
   5   7   0    2.95    1.64 
  -5  -7   0    4.53    1.90 
  -5   7   0    3.37    1.77 
   5   7   0    2.06    2.49 
  -5   7   0    1.46    1.32 
  -5  -7   0   -5.02    3.90 
  -5   7   0    2.01    1.63 
   5  -7   0    4.36    2.02 
   5   7   1   90.53    7.23 
  -5  -7  -1   92.58    7.39 
  -5   7  -1   86.56    7.12 
   5   7   1   79.83    6.88 
  -5   7  -1   84.79    6.79 
  -5  -7  -1  104.39    9.21 
  -5   7  -1   77.44    7.08 
   5  -7   1   93.07    7.43 
   5   7   2  147.85   11.52 
  -5  -7  -2  144.67   11.29 
  -5   7  -2  140.82   11.20 
   5   7   2  127.97   10.12 
  -5   7  -2  122.11    9.78 
  -5  -7  -2  171.29   13.70 
   5  -7   2  100.67    8.66 
   5   7   3   23.28    4.98 
  -5  -7  -3   17.44    3.99 
  -5   7  -3   22.93    4.83 
   5   7   3   22.82    4.79 
  -5   7  -3   20.70    4.35 
  -5  -7  -3   36.79    4.35 
  -5   7  -3   16.76    3.88 
   5  -7   3   20.55    4.29 
   5  -7   3   26.55    3.28 
   5   7   4    2.68    1.47 
  -5  -7  -4    1.54    1.50 
  -5   7  -4    3.11    1.33 
  -5   7  -4    0.16    2.29 
   5  -7   4    0.67    1.41 
  -6   0  10   12.17    4.49 
  -6   0  10   13.94    6.00 
  -6   0   9   -0.05    2.45 
  -6   0   9    1.69    3.75 
  -6   0   9    1.28    7.62 
  -6   0   8  240.48   26.00 
  -6   0   8  171.46   26.02 
  -6   0   8  217.23   26.11 
  -6   0   8  220.44   23.82 
  -6   0   7    0.90    3.26 
  -6   0   7    1.33    6.58 
  -6   0   7   -4.14   15.07 
  -6   0   7    1.34    2.13 
   6   0  -6  460.75   42.29 
  -6   0   6  379.24   34.73 
  -6   0   6  362.77   33.60 
   6   0  -6  347.96   32.25 
  -6   0   6  420.55   38.39 
  -6   0   6  328.87   34.55 
  -6   0   6  418.83   40.37 
  -6   0   6  460.08   41.81 
  -6   0   5   13.81    2.75 
  -6   0   5    9.52    3.25 
   6   0  -5    7.72    3.75 
   6   0  -5    6.25    4.78 
  -6   0   5    7.25    2.87 
  -6   0   5    9.49    6.10 
  -6   0   5    4.03    9.30 
   6   0  -4   55.20    5.67 
  -6   0   4   50.13    4.08 
  -6   0   4   44.75    3.93 
   6   0  -4   63.06    5.65 
   6   0  -4   64.82    6.29 
  -6   0   4   56.29    5.05 
  -6   0   4   56.54    6.68 
  -6   0   4   56.02   10.28 
  -6   0   4   49.35    5.67 
  -6   0   3   77.39    8.24 
  -6   0   3   72.68    7.51 
  -6   0   3   74.73    7.85 
   6   0  -3   67.33    7.40 
   6   0  -3   65.54    7.76 
  -6   0   3   78.15    7.69 
  -6   0   3   75.81    7.58 
  -6   0   3   84.36    9.33 
  -6   0   3   79.41   10.59 
  -6   0   3   65.34    7.68 
  -6   0   2  187.31   11.57 
   6   0  -2  163.51   10.02 
  -6   0   2  178.55   10.91 
  -6   0   2  187.30   11.98 
  -6   0   2  183.80   11.41 
   6   0  -2  168.63   10.47 
  -6   0   2  187.77   11.01 
  -6   0   2  179.87   10.79 
  -6   0   2  196.32   13.52 
  -6   0   2  186.31   12.17 
  -6   0   1  166.21    9.36 
   6   0  -1  165.02    8.51 
  -6   0   1  152.93    8.06 
  -6   0   1  156.01    8.76 
  -6   0   1  168.80    9.42 
  -6   0   1  152.25    8.78 
  -6   0   1  166.90    8.26 
  -6   0   1  145.74    7.34 
  -6   0   1  164.55   10.85 
  -6   0   1  145.27    9.36 
  -6   0   1  147.39    7.42 
  -6   0   0  288.98   14.68 
   6   0   0  281.23   13.95 
   6   0   0  289.56   14.49 
  -6   0   0  293.11   14.48 
  -6   0   0  305.72   15.57 
  -6   0   0  308.43   15.51 
  -6   0   0  326.21   16.32 
  -6   0   0  322.78   15.74 
  -6   0   0  304.60   15.00 
  -6   0   0  332.53   17.68 
  -6   0   0  343.66   17.63 
  -6   0   0  302.96   15.09 
  -6   0  -1 1712.16   99.32 
   6   0   1 1273.36   61.79 
   6   0   1 1332.65   77.43 
  -6   0  -1 1366.34   79.38 
  -6   0  -1 1401.13   81.37 
  -6   0  -1 1274.46   62.01 
  -6   0  -1 1002.32  104.80 
  -6   0  -1 1445.06   83.67 
  -6   0  -1 1179.59   57.17 
  -6   0  -1 1473.78   86.02 
  -6   0  -1 1524.89   88.51 
  -6   0  -1 1377.73   80.85 
  -6   0  -2    9.64    4.37 
   6   0   2    6.83    1.83 
   6   0   2    6.49    2.41 
  -6   0  -2    5.66    3.35 
  -6   0  -2    8.32    3.75 
  -6   0  -2    7.24    3.33 
   6   0   2    6.98    1.28 
  -6   0  -2    8.47    1.22 
  -6   0  -2    7.66    1.87 
  -6   0  -2    8.06    5.93 
  -6   0  -2    4.74    3.93 
  -6   0  -2    3.16    1.94 
  -6   0  -3  115.79    8.90 
   6   0   3  117.99   11.92 
   6   0   3  111.24    7.89 
  -6   0  -3  119.56    9.20 
  -6   0  -3  113.32    8.18 
  -6   0  -3  118.68    8.86 
   6   0   3  116.71    7.73 
  -6   0  -3  127.77    8.43 
  -6   0  -3  139.89    9.34 
  -6   0  -3  126.88   12.51 
  -6   0  -3  129.62   10.20 
  -6   0  -3  123.29    8.42 
  -6   0  -4  260.12   14.43 
  -6   0  -4  266.42   15.01 
   6   0   4  289.49   16.03 
   6   0   4  291.49   16.09 
  -6   0  -4  288.57   16.57 
  -6   0  -4  315.26   17.76 
  -6   0  -4  276.86   15.31 
   6   0   4  266.77   14.43 
  -6   0  -4  280.42   15.11 
   6   0   4  289.23   15.86 
  -6   0  -4  285.52   15.39 
  -6   0  -4  304.98   16.63 
  -6   0  -4  317.15   19.29 
  -6   0  -4  297.00   17.09 
  -6   0  -4  307.32   16.66 
   6   0   5   89.51    6.98 
  -6   0  -5  102.79    9.64 
   6   0   5   97.80    7.82 
   6   0   5  101.29    7.24 
  -6   0  -5  109.36    8.64 
  -6   0  -5   92.28    6.88 
  -6   0  -5   96.53    7.00 
   6   0   5   87.29    5.87 
  -6   0  -5  100.07    6.70 
   6   0   5  108.17    7.22 
  -6   0  -5  102.55    6.76 
  -6   0  -5  112.79    8.19 
  -6   0  -5  100.85   10.25 
  -6   0  -5  109.13    9.29 
   6   0   5  124.27   12.68 
   6   0   6   72.55    8.03 
   6   0   6   71.42    6.44 
  -6   0  -6   85.40    7.39 
   6   0   6   66.18    6.01 
  -6   0  -6   75.27    6.55 
  -6   0  -6   72.73    6.86 
  -6   0  -6   75.77    7.87 
   6   0   6   70.01   10.45 
   6   0   6   72.97    6.25 
   6   0   7   80.69    6.87 
  -6   0  -7   85.27    7.22 
   6   0   7   90.68    7.75 
  -6   0  -7   76.32    8.19 
   6   0   7   78.38    9.10 
   6   0   7   69.74    5.86 
   6   0   8   23.99    4.91 
  -6   0  -8   35.66    6.89 
   6   0   8   36.15    7.28 
  -6   0  -8   37.90    7.66 
   6   0   8    6.57    5.77 
   6   0   8   27.80    5.44 
   6   0   9   -0.90    1.97 
  -6   0  -9   -0.56    1.88 
   6   0   9    0.35    2.81 
  -6   0  -9    0.30    2.31 
   6   0   9    0.45    4.07 
   6   0  10   23.57    5.07 
   6   1 -10    4.34    2.69 
  -6  -1  10    2.84    3.22 
  -6   1  10    1.60    3.96 
  -6  -1  10    4.21    4.24 
  -6   1  10   -1.30    4.64 
   6  -1  -9    9.34    3.22 
  -6  -1   9   12.74    4.44 
  -6   1   9   11.29    5.17 
  -6  -1   9    7.77    5.38 
  -6   1   9   12.12    6.48 
  -6   1   9   13.00    3.82 
  -6  -1   8   16.06    4.21 
  -6   1   8   15.90    3.77 
  -6  -1   8   19.75    7.36 
  -6   1   8   19.55    8.16 
  -6  -1   8    8.27    9.91 
  -6   1   8    9.38   10.13 
  -6   1   8   11.35    2.89 
  -6  -1   7  115.06    9.94 
  -6   1   7  100.74    8.97 
  -6  -1   7  113.25   12.23 
  -6   1   7   90.61   11.76 
  -6  -1   7   94.01   12.38 
  -6   1   7  105.75   13.56 
  -6   1   7   97.36    8.43 
   6   1  -6   10.33    6.33 
  -6  -1   6    4.17    2.98 
   6  -1  -6    7.66    4.14 
  -6  -1   6   -0.90    3.83 
   6   1  -6    6.52    6.26 
   6   1  -6    7.83    6.41 
  -6  -1   6    4.49    2.66 
  -6   1   6    8.03    2.31 
  -6  -1   6    3.23    8.55 
  -6   1   6    4.61    7.15 
  -6  -1   6    4.84   11.81 
  -6   1   6    7.10   11.86 
  -6   1   6    4.19    1.88 
   6   1  -5  131.96    9.31 
   6  -1  -5  124.88    9.42 
  -6  -1   5  110.28   10.87 
  -6   1   5  103.73    7.68 
  -6  -1   5  118.03    8.60 
  -6   1   5  121.40    8.76 
   6   1  -5  113.14    8.37 
   6  -1  -5   97.53    8.45 
   6   1  -5  125.25    9.35 
   6   1  -5  126.56   10.46 
  -6  -1   5  126.90    8.51 
  -6   1   5  123.66    8.33 
  -6  -1   5  148.43   11.59 
  -6   1   5  125.32   12.21 
  -6  -1   5  128.88   12.20 
  -6   1   5  128.64   12.32 
  -6  -1   5  135.46   10.10 
  -6   1   5  122.24    8.15 
   6   1  -4  184.28   10.85 
   6  -1  -4  180.49   10.40 
  -6  -1   4  185.55   10.39 
  -6   1   4  175.26   10.07 
  -6  -1   4  174.31   10.02 
  -6   1   4  170.48   10.15 
   6  -1  -4  167.03    9.85 
   6   1  -4  178.18   10.82 
   6  -1  -4  186.30   11.24 
   6   1  -4  169.10   10.58 
   6   1  -4  186.35   10.87 
  -6  -1   4  186.60   10.59 
  -6   1   4  184.78   10.32 
  -6  -1   4  130.82   12.91 
  -6   1   4  191.25   13.00 
  -6  -1   4  195.90   13.80 
  -6   1   4  197.41   16.18 
  -6  -1   4  186.87   11.79 
  -6  -1   3  712.07   46.53 
  -6   1   3  789.80   42.56 
  -6  -1   3  761.64   49.86 
  -6   1   3  661.66   43.12 
  -6  -1   3  724.24   47.68 
  -6   1   3  710.34   46.58 
   6   1  -3  823.32   44.40 
   6  -1  -3  834.45   44.96 
   6  -1  -3  771.87   50.32 
   6   1  -3  781.85   42.19 
   6  -1  -3  749.63   48.86 
   6   1  -3  790.61   42.63 
  -6   1   3  827.50   59.51 
  -6  -1   3  849.63   45.44 
  -6  -1   3  837.74   44.80 
  -6   1   3  753.57   48.89 
  -6  -1   3  701.86   55.86 
  -6   1   3  809.25   43.71 
  -6  -1   3  852.69   46.66 
  -6   1   3  777.64   51.23 
  -6   1   3  775.76   50.60 
  -6  -1   3  838.97   45.18 
  -6  -1   2  435.13   25.74 
  -6   1   2  471.25   28.01 
   6  -1  -2  459.32   27.25 
   6   1  -2  460.32   27.11 
  -6  -1   2  462.57   27.37 
  -6   1   2  439.06   25.92 
  -6   1   2  453.82   26.88 
  -6  -1   2  440.13   26.12 
   6   1  -2  427.03   25.35 
  -6   1   2  456.86   27.15 
   6   1  -2  447.28   26.34 
  -6   1   2  437.76   25.88 
  -6   1   2  448.19   26.04 
  -6  -1   2  472.14   27.44 
  -6  -1   2  440.72   25.76 
  -6   1   2  451.97   26.29 
  -6  -1   2  462.32   27.47 
  -6  -1   2  464.96   28.74 
  -6   1   2  475.73   28.97 
  -6   1   2  455.02   26.75 
  -6  -1   2  489.61   29.45 
  -6   1   2  390.17   24.11 
  -6  -1   1  466.37   27.70 
  -6   1   1  428.53   25.46 
   6  -1  -1  366.40   21.57 
   6  -1  -1  412.64   24.36 
   6   1  -1  399.45   23.48 
  -6  -1   1  410.61   24.21 
  -6   1   1  421.26   24.89 
  -6  -1   1  424.09   25.29 
  -6   1   1  402.42   23.77 
  -6  -1   1  423.76   25.07 
   6   1  -1  455.92   26.97 
  -6   1   1  430.35   25.34 
  -6   1   1  405.75   24.45 
  -6   1   1  416.80   24.36 
  -6  -1   1  397.75   23.21 
  -6  -1   1  418.01   24.35 
  -6   1   1  392.65   22.85 
  -6  -1   1  399.36   24.41 
  -6   1   1  414.31   25.16 
  -6   1   1  465.25   27.76 
  -6  -1   1  439.35   26.52 
  -6   1   1  395.85   24.13 
  -6   1   0  299.96   18.66 
  -6  -1   0  307.61   18.38 
   6  -1   0  287.22   17.04 
   6  -1   0  270.34   16.15 
   6   1   0  295.44   17.52 
  -6  -1   0  297.53   17.58 
  -6   1   0  287.72   17.23 
  -6  -1   0  285.38   17.25 
  -6   1   0  277.08   16.62 
  -6  -1   0  297.98   17.93 
  -6   1   0  325.20   19.45 
  -6  -1   0  302.41   18.22 
  -6   1   0  261.75   17.46 
  -6   1   0  294.41   17.28 
  -6  -1   0  296.40   17.29 
  -6  -1   0  282.14   16.56 
  -6   1   0  290.80   17.04 
  -6  -1   0  294.24   18.84 
  -6   1   0  287.42   17.68 
  -6  -1   0  268.59   16.52 
  -6   1   0  289.40   17.72 
  -6  -1   0  280.01   16.40 
  -6   1  -1    3.06    2.90 
  -6  -1  -1    3.84    4.49 
   6   1   1   -0.21    2.06 
   6  -1   1    0.16    2.07 
   6   1   1    2.21    3.81 
  -6  -1  -1    1.94    1.68 
  -6   1  -1    1.15    3.24 
  -6  -1  -1    3.52    3.33 
  -6   1  -1    1.36    4.98 
  -6  -1  -1    1.16    3.40 
  -6   1  -1    2.58    2.66 
  -6  -1  -1    3.21    3.46 
  -6   1  -1    1.26    1.16 
  -6  -1  -1    4.62    1.51 
  -6  -1  -1    2.07    2.01 
  -6   1  -1    4.39    1.46 
  -6  -1  -1    6.53   11.07 
  -6   1  -1    1.09    4.88 
  -6  -1  -1   16.68    5.88 
  -6   1  -1    4.88    1.77 
  -6  -1  -1    0.74    1.34 
  -6   1  -2  253.01   24.83 
  -6  -1  -2  264.26   25.82 
   6   1   2  247.81   24.20 
   6  -1   2  252.25   24.56 
   6   1   2  252.50   24.64 
  -6  -1  -2  278.08   26.98 
  -6   1  -2  259.54   25.41 
  -6  -1  -2  265.12   25.93 
  -6   1  -2  243.39   23.85 
  -6  -1  -2  282.85   27.72 
  -6   1  -2  269.37   26.20 
  -6  -1  -2  308.84   30.16 
  -6   1  -2  229.27   23.60 
  -6   1  -2  268.38   26.00 
  -6  -1  -2  272.22   26.27 
  -6   1  -2  273.80   26.53 
  -6  -1  -2  268.05   25.92 
  -6  -1  -2  303.46   32.10 
  -6   1  -2  284.11   27.94 
  -6  -1  -2  253.61   25.17 
  -6   1  -2  270.34   26.93 
   6   1   3   25.02    3.99 
  -6  -1  -3   23.79    3.69 
  -6  -1  -3   23.19    4.67 
  -6   1  -3   36.71    4.93 
   6  -1   3   30.73    3.81 
   6   1   3   21.77    3.24 
   6  -1   3   25.74    3.35 
   6   1   3   29.21    4.90 
  -6   1  -3   22.31    4.13 
  -6  -1  -3   21.51    3.72 
  -6   1  -3   25.56    3.68 
  -6  -1  -3   25.18    3.87 
  -6   1  -3   30.90    5.00 
  -6  -1  -3   23.45    4.22 
   6   1   3   23.75    2.17 
  -6  -1  -3   23.63    2.03 
   6   1   3   23.90    2.32 
  -6   1  -3   27.61    2.96 
  -6   1  -3   25.59    2.06 
  -6  -1  -3   23.31    2.43 
  -6  -1  -3   23.62    3.26 
  -6   1  -3   27.14    2.75 
  -6  -1  -3   23.46    9.79 
  -6   1  -3   31.79    4.39 
  -6  -1  -3   27.27    4.77 
   6   1   3   31.20    5.10 
  -6   1  -3   26.77    2.54 
   6  -1   3   25.13    1.94 
   6   1   4   64.79    5.13 
  -6  -1  -4   74.46    5.31 
  -6  -1  -4   76.59    6.81 
  -6   1  -4   79.76    5.75 
   6  -1   4   79.12    5.91 
   6   1   4   73.16    5.46 
   6  -1   4   64.68    4.29 
   6   1   4   64.09    4.88 
  -6   1  -4   60.65    6.72 
  -6  -1  -4   61.65    5.21 
  -6   1  -4   70.49    5.58 
  -6  -1  -4   63.46    5.05 
  -6   1  -4   71.19    5.32 
  -6  -1  -4   60.40    4.46 
   6   1   4   76.39    4.51 
  -6  -1  -4   67.97    4.04 
   6  -1   4   63.68    3.89 
   6   1   4   54.20    3.91 
  -6   1  -4   68.51    3.96 
  -6  -1  -4   69.07    4.21 
  -6  -1  -4   67.13    4.87 
  -6   1  -4   69.02   18.70 
  -6  -1  -4   87.95   12.85 
  -6   1  -4   72.36    5.45 
  -6  -1  -4   61.29    6.16 
   6   1   4   63.89    6.72 
  -6   1  -4   55.85    4.46 
   6  -1   4   54.86    3.37 
   6   1   5   97.21    7.61 
  -6  -1  -5   96.79    7.46 
  -6  -1  -5  116.36    9.41 
  -6   1  -5  104.78    8.06 
   6  -1   5  110.27    8.33 
   6   1   5  101.94    8.23 
   6  -1   5  103.97    7.29 
   6   1   5  113.86    8.67 
  -6   1  -5  104.74    8.21 
  -6  -1  -5  103.55    8.09 
  -6   1  -5  102.34    7.69 
  -6  -1  -5  101.67    7.62 
  -6   1  -5  105.07    7.60 
  -6  -1  -5   92.40    7.53 
   6  -1   5  100.66    6.67 
   6   1   5  104.73    7.04 
  -6   1  -5  107.72    7.18 
  -6  -1  -5  111.64    7.41 
   6  -1   5  128.56    8.53 
   6   1   5  112.75    7.77 
  -6   1  -5  109.22    7.31 
  -6  -1  -5  100.73    6.63 
  -6   1  -5  122.96    8.56 
  -6  -1  -5  128.42    8.58 
  -6  -1  -5  109.08   13.20 
  -6   1  -5  107.51    7.95 
  -6  -1  -5   99.44    8.23 
   6   1   5  121.00   10.66 
  -6   1  -5  118.52    8.17 
   6  -1   5  103.81    6.81 
   6  -1   6   97.11    8.40 
   6   1   6  104.89    9.20 
  -6   1  -6  109.62    9.29 
  -6  -1  -6  115.95   10.06 
   6  -1   6  106.47    9.44 
   6   1   6   91.03   11.03 
  -6   1  -6  103.90    8.86 
  -6  -1  -6   97.75    8.30 
  -6   1  -6  106.57    9.66 
  -6  -1  -6  107.24    9.28 
  -6  -1  -6   99.02   14.54 
  -6   1  -6  100.67    9.43 
   6  -1   6  115.72   11.34 
   6   1   6   86.94   10.98 
   6  -1   6   99.93    8.52 
   6  -1   7   65.59    4.93 
   6   1   7   65.71    4.95 
  -6   1  -7   68.91    5.12 
  -6  -1  -7   66.28    4.79 
   6  -1   7   57.46    4.44 
   6   1   7   67.47    5.25 
  -6   1  -7   68.06    5.53 
  -6  -1  -7   68.50    5.26 
  -6  -1  -7   57.49   11.40 
  -6   1  -7   62.40    5.01 
   6  -1   7   50.49    7.01 
   6   1   7   60.58    8.25 
   6  -1   7   62.37    4.57 
   6  -1   8   -0.19    1.85 
   6   1   8    1.34    2.08 
  -6   1  -8    1.00    1.98 
  -6  -1  -8    3.07    1.76 
   6  -1   8    0.12    2.91 
   6   1   8    1.05    2.74 
  -6   1  -8    0.09    3.40 
  -6  -1  -8   -0.90    2.58 
  -6  -1  -8    1.24    6.85 
   6  -1   8    1.81    3.72 
   6   1   8   -0.64    4.30 
   6  -1   8    1.19    1.85 
   6  -1   9   12.29    3.44 
   6   1   9   13.18    3.63 
  -6   1  -9   11.26    3.33 
  -6  -1  -9   16.24    4.19 
   6  -1   9    9.21    3.23 
   6   1   9   14.13    4.06 
  -6  -1  -9   17.98    5.26 
  -6   1  -9   15.53    4.20 
   6   1   9   16.18    5.39 
   6  -1   9   12.46    3.62 
  -6  -2   9   56.01    5.25 
  -6  -2   9   43.16    5.69 
  -6   2   9   45.74    6.18 
  -6  -2   9   53.83    6.93 
  -6   2   9   49.66    5.96 
  -6   2   9   49.24    4.26 
  -6  -2   8   63.42    4.35 
  -6  -2   8   33.82    8.34 
  -6   2   8   61.39    7.50 
  -6  -2   8   58.74    8.99 
  -6   2   8   59.88    8.31 
  -6   2   8   58.18    4.23 
  -6  -2   7  161.86   11.27 
  -6  -2   7  172.19   13.28 
  -6   2   7  155.28   13.13 
  -6  -2   7  156.17   14.82 
  -6   2   7  162.46   14.65 
  -6   2   7  119.46   10.24 
  -6  -2   6   42.01    4.52 
  -6   2   6   41.44    3.78 
  -6  -2   6   50.49    9.00 
  -6   2   6   32.53    9.77 
  -6  -2   6   42.51    9.65 
  -6   2   6   43.73   10.61 
   6   2  -6   41.15    7.72 
  -6   2   6   41.22    4.27 
   6   2  -5   88.18    9.47 
   6  -2  -5   84.26    9.20 
  -6  -2   5   81.48    7.98 
  -6  -2   5   89.53    9.08 
   6   2  -5   95.90   10.39 
   6   2  -5   97.84   10.43 
   6   2  -5   88.87    9.42 
  -6  -2   5  100.79    9.59 
  -6   2   5  106.91    9.93 
  -6  -2   5  106.62   11.47 
  -6   2   5   84.43   11.25 
  -6  -2   5  102.15   14.43 
  -6   2   5   93.87   13.15 
   6   2  -5  111.24   14.67 
  -6   2   5  103.10    9.69 
   6   2  -4   12.52    3.96 
   6  -2  -4   12.68    4.07 
  -6  -2   4   13.35    2.59 
   6  -2  -4    9.19    3.08 
  -6  -2   4   12.45    3.39 
   6   2  -4    7.81    4.13 
   6   2  -4   12.31    4.10 
   6   2  -4   11.25    2.16 
  -6  -2   4   12.56    3.58 
  -6  -2   4   12.43    5.56 
  -6   2   4   12.35    6.56 
  -6  -2   4    9.03   13.29 
  -6   2   4   12.88    7.14 
  -6  -2   4   18.35    5.09 
  -6   2   4   15.42    2.69 
  -6  -2   3  257.13   14.50 
  -6  -2   3  246.89   14.00 
  -6  -2   3  243.20   13.92 
   6   2  -3  225.40   13.11 
   6   2  -3  217.15   12.84 
   6   2  -3  231.35   14.01 
  -6   2   3  166.16   13.74 
  -6   2   3  230.61   12.41 
  -6  -2   3  234.68   12.77 
  -6  -2   3  237.81   13.20 
  -6  -2   3  258.06   15.40 
  -6  -2   3  231.00   17.80 
  -6  -2   3  239.78   15.38 
  -6   2   3  194.54   13.53 
  -6   2   3  222.84   12.06 
  -6  -2   2  241.15   16.41 
   6  -2  -2  215.33   14.19 
   6   2  -2  237.04   15.98 
  -6  -2   2  231.65   15.39 
  -6   2   2  226.36   16.71 
  -6  -2   2  245.49   16.77 
   6   2  -2  238.76   16.39 
  -6   2   2  248.30   16.97 
   6   2  -2  228.71   15.59 
  -6   2   2  246.53   16.60 
  -6   2   2  222.17   15.90 
  -6   2   2  247.92   16.27 
  -6  -2   2  252.60   16.54 
  -6  -2   2  245.63   16.14 
  -6  -2   2  241.87   16.84 
  -6  -2   2  242.84   19.56 
  -6   2   2  250.45   16.81 
  -6  -2   2  269.31   18.28 
  -6   2   2  215.72   16.38 
  -6   2   2  243.08   15.94 
  -6  -2   1   68.71    8.15 
  -6   2   1   73.73    8.05 
   6  -2  -1   64.65    6.60 
   6   2  -1   62.97    6.96 
  -6   2   1   61.83    6.29 
  -6  -2   1   63.08    6.53 
  -6   2   1   58.04    6.65 
  -6  -2   1   74.19    8.92 
   6   2  -1   61.47    7.42 
  -6   2   1   58.35    6.71 
   6   2  -1   63.67    7.06 
  -6   2   1   64.11    6.91 
  -6   2   1   42.87    6.30 
  -6   2   1   62.61    6.18 
  -6  -2   1   68.71    7.06 
  -6  -2   1   68.85    6.99 
  -6  -2   1   62.98    6.77 
  -6  -2   1   75.69   12.48 
  -6   2   1   65.31    7.14 
  -6  -2   1   62.13    7.95 
  -6   2   1   63.54    6.46 
  -6   2   1   59.01    6.17 
  -6  -2   0   28.84    4.75 
  -6   2   0   25.00    4.49 
   6  -2   0   29.00    3.36 
   6   2   0   27.89    4.89 
  -6   2   0   28.28    3.75 
  -6  -2   0   32.21    3.77 
  -6   2   0   30.23    4.34 
  -6  -2   0   29.84    4.86 
  -6   2   0   26.01    4.08 
  -6  -2   0   29.24    6.08 
   6   2   0   28.31    4.59 
  -6   2   0   26.95    3.73 
  -6   2   0   26.70    2.97 
  -6   2   0   25.68    2.80 
  -6  -2   0   32.75    3.78 
  -6  -2   0   28.84    3.51 
  -6  -2   0   34.62    8.99 
  -6   2   0   34.90    5.70 
  -6  -2   0   24.69    5.34 
  -6   2   0   31.25    3.66 
  -6   2   0   24.55    6.43 
  -6  -2  -1   89.32    9.11 
  -6  -2  -1   89.35    9.44 
  -6   2  -1   88.14    9.44 
   6  -2   1   93.15    9.23 
   6   2   1   84.23    9.03 
  -6   2  -1   90.40    9.09 
  -6  -2  -1   93.75    9.40 
  -6   2  -1   89.25    9.81 
  -6  -2  -1   85.85    9.34 
  -6   2  -1   92.17    9.48 
  -6  -2  -1   93.48    9.83 
   6   2   1   83.27    8.98 
  -6   2  -1   93.22    9.85 
  -6   2  -1   82.21    8.93 
  -6   2  -1   91.18    8.96 
  -6  -2  -1   95.89    9.51 
  -6  -2  -1   86.83    8.89 
  -6  -2  -1   96.15   15.20 
  -6   2  -1   97.68   10.23 
  -6  -2  -1   90.82   11.10 
   6   2   1   81.95    9.28 
  -6   2  -1   96.29   10.10 
   6   2   2  452.02   29.74 
  -6  -2  -2  383.22   25.25 
  -6  -2  -2  386.31   25.52 
  -6   2  -2  338.75   22.51 
   6  -2   2  359.02   23.54 
   6   2   2  405.18   26.71 
  -6   2  -2  371.42   24.69 
  -6  -2  -2  397.44   25.99 
  -6   2  -2  405.38   26.73 
  -6  -2  -2  394.99   26.17 
  -6   2  -2  402.54   26.76 
   6   2   2  397.72   26.39 
  -6   2  -2  414.79   27.67 
   6   2   2  425.34   28.18 
  -6  -2  -2  391.72   26.01 
  -6   2  -2  399.62   31.96 
  -6   2  -2  399.42   26.58 
  -6  -2  -2  404.56   26.34 
  -6  -2  -2  387.77   25.42 
  -6  -2  -2  374.48   27.22 
  -6   2  -2  417.48   27.50 
  -6  -2  -2  381.46   30.61 
   6   2   2  400.84   26.79 
  -6   2  -2  414.49   27.63 
   6   2   3  213.94   12.46 
  -6  -2  -3  233.85   13.39 
  -6   2  -3  225.26   12.93 
  -6  -2  -3  234.50   13.76 
   6  -2   3  232.11   12.81 
   6   2   3  211.95   11.97 
   6  -2   3  237.77   13.43 
   6   2   3  226.34   13.57 
  -6  -2  -3  225.88   12.61 
  -6   2  -3  232.74   13.58 
  -6  -2  -3  241.89   14.11 
  -6   2  -3  221.94   13.34 
  -6  -2  -3  221.39   12.56 
  -6   2  -3  237.30   13.56 
   6   2   3  228.05   12.51 
  -6  -2  -3  231.14   12.64 
  -6   2  -3  229.04   17.86 
  -6   2  -3  240.24   13.26 
  -6  -2  -3  231.40   12.65 
  -6  -2  -3  236.85   13.00 
  -6  -2  -3  264.82   20.72 
  -6   2  -3  261.11   15.19 
  -6  -2  -3  237.21   14.36 
   6   2   3  231.87   13.65 
  -6   2  -3  217.37   13.22 
   6  -2   3  219.27   11.96 
   6   2   4  275.39   18.56 
  -6  -2  -4  271.50   18.09 
  -6  -2  -4  279.08   18.35 
  -6   2  -4  348.88   23.10 
   6  -2   4  291.36   18.81 
   6   2   4  278.61   18.34 
   6  -2   4  290.17   19.03 
   6   2   4  277.98   18.29 
  -6   2  -4  296.83   19.69 
  -6  -2  -4  281.03   18.58 
  -6   2  -4  267.26   17.54 
  -6  -2  -4  264.07   17.71 
  -6   2  -4  294.74   19.53 
   6   2   4  297.49   19.09 
  -6  -2  -4  252.43   16.22 
   6   2   4  273.56   17.60 
  -6   2  -4  266.87   23.77 
  -6   2  -4  283.22   18.51 
  -6  -2  -4  278.66   17.93 
  -6  -2  -4  339.65   21.79 
  -6   2  -4  300.60   19.19 
  -6  -2  -4  305.54   24.38 
  -6   2  -4  308.31   23.81 
  -6  -2  -4  282.21   18.55 
   6   2   4  282.87   19.88 
  -6   2  -4  304.72   21.12 
   6  -2   4  280.97   18.02 
  -6  -2  -5   29.58    4.78 
  -6  -2  -5   29.48    7.21 
   6  -2   5   27.63    4.57 
   6  -2   5   24.85    3.58 
   6   2   5   23.88    5.38 
  -6   2  -5   27.47    5.14 
  -6  -2  -5   20.57    5.38 
  -6   2  -5   22.39    5.49 
  -6   2  -5   20.27    5.81 
   6   2   5   26.61    3.18 
  -6  -2  -5   28.04    3.30 
   6  -2   5   28.61    3.25 
   6   2   5   20.32    3.10 
  -6   2  -5   26.00    2.87 
  -6  -2  -5   23.82    2.88 
  -6   2  -5   26.82    3.40 
  -6  -2  -5   22.42    3.51 
  -6  -2  -5   25.22   15.64 
  -6   2  -5   25.90    6.36 
   6   2   5   31.12    6.85 
  -6   2  -5   24.03    3.26 
   6  -2   5   25.64    2.95 
   6  -2   6  138.66   11.36 
  -6   2  -6  166.41   13.55 
  -6  -2  -6  147.08   12.09 
   6  -2   6  161.30   13.34 
   6   2   6  157.05   12.97 
  -6   2  -6  131.94   10.86 
  -6  -2  -6  164.84   13.58 
  -6   2  -6  160.41   13.22 
  -6  -2  -6  163.13   17.01 
   6   2   6  156.80   14.08 
  -6   2  -6  145.57   12.19 
   6  -2   6  150.60   12.33 
   6  -2   7   15.14    2.25 
   6   2   7   13.99    2.11 
  -6   2  -7   17.52    2.10 
  -6  -2  -7   17.58    2.27 
   6  -2   7   13.27    2.80 
  -6  -2  -7   19.53    2.79 
  -6  -2  -7   16.38   13.42 
  -6   2  -7   14.86    4.00 
   6  -2   7   16.78    5.46 
   6   2   7   13.95    4.55 
   6  -2   7   16.90    1.95 
   6  -2   8    8.23    2.24 
   6   2   8    9.08    2.46 
  -6   2  -8    8.32    2.23 
  -6  -2  -8    8.49    2.37 
   6  -2   8    1.03    2.51 
   6   2   8    7.38    2.61 
  -6  -2  -8    6.18    2.59 
  -6  -2  -8    9.50    8.82 
   6  -2   8    4.48    4.20 
   6   2   8   10.17    4.85 
   6  -2   8    6.57    1.98 
   6  -2   9   27.34    3.52 
  -6   2  -9   29.50    3.60 
  -6  -2  -9   33.32    4.06 
   6  -2   9   32.61    4.34 
   6   2   9   28.46    3.83 
  -6  -2  -9   31.58    4.34 
   6   2   9   31.40    4.51 
   6  -2   9   26.20    3.29 
  -6  -3   9   63.01    7.23 
  -6  -3   9   63.31    7.81 
  -6   3   9   71.86    8.81 
  -6  -3   9   68.44    8.67 
  -6   3   9   76.31    8.46 
  -6  -3   8  173.95   13.73 
  -6  -3   8  182.27   14.82 
  -6   3   8  182.37   15.01 
  -6  -3   8  172.24   14.55 
  -6   3   8  148.35   11.68 
  -6  -3   7   67.05    7.61 
  -6   3   7   61.62   10.10 
  -6  -3   7   76.54   13.04 
  -6   3   7   71.64    8.05 
  -6   3   7   68.08    7.70 
  -6  -3   6   22.20    3.79 
  -6  -3   6   27.84    6.02 
  -6   3   6   14.86    7.52 
  -6  -3   6   18.96    8.73 
   6   3  -6   32.31    7.21 
  -6   3   6   27.73    2.91 
  -6   3   6   22.55    2.95 
  -6   3   5   54.56    5.28 
  -6  -3   5   75.35    6.77 
  -6  -3   5   63.64    8.46 
  -6   3   5   69.86    9.94 
  -6  -3   5   63.48   10.09 
   6   3  -5   73.11   10.59 
  -6   3   5   67.15    5.95 
  -6   3   5   63.02    5.59 
   6   3  -4  232.51   21.69 
  -6  -3   4  224.35   21.05 
   6   3  -4  215.58   20.34 
   6   3  -4  213.36   20.08 
   6   3  -4  228.39   21.51 
  -6   3   4  227.19   20.99 
   6   3  -4  180.15   16.58 
  -6  -3   4  234.18   21.48 
  -6  -3   4  258.09   24.77 
  -6   3   4  232.59   22.06 
  -6  -3   4  213.53   25.55 
   6   3  -4  259.59   26.24 
  -6   3   4  167.83   17.02 
  -6   3   4  250.88   22.94 
  -6   3   4  223.78   20.47 
  -6  -3   3  173.88   12.01 
   6  -3  -3  154.51   10.43 
   6  -3  -3  174.66   12.06 
  -6  -3   3  170.03   11.33 
   6   3  -3  171.64   12.61 
   6   3  -3  178.03   12.45 
   6   3  -3  193.85   13.70 
  -6   3   3  182.42   12.12 
   6   3  -3  155.89   10.44 
  -6  -3   3  188.89   12.31 
  -6  -3   3  200.52   13.93 
  -6  -3   3  193.84   19.33 
  -6  -3   3  192.82   13.91 
  -6   3   3  162.46   12.02 
  -6   3   3  192.65   12.47 
  -6   3   3  187.03   12.04 
  -6  -3   2   57.83    5.18 
   6  -3  -2   52.95    3.81 
   6   3  -2   45.93    5.28 
  -6   3   2   50.20    3.71 
   6  -3  -2   52.01    4.78 
  -6  -3   2   49.63    4.90 
   6   3  -2   47.50    4.93 
   6   3  -2   45.98    5.30 
   6   3  -2   49.39    5.91 
  -6   3   2   38.29    5.71 
   6   3  -2   49.95    3.89 
  -6   3   2   54.85    3.67 
  -6  -3   2   52.29    3.96 
  -6  -3   2   39.01    6.76 
  -6  -3   2   53.96   13.63 
  -6   3   2   60.11    5.61 
  -6  -3   2   44.23    9.56 
  -6   3   2   44.32    4.48 
  -6   3   2   50.67    3.50 
  -6   3   2   47.79    3.34 
  -6  -3   1   70.93    5.32 
   6  -3  -1   65.16    4.23 
   6   3  -1   71.18    6.36 
  -6   3   1   62.55    4.06 
   6  -3  -1   66.36    4.85 
  -6  -3   1   66.37    4.68 
  -6  -3   1   65.61    6.83 
   6   3  -1   68.60    5.42 
   6   3  -1   81.97    8.87 
  -6   3   1   66.79    4.85 
  -6   3   1   57.68    4.89 
  -6   3   1   71.07    4.11 
  -6  -3   1   75.96    4.66 
  -6  -3   1   69.35    6.76 
  -6  -3   1   71.55   11.71 
  -6   3   1   76.21    5.28 
  -6  -3   1   79.62    7.43 
  -6   3   1   66.35    5.23 
  -6   3   1   68.40    4.10 
  -6  -3   0  383.33   21.33 
   6  -3   0  345.65   18.80 
   6   3   0  368.90   20.36 
  -6   3   0  315.95   19.41 
  -6  -3   0  365.59   19.86 
  -6  -3   0  335.17   18.54 
   6   3   0  356.74   19.67 
  -6   3   0  362.35   19.91 
   6   3   0  365.71   20.34 
  -6   3   0  340.25   18.68 
   6   3   0  365.19   19.63 
  -6  -3   0  352.49   18.93 
  -6   3   0  357.19   23.15 
  -6   3   0  349.26   19.66 
  -6  -3   0  369.35   19.96 
  -6  -3   0  341.37   18.42 
  -6  -3   0  339.72   19.89 
  -6  -3   0  384.37   23.16 
  -6   3   0  385.84   20.98 
  -6  -3   0  385.02   22.19 
  -6   3   0  337.35   22.14 
  -6   3   0  353.06   20.24 
  -6  -3  -1  243.96   13.67 
   6   3   1  238.85   13.51 
  -6  -3  -1  270.25   15.18 
   6  -3   1  267.98   14.70 
   6   3   1  262.19   14.93 
  -6   3  -1  250.03   14.19 
  -6  -3  -1  261.08   14.49 
  -6  -3  -1  236.17   13.51 
   6   3   1  264.44   15.17 
  -6   3  -1  256.09   14.38 
   6   3   1  252.62   14.25 
  -6   3  -1  250.15   13.91 
   6   3   1  226.70   12.29 
  -6  -3  -1  273.13   14.73 
  -6   3  -1  245.35   17.83 
  -6   3  -1  271.19   15.18 
  -6  -3  -1  256.26   14.32 
  -6  -3  -1  278.11   15.08 
  -6  -3  -1  277.30   18.68 
  -6   3  -1  245.67   13.85 
  -6  -3  -1  295.47   17.28 
   6   3   1  267.48   15.24 
  -6   3  -1  258.21   15.97 
  -6  -3  -2   95.40    7.12 
  -6  -3  -2   90.58    6.64 
   6  -3   2   89.13    5.93 
   6   3   2   90.88    6.95 
  -6   3  -2   84.89    5.64 
  -6  -3  -2  101.17    7.23 
  -6   3  -2   90.64    6.69 
  -6  -3  -2   82.22    6.38 
   6   3   2   82.33    6.33 
  -6   3  -2   92.41    8.64 
   6   3   2   76.21    6.28 
  -6   3  -2   85.49    6.36 
   6   3   2   86.55    5.77 
  -6  -3  -2   92.08    5.87 
  -6   3  -2   93.34    7.35 
  -6   3  -2   96.79    6.43 
  -6  -3  -2   82.48    6.24 
  -6  -3  -2   94.03    6.12 
  -6  -3  -2   87.82   17.01 
  -6   3  -2  107.99    7.77 
  -6  -3  -2   94.07    8.02 
   6   3   2   90.47    7.63 
  -6   3  -2   90.99    7.13 
   6   3   3   14.81    4.32 
  -6  -3  -3   20.34    4.51 
   6  -3   3   17.84    2.40 
   6   3   3   13.05    6.77 
  -6   3  -3   13.89    2.98 
  -6  -3  -3   20.02    3.44 
  -6   3  -3   16.44    4.30 
  -6  -3  -3   12.68    4.27 
  -6   3  -3   15.03    3.65 
   6   3   3   14.90    4.36 
  -6   3  -3   18.56    3.57 
   6   3   3   17.76    2.79 
  -6  -3  -3   18.59    2.54 
  -6   3  -3   17.30    2.89 
  -6   3  -3   18.79    1.96 
  -6  -3  -3   17.50    2.47 
  -6  -3  -3   17.98    3.50 
  -6  -3  -3   25.89   13.11 
  -6   3  -3   16.04    6.51 
  -6  -3  -3   17.41    5.75 
   6   3   3   13.77    5.57 
  -6   3  -3   18.52    2.59 
  -6  -3  -4  159.17   15.25 
  -6  -3  -4  167.58   15.89 
   6  -3   4  176.93   16.71 
   6   3   4  169.30   16.36 
  -6  -3  -4  165.33   15.47 
  -6   3  -4  151.93   14.75 
  -6   3  -4  167.53   15.85 
  -6   3  -4  174.45   16.36 
   6   3   4  168.46   15.49 
  -6  -3  -4  182.97   16.81 
  -6   3  -4  154.92   16.75 
  -6   3  -4  169.39   15.59 
  -6  -3  -4  167.12   15.50 
  -6  -3  -4  193.77   23.27 
  -6   3  -4  129.54   22.88 
  -6  -3  -4  164.10   15.63 
   6   3   4  162.74   16.56 
  -6   3  -4  158.68   15.02 
   6  -3   4  175.62   16.15 
   6   3   5   31.94    3.50 
  -6  -3  -5   37.05    3.73 
   6   3   5   34.13    3.41 
   6   3   5   31.73    3.55 
  -6   3  -5   36.41    3.29 
  -6  -3  -5   33.56    4.37 
  -6  -3  -5   38.37   18.39 
  -6   3  -5   37.92    6.03 
   6   3   5   36.44    6.79 
  -6   3  -5   33.41    3.42 
   6  -3   5   31.44    3.03 
   6   3   6   79.94    5.75 
  -6  -3  -6   83.65    5.98 
   6  -3   6   83.49    6.01 
   6   3   6   72.18    5.26 
  -6   3  -6   69.21    4.83 
  -6  -3  -6   82.42    6.00 
  -6  -3  -6   83.85   14.14 
  -6   3  -6   79.68    6.41 
   6   3   6   90.92    9.00 
  -6   3  -6   83.95    6.05 
   6  -3   6   76.06    5.32 
   6   3   7   31.71    6.32 
  -6  -3  -7   39.06    7.62 
   6  -3   7   44.70    8.64 
   6   3   7   34.57    6.84 
  -6  -3  -7   38.47    7.44 
  -6  -3  -7   40.60   15.13 
  -6   3  -7   38.05    7.82 
   6  -3   7   35.79    8.21 
   6   3   7   21.58    6.26 
   6  -3   7   35.02    6.58 
   6   3   8   79.71    6.96 
  -6  -3  -8   92.24    7.54 
   6  -3   8   83.94    7.10 
   6   3   8   84.75    6.82 
  -6  -3  -8  101.05    8.16 
  -6  -3  -8   71.36    8.77 
   6   3   8   65.78    7.82 
   6  -3   8   72.32    6.44 
   6   3   9   12.92    3.18 
  -6  -3  -9   17.37    3.85 
  -6  -3  -9   17.75    3.99 
   6   3   9    6.62    3.23 
  -6  -4   8   44.57    6.49 
  -6   4   8   58.78    7.31 
  -6   4   8   58.67    6.59 
  -6  -4   7  219.87   12.09 
  -6  -4   7  203.59   18.07 
  -6   4   7  213.79   12.83 
  -6  -4   7  216.78   13.05 
  -6   4   7  233.91   12.78 
  -6   4   7  218.59   11.93 
  -6   4   6   61.30    7.03 
  -6  -4   6   78.82    9.01 
  -6  -4   6   73.31    9.71 
  -6   4   6   80.03   10.42 
  -6  -4   6   68.96   10.69 
   6   4  -6   43.51   10.90 
  -6   4   6   65.17    7.70 
  -6   4   6   70.36    7.86 
  -6   4   5   84.31    5.92 
  -6  -4   5   93.82    6.66 
  -6  -4   5   83.73    9.50 
  -6   4   5   90.70    8.31 
  -6  -4   5   88.29    9.06 
   6   4  -5   89.30    9.80 
  -6   4   5   92.34    6.73 
  -6   4   5   91.35    6.41 
  -6   4   4  247.94   20.59 
   6   4  -4  222.88   18.94 
  -6  -4   4  247.58   20.17 
  -6  -4   4  203.84   23.92 
  -6  -4   4  269.67   23.56 
   6   4  -4  219.88   20.68 
  -6   4   4  205.24   19.88 
  -6   4   4  216.86   18.50 
  -6   4   4  261.85   21.27 
  -6   4   3    4.22    1.96 
   6   4  -3    5.82    2.67 
  -6  -4   3    4.89    2.45 
  -6  -4   3    8.83    5.54 
  -6  -4   3   -2.80   10.41 
   6   4  -3    6.82    9.45 
  -6   4   3    5.00    1.67 
  -6   4   3    4.96    2.04 
  -6   4   3    5.95    2.21 
  -6  -4   2  168.01   15.06 
   6  -4  -2  176.56   15.06 
  -6   4   2  147.35   12.64 
   6  -4  -2  174.59   15.56 
  -6  -4   2  168.24   14.36 
   6   4  -2  173.20   15.58 
   6   4  -2  174.90   15.37 
   6   4  -2  164.94   14.53 
  -6  -4   2  167.24   14.02 
  -6   4   2  186.39   16.53 
   6   4  -2  180.74   15.32 
  -6   4   2  126.95   10.87 
  -6  -4   2  174.78   14.63 
  -6  -4   2  185.97   16.39 
  -6  -4   2  157.83   17.10 
   6   4  -2  141.83   17.84 
  -6   4   2  162.80   15.17 
  -6   4   2  169.63   14.22 
  -6   4   2  182.93   15.36 
  -6  -4   1  208.25   19.75 
   6  -4  -1  225.43   20.89 
   6   4  -1  217.33   20.67 
  -6   4   1  199.32   18.60 
   6  -4  -1  200.79   18.79 
  -6  -4   1  227.30   20.92 
   6   4  -1  220.72   21.07 
   6   4  -1  199.26   18.82 
   6   4  -1  197.48   18.82 
   6   4  -1  228.22   20.83 
  -6  -4   1  185.06   17.69 
  -6   4   1  218.94   22.11 
   6   4  -1  226.99   21.08 
  -6   4   1  234.48   21.70 
  -6  -4   1  225.33   20.67 
  -6  -4   1  247.05   23.23 
  -6  -4   1  223.17   22.61 
  -6   4   1  183.40   17.29 
  -6  -4   1  237.38   22.76 
  -6   4   1  211.13   21.07 
  -6   4   1  223.81   20.43 
  -6   4   1  189.28   21.23 
  -6  -4   0  299.77   28.13 
   6  -4   0  353.45   32.49 
   6   4   0  301.99   28.04 
  -6   4   0  294.80   27.37 
  -6  -4   0  328.45   30.08 
   6   4   0  288.45   26.74 
   6   4   0  273.49   25.46 
   6   4   0  295.98   27.38 
   6   4   0  334.50   30.46 
  -6  -4   0  345.70   31.46 
  -6   4   0  304.79   29.92 
   6   4   0  321.69   29.42 
  -6   4   0  323.66   29.94 
  -6  -4   0  326.89   29.78 
  -6  -4   0  340.56   31.31 
  -6  -4   0  310.27   30.93 
  -6   4   0  320.60   29.61 
  -6  -4   0  309.14   29.12 
  -6   4   0  303.93   29.50 
  -6   4   0  335.51   30.52 
  -6   4   0  242.45   30.71 
   6   4   1   14.51    3.80 
  -6  -4  -1   22.14    6.33 
   6  -4   1   13.38    2.97 
   6   4   1   14.98    5.28 
  -6   4  -1   13.69    2.99 
  -6  -4  -1   17.71    3.35 
   6   4   1   18.11    2.85 
  -6  -4  -1   19.03    2.77 
  -6   4  -1   12.57    2.97 
   6   4   1   20.50    4.20 
  -6   4  -1   17.35    2.15 
  -6  -4  -1   16.07    2.68 
  -6  -4  -1   29.02    6.45 
  -6  -4  -1   12.31   13.00 
  -6   4  -1   17.04    5.54 
  -6  -4  -1   23.05    6.02 
  -6   4  -1   15.41    2.51 
  -6  -4  -2   86.93    8.56 
   6   4   2   81.99    8.62 
   6  -4   2   84.37    7.56 
   6   4   2   72.67    8.22 
  -6   4  -2   82.49    7.88 
  -6  -4  -2   81.85    7.51 
  -6   4  -2   85.83    8.33 
   6   4   2   88.69    7.86 
  -6  -4  -2   82.78    7.28 
  -6   4  -2   67.35    8.80 
   6   4   2   77.28    7.36 
  -6   4  -2   87.12    7.59 
  -6  -4  -2   87.13    7.54 
  -6  -4  -2   99.44   13.47 
  -6   4  -2   87.18    8.93 
  -6  -4  -2   75.06    7.94 
   6   4   2   80.84    7.65 
  -6   4  -2   79.81    7.26 
   6   4   3   11.45    2.63 
  -6  -4  -3   12.59    2.26 
  -6   4  -3   13.82    2.59 
   6   4   3   10.73    3.34 
  -6   4  -3   10.18    1.64 
  -6  -4  -3    5.97    2.87 
  -6  -4  -3   11.00   11.05 
  -6   4  -3   15.55    4.47 
  -6  -4  -3   12.28    4.75 
   6   4   3    8.81    5.03 
  -6   4  -3   10.57    2.18 
   6   4   4   98.39    8.44 
  -6  -4  -4   99.24    8.51 
  -6   4  -4   95.50    9.33 
   6   4   4   91.21    7.92 
  -6   4  -4   93.92    8.00 
  -6  -4  -4   97.52    8.35 
  -6  -4  -4  102.71   15.57 
  -6   4  -4  106.60    9.54 
   6   4   4   80.48    7.93 
  -6   4  -4   90.66    8.17 
   6  -4   4   96.20    7.99 
   6   4   5   28.73    3.46 
  -6  -4  -5   28.69    3.26 
  -6   4  -5   22.04    2.85 
   6   4   5   21.71    2.85 
  -6   4  -5   23.17    2.16 
  -6  -4  -5   23.02    2.62 
  -6  -4  -5   19.01   10.96 
  -6   4  -5   14.33    4.55 
   6   4   5   19.25    4.57 
  -6   4  -5   24.50    2.42 
   6  -4   5   21.84    2.35 
   6   4   6   58.04   10.81 
  -6  -4  -6   65.83    7.42 
   6  -4   6   60.23    6.82 
  -6   4  -6   46.77    8.66 
  -6  -4  -6   56.62   10.67 
  -6  -4  -6   70.87   14.53 
  -6   4  -6   60.34    7.13 
   6   4   6   58.73   11.34 
  -6   4  -6   53.81   10.12 
   6  -4   6   53.45    9.99 
   6   4   7    1.70    2.14 
  -6  -4  -7    4.42    2.33 
   6  -4   7    2.66    2.71 
  -6  -4  -7    6.18    2.29 
  -6  -4  -7   10.08    6.55 
  -6   4  -7    1.34    2.71 
   6  -4   7    2.82    3.07 
   6   4   7    2.97    3.43 
   6  -4   7    3.05    1.68 
   6   4   8    0.81    1.75 
  -6  -4  -8    2.62    1.81 
   6  -4   8    2.66    2.19 
  -6  -4  -8    2.78    5.06 
   6   4   8    3.57    2.88 
   6  -4   8    1.53    1.94 
  -6  -5   7   10.22    3.97 
  -6   5   7    9.10    2.68 
  -6   5   6  147.89   12.39 
  -6  -5   6  211.79   16.91 
  -6   5   6  191.60   14.88 
  -6   5   6  191.12   14.89 
  -6   5   5    2.92    1.89 
  -6  -5   5    2.54    3.87 
  -6  -5   5    0.61    4.32 
   6   5  -5   -2.32    6.42 
  -6   5   5    2.23    2.11 
  -6   5   5   -0.19    2.34 
  -6   5   4   74.95    9.69 
   6   5  -4  101.31   11.08 
  -6  -5   4   97.81   10.70 
  -6  -5   4   84.60   11.69 
  -6  -5   4  104.01   13.31 
   6   5  -4  108.08   15.30 
  -6   5   4   58.51   11.63 
  -6   5   4  102.03   11.26 
  -6   5   4  101.60   11.10 
  -6  -5   3  172.01   12.03 
  -6   5   3  208.06   14.99 
   6   5  -3  188.66   12.79 
  -6  -5   3  173.45   11.67 
  -6  -5   3  147.83   17.88 
  -6  -5   3  192.95   15.58 
   6   5  -3  208.20   16.04 
  -6   5   3  171.78   13.36 
  -6   5   3  194.35   13.01 
  -6   5   3  202.70   13.71 
   6   5  -2  309.85   20.53 
  -6  -5   2  225.52   15.32 
  -6   5   2  272.68   20.81 
   6   5  -2  310.15   20.62 
  -6   5   2  256.53   17.58 
  -6  -5   2  283.47   18.81 
  -6  -5   2  317.46   21.92 
  -6  -5   2  320.40   23.48 
   6   5  -2  321.70   23.00 
  -6   5   2  254.21   21.43 
  -6   5   2  315.24   20.97 
  -6   5   2  318.99   21.45 
   6   5  -1   35.94    3.42 
  -6  -5   1   35.63    3.39 
  -6   5   1   41.75    4.47 
   6   5  -1   36.05    3.94 
  -6   5   1   32.44    3.32 
  -6  -5   1   31.14    3.36 
  -6  -5   1   42.44    5.65 
  -6  -5   1   39.60    8.72 
   6   5  -1   39.26   10.33 
  -6   5   1   32.38    4.06 
  -6   5   1   37.58    3.60 
  -6   5   1   38.24    4.11 
   6   5   0  239.27   19.45 
  -6  -5   0  247.45   20.55 
  -6   5   0  230.40   20.14 
   6   5   0  238.03   19.41 
  -6   5   0  244.56   20.24 
  -6  -5   0  228.96   18.64 
  -6  -5   0  257.81   21.51 
  -6  -5   0  267.83   24.74 
   6   5   0  267.73   23.58 
  -6   5   0  262.70   21.80 
  -6   5   0  209.74   19.03 
  -6   5   0  253.31   21.49 
   6   5   1   95.84    8.16 
  -6  -5  -1   91.88    7.82 
  -6   5  -1   83.40    8.40 
   6   5   1   74.31    6.76 
  -6   5  -1   88.12    9.47 
  -6  -5  -1   80.98    6.92 
  -6  -5  -1   82.76   12.93 
   6   5   1   74.03   12.07 
  -6   5  -1   88.66    8.12 
  -6   5  -1   77.24    7.26 
   6  -5   1   84.48    7.08 
   6   5   2   36.27    3.19 
  -6  -5  -2   37.31    3.05 
  -6   5  -2   33.75    3.16 
   6   5   2   32.38    3.81 
  -6   5  -2   37.49    2.92 
  -6  -5  -2   27.11    2.58 
  -6  -5  -2   50.33    9.72 
   6   5   2   35.32    7.22 
  -6   5  -2   38.43    4.59 
  -6   5  -2   36.20    3.77 
   6  -5   2   27.81    2.56 
   6   5   3  196.29   13.16 
  -6  -5  -3  200.42   13.40 
  -6   5  -3  197.17   15.01 
   6   5   3  165.79   11.27 
  -6   5  -3  184.15   12.98 
  -6  -5  -3  152.02   10.81 
  -6  -5  -3  190.43   17.79 
  -6   5  -3  206.74   15.04 
   6   5   3  142.24   10.73 
  -6   5  -3  185.93   14.49 
   6  -5   3  192.38   12.85 
   6   5   4  169.15   18.34 
  -6  -5  -4  175.98   19.10 
  -6   5  -4  146.77   16.71 
   6   5   4  144.93   15.86 
  -6   5  -4  160.88   17.43 
  -6  -5  -4  147.52   15.96 
  -6  -5  -4  167.26   20.43 
  -6   5  -4  177.99   19.70 
   6   5   4  156.17   17.26 
  -6   5  -4  142.24   15.91 
   6  -5   4  163.98   17.78 
   6   5   5   27.05    5.05 
  -6  -5  -5   27.99    5.24 
   6  -5   5   29.18    5.46 
  -6   5  -5   23.52    4.34 
  -6  -5  -5   24.78    8.54 
  -6   5  -5   28.45    5.93 
   6   5   5   28.94    5.70 
  -6   5  -5   22.38    4.16 
   6  -5   5   29.43    5.46 
   6   5   6   26.44    6.50 
  -6  -5  -6   24.04    5.98 
   6  -5   6   26.72    6.56 
  -6   5  -6   21.78    5.23 
  -6  -5  -6   20.82    6.38 
  -6   5  -6   23.55    5.98 
   6   5   6   25.08    6.59 
   6  -5   6   26.17    6.40 
   6   5   7   -0.27    2.17 
  -6  -5  -7    0.86    1.92 
  -6  -5  -7    0.16    3.79 
  -6   5  -7    1.56    2.34 
   6   5   7    0.49    2.99 
   6  -5   7    1.16    1.52 
  -6   6   5   12.09    2.74 
  -6  -6   5   13.74    4.03 
   6   6  -5   11.23    3.97 
  -6   6   5   12.37    2.91 
  -6   6   5   10.49    2.75 
  -6   6   4   68.42    5.77 
   6   6  -4   68.98    5.56 
  -6  -6   4   72.76    6.40 
   6   6  -4   83.53    7.91 
  -6   6   4   54.72    4.95 
  -6   6   4   71.52    5.95 
  -6   6   4   72.51    5.87 
  -6   6   3   13.36    2.96 
   6   6  -3   13.22    3.04 
  -6  -6   3    8.33    3.27 
   6   6  -3   12.98    4.98 
  -6   6   3   11.91    2.47 
  -6   6   3   10.66    2.46 
  -6   6   3   12.10    2.91 
  -6  -6   2   46.52    2.77 
   6   6  -2   55.22    3.21 
  -6   6   2   48.66    3.22 
   6   6  -2   48.62    3.36 
  -6  -6   2   38.45    9.78 
  -6  -6   2   52.11    5.33 
   6   6  -2   43.91    8.27 
  -6   6   2   43.00    3.69 
  -6   6   2   44.83    2.94 
  -6   6   2   32.20    6.12 
   6   6  -1   37.20    8.81 
  -6  -6   1   35.25    6.25 
  -6   6   1   35.58    8.49 
   6   6  -1   40.44    3.15 
  -6   6   1   26.47    4.96 
  -6  -6   1   38.18    9.83 
  -6  -6   1   35.12    7.73 
   6   6  -1   37.78   11.05 
  -6   6   1   33.47    6.10 
   6  -6  -1   34.81    6.35 
  -6   6   1   34.97    6.61 
   6   6   0   46.52    2.91 
  -6  -6   0   50.59    3.09 
  -6   6   0   41.34    2.88 
   6   6   0   50.71    3.74 
  -6   6   0   45.07    2.96 
  -6  -6   0   36.76    9.55 
  -6  -6   0   41.26    5.05 
   6   6   0   45.52    7.07 
  -6   6   0   41.60    3.47 
   6  -6   0   50.04    3.22 
   6   6   1   28.50    5.19 
  -6  -6  -1   27.86    5.01 
  -6   6  -1   32.11    6.13 
   6   6   1   23.95    4.83 
  -6   6  -1   24.04    4.39 
  -6  -6  -1   27.01    5.58 
  -6  -6  -1   19.37    6.02 
   6   6   1   22.11    5.80 
  -6   6  -1   15.25    3.54 
  -6   6  -1   24.21    4.76 
   6  -6   1   17.41    3.47 
   6   6   2  348.42   18.77 
  -6  -6  -2  374.39   87.49 
  -6   6  -2  362.51   85.45 
   6   6   2  359.28   84.01 
  -6   6  -2  349.14   19.40 
  -6  -6  -2  359.33   84.01 
  -6  -6  -2  350.20   19.69 
  -6   6  -2  340.83   18.58 
  -6   6  -2  301.15   18.66 
   6  -6   2  352.70   19.81 
   6   6   3  188.60   14.64 
  -6  -6  -3  199.73   15.52 
  -6   6  -3  205.90   16.45 
  -6   6  -3  187.54   14.72 
  -6  -6  -3  199.80   16.13 
  -6   6  -3  198.69   17.04 
  -6   6  -3  164.63   13.41 
   6  -6   3  210.42   16.29 
   6   6   4  157.59   12.29 
  -6  -6  -4  167.22   13.05 
  -6   6  -4  164.27   13.41 
   6   6   4  143.04   11.20 
  -6   6  -4  139.69   11.13 
  -6  -6  -4  138.61   11.44 
  -6   6  -4  123.46    9.96 
   6  -6   4  122.57   12.79 
   6   6   5    4.96    1.81 
  -6  -6  -5    3.29    1.63 
   6  -6   5    4.01    1.80 
  -6   6  -5    3.24    1.30 
  -6  -6  -5    4.73    4.85 
  -6   6  -5    0.47    2.63 
   6  -6   5    3.32    1.46 
  -6   7   2   45.10    5.23 
   6   7  -2   43.59    5.30 
  -6  -7   2   43.05    5.40 
  -6   7   2   35.11    4.34 
  -6   7   1    7.83    2.16 
   6   7  -1   10.94    2.66 
  -6  -7   1    9.39    3.10 
  -6   7   1    8.39    2.40 
  -6  -7   0  150.76   16.28 
   6   7   0  144.54   15.62 
  -6   7   0  131.76   14.60 
   6   7   0  169.53   18.30 
  -6  -7   0  166.53   18.10 
  -6   7   0  121.10   13.71 
   6   7   1   77.33    8.40 
  -6  -7  -1   79.71    8.65 
  -6   7  -1   82.73    9.14 
   6   7   1   83.02    9.10 
  -6   7  -1   63.85    7.04 
  -6   7  -1   65.67    7.34 
   6  -7   1   81.85    8.88 
  -6   7  -2   42.37    4.87 
  -6   7  -2   37.64    4.22 
   6  -7   2   44.22    4.99 
  -7   0   9    4.95    5.05 
  -7   0   9    4.51    5.48 
  -7   0   8   94.72    7.66 
  -7   0   8   68.83    7.55 
  -7   0   8   97.56    9.64 
  -7   0   7  127.92   14.04 
  -7   0   7  135.47   15.72 
  -7   0   7  143.29   18.36 
  -7   0   6  320.68   21.43 
  -7   0   6  341.28   23.65 
  -7   0   6  306.61   22.62 
  -7   0   5    6.69    2.51 
  -7   0   5    5.31    5.00 
  -7   0   5   13.47    9.41 
   7   0  -4    8.85    3.70 
  -7   0   4    6.13    3.24 
   7   0  -4    5.63    4.95 
   7   0  -4    8.44    4.43 
  -7   0   4    8.49    2.79 
  -7   0   4    7.87    4.91 
  -7   0   4    6.31    9.95 
  -7   0   4    8.42    5.24 
  -7   0   3   -0.54    4.73 
  -7   0   3    3.84    3.60 
   7   0  -3   -1.74    4.10 
   7   0  -3    1.81    5.30 
   7   0  -3   -1.82    4.57 
  -7   0   3   -0.82    1.92 
  -7   0   3    1.42    2.62 
  -7   0   3    5.91    8.54 
  -7   0   3   -2.82    5.39 
  -7   0   2  844.02   53.83 
   7   0  -2  754.85   44.84 
  -7   0   2  784.53   46.88 
  -7   0   2  792.35   47.49 
   7   0  -2  863.53   55.23 
   7   0  -2  821.98   48.94 
  -7   0   2  851.47   53.98 
  -7   0   2  852.22   54.18 
  -7   0   2  862.61   56.13 
  -7   0   2  819.35   49.00 
  -7   0   1   72.39    5.55 
   7   0  -1   79.16    5.21 
  -7   0   1   89.49    7.01 
  -7   0   1   81.82    6.83 
   7   0  -1   78.38    6.07 
  -7   0   1   86.24    4.98 
  -7   0   1   77.57    5.15 
  -7   0   1   84.15    8.65 
  -7   0   1   96.79    8.70 
  -7   0   0   73.66    6.59 
   7   0   0   76.51    5.20 
  -7   0   0   77.81    6.26 
  -7   0   0   78.32    7.31 
  -7   0   0   68.84    5.51 
  -7   0   0   84.60    4.86 
  -7   0   0   76.81    4.89 
  -7   0   0   67.83    8.52 
  -7   0   0   80.94    6.24 
  -7   0   0   79.85    4.70 
  -7   0  -1  279.99   15.66 
   7   0   1  270.76   15.21 
  -7   0  -1  257.61   14.89 
  -7   0  -1  243.77   14.15 
  -7   0  -1  317.37   17.18 
  -7   0  -1  271.70   14.74 
  -7   0  -1  272.92   16.61 
  -7   0  -1  224.33   14.31 
  -7   0  -1  262.58   14.70 
  -7   0  -2    0.85    3.49 
   7   0   2    5.51    3.84 
   7   0   2    8.00    2.91 
  -7   0  -2   -2.17    4.88 
  -7   0  -2    3.64    4.94 
  -7   0  -2    2.40    5.03 
   7   0   2    4.01    1.91 
  -7   0  -2    1.48    2.97 
  -7   0  -2    2.86    2.32 
  -7   0  -2   -7.37   10.61 
  -7   0  -2   -1.59    7.85 
  -7   0  -2    2.76    2.56 
  -7   0  -3   93.14    8.20 
   7   0   3   76.55    6.24 
   7   0   3   78.30    6.28 
  -7   0  -3   77.41    6.92 
  -7   0  -3   76.06    6.37 
  -7   0  -3   80.05    6.16 
   7   0   3   74.69    5.12 
  -7   0  -3   81.43    5.68 
  -7   0  -3   77.76    5.64 
  -7   0  -3   84.11    7.84 
  -7   0  -3   74.98    5.28 
  -7   0  -4   99.85   10.47 
   7   0   4  100.59   10.18 
  -7   0  -4   92.30    9.94 
  -7   0  -4   96.64    9.83 
   7   0   4   98.14    9.30 
  -7   0  -4  104.16    9.69 
  -7   0  -4  103.51    9.81 
  -7   0  -4  105.11   11.03 
   7   0   4  117.98   12.27 
   7   0   5   -0.21    2.39 
  -7   0  -5    0.83    2.12 
  -7   0  -5    1.37    2.83 
  -7   0  -5    2.49    5.98 
   7   0   5    5.29    7.60 
   7   0   6  503.09   33.46 
  -7   0  -6  463.79   30.75 
  -7   0  -6  572.15  104.57 
  -7   0  -6  481.61   32.22 
   7   0   6  504.45   34.66 
   7   0   7  193.01   20.85 
  -7   0  -7  213.05   22.99 
   7   0   7  225.13   24.38 
  -7   0  -7  231.66   24.99 
   7   0   7  175.04   23.19 
  -7   0  -8   64.91    5.33 
   7   0   8   68.95    5.82 
  -7   0  -8   74.61    6.14 
   7   0   8   50.49    6.44 
   7   0   9    2.11    2.17 
  -7  -1   9   76.47    8.53 
  -7  -1   9   78.62    9.24 
  -7   1   9   85.82   10.31 
  -7  -1   9  101.78   12.20 
  -7  -1   8    5.34    2.82 
  -7   1   8    5.58    2.54 
  -7  -1   8    5.43    5.07 
  -7   1   8   10.65    4.75 
  -7  -1   8    7.35    4.94 
  -7   1   8   11.42    5.74 
  -7  -1   7  129.30   14.19 
  -7   1   7   98.78   11.51 
  -7  -1   7  140.95   16.69 
  -7   1   7   70.86   10.63 
  -7  -1   7  121.31   16.58 
  -7   1   7  124.52   17.17 
  -7  -1   6  150.81   10.35 
  -7   1   6  143.06    9.78 
  -7  -1   6  111.07   11.70 
  -7   1   6  158.71   12.30 
  -7  -1   6  151.93   15.86 
  -7   1   6  171.70   14.29 
  -7  -1   5  134.92   11.34 
  -7   1   5  131.49   10.87 
  -7  -1   5  130.68   14.35 
  -7   1   5  123.42   12.42 
  -7  -1   5  131.64   16.42 
  -7   1   5  121.47   15.18 
  -7  -1   5  128.90   11.95 
   7   1  -4  148.11   14.44 
  -7  -1   4  125.91   12.45 
   7   1  -4  112.40   11.54 
   7   1  -4  119.56   12.08 
  -7  -1   4  131.03   12.63 
  -7   1   4  130.07   12.19 
  -7  -1   4  124.28   13.82 
  -7   1   4  139.88   14.50 
  -7  -1   4  135.81   16.02 
  -7   1   4  135.93   14.96 
  -7  -1   4  142.46   14.45 
   7  -1  -3  108.75    8.24 
  -7  -1   3  113.01    8.55 
  -7  -1   3  100.58    7.16 
   7   1  -3  116.62    9.53 
   7  -1  -3  113.95    9.21 
   7  -1  -3  113.65    8.58 
   7   1  -3  119.04    9.46 
   7  -1  -3  102.84    8.69 
   7   1  -3  126.76    9.22 
  -7   1   3  112.29    7.44 
  -7  -1   3  122.28    8.19 
  -7  -1   3  126.09    9.17 
  -7   1   3  123.45    8.29 
  -7  -1   3  120.22    9.97 
  -7  -1   3  119.76   11.33 
  -7   1   3  108.71   10.79 
  -7   1   3  125.79    9.87 
  -7  -1   3  134.90   10.91 
  -7  -1   2  643.32   38.50 
  -7   1   2  525.85   31.69 
   7   1  -2  614.23   36.60 
  -7  -1   2  648.53   38.77 
  -7  -1   2  681.88   40.97 
  -7   1   2  713.20   42.53 
   7   1  -2  698.01   41.60 
  -7   1   2  603.38   36.09 
   7  -1  -2  635.04   37.83 
   7   1  -2  640.81   38.41 
  -7   1   2  722.91   42.80 
  -7  -1   2  747.00   44.12 
  -7  -1   2  659.85   40.47 
  -7   1   2  685.03   40.46 
  -7  -1   2  672.57   42.29 
  -7   1   2  668.86   40.48 
  -7   1   2  718.45   42.87 
  -7  -1   2  675.07   40.30 
  -7  -1   1  538.98   32.38 
  -7   1   1  483.95   29.02 
   7  -1  -1  479.78   28.61 
   7   1  -1  513.53   30.71 
  -7  -1   1  488.92   29.18 
  -7   1   1  560.24   33.67 
  -7  -1   1  468.21   28.30 
  -7   1   1  457.22   27.51 
   7   1  -1  495.20   29.93 
  -7   1   1  469.72   28.31 
  -7   1   1  550.40   32.58 
  -7  -1   1  554.16   32.80 
  -7  -1   1  472.76   28.12 
  -7   1   1  512.04   30.28 
  -7  -1   1  496.29   30.91 
  -7   1   1  506.26   30.37 
  -7  -1   1  491.58   32.30 
  -7   1   1  457.42   28.62 
  -7  -1   0  251.87   15.04 
  -7   1   0  240.69   13.75 
   7  -1   0  209.90   11.74 
   7   1   0  215.00   12.21 
  -7   1   0  249.57   15.65 
  -7  -1   0  252.42   14.97 
  -7   1   0  226.42   13.28 
  -7  -1   0  236.59   14.16 
   7   1   0  211.98   12.33 
  -7   1   0  236.16   13.42 
  -7   1   0  226.94   12.26 
  -7  -1   0  246.32   13.40 
  -7  -1   0  252.74   13.76 
  -7   1   0  228.70   12.46 
  -7  -1   0  232.96   14.94 
  -7   1   0  262.14   15.36 
  -7  -1   0  240.25   15.43 
   7   1   0  218.07   12.44 
  -7   1   0  213.77   12.74 
  -7   1  -1    4.67    4.49 
  -7  -1  -1    3.03    4.60 
   7  -1   1    3.60    2.71 
   7  -1   1    4.28    2.38 
   7   1   1    3.64    3.50 
  -7   1  -1    3.45    3.73 
  -7  -1  -1   11.46    5.14 
  -7   1  -1    4.08    5.21 
  -7  -1  -1    4.23    4.33 
  -7   1  -1    2.87    4.00 
  -7  -1  -1    2.61    4.11 
  -7   1  -1    4.32    1.66 
  -7   1  -1    3.19    1.40 
  -7  -1  -1    5.53    2.98 
  -7  -1  -1    2.86    2.30 
  -7   1  -1    4.08    1.90 
  -7  -1  -1    0.79    8.91 
  -7   1  -1    2.81    5.33 
  -7  -1  -1    8.84    5.82 
   7   1   1   -1.70    4.68 
  -7   1  -1    3.22    1.97 
  -7  -1  -2  125.30    8.83 
  -7   1  -2  118.75    8.62 
   7  -1   2  113.90    7.51 
   7  -1   2  139.05    9.07 
   7   1   2  112.90    7.81 
  -7   1  -2  128.86    8.88 
  -7  -1  -2  121.98    8.72 
  -7   1  -2  108.23    7.92 
  -7  -1  -2  120.45    8.43 
  -7   1  -2  114.85    7.85 
  -7  -1  -2  122.18    8.48 
  -7   1  -2   92.91    8.24 
  -7   1  -2  127.85    7.88 
  -7  -1  -2  126.86    8.18 
  -7  -1  -2  121.85    7.64 
  -7   1  -2  114.90    7.10 
  -7  -1  -2  131.42   16.09 
  -7   1  -2  133.97   11.43 
  -7  -1  -2  136.95    9.96 
   7   1   2  117.01    8.68 
  -7   1  -2  126.65    8.04 
  -7   1  -3    0.23    5.81 
  -7  -1  -3   -2.00    4.43 
   7  -1   3   -1.95    3.39 
   7  -1   3   -1.69    3.44 
   7   1   3    0.71    3.74 
  -7   1  -3    2.46    5.13 
  -7  -1  -3   -1.16    4.54 
  -7   1  -3    6.27    4.94 
  -7  -1  -3    2.39    5.20 
  -7   1  -3    0.92    3.01 
   7  -1   3    1.10    2.17 
  -7   1  -3   -0.67    2.02 
  -7  -1  -3   -1.40    2.03 
  -7   1  -3   -0.27    2.60 
  -7  -1  -3   -0.72    2.58 
  -7  -1  -3    2.35   10.41 
  -7   1  -3    1.94    5.58 
  -7  -1  -3   -1.60    4.82 
   7   1   3    0.05    5.05 
  -7   1  -3    0.52    2.25 
  -7  -1  -4  350.14   29.47 
   7  -1   4  336.38   28.05 
   7  -1   4  294.90   24.80 
   7   1   4  303.06   25.47 
  -7  -1  -4  318.10   27.10 
  -7   1  -4  302.52   25.60 
  -7  -1  -4  328.92   27.74 
  -7   1  -4  303.49   25.58 
  -7  -1  -4  295.06   25.09 
   7   1   4  323.42   26.78 
  -7   1  -4  349.94   28.98 
  -7  -1  -4  316.29   26.20 
  -7   1  -4  335.25   27.82 
  -7  -1  -4  332.40   27.59 
  -7  -1  -4  345.70   30.56 
  -7   1  -4  340.06   28.52 
  -7  -1  -4  336.08   28.51 
   7   1   4  307.11   26.06 
  -7   1  -4  342.82   28.59 
   7   1   5   11.78    2.45 
  -7  -1  -5   11.38    2.33 
   7  -1   5   12.63    2.26 
   7   1   5   13.69    2.55 
  -7   1  -5   12.99    2.08 
  -7  -1  -5   16.17    2.39 
  -7  -1  -5   14.37    2.95 
  -7   1  -5   13.18    2.40 
  -7  -1  -5    4.22    8.39 
  -7   1  -5   14.39    4.20 
  -7  -1  -5   10.77    3.87 
   7   1   5   13.74    5.52 
  -7   1  -5   13.87    2.60 
   7   1   6    5.95    1.95 
  -7  -1  -6    6.16    1.75 
   7  -1   6    8.07    2.18 
   7   1   6    9.32    2.35 
  -7   1  -6    7.01    1.77 
  -7  -1  -6    3.90    2.30 
  -7   1  -6   12.97    2.86 
  -7  -1  -6    7.25    3.19 
  -7  -1  -6    8.65    8.88 
  -7   1  -6   10.85    3.83 
   7  -1   6   14.58    5.17 
   7   1   6    6.30    4.57 
   7   1   7   98.23    5.69 
  -7  -1  -7   97.21    5.66 
   7  -1   7   95.80    5.69 
   7   1   7   75.06    7.54 
  -7   1  -7  104.03    6.35 
  -7  -1  -7  113.88    7.14 
  -7   1  -7   74.35    5.15 
   7  -1   7   86.19    6.59 
   7   1   7   99.50    6.89 
   7   1   8  163.70   12.88 
  -7  -1  -8  177.45   14.08 
   7  -1   8  186.99   14.61 
  -7  -1  -8  193.60   15.31 
   7  -1   8  154.52   12.77 
   7   1   8  119.48   14.83 
   7  -1   9   36.97    4.59 
  -7  -2   8   32.66    3.59 
  -7  -2   8   29.53    4.26 
  -7   2   8   19.14    5.94 
  -7  -2   8   34.04    4.93 
  -7  -2   7   63.74    4.78 
  -7  -2   7   68.90    6.74 
  -7   2   7   68.73    5.58 
  -7  -2   7   65.24    9.65 
  -7   2   7   53.32    6.00 
  -7  -2   6   40.12    7.74 
  -7  -2   6   39.26    9.78 
  -7   2   6   31.29    7.92 
  -7  -2   6   28.68   12.02 
  -7   2   6   37.80   10.85 
   7   2  -6   41.52   10.23 
  -7  -2   5   88.62    7.60 
  -7  -2   5   96.40    9.57 
  -7   2   5   86.39    8.73 
  -7  -2   5   85.01   13.87 
  -7   2   5   57.08    9.33 
   7   2  -5   88.81   11.36 
  -7  -2   4   27.45    3.48 
  -7  -2   4   25.60    6.77 
  -7  -2   4   41.04   15.03 
  -7  -2   4   31.41    5.56 
  -7  -2   3  671.08   55.87 
  -7  -2   3  603.69   55.34 
   7   2  -3  632.68   57.93 
   7   2  -3  636.47   58.17 
   7   2  -3  635.44   58.31 
   7   2  -3  667.14   55.07 
  -7  -2   3  687.12   56.72 
  -7  -2   3  715.62   59.99 
  -7  -2   3  690.32   58.03 
  -7   2   3  597.19   54.69 
  -7  -2   3  722.63   60.11 
  -7  -2   2  288.02   19.13 
  -7  -2   2  283.24   18.37 
   7   2  -2  335.02   22.00 
   7   2  -2  329.75   21.55 
   7   2  -2  343.44   22.68 
  -7   2   2  312.92   19.94 
  -7  -2   2  323.20   20.73 
  -7  -2   2  334.40   21.52 
  -7  -2   2  307.19   20.78 
  -7  -2   2  343.50   23.91 
  -7   2   2  286.85   18.70 
  -7  -2   2  298.05   20.84 
  -7   2   2  286.78   19.88 
  -7  -2   1  355.63   23.14 
   7  -2  -1  314.43   20.34 
   7   2  -1  341.78   22.52 
  -7  -2   1  350.17   22.58 
  -7   2   1  337.95   22.08 
  -7  -2   1  339.19   22.49 
   7   2  -1  360.87   23.66 
  -7   2   1  365.42   24.02 
   7   2  -1  325.79   21.37 
  -7   2   1  340.71   22.28 
  -7   2   1  346.73   25.84 
  -7   2   1  335.02   22.90 
  -7  -2   1  383.35   24.46 
  -7  -2   1  368.51   23.80 
  -7  -2   1  361.48   25.24 
  -7   2   1  385.76   25.27 
  -7  -2   1  394.61   26.17 
  -7   2   1  339.31   24.58 
  -7  -2   0   29.93    5.33 
   7  -2   0   26.94    2.96 
   7  -2   0   30.38    2.99 
  -7  -2   0   31.23    3.83 
  -7   2   0   36.22    4.88 
  -7  -2   0   34.84    4.96 
   7   2   0   34.47    7.41 
  -7   2   0   38.50    5.08 
   7   2   0   32.26    5.91 
  -7   2   0   32.41    4.72 
  -7   2   0   36.52    3.28 
  -7   2   0   36.20    2.71 
  -7  -2   0   38.79    3.43 
  -7  -2   0   40.05    3.96 
  -7  -2   0   48.90   13.32 
  -7   2   0   30.62    6.27 
  -7  -2   0   37.69    9.75 
  -7   2   0   36.32    2.95 
  -7  -2  -1  151.71   10.92 
   7  -2   1  150.77   10.05 
   7  -2   1  151.12   10.09 
   7   2   1  148.59   10.74 
  -7   2  -1  154.55   11.01 
  -7  -2  -1  162.17   11.94 
  -7   2  -1  168.66   11.96 
  -7  -2  -1  173.61   12.00 
   7   2   1  156.43   11.09 
  -7   2  -1  151.72   10.44 
  -7   2  -1  137.84   19.69 
  -7   2  -1  150.85    9.90 
  -7  -2  -1  178.40   11.82 
  -7  -2  -1  166.60   11.09 
  -7  -2  -1  178.74   15.95 
  -7   2  -1  165.49   11.53 
  -7  -2  -1  163.82   12.57 
   7   2   1  160.80   11.43 
  -7   2  -1  158.04   10.74 
  -7  -2  -2  200.95   18.84 
   7  -2   2  208.79   19.27 
   7  -2   2  215.93   19.93 
   7   2   2  217.98   20.49 
  -7   2  -2  212.11   20.07 
  -7  -2  -2  214.10   20.08 
  -7   2  -2  206.42   19.43 
  -7  -2  -2  213.21   20.53 
   7   2   2  215.03   20.14 
  -7   2  -2  236.09   21.84 
  -7   2  -2  209.64   22.31 
  -7   2  -2  244.29   23.33 
  -7  -2  -2  245.82   22.54 
  -7  -2  -2  228.81   21.08 
  -7  -2  -2  233.04   23.73 
  -7   2  -2  196.98   20.28 
  -7  -2  -2  219.38   21.98 
   7   2   2  226.70   21.66 
  -7   2  -2  188.78   18.19 
  -7  -2  -3  161.72   14.46 
   7  -2   3  160.25   13.66 
   7   2   3  159.94   14.22 
  -7  -2  -3  163.02   14.55 
   7   2   3  151.05   13.39 
  -7   2  -3  169.08   14.61 
  -7   2  -3  157.69   17.55 
  -7   2  -3  170.72   14.27 
  -7  -2  -3  179.43   15.25 
  -7  -2  -3  183.19   15.43 
  -7  -2  -3  179.56   18.97 
  -7   2  -3  200.45   17.28 
  -7  -2  -3  174.01   15.56 
   7   2   3  160.32   14.34 
  -7   2  -3  169.01   14.51 
   7  -2   3  165.05   13.70 
   7   2   4  369.78   30.60 
  -7  -2  -4  443.74   36.68 
   7  -2   4  431.49   35.67 
  -7   2  -4  420.70   34.93 
  -7  -2  -4  433.62   35.86 
  -7  -2  -4  429.88   35.69 
  -7  -2  -4  408.50   35.20 
  -7   2  -4  471.51   39.37 
  -7  -2  -4  379.65   31.90 
   7   2   4  419.91   35.35 
  -7   2  -4  434.03   36.94 
   7  -2   4  389.74   32.27 
   7   2   5    3.88    1.67 
  -7  -2  -5    3.90    2.04 
   7  -2   5    5.12    2.30 
   7   2   5    5.37    2.11 
  -7   2  -5    5.14    1.49 
  -7  -2  -5    4.64    2.32 
  -7  -2  -5    5.24    3.05 
  -7  -2  -5   -2.41    9.18 
  -7   2  -5    3.33    3.66 
  -7  -2  -5    7.23    3.93 
   7   2   5    4.82    5.85 
  -7   2  -5    6.01    2.91 
   7  -2   5    4.16    1.23 
   7   2   6   17.57    4.11 
  -7  -2  -6   15.34    3.37 
   7  -2   6   20.25    4.44 
   7   2   6   20.18    4.25 
   7   2   6   17.48    3.88 
  -7   2  -6   17.90    3.75 
  -7  -2  -6   16.98    3.81 
  -7  -2  -6   14.88   10.16 
   7  -2   6   18.26    5.48 
   7   2   6   13.79    5.68 
   7  -2   6   14.56    3.10 
   7   2   7   27.01    4.97 
  -7  -2  -7   32.44    5.95 
   7  -2   7   24.42    4.68 
   7   2   7   28.05    5.20 
  -7  -2  -7   31.06    5.86 
  -7  -2  -7   29.52    9.41 
  -7   2  -7   29.49    5.97 
   7  -2   7   28.09    5.99 
   7   2   7   28.80    7.90 
   7  -2   7   27.48    5.02 
   7   2   8   25.30    3.45 
  -7  -2  -8   29.84    3.71 
   7  -2   8   23.41    5.06 
   7   2   8   23.08    4.97 
  -7  -2  -8   26.80    3.61 
   7  -2   8   18.88    4.98 
   7   2   8   19.39    5.93 
  -7  -3   8   45.45    5.49 
  -7  -3   8   27.47    4.45 
  -7  -3   8   40.46    6.04 
  -7  -3   7  156.60   12.36 
  -7  -3   7  169.71   13.99 
  -7   3   7  153.82   12.79 
  -7  -3   7  158.86   13.15 
  -7  -3   6  137.98    8.09 
  -7  -3   6  128.36   11.50 
  -7   3   6  130.28    8.33 
  -7  -3   6  146.68   12.46 
   7   3  -6  138.71    8.88 
  -7  -3   5   25.32    3.01 
  -7  -3   5   18.65    5.64 
  -7  -3   5   22.81   10.15 
   7   3  -5    5.79    6.82 
   7   3  -4   18.03    2.46 
  -7  -3   4   25.49    3.09 
  -7  -3   4   26.70    5.07 
  -7  -3   4   37.12   12.60 
   7   3  -4   36.16    9.21 
  -7   3   3   66.61    6.00 
   7   3  -3   49.89    4.92 
  -7  -3   3   72.23    6.68 
  -7  -3   3   72.70    7.73 
  -7  -3   3   75.34   13.42 
  -7  -3   3   81.54    9.66 
  -7   3   3   57.94    5.45 
  -7   3   3   60.31    5.34 
  -7   3   2  563.13   50.31 
   7   3  -2  598.36   49.48 
  -7   3   2  559.23   46.32 
  -7  -3   2  542.46   44.97 
  -7  -3   2  620.16   51.80 
  -7  -3   2  652.20   54.73 
  -7   3   2  485.85   41.14 
  -7  -3   2  603.95   50.59 
  -7   3   2  513.14   45.97 
  -7   3   2  472.70   44.85 
  -7  -3   1  306.21   25.76 
   7  -3  -1  237.25   20.00 
   7   3  -1  283.85   24.45 
  -7  -3   1  294.16   24.53 
   7   3  -1  293.95   24.92 
   7   3  -1  317.97   27.02 
   7   3  -1  295.59   25.24 
  -7   3   1  278.36   25.09 
   7   3  -1  316.63   26.32 
  -7   3   1  319.41   26.50 
  -7  -3   1  321.15   26.60 
  -7  -3   1  295.39   25.63 
  -7  -3   1  307.32   28.41 
  -7   3   1  340.19   28.45 
  -7  -3   1  321.04   27.87 
  -7   3   1  278.84   24.33 
  -7   3   1  303.35   26.07 
  -7  -3   0  238.51   20.31 
   7  -3   0  230.78   19.39 
   7   3   0  228.46   19.55 
  -7  -3   0  238.55   20.03 
  -7  -3   0  230.59   19.68 
   7   3   0  218.87   18.86 
   7   3   0  232.80   20.02 
  -7   3   0  198.11   17.00 
  -7   3   0  235.31   21.73 
  -7   3   0  250.44   20.94 
  -7  -3   0  251.98   21.02 
  -7  -3   0  254.38   21.17 
  -7  -3   0  261.09   26.87 
  -7   3   0  265.73   22.45 
  -7  -3   0  241.42   20.94 
  -7   3   0  228.63   20.50 
  -7  -3  -1   82.82    8.34 
   7  -3   1   70.81    6.48 
   7  -3   1   69.45    6.44 
   7   3   1   90.00    8.76 
  -7  -3  -1   79.26    7.54 
  -7  -3  -1   88.12    9.37 
   7   3   1   86.83    9.92 
   7   3   1   85.63    9.35 
  -7   3  -1   80.75    8.35 
  -7   3  -1   78.91    8.35 
  -7   3  -1   81.87    7.05 
  -7  -3  -1   88.95    7.98 
  -7  -3  -1   86.99    7.61 
  -7  -3  -1   82.96   13.12 
  -7   3  -1   89.67    8.46 
  -7  -3  -1   92.52   10.11 
  -7   3  -1   84.77    8.03 
  -7   3  -2   56.60    6.40 
  -7   3  -2   67.09    5.83 
  -7  -3  -2   61.82    6.09 
  -7  -3  -2   64.88    6.09 
  -7  -3  -2   69.60   15.09 
  -7   3  -2   76.72    8.49 
   7   3   2   61.13    7.27 
  -7   3  -2   67.24    6.46 
   7  -3   2   61.15    5.32 
   7   3   3  254.34   20.66 
  -7  -3  -3  280.50   22.79 
  -7   3  -3  239.49   22.96 
  -7   3  -3  264.32   21.56 
  -7  -3  -3  252.03   20.51 
  -7  -3  -3  275.88   22.53 
  -7  -3  -3  270.52   25.66 
  -7   3  -3  271.11   22.74 
  -7  -3  -3  271.71   22.65 
   7   3   3  265.36   22.22 
  -7   3  -3  270.93   22.42 
   7  -3   3  271.06   22.00 
   7   3   4   24.11    2.75 
  -7  -3  -4   28.02    3.16 
  -7   3  -4   25.98    3.13 
   7   3   4   22.34    2.90 
  -7   3  -4   29.33    2.57 
  -7  -3  -4   31.72    3.14 
  -7  -3  -4   26.07   17.16 
  -7   3  -4   23.77    4.99 
  -7  -3  -4   26.29    4.29 
   7   3   4   36.71    5.24 
  -7   3  -4   26.86    2.91 
   7  -3   4   26.94    2.47 
   7   3   5   24.71    4.96 
  -7  -3  -5   29.17    5.61 
   7  -3   5   24.56    5.20 
   7   3   5   25.16    5.01 
  -7   3  -5   24.98    4.86 
  -7  -3  -5   26.58    9.23 
  -7  -3  -5   30.45   15.41 
  -7   3  -5   21.26    5.94 
   7   3   5   26.50    6.79 
  -7   3  -5   26.19    5.25 
   7  -3   5   21.74    4.23 
   7   3   6   37.92    9.10 
  -7  -3  -6   41.03    3.03 
   7  -3   6   40.68    3.08 
  -7   3  -6   35.07    6.29 
  -7  -3  -6   36.96    9.14 
  -7  -3  -6   39.22   10.70 
  -7   3  -6   34.90    6.58 
   7   3   6   37.08    9.46 
  -7   3  -6   30.82    5.68 
   7  -3   6   27.19    5.03 
   7   3   7   47.11    4.11 
  -7  -3  -7   54.29    4.70 
   7  -3   7   43.44    3.97 
  -7  -3  -7   48.75    4.35 
  -7  -3  -7   53.27    6.17 
  -7   3  -7   43.44    4.53 
   7  -3   7   37.18    4.82 
   7   3   7   47.35    5.79 
   7  -3   7   46.54    3.92 
   7  -3   8   31.05    6.28 
  -7  -3  -8   57.32    6.51 
   7   3   8   48.58    6.41 
  -7  -4   7   23.98    5.19 
  -7  -4   7   23.41    5.88 
  -7  -4   7   18.32    5.63 
  -7  -4   6  170.50   13.42 
  -7  -4   6  181.77   15.94 
   7   4  -6  185.58   14.94 
  -7   4   6  176.02   13.71 
  -7  -4   5   72.52    4.53 
  -7  -4   5   39.34    7.18 
  -7  -4   5   75.91    7.41 
   7   4  -5   40.16   10.38 
  -7   4   5   61.29    3.98 
  -7   4   4   62.86    7.74 
   7   4  -4  102.37   11.20 
  -7  -4   4  116.33   13.35 
  -7  -4   4  107.57   14.26 
   7   4  -4  124.10   16.57 
  -7   4   4  116.83   12.66 
  -7   4   4  105.25   11.49 
  -7   4   3    0.49    1.36 
   7   4  -3    2.10    2.33 
  -7  -4   3    3.35    5.52 
  -7  -4   3   -4.47    8.54 
   7   4  -3    3.43   10.78 
  -7   4   3    1.58    1.32 
  -7   4   3   -0.38    1.98 
  -7   4   2   25.99    2.52 
   7   4  -2   30.21    3.17 
  -7   4   2   25.65    2.23 
  -7  -4   2   29.12    2.88 
  -7  -4   2   28.77    6.29 
  -7  -4   2   32.52    8.10 
   7   4  -2   30.34   11.50 
  -7   4   2   22.99    2.38 
  -7   4   2   26.27    2.55 
  -7   4   1  222.06   20.46 
   7   4  -1  238.48   19.47 
  -7   4   1  240.17   19.64 
  -7  -4   1  242.14   19.77 
  -7  -4   1  191.86   18.05 
  -7  -4   1  228.75   20.88 
  -7   4   1  246.06   20.41 
  -7  -4   1  242.49   20.60 
  -7   4   1  221.08   19.92 
  -7   4   1  219.11   21.01 
  -7   4   0   62.44    6.12 
   7   4   0   77.07    6.75 
  -7   4   0   71.63    6.15 
  -7  -4   0   77.98    6.65 
  -7  -4   0   83.56   11.31 
  -7   4   0   63.27    6.85 
  -7  -4   0   67.86    8.19 
  -7   4   0   53.94    5.72 
  -7  -4  -1  101.31    8.33 
  -7   4  -1   85.72    9.06 
   7   4   1   91.53    8.66 
  -7   4  -1  110.65    9.19 
  -7  -4  -1  110.17    9.38 
  -7  -4  -1  126.87   15.86 
  -7   4  -1   96.60   11.70 
  -7  -4  -1  105.09    9.75 
  -7   4  -1   99.79    9.11 
   7   4   2  163.45   11.39 
  -7  -4  -2  160.17   10.93 
  -7   4  -2  156.59   14.02 
   7   4   2  155.16   10.95 
  -7   4  -2  171.33   11.65 
  -7  -4  -2  176.55   15.15 
  -7   4  -2  168.72   12.46 
  -7  -4  -2  153.07   11.90 
  -7   4  -2  159.38   12.31 
   7   4   3  167.94   11.44 
  -7  -4  -3  177.17   11.90 
  -7   4  -3  170.71   14.12 
   7   4   3  171.08   11.80 
  -7   4  -3  168.26   11.37 
  -7  -4  -3  136.92   15.39 
  -7   4  -3  190.66   13.22 
  -7  -4  -3  151.82   11.32 
   7   4   3  162.57   11.78 
  -7   4  -3  158.73   11.53 
   7  -4   3  155.91   10.85 
   7   4   4    6.11    2.35 
  -7  -4  -4    1.74    1.93 
  -7   4  -4    3.47    2.17 
   7   4   4    3.49    2.58 
  -7   4  -4    2.88    1.44 
  -7  -4  -4    9.91    9.01 
  -7   4  -4    5.22    3.34 
   7   4   4    3.11    3.58 
  -7   4  -4    2.68    1.82 
   7  -4   4    4.25    1.92 
   7   4   5   27.18    5.22 
  -7  -4  -5   27.11    5.13 
   7  -4   5   34.15    6.19 
   7   4   5   18.99    4.09 
  -7   4  -5   26.83    4.92 
  -7  -4  -5   27.69    5.25 
  -7  -4  -5   24.16   10.43 
  -7   4  -5   30.37    5.79 
   7   4   5   29.67    5.94 
  -7   4  -5   26.57    5.06 
   7  -4   5   31.72    5.68 
   7   4   6    4.84    2.19 
  -7  -4  -6    3.14    2.06 
   7  -4   6    5.24    2.43 
  -7   4  -6    3.16    1.55 
  -7  -4  -6    2.41    1.99 
  -7  -4  -6    6.62    5.75 
  -7   4  -6    3.81    3.00 
   7   4   6    2.82    3.23 
  -7   4  -6    3.42    1.85 
   7  -4   6    5.01    1.75 
   7  -4   7   19.96    4.38 
  -7  -4  -7   22.30    6.24 
   7   4   7   25.37    4.02 
  -7  -5   5   84.54    9.61 
  -7  -5   5   72.11    9.23 
   7   5  -5   49.46    6.81 
  -7   5   5   62.74    6.99 
  -7   5   4   -0.41    1.58 
  -7  -5   4   -1.09    2.34 
  -7  -5   4   -5.17    4.12 
   7   5  -4   -0.37    5.48 
  -7   5   4    1.40    1.91 
  -7   5   3   10.84    2.37 
   7   5  -3   13.41    3.30 
  -7  -5   3    9.42    2.98 
  -7  -5   3   12.45    3.92 
  -7  -5   3   12.28    6.77 
   7   5  -3    9.90    5.76 
  -7   5   3   11.00    2.62 
  -7   5   3   12.56    2.71 
  -7   5   3    8.43    2.43 
  -7   5   2   26.19    4.79 
   7   5  -2   23.43    4.60 
  -7  -5   2   23.94    4.50 
  -7  -5   2   27.07    6.42 
  -7  -5   2   26.45    7.90 
   7   5  -2   29.69    8.37 
  -7   5   2   25.21    4.65 
  -7   5   2   25.98    4.82 
  -7   5   1   47.07    9.16 
   7   5  -1   53.72   10.14 
  -7   5   1   46.55    8.62 
  -7  -5   1   50.71    9.51 
  -7  -5   1   33.89    7.69 
  -7  -5   1   53.53   12.51 
   7   5  -1   39.99   11.73 
  -7   5   1   46.69    8.92 
  -7   5   0   39.17    7.50 
   7   5   0   42.79    8.26 
  -7   5   0   39.28    7.35 
  -7  -5   0   36.39    6.99 
  -7  -5   0   41.57    8.39 
  -7  -5   0   59.61   13.82 
   7   5   0   45.87   10.57 
  -7   5   0   47.04    9.07 
  -7   5   0   40.15    7.64 
   7   5   1  176.05   18.98 
  -7  -5  -1  133.75   14.49 
  -7   5  -1  166.71   19.33 
   7   5   1  175.85   19.18 
  -7   5  -1  173.79   18.84 
  -7  -5  -1  170.48   18.41 
  -7  -5  -1  181.49   20.91 
   7   5   1  177.53   20.52 
  -7   5  -1  142.66   19.23 
  -7   5  -1  163.84   18.53 
   7   5   2   39.49    2.59 
  -7  -5  -2   41.38    2.63 
  -7   5  -2   39.70    3.12 
   7   5   2   41.60    4.03 
  -7   5  -2   43.52    2.74 
  -7  -5  -2   34.19    6.27 
  -7  -5  -2   34.49    9.15 
   7   5   2   41.61    5.31 
  -7   5  -2   40.57    3.69 
  -7   5  -2   39.23    3.06 
   7  -5   2   43.26    2.80 
   7   5   3   37.40    8.87 
  -7  -5  -3   33.19    5.99 
  -7   5  -3   30.10    5.56 
   7   5   3   29.31    5.60 
  -7   5  -3   34.14    6.06 
  -7  -5  -3   29.12    5.47 
  -7  -5  -3   35.43   11.61 
  -7   5  -3   28.80    6.43 
  -7   5  -3   29.89    5.67 
   7  -5   3   34.04    6.16 
   7   5   4   30.60    3.02 
  -7  -5  -4   30.93    3.03 
   7   5   4   28.27    6.93 
  -7   5  -4   29.45    2.74 
  -7  -5  -4   36.57    6.57 
  -7   5  -4   32.64    3.93 
   7   5   4   28.38    7.18 
  -7   5  -4   24.34    6.01 
   7  -5   4   31.07    2.75 
   7   5   5  121.39   13.14 
  -7  -5  -5  130.38   14.09 
   7  -5   5  117.19   12.75 
  -7   5  -5  102.11   11.04 
  -7  -5  -5  127.77   14.52 
  -7   5  -5   96.77   10.76 
  -7   5  -5  100.34   11.08 
   7  -5   5  109.11   11.79 
  -7   6   3    8.26    2.09 
  -7  -6   3    7.77    3.09 
   7   6  -3    3.37    4.49 
  -7   6   2   46.56    5.51 
   7   6  -2   53.63    6.08 
  -7  -6   2   53.17    6.29 
   7   6  -2   31.68    6.86 
  -7   6   2   47.50    5.38 
  -7   6   1    7.04    2.36 
   7   6  -1   11.17    3.25 
  -7  -6   1   17.19    5.79 
   7   6  -1    3.55    3.93 
  -7   6   1   11.00    2.96 
  -7   6   0   31.75    3.30 
   7   6   0   34.37    4.00 
  -7   6   0   27.23    6.48 
  -7  -6   0   33.62    5.25 
   7   6   0   19.04    6.28 
  -7   6   0   25.02    6.30 
  -7  -6  -1   86.76    9.43 
  -7   6  -1   49.91    8.32 
  -7   6  -1   85.21    9.35 
  -7  -6  -1   98.81   11.46 
  -7   6  -1   89.29   10.23 
   7  -6   1  100.38   10.88 
  -7   6  -2   29.02    3.78 
   7   6   2   21.86    5.22 
  -7   6  -2   24.27    5.09 
  -7  -6  -2   31.58    5.18 
  -7   6  -2   21.17    4.72 
   7  -6   2   28.66    3.46 
  -7   6  -3   38.65    4.63 
  -7   6  -3   30.02    3.46 
  -7  -6  -3   34.55    5.40 
  -7   6  -3   29.50    3.70 
   7  -6   3   38.23    4.32 
  -8   0   7    1.45    2.13 
  -8   0   7    3.30    3.75 
  -8   0   7    2.52    4.89 
  -8   0   6   74.97    4.86 
  -8   0   6   56.47    5.43 
  -8   0   6   73.88    8.83 
  -8   0   5  207.42   22.45 
  -8   0   5  196.93   23.15 
  -8   0   4   25.18    2.69 
  -8   0   4   27.37   10.12 
  -8   0   4   29.34    4.92 
  -8   0   3  201.25   16.37 
  -8   0   3  213.66   17.40 
  -8   0   3  220.28   20.19 
  -8   0   3  195.37   16.88 
  -8   0   2   80.85    7.13 
  -8   0   2   83.83    7.48 
  -8   0   2   87.76   10.93 
  -8   0   2   81.17    8.86 
  -8   0   1  304.22   25.16 
  -8   0   1  265.18   22.29 
  -8   0   1  290.86   25.30 
  -8   0   1  320.93   27.39 
  -8   0   0   79.13    6.85 
  -8   0   0   79.62    7.27 
  -8   0   0   84.26   13.03 
  -8   0   0   90.58   10.88 
  -8   0  -1  119.28   10.09 
  -8   0  -1  119.45   10.35 
  -8   0  -1  121.93   12.42 
  -8   0  -1  129.27   12.27 
  -8   0  -2  116.65    9.69 
  -8   0  -2  107.86    9.09 
  -8   0  -2  122.07   11.17 
   8   0   2  137.10   12.58 
  -8   0  -3  146.56   12.20 
  -8   0  -3  128.68   12.77 
  -8   0  -3  149.38   13.13 
   8   0   3  126.19   12.36 
   8   0   4  153.87   10.47 
  -8   0  -4  173.94   11.71 
  -8   0  -4  183.42   12.37 
  -8   0  -4  180.14   12.83 
   8   0   4  172.09   12.85 
   8   0   5    1.46    2.62 
  -8   0  -5   -1.47    1.95 
  -8   0  -5    1.24    2.10 
  -8   0  -5    1.89    4.98 
   8   0   5   -0.96    5.65 
   8   0   6    7.43    2.24 
  -8   0  -6    8.52    2.30 
  -8   0  -6    9.01    2.53 
  -8   0  -6    6.48    3.60 
   8   0   6    8.14    4.25 
   8   0   7  102.49    8.24 
  -8   0  -7   91.99    7.44 
   8   0   7   98.43    9.71 
  -8  -1   8   35.52    6.16 
  -8  -1   7   16.48    4.72 
  -8  -1   7   12.69    4.54 
  -8  -1   7   11.09    5.29 
  -8   1   7    8.45    6.01 
  -8  -1   6   54.24    4.09 
  -8   1   6   42.11    3.19 
  -8  -1   6   46.64    4.66 
  -8  -1   6   46.31    8.35 
  -8   1   6   35.83    9.75 
  -8  -1   5   21.37    4.88 
  -8   1   5   24.78    5.25 
  -8  -1   5   25.79    7.41 
  -8  -1   5   20.51   10.48 
  -8   1   5   29.67    8.85 
   8   1  -5   21.69    7.54 
  -8  -1   4   27.36    3.31 
  -8   1   4   27.04    2.92 
  -8  -1   4   31.53   10.89 
  -8   1   4   34.88    6.48 
  -8  -1   4   20.83    4.74 
  -8  -1   3   67.09    5.86 
  -8  -1   3   64.50    5.95 
  -8   1   3   62.19    5.51 
  -8  -1   3   75.77   12.19 
  -8   1   3   59.89    8.13 
  -8   1   3   47.63    6.47 
  -8  -1   3   65.17    7.13 
  -8   1   2   68.81    5.88 
  -8  -1   2   73.09    6.55 
  -8  -1   2   66.69    6.16 
  -8   1   2   70.03    6.06 
  -8  -1   2   61.40    9.51 
  -8   1   2   71.47    9.40 
  -8  -1   2   71.25    9.27 
  -8   1   1  175.76   14.74 
  -8  -1   1  181.29   15.29 
  -8  -1   1  176.62   14.91 
  -8   1   1  163.44   13.77 
  -8  -1   1  190.84   18.03 
  -8   1   1  140.26   12.84 
  -8  -1   1  163.92   14.99 
  -8   1   1  146.39   12.81 
  -8   1   0  145.78   12.21 
  -8  -1   0  125.68   10.73 
  -8  -1   0   86.70    7.83 
  -8   1   0  123.34   10.44 
  -8  -1   0  133.95   15.25 
  -8   1   0  135.11   12.90 
  -8  -1   0  124.25   13.01 
  -8   1   0  119.60   10.24 
  -8   1  -1  205.70   17.11 
  -8  -1  -1  195.34   16.54 
  -8  -1  -1  193.78   16.38 
  -8   1  -1  159.73   13.47 
  -8  -1  -1  187.41   19.97 
  -8   1  -1  163.15   14.65 
  -8  -1  -1  172.51   15.21 
   8   1   1  151.88   13.54 
  -8   1  -1  173.89   14.73 
   8  -1   2   34.85    3.93 
  -8   1  -2   55.55    4.90 
  -8  -1  -2   58.12    5.25 
  -8  -1  -2   51.91    5.72 
  -8   1  -2   51.17    4.70 
  -8  -1  -2   56.77   11.88 
  -8   1  -2   46.38    6.55 
  -8  -1  -2   50.09    6.78 
   8   1   2   46.06    6.86 
  -8   1  -2   55.04    4.98 
   8  -1   3  128.71   10.72 
  -8   1  -3  155.16   12.76 
  -8  -1  -3  147.01   12.09 
  -8  -1  -3  154.54   13.12 
  -8   1  -3  120.17   12.15 
  -8  -1  -3  143.30   14.43 
  -8   1  -3  169.70   15.36 
  -8  -1  -3  140.03   12.34 
   8   1   3  142.00   12.66 
  -8   1  -3  150.25   14.52 
   8  -1   4   40.87    3.36 
  -8   1  -4   46.96    3.58 
  -8  -1  -4   44.16    3.75 
  -8  -1  -4   46.86    4.23 
  -8   1  -4   39.99    3.30 
  -8  -1  -4   36.41    7.55 
  -8   1  -4   28.79    5.45 
  -8  -1  -4   47.81    5.10 
   8   1   4   22.87    7.11 
   8  -1   5  128.54   14.08 
  -8  -1  -5  115.72   12.70 
  -8  -1  -5  129.28   14.14 
  -8   1  -5  122.17   13.30 
  -8   1  -5  108.27   13.85 
  -8  -1  -5  106.38   12.06 
   8  -1   5  138.53   15.68 
   8   1   5  121.87   14.25 
   8   1   6   15.23    3.34 
  -8   1  -6   16.68    3.27 
  -8  -1  -6   19.53    3.95 
  -8  -1  -6   18.95    4.42 
  -8   1  -6   20.78    4.05 
  -8   1  -6   14.13    3.61 
   8  -1   6   16.10    4.88 
   8   1   6   10.90    4.33 
   8  -1   7   16.26    3.71 
  -8  -1  -7   18.59    4.52 
   8  -1   7   18.21    5.32 
   8   1   7   21.51    5.68 
  -8  -2   7   66.05    7.59 
  -8  -2   7   66.08    8.12 
  -8  -2   7   60.62    7.87 
  -8  -2   6   28.20    6.95 
  -8  -2   6   24.73    7.03 
  -8  -2   6   33.11    6.23 
  -8  -2   5   81.86    5.10 
  -8  -2   5   91.90    6.32 
  -8  -2   5   99.75    9.67 
   8   2  -5   93.23    7.37 
  -8  -2   4   99.44   10.94 
  -8  -2   4  102.50   12.53 
  -8  -2   4   88.03   13.18 
  -8  -2   4   98.33   11.53 
   8   2  -3  194.82   13.11 
  -8  -2   3  201.11   13.55 
  -8  -2   3  189.66   17.31 
  -8  -2   3  205.39   15.29 
  -8   2   2  236.94   19.24 
  -8  -2   2  211.68   17.52 
  -8  -2   2  252.42   25.06 
  -8   2   2  238.54   19.79 
  -8  -2   2  222.34   19.61 
  -8   2   1  146.07   11.98 
  -8  -2   1  131.18   11.17 
  -8  -2   1  137.74   11.46 
  -8  -2   1  133.71   15.01 
  -8   2   1  111.60   10.50 
  -8  -2   1  151.02   14.98 
  -8   2   1  117.65   10.15 
  -8   2   0   17.79    2.10 
  -8   2   0   26.17    2.77 
  -8  -2   0   21.28    3.16 
  -8  -2   0   20.92    3.01 
  -8  -2   0   21.26   12.96 
  -8   2   0   27.06    5.57 
  -8  -2   0   15.11    5.50 
  -8   2   0   21.61    3.21 
  -8   2  -1    9.91    2.31 
  -8   2  -1   20.17    2.46 
  -8  -2  -1   20.66    3.62 
  -8  -2  -1   18.65    3.60 
  -8  -2  -1   18.68   10.45 
  -8   2  -1   30.78    7.61 
  -8  -2  -1   18.12    5.81 
  -8   2  -1   17.92    2.48 
   8  -2   2   31.46    3.07 
  -8   2  -2   38.47    3.50 
  -8  -2  -2   34.07    3.62 
  -8  -2  -2   33.47    3.66 
  -8  -2  -2   42.58   10.35 
  -8   2  -2   35.93    6.59 
  -8  -2  -2   33.02    5.10 
   8   2   2   21.36    4.55 
  -8   2  -2   37.08    3.69 
   8  -2   3   36.49    3.07 
  -8   2  -3   37.79    3.05 
  -8  -2  -3   41.79    3.93 
  -8  -2  -3   37.50    3.81 
  -8  -2  -3   37.50   11.42 
  -8   2  -3   37.80    5.12 
  -8  -2  -3   32.73    6.00 
   8   2   3   32.90    4.93 
  -8   2  -3   33.75    3.34 
   8  -2   4   40.97    8.06 
  -8   2  -4   51.53    9.57 
  -8  -2  -4   44.72    8.48 
  -8  -2  -4   43.12    8.18 
  -8  -2  -4   52.59   15.07 
  -8   2  -4   53.45   10.55 
  -8  -2  -4   50.22   10.44 
  -8   2  -4   47.71    8.98 
   8  -2   5   21.23    6.60 
  -8   2  -5   51.60    3.19 
  -8  -2  -5   49.65    3.67 
  -8  -2  -5   54.88    7.17 
  -8   2  -5   47.83    4.07 
   8  -2   5   50.81    4.95 
   8   2   5   39.72    4.11 
   8  -2   6  148.33   11.66 
  -8   2  -6  158.90   12.45 
  -8  -2  -6  179.67   14.05 
  -8  -2  -6  161.76   13.58 
  -8   2  -6  156.46   12.48 
   8  -2   6  159.23   13.25 
   8   2   6  201.35   16.80 
   8  -2   7   36.93    5.45 
  -8  -2  -7   52.09    7.21 
   8  -2   7   52.33    7.20 
   8   2   7   59.11    7.13 
  -8  -3   6  180.42   19.57 
  -8  -3   6  125.16   15.84 
  -8  -3   6  181.38   20.17 
  -8  -3   5   14.65    4.00 
  -8  -3   5   12.08    4.20 
  -8  -3   5   10.02    5.43 
   8   3  -5    9.08    5.16 
  -8  -3   4   11.61    3.38 
  -8  -3   4   10.58    3.60 
  -8  -3   4   10.58    8.04 
   8   3  -4    4.53    7.20 
   8   3  -3   18.64    4.15 
  -8  -3   3   15.46    3.81 
  -8  -3   3   28.89    6.48 
  -8  -3   3   24.06   10.73 
   8   3  -2    6.68    2.52 
  -8   3   2   10.91    1.53 
  -8  -3   2   10.75    2.40 
  -8  -3   2    6.61    8.50 
  -8  -3   2    4.84    5.21 
  -8   3   2    8.13    1.74 
  -8   3   1   42.48    3.54 
   8   3  -1   43.11    4.09 
  -8   3   1   43.81    3.46 
  -8  -3   1   50.49    4.09 
  -8  -3   1   49.97   10.61 
  -8   3   1   33.84    4.12 
  -8  -3   1   45.16    5.68 
  -8   3   1   37.79    3.43 
   8   3   0   77.77    6.22 
  -8   3   0   76.44    5.32 
  -8  -3   0   76.30    5.66 
  -8  -3   0   77.70   12.51 
  -8   3   0   81.12    6.70 
  -8  -3   0   77.04    7.40 
  -8   3   0   67.27    5.06 
  -8   3  -1   49.56    4.49 
   8   3   1   45.46    4.12 
  -8   3  -1   51.55    3.82 
  -8  -3  -1   53.00    4.73 
  -8  -3  -1   52.94    9.50 
  -8   3  -1   55.54    5.65 
  -8  -3  -1   51.82    5.82 
  -8   3  -1   51.18    4.02 
  -8   3  -2   26.83    6.43 
   8   3   2   33.91    7.01 
  -8   3  -2   47.57    8.82 
  -8  -3  -2   41.57    8.18 
  -8  -3  -2   42.97   12.70 
  -8   3  -2   55.72   11.11 
  -8   3  -2   45.25    8.55 
   8  -3   3  102.88   11.21 
   8   3   3  100.88   11.47 
  -8   3  -3  102.67   11.18 
  -8  -3  -3   95.91   10.82 
  -8  -3  -3   81.73   15.49 
  -8   3  -3  117.94   13.67 
  -8  -3  -3   86.73   10.43 
   8   3   3   90.21   10.48 
  -8   3  -3   97.63   10.87 
   8  -3   4    3.80    1.75 
   8   3   4    1.23    2.14 
  -8   3  -4    3.82    1.40 
  -8  -3  -4    8.88    3.32 
  -8  -3  -4    3.41    8.29 
  -8   3  -4    0.86    3.35 
   8   3   4    1.72    3.51 
  -8   3  -4    4.16    3.16 
   8  -3   5    5.09    2.43 
   8   3   5    2.11    2.54 
  -8   3  -5    3.64    2.00 
  -8  -3  -5    2.94    2.37 
  -8  -3  -5   -0.73    5.29 
  -8   3  -5    4.89    3.31 
  -8   3  -5    4.49    2.28 
   8  -3   6   22.79    4.91 
  -8  -3  -6   20.01    4.46 
  -8  -3  -6   20.92    5.83 
  -8   3  -6   20.11    4.90 
   8  -3   6   18.37    5.81 
   8   3   6   14.58    4.74 
  -8  -4   5   35.59    4.58 
  -8  -4   5   37.11    5.32 
  -8  -4   5   43.39    6.40 
   8   4  -5   33.67    5.54 
  -8  -4   4   35.75    4.46 
  -8  -4   4   47.72    6.34 
   8   4  -4   44.98    5.81 
   8   4  -3  162.82    9.01 
  -8  -4   3  138.60    9.85 
  -8  -4   3  171.71   11.28 
   8   4  -3  169.11   11.42 
  -8   4   2    1.85    1.75 
  -8  -4   2    2.59    2.46 
  -8  -4   2   -1.57    8.32 
   8   4  -2   -6.78    7.74 
  -8   4   2    2.13    1.60 
  -8   4   1    1.81    1.95 
   8   4  -1    3.48    2.46 
  -8   4   1    0.50    1.40 
  -8  -4   1    1.20    2.19 
  -8  -4   1    2.76   10.80 
   8   4  -1   -1.56    9.35 
  -8   4   1   -0.37    1.81 
  -8   4   0    2.62    1.73 
   8   4   0    2.47    2.57 
  -8   4   0    6.21    1.56 
  -8  -4   0    8.47    3.03 
  -8  -4   0    0.55    9.00 
  -8   4   0    5.69    3.49 
  -8   4   0    5.24    1.86 
  -8   4  -1    1.32    1.63 
   8   4   1    4.32    3.09 
  -8   4  -1    3.85    1.72 
  -8  -4  -1    2.18    2.30 
  -8  -4  -1    4.78   10.34 
  -8   4  -1    3.07    2.66 
  -8  -4  -1    2.09    3.55 
  -8   4  -1    2.09    1.84 
   8  -4   1    3.66    1.33 
  -8   4  -2   42.88    3.44 
   8   4   2   50.56    4.22 
  -8   4  -2   48.49    3.07 
  -8  -4  -2   50.94    3.40 
  -8  -4  -2   50.24   10.09 
  -8   4  -2   54.04    4.15 
  -8   4  -2   42.16    3.01 
   8  -4   2   44.46    2.94 
   8   4   3   30.59    3.64 
  -8   4  -3   30.47    2.66 
  -8  -4  -3   30.65    3.34 
  -8  -4  -3   36.06    6.69 
  -8   4  -3   34.56    4.63 
  -8   4  -3   25.91    6.49 
   8  -4   4   17.90    5.02 
   8   4   4   28.38    7.04 
  -8   4  -4   29.67    2.85 
  -8  -4  -4   32.75    5.66 
  -8   4  -4   29.21    4.52 
  -8   4  -4   28.32    6.85 
   8  -4   5    2.49    2.03 
  -8   4  -5    3.74    1.48 
  -8  -4  -5    2.76    1.79 
  -8  -4  -5    3.78    3.96 
  -8   4  -5    1.60    2.82 
  -8   4  -5    1.28    1.73 
   8   5  -3   62.35    8.00 
  -8   5   2   25.61    3.20 
   8   5  -2   33.44    4.09 
  -8  -5   2   34.35    5.88 
   8   5  -2   32.21    6.12 
  -8   5   2   23.46    4.85 
  -8   5   1   19.68    4.92 
   8   5  -1   21.68    5.52 
  -8   5   1   11.58    2.94 
  -8  -5   1   16.31    4.37 
  -8  -5   1   18.99    5.97 
   8   5  -1   10.03    6.39 
  -8   5   1   16.57    4.14 
  -8   5   0   28.78    3.05 
   8   5   0   38.67    3.72 
  -8   5   0   25.10    6.00 
  -8  -5   0   37.56    3.49 
  -8  -5   0   35.93    5.50 
   8   5   0   44.23    5.29 
  -8   5   0   33.88    3.37 
   8  -5   0   38.95    3.40 
  -8   5  -1    9.62    2.92 
   8   5   1   13.50    4.48 
  -8   5  -1   11.39    2.89 
  -8  -5  -1   11.23    3.31 
  -8  -5  -1   12.37    5.18 
   8   5   1   14.05    5.92 
  -8   5  -1   13.16    4.29 
  -8   5  -1   11.76    3.19 
  -8   5  -2   21.08    4.57 
   8   5   2   18.69    4.36 
  -8   5  -2   19.15    4.03 
  -8   5  -2   22.57    5.46 
  -8   5  -2   16.16    3.64 
   8  -5   3   43.02    5.84 
   8   5   3   56.89    6.42 
  -8   5  -3   44.31    5.69 
  -8  -5  -3   60.74    7.84 
  -8   5  -3   57.14    6.92 
  -8   5  -3   54.12    6.31 
  -9   0   5  109.94    8.91 
  -9   0   5   97.15    8.98 
  -9   0   4   48.61    3.94 
  -9   0   4   42.48    5.63 
  -9   0   3  115.31   12.72 
  -9   0   3  109.27   13.55 
  -9   0   3  109.34   12.55 
  -9   0   2  136.20   15.26 
  -9   0   2  162.90   17.68 
  -9   0   2  148.12   17.48 
  -9   0   2  154.04   17.08 
  -9   0   1  357.30   61.83 
  -9   0   1  205.26   27.37 
  -9   0   1  320.76   35.09 
  -9   0   0   44.95    8.72 
  -9   0   0   24.88    5.20 
  -9   0   0   37.72    9.07 
  -9   0  -1    0.07    2.40 
  -9   0  -1    2.18    2.47 
  -9   0  -1   -0.58    4.07 
  -9   0  -2   75.27    8.33 
  -9   0  -2   87.87    9.79 
  -9   0  -2   95.68   11.38 
   9   0   2   87.71   10.40 
  -9   0  -3   11.66    3.18 
  -9   0  -3    9.63    2.61 
  -9   0  -3    8.62    3.59 
   9   0   3    5.45    4.03 
  -9   0  -4   24.50    4.77 
  -9   0  -4   27.10    5.18 
  -9   0  -4   22.37    4.99 
   9   0   4   23.52    5.47 
  -9   0  -5    2.23    1.93 
  -9   0  -5    4.48    2.40 
  -9   0  -5    1.66    3.70 
   9   0   5    5.16    4.78 
   9   0   6    8.10    4.17 
  -9  -1   6  108.39   11.89 
  -9  -1   6  111.99   13.07 
  -9  -1   5   11.38    3.35 
  -9  -1   5   10.99    4.95 
  -9  -1   4   24.33    4.85 
  -9  -1   4   28.92    6.98 
  -9  -1   4   23.27    5.01 
  -9  -1   3    4.12    2.27 
  -9  -1   3    3.64    5.87 
  -9   1   3    3.75    3.33 
  -9  -1   3    2.01    3.23 
  -9   1   2  169.69   18.38 
  -9  -1   2  165.41   17.98 
  -9  -1   2  146.96   17.11 
  -9   1   2  167.49   18.10 
  -9  -1   2  170.48   20.29 
  -9   1   2  159.99   17.70 
  -9  -1   2  169.99   18.92 
  -9   1   1   85.03    9.35 
  -9  -1   1   86.58    9.57 
  -9  -1   1   79.01    9.35 
  -9   1   1   64.44    7.19 
  -9  -1   1   96.59   14.09 
  -9   1   1   85.74    9.99 
  -9  -1   1   85.70   11.30 
  -9   1   0   54.86   10.35 
  -9  -1   0   45.35    8.76 
  -9  -1   0   38.45    7.80 
  -9   1   0   34.18    6.59 
  -9  -1   0   56.92   12.40 
  -9   1   0   30.74    8.93 
  -9  -1   0   49.62   10.15 
  -9   1  -1   55.03   10.36 
  -9  -1  -1   53.73   10.13 
  -9  -1  -1   47.91    9.32 
  -9   1  -1   46.44    8.68 
  -9  -1  -1   58.26   12.55 
  -9   1  -1   50.20   10.57 
  -9  -1  -1   45.05    9.90 
   9  -1   1   54.03   10.56 
  -9   1  -2   64.53    7.37 
  -9  -1  -2   62.70    7.14 
  -9  -1  -2   58.20   10.96 
  -9   1  -2   60.54    6.88 
  -9  -1  -2   57.47   12.52 
  -9   1  -2   71.42    9.30 
  -9  -1  -2   62.36    8.09 
   9  -1   2   42.64    9.33 
   9   1   2   58.90   11.31 
  -9   1  -3   47.52    3.15 
  -9  -1  -3   46.36    3.80 
  -9  -1  -3   48.74    3.91 
  -9   1  -3   50.42    4.38 
  -9  -1  -3   47.50    4.21 
   9  -1   3   46.21    4.53 
   9   1   3   35.36    7.58 
  -9   1  -4   14.12    3.94 
  -9  -1  -4   13.00    3.62 
  -9  -1  -4   13.98    4.44 
  -9   1  -4   13.08    4.81 
  -9  -1  -4   12.98    4.29 
   9  -1   4   12.13    4.60 
   9   1   4    7.94    4.51 
  -9   1  -5   17.69    3.93 
  -9  -1  -5   19.50    4.38 
  -9  -1  -5   16.97    3.97 
   9  -1   5   17.77    5.79 
   9   1   5   20.37    5.94 
   9  -1   6   75.36   10.51 
   9   1   6  133.56   15.10 
  -9  -2   5   48.91    5.73 
  -9  -2   5   51.97    8.05 
  -9  -2   4  114.51    9.13 
  -9  -2   4  120.66   10.59 
   9   2  -4  117.70   10.15 
  -9  -2   3   88.22    5.59 
  -9  -2   3   84.71    9.24 
  -9  -2   3   83.17    6.19 
   9   2  -2   25.61    5.02 
  -9  -2   2   27.42    5.25 
  -9  -2   2   32.47   10.35 
  -9   2   2   28.26    5.89 
  -9  -2   2   27.69    7.46 
   9   2  -1  128.98    7.50 
  -9   2   1  174.46    9.77 
  -9  -2   1  178.98    9.93 
  -9  -2   1  175.45   13.39 
  -9   2   1  165.18   10.26 
  -9  -2   1  203.39   12.29 
  -9   2   0   46.37    8.66 
  -9  -2   0   43.77    8.43 
  -9  -2   0   43.08    8.20 
  -9  -2   0   52.00   11.79 
  -9   2   0   44.47    8.80 
  -9  -2   0   49.24   10.05 
  -9   2   0   43.17    8.15 
  -9   2  -1   37.49    9.00 
  -9  -2  -1   32.97    6.35 
  -9  -2  -1   30.57    5.71 
  -9  -2  -1   35.47   10.33 
  -9   2  -1   35.59    9.69 
  -9  -2  -1   30.09    6.64 
  -9   2  -1   18.92    3.98 
  -9   2  -2   16.51    3.40 
  -9  -2  -2   14.71    3.89 
  -9  -2  -2   14.10    3.31 
  -9  -2  -2   20.09    7.39 
  -9   2  -2   17.28    4.67 
  -9  -2  -2    9.08    4.14 
  -9   2  -2   15.58    3.36 
  -9   2  -3   72.13    4.32 
  -9  -2  -3   77.59    4.76 
  -9  -2  -3   78.68    4.84 
  -9  -2  -3   71.82    6.72 
  -9   2  -3   79.01    5.25 
  -9  -2  -3   72.35    5.24 
   9  -2   4   59.32    5.03 
   9   2   4   56.33    5.08 
  -9   2  -4   63.49    5.20 
  -9  -2  -4   66.61    5.67 
  -9  -2  -4   63.54    6.24 
  -9   2  -4   68.85    6.62 
  -9  -2  -4   50.66    5.39 
   9  -2   4   55.76    6.71 
   9   2   4   80.64    7.87 
  -9   2  -5    2.75    1.95 
  -9  -2  -5    2.90    2.12 
  -9   2  -5    1.54    3.03 
   9  -2   5    2.44    4.09 
   9   2   5    0.59    3.31 
  -9  -3   5   69.12    7.79 
  -9  -3   5   76.70    9.46 
  -9  -3   4   16.77    4.08 
  -9  -3   4   14.74    5.00 
   9   3  -4   13.73    5.11 
  -9  -3   3   14.08    3.87 
  -9  -3   3   15.22    6.11 
   9   3  -3   15.38    7.05 
   9   3  -2   72.43    5.95 
  -9  -3   2   70.11    6.16 
  -9  -3   2   76.35    7.95 
   9   3  -2   77.90    8.25 
   9   3  -1   19.81    5.17 
  -9   3   1   31.31    2.98 
  -9  -3   1   31.10    3.78 
  -9  -3   1   32.99    7.17 
  -9  -3   1   35.58    4.48 
   9   3   0   19.73    4.10 
  -9   3   0   17.35    3.53 
  -9  -3   0   17.82    3.85 
  -9  -3   0   17.22    6.90 
  -9   3   0   16.55    5.01 
  -9  -3   0   20.11    5.50 
  -9   3   0   16.39    3.32 
   9   3   1   28.33    7.34 
  -9   3  -1   30.46    3.25 
  -9  -3  -1   21.91    5.95 
  -9  -3  -1   34.25    6.17 
  -9   3  -1   31.40    4.03 
  -9  -3  -1   29.64    4.26 
  -9   3  -1   21.57    5.37 
   9  -3   2    5.12    1.97 
   9   3   2    6.81    3.02 
  -9   3  -2    7.72    2.69 
  -9  -3  -2    8.58    2.89 
  -9  -3  -2   -0.42    4.86 
  -9   3  -2    4.10    3.70 
  -9  -3  -2    6.70    3.94 
  -9   3  -2    6.64    2.39 
   9  -3   3   92.61    7.38 
   9   3   3   81.65    7.07 
  -9   3  -3  101.12    8.00 
  -9  -3  -3   92.63    7.64 
  -9  -3  -3   92.45    8.27 
  -9   3  -3  100.41    8.54 
  -9  -3  -3   89.74    8.21 
  -9   3  -3   92.24    7.48 
   9   3   4   43.49    5.23 
  -9   3  -4   45.24    5.12 
  -9  -3  -4   40.93    5.49 
  -9  -3  -4   44.35    6.00 
  -9   3  -4   48.80    6.30 
   9  -3   4   36.53    5.63 
  -9  -4   3    2.64    3.59 
   9   4  -3    3.54    5.30 
  -9  -4   2   25.18    3.34 
  -9  -4   2   24.35    6.60 
   9   4  -2   28.65    5.33 
   9   4  -1   50.94    5.90 
  -9  -4   1   51.54    5.83 
  -9  -4   1   49.09    6.53 
   9   4  -1   54.15    8.67 
   9   4   0    3.08    2.17 
  -9   4   0    3.73    1.66 
  -9  -4   0    1.32    2.10 
  -9  -4   0    4.31    4.75 
   9   4   0    2.47    5.95 
  -9   4   0    3.62    1.74 
   9   4   1   55.45    6.50 
  -9   4  -1   57.09    6.41 
  -9  -4  -1   52.99    6.09 
  -9  -4  -1   58.90    8.44 
   9   4   1   46.61    7.46 
  -9   4  -1   47.55    5.48 
   9   4   2   88.75    9.95 
  -9   4  -2  109.78   11.92 
  -9  -4  -2  118.87   13.43 
  -9   4  -2  103.53   11.62 
  -9   4  -2   85.75    9.59 
 -10   0   2   20.02    4.44 
 -10   0   2   22.84    5.51 
 -10   0   1   51.39    4.48 
 -10   0   1   48.30    4.22 
 -10   0   1   54.62    5.39 
 -10   0   0  262.88   20.38 
 -10   0   0  266.15   20.64 
 -10   0   0  258.05   20.39 
 -10   0  -1   15.38    4.25 
 -10   0  -1   16.19    4.23 
 -10   0  -1   10.90    4.72 
 -10   0  -2   97.13   10.84 
 -10   0  -2   92.97   10.20 
 -10   0  -2   96.06   11.03 
 -10   0  -3   54.48    6.19 
 -10   0  -3   42.25    5.83 
 -10  -1   3   39.85    4.78 
 -10  -1   2   73.98    8.28 
 -10  -1   2   74.96    8.95 
  10   1  -1   77.70    8.62 
 -10   1   1   66.26    7.34 
 -10  -1   1   83.72    9.30 
 -10   1   1   83.57    9.53 
 -10  -1   1   76.41    9.15 
 -10   1   0    3.77    1.92 
 -10   1   0    4.84    3.26 
 -10  -1   0    2.72    4.18 
 -10   1  -1   25.93    3.49 
 -10  -1  -1   19.12    4.68 
 -10  -1  -1   19.28    4.41 
 -10   1  -1   19.15    5.85 
 -10  -1  -1   22.43    5.70 
 -10   1  -2   34.77    4.25 
 -10  -1  -2   30.27    4.05 
 -10  -1  -2   31.94    3.94 
 -10   1  -2   29.40    4.96 
 -10  -1  -2   32.35    5.01 
 -10   1  -3   72.55    8.08 
 -10   1  -3   57.70    7.44 
 -10  -1  -3   65.80    8.17 
 -10  -2   2   49.93    5.81 
  10   2  -2   57.70    7.96 
  10   2  -1   56.81    6.52 
 -10  -2   1   56.31    6.98 
 -10  -2   1   68.15    8.59 
 -10  -2   1   56.99    8.09 
  10   2   0    5.71    2.65 
 -10   2   0    6.87    2.10 
 -10   2   0    9.08    3.55 
 -10  -2   0    8.18    4.03 
  10   2   1   22.43    4.94 
 -10   2  -1   25.54    3.29 
 -10  -2  -1   26.30    3.52 
 -10   2  -1   20.35    5.45 
 -10  -2  -1   21.80    5.79 
  10   2   2   13.07    3.29 
 -10   2  -2   15.78    3.49 
 -10  -2  -2   11.52    3.13 
 -10   2  -2   13.60    4.27 
 -10  -2  -2   13.85    4.50 
  
_computing_structure_solution     'SHELXT 2014/4 (Sheldrick, 2014)' 
;
_shelx_hkl_checksum              6764
loop_
_space_group_symop_operation_xyz
'x, y, z'
'-x, y+1/2, -z'
loop_
_atom_site_label
_atom_site_type_symbol
_atom_site_fract_x
_atom_site_fract_y
_atom_site_fract_z
_atom_site_U_iso_or_equiv
_atom_site_adp_type
_atom_site_occupancy
_atom_site_site_symmetry_order
_atom_site_calc_flag
_atom_site_refinement_flags_posn
_atom_site_refinement_flags_adp
O1 O 0.03456(14) 0.43117(19) 0.30009(12) 0.0311(3) Uani 1 1 d . .
O2 O 0.16724(14) 0.58863(17) 0.45009(11) 0.0291(3) Uani 1 1 d . .
O3 O 0.55207(15) 0.82435(17) 0.18421(12) 0.0316(3) Uani 1 1 d . .
N1 N 0.3355(2) 0.1755(2) 0.45931(16) 0.0328(4) Uani 1 1 d . .
C1 C 0.3931(2) 0.2579(2) 0.37897(18) 0.0251(4) Uani 1 1 d . .
C2 C 0.4672(2) 0.3663(2) 0.27770(16) 0.0222(4) Uani 1 1 d . .
C3 C 0.6418(2) 0.3728(3) 0.30188(17) 0.0269(4) Uani 1 1 d . .
H3A H 0.6663 0.3789 0.3960 0.032 Uiso 1 1 calc R U
H3B H 0.6922 0.2642 0.2643 0.032 Uiso 1 1 calc R U
C4 C 0.6909(2) 0.5475(3) 0.23264(18) 0.0290(4) Uani 1 1 d . .
H4A H 0.7746 0.6079 0.2816 0.035 Uiso 1 1 calc R U
H4B H 0.7266 0.5191 0.1440 0.035 Uiso 1 1 calc R U
C5 C 0.5522(2) 0.6705(2) 0.22625(16) 0.0228(4) Uani 1 1 d . .
C6 C 0.41766(19) 0.5702(2) 0.28598(15) 0.0202(4) Uani 1 1 d . .
H6 H 0.4183 0.6027 0.3804 0.024 Uiso 1 1 calc R U
C7 C 0.25449(19) 0.6120(2) 0.23360(16) 0.0214(4) Uani 1 1 d . .
C8 C 0.2373(2) 0.5297(2) 0.09554(16) 0.0238(4) Uani 1 1 d . .
H8 H 0.3195 0.5864 0.0427 0.029 Uiso 1 1 calc R U
C9 C 0.2692(2) 0.3240(2) 0.09576(17) 0.0251(4) Uani 1 1 d . .
H9A H 0.1965 0.2617 0.1536 0.030 Uiso 1 1 calc R U
H9B H 0.2544 0.2749 0.0068 0.030 Uiso 1 1 calc R U
C10 C 0.4311(2) 0.2851(2) 0.14220(17) 0.0245(4) Uani 1 1 d . .
H10A H 0.5032 0.3363 0.0786 0.029 Uiso 1 1 calc R U
H10B H 0.4469 0.1511 0.1453 0.029 Uiso 1 1 calc R U
C11 C 0.13992(19) 0.5297(2) 0.32800(17) 0.0231(4) Uani 1 1 d . .
C12 C 0.0663(2) 0.5175(3) 0.54837(18) 0.0352(5) Uani 1 1 d . .
H12A H -0.0396 0.5308 0.5186 0.053 Uiso 1 1 calc R U
H12B H 0.0814 0.5858 0.6295 0.053 Uiso 1 1 calc R U
H12C H 0.0887 0.3879 0.5634 0.053 Uiso 1 1 calc R U
C13 C 0.2229(2) 0.8195(2) 0.23320(18) 0.0271(4) Uani 1 1 d . .
H13A H 0.1132 0.8409 0.2242 0.041 Uiso 1 1 calc R U
H13B H 0.2756 0.8765 0.1602 0.041 Uiso 1 1 calc R U
H13C H 0.2600 0.8731 0.3150 0.041 Uiso 1 1 calc R U
C14 C 0.0873(2) 0.5747(3) 0.02473(18) 0.0327(5) Uani 1 1 d . .
H14A H 0.0024 0.5203 0.0719 0.049 Uiso 1 1 calc R U
H14B H 0.0896 0.5250 -0.0637 0.049 Uiso 1 1 calc R U
H14C H 0.0742 0.7076 0.0208 0.049 Uiso 1 1 calc R U
loop_
_atom_site_aniso_label
_atom_site_aniso_U_11
_atom_site_aniso_U_22
_atom_site_aniso_U_33
_atom_site_aniso_U_23
_atom_site_aniso_U_13
_atom_site_aniso_U_12
O1 0.0216(7) 0.0344(7) 0.0373(7) -0.0012(6) 0.0004(6) -0.0060(6)
O2 0.0286(7) 0.0317(7) 0.0272(6) -0.0036(5) 0.0073(5) -0.0053(6)
O3 0.0288(7) 0.0251(7) 0.0410(7) 0.0048(6) 0.0054(6) -0.0017(6)
N1 0.0361(10) 0.0298(8) 0.0325(9) 0.0056(7) -0.0007(8) -0.0014(7)
C1 0.0251(9) 0.0220(9) 0.0281(9) -0.0006(8) -0.0050(8) 0.0036(7)
C2 0.0221(10) 0.0216(9) 0.0230(8) 0.0021(7) 0.0002(7) 0.0017(7)
C3 0.0223(10) 0.0272(9) 0.0312(9) 0.0013(8) -0.0017(8) 0.0047(7)
C4 0.0206(9) 0.0317(10) 0.0347(9) 0.0029(8) 0.0025(8) 0.0019(8)
C5 0.0217(9) 0.0246(9) 0.0219(8) -0.0033(7) 0.0003(7) -0.0004(7)
C6 0.0196(9) 0.0205(9) 0.0204(8) -0.0014(7) -0.0002(7) 0.0007(7)
C7 0.0185(9) 0.0198(8) 0.0259(9) -0.0013(7) -0.0005(7) 0.0007(7)
C8 0.0218(9) 0.0251(9) 0.0243(8) 0.0009(8) -0.0014(7) -0.0010(8)
C9 0.0268(10) 0.0250(9) 0.0234(8) -0.0050(7) -0.0003(7) -0.0012(8)
C10 0.0266(10) 0.0205(9) 0.0265(9) -0.0033(7) 0.0014(7) 0.0041(8)
C11 0.0197(10) 0.0194(8) 0.0301(9) -0.0015(8) -0.0002(7) 0.0055(8)
C12 0.0355(12) 0.0388(11) 0.0316(10) -0.0009(9) 0.0127(9) -0.0045(9)
C13 0.0241(9) 0.0211(9) 0.0361(9) 0.0003(8) 0.0007(8) 0.0027(8)
C14 0.0307(11) 0.0327(10) 0.0345(10) -0.0009(9) -0.0097(8) 0.0013(9)
loop_
_atom_type_symbol
_atom_type_description
_atom_type_scat_dispersion_real
_atom_type_scat_dispersion_imag
_atom_type_scat_source
C C 0.0181 0.0091 'International Tables Vol C Tables 4.2.6.8 and 6.1.1.4'
H H 0.0000 0.0000 'International Tables Vol C Tables 4.2.6.8 and 6.1.1.4'
N N 0.0311 0.0180 'International Tables Vol C Tables 4.2.6.8 and 6.1.1.4'
O O 0.0492 0.0322 'International Tables Vol C Tables 4.2.6.8 and 6.1.1.4'
loop_
_geom_angle_atom_site_label_1
_geom_angle_atom_site_label_2
_geom_angle_atom_site_label_3
_geom_angle
C11 O2 C12 115.60(14)
N1 C1 C2 178.97(19)
C1 C2 C10 110.15(15)
C1 C2 C3 110.48(13)
C10 C2 C3 110.31(14)
C1 C2 C6 110.58(14)
C10 C2 C6 111.35(13)
C3 C2 C6 103.83(13)
C4 C3 C2 103.60(13)
C4 C3 H3A 111.0
C2 C3 H3A 111.0
C4 C3 H3B 111.0
C2 C3 H3B 111.0
H3A C3 H3B 109.0
C5 C4 C3 106.56(15)
C5 C4 H4A 110.4
C3 C4 H4A 110.4
C5 C4 H4B 110.4
C3 C4 H4B 110.4
H4A C4 H4B 108.6
O3 C5 C4 124.50(17)
O3 C5 C6 126.56(17)
C4 C5 C6 108.90(15)
C5 C6 C7 118.77(14)
C5 C6 C2 102.68(13)
C7 C6 C2 115.25(14)
C5 C6 H6 106.4
C7 C6 H6 106.4
C2 C6 H6 106.4
C11 C7 C13 105.61(14)
C11 C7 C8 111.82(14)
C13 C7 C8 111.40(14)
C11 C7 C6 108.30(13)
C13 C7 C6 111.03(14)
C8 C7 C6 108.65(13)
C9 C8 C14 111.62(15)
C9 C8 C7 111.43(14)
C14 C8 C7 115.16(15)
C9 C8 H8 106.0
C14 C8 H8 106.0
C7 C8 H8 106.0
C10 C9 C8 110.82(14)
C10 C9 H9A 109.5
C8 C9 H9A 109.5
C10 C9 H9B 109.5
C8 C9 H9B 109.5
H9A C9 H9B 108.1
C9 C10 C2 113.03(14)
C9 C10 H10A 109.0
C2 C10 H10A 109.0
C9 C10 H10B 109.0
C2 C10 H10B 109.0
H10A C10 H10B 107.8
O1 C11 O2 122.73(17)
O1 C11 C7 126.42(16)
O2 C11 C7 110.79(14)
O2 C12 H12A 109.5
O2 C12 H12B 109.5
H12A C12 H12B 109.5
O2 C12 H12C 109.5
H12A C12 H12C 109.5
H12B C12 H12C 109.5
C7 C13 H13A 109.5
C7 C13 H13B 109.5
H13A C13 H13B 109.5
C7 C13 H13C 109.5
H13A C13 H13C 109.5
H13B C13 H13C 109.5
C8 C14 H14A 109.5
C8 C14 H14B 109.5
H14A C14 H14B 109.5
C8 C14 H14C 109.5
H14A C14 H14C 109.5
H14B C14 H14C 109.5
loop_
_geom_bond_atom_site_label_1
_geom_bond_atom_site_label_2
_geom_bond_distance
O1 C11 1.205(2)
O2 C11 1.346(2)
O2 C12 1.450(2)
O3 C5 1.206(2)
N1 C1 1.146(2)
C1 C2 1.468(3)
C2 C10 1.544(2)
C2 C3 1.551(2)
C2 C6 1.556(2)
C3 C4 1.528(3)
C3 H3A 0.9900
C3 H3B 0.9900
C4 C5 1.515(3)
C4 H4A 0.9900
C4 H4B 0.9900
C5 C6 1.527(2)
C6 C7 1.555(2)
C6 H6 1.0000
C7 C11 1.531(3)
C7 C13 1.543(2)
C7 C8 1.548(2)
C8 C9 1.530(2)
C8 C14 1.532(2)
C8 H8 1.0000
C9 C10 1.521(2)
C9 H9A 0.9900
C9 H9B 0.9900
C10 H10A 0.9900
C10 H10B 0.9900
C12 H12A 0.9800
C12 H12B 0.9800
C12 H12C 0.9800
C13 H13A 0.9800
C13 H13B 0.9800
C13 H13C 0.9800
C14 H14A 0.9800
C14 H14B 0.9800
C14 H14C 0.9800
loop_
_geom_torsion_atom_site_label_1
_geom_torsion_atom_site_label_2
_geom_torsion_atom_site_label_3
_geom_torsion_atom_site_label_4
_geom_torsion
C1 C2 C3 C4 -155.82(14)
C10 C2 C3 C4 82.16(17)
C6 C2 C3 C4 -37.24(17)
C2 C3 C4 C5 24.34(18)
C3 C4 C5 O3 175.65(16)
C3 C4 C5 C6 -2.14(18)
O3 C5 C6 C7 33.0(2)
C4 C5 C6 C7 -149.27(14)
O3 C5 C6 C2 161.48(16)
C4 C5 C6 C2 -20.78(17)
C1 C2 C6 C5 153.98(13)
C10 C2 C6 C5 -83.21(16)
C3 C2 C6 C5 35.47(15)
C1 C2 C6 C7 -75.37(17)
C10 C2 C6 C7 47.4(2)
C3 C2 C6 C7 166.13(13)
C5 C6 C7 C11 -167.29(14)
C2 C6 C7 C11 70.31(17)
C5 C6 C7 C13 -51.8(2)
C2 C6 C7 C13 -174.18(14)
C5 C6 C7 C8 71.06(18)
C2 C6 C7 C8 -51.34(18)
C11 C7 C8 C9 -62.34(19)
C13 C7 C8 C9 179.75(15)
C6 C7 C8 C9 57.13(19)
C11 C7 C8 C14 66.10(19)
C13 C7 C8 C14 -51.8(2)
C6 C7 C8 C14 -174.43(15)
C14 C8 C9 C10 168.89(15)
C7 C8 C9 C10 -60.8(2)
C8 C9 C10 C2 56.0(2)
C1 C2 C10 C9 74.37(19)
C3 C2 C10 C9 -163.41(15)
C6 C2 C10 C9 -48.7(2)
C12 O2 C11 O1 3.4(3)
C12 O2 C11 C7 -179.34(14)
C13 C7 C11 O1 112.0(2)
C8 C7 C11 O1 -9.3(2)
C6 C7 C11 O1 -128.99(18)
C13 C7 C11 O2 -65.15(17)
C8 C7 C11 O2 173.53(13)
C6 C7 C11 O2 53.85(17)
