#------------------------------------------------------------------------------
#$Date: 2019-11-25 21:29:44 +0200 (Mon, 25 Nov 2019) $
#$Revision: 241858 $
#$URL: file:///home/coder/svn-repositories/cod/cif/4/13/16/4131686.cif $
#------------------------------------------------------------------------------
#
# This file is available in the Crystallography Open Database (COD),
# http://www.crystallography.net/
#
# All data on this site have been placed in the public domain by the
# contributors.
#
data_4131686
loop_
_publ_author_name
'Jordan, Robert S.'
'Li, Yolanda L.'
'Lin, Cheng-Wei'
'McCurdy, Ryan D.'
'Lin, Janice B.'
'Brosmer, Jonathan L.'
'Marsh, Kristofer L.'
'Khan, Saeed I.'
'Houk, K. N.'
'Kaner, Richard B.'
'Rubin, Yves'
_publ_section_title
;
 Synthesis of N = 8 Armchair Graphene Nanoribbons from Four Distinct
 Polydiacetylenes.
;
_journal_issue                   44
_journal_name_full               'Journal of the American Chemical Society'
_journal_page_first              15878
_journal_page_last               15890
_journal_paper_doi               10.1021/jacs.7b08800
_journal_volume                  139
_journal_year                    2017
_chemical_formula_moiety         'C20 H16 N2 O2'
_chemical_formula_sum            'C20 H16 N2 O2'
_chemical_formula_weight         316.35
_space_group_crystal_system      triclinic
_space_group_IT_number           2
_space_group_name_Hall           '-P 1'
_space_group_name_H-M_alt        'P -1'
_atom_sites_solution_hydrogens   mixed
_audit_creation_method           SHELXL-2014/6
_cell_angle_alpha                92.536(3)
_cell_angle_beta                 92.576(3)
_cell_angle_gamma                95.768(3)
_cell_formula_units_Z            1
_cell_length_a                   4.8473(10)
_cell_length_b                   5.1990(10)
_cell_length_c                   15.806(3)
_cell_measurement_reflns_used    1294
_cell_measurement_temperature    100(2)
_cell_measurement_theta_max      30.18
_cell_measurement_theta_min      2.58
_cell_volume                     395.43(13)
_computing_cell_refinement       'Bruker SAINT'
_computing_data_collection       'Bruker APEX2'
_computing_data_reduction        'Bruker SAINT'
_computing_molecular_graphics    'Bruker SHELXTL'
_computing_publication_material  'Bruker SHELXTL'
_computing_structure_refinement  'SHELXL-2014/6 (Sheldrick, 2014)'
_computing_structure_solution    'SHELXS-97 (Sheldrick 2008)'
_diffrn_ambient_temperature      100(2)
_diffrn_detector_area_resol_mean 8.3333
_diffrn_measured_fraction_theta_full 0.989
_diffrn_measured_fraction_theta_max 0.915
_diffrn_measurement_device_type  'Bruker APEX-II CCD'
_diffrn_measurement_method       '\f and \w scans'
_diffrn_radiation_type           MoK\a
_diffrn_radiation_wavelength     0.71073
_diffrn_reflns_av_R_equivalents  0.0247
_diffrn_reflns_av_unetI/netI     0.0386
_diffrn_reflns_Laue_measured_fraction_full 0.989
_diffrn_reflns_Laue_measured_fraction_max 0.915
_diffrn_reflns_limit_h_max       6
_diffrn_reflns_limit_h_min       -6
_diffrn_reflns_limit_k_max       7
_diffrn_reflns_limit_k_min       -7
_diffrn_reflns_limit_l_max       21
_diffrn_reflns_limit_l_min       -21
_diffrn_reflns_number            5096
_diffrn_reflns_point_group_measured_fraction_full 0.989
_diffrn_reflns_point_group_measured_fraction_max 0.915
_diffrn_reflns_theta_full        25.242
_diffrn_reflns_theta_max         30.501
_diffrn_reflns_theta_min         2.583
_diffrn_source                   'Sealed Mo X-Ray Tube'
_exptl_absorpt_coefficient_mu    0.087
_exptl_absorpt_correction_T_max  0.75
_exptl_absorpt_correction_T_min  0.61
_exptl_absorpt_correction_type   multi-scan
_exptl_absorpt_process_details   'SADABS V2014/2 (Bruker AXS Inc.)'
_exptl_crystal_colour            'light green'
_exptl_crystal_density_diffrn    1.328
_exptl_crystal_description       platelet
_exptl_crystal_F_000             166
_exptl_crystal_size_max          0.200
_exptl_crystal_size_mid          0.100
_exptl_crystal_size_min          0.040
_refine_diff_density_max         0.316
_refine_diff_density_min         -0.255
_refine_diff_density_rms         0.051
_refine_ls_extinction_method     none
_refine_ls_goodness_of_fit_ref   1.043
_refine_ls_hydrogen_treatment    mixed
_refine_ls_matrix_type           full
_refine_ls_number_parameters     113
_refine_ls_number_reflns         2209
_refine_ls_number_restraints     0
_refine_ls_restrained_S_all      1.043
_refine_ls_R_factor_all          0.0702
_refine_ls_R_factor_gt           0.0443
_refine_ls_shift/su_max          0.000
_refine_ls_shift/su_mean         0.000
_refine_ls_structure_factor_coef Fsqd
_refine_ls_weighting_details
'w=1/[\s^2^(Fo^2^)+(0.0468P)^2^+0.1346P] where P=(Fo^2^+2Fc^2^)/3'
_refine_ls_weighting_scheme      calc
_refine_ls_wR_factor_gt          0.1015
_refine_ls_wR_factor_ref         0.1107
_reflns_Friedel_coverage         0.000
_reflns_number_gt                1623
_reflns_number_total             2209
_reflns_threshold_expression     'I > 2\s(I)'
_cod_data_source_file            ja7b08800_si_003.cif
_cod_data_source_block           mo_yr1706s
_cod_original_cell_volume        395.43(14)
_cod_database_code               4131686
_shelx_space_group_comment
; 
The symmetry employed for this shelxl refinement is uniquely defined 
by the following loop, which should always be used as a source of 
symmetry information in preference to the above space-group names. 
They are only intended as comments. 
;
_shelx_estimated_absorpt_t_min   0.983
_shelx_estimated_absorpt_t_max   0.997
_shelxl_version_number           2014/6
_shelx_res_file
; 
TITL mo_yr1706s in P-1 
CELL 0.71073   4.84730   5.19900  15.80600  92.5365  92.5761  95.7676 
ZERR    1.00   0.00100   0.00100   0.00310   0.0026   0.0027   0.0027 
LATT 1 
SFAC C  H  N  O 
UNIT 20 16 2 2 
L.S. 10 
BOND $H 
FMAP 2 
PLAN 5 
acta 
size .2 .1 .04 
rem light green platelets 
TEMP -173 
WGHT    0.046800    0.134600 
FVAR       0.36553 
O1    4    0.581063    0.603212    0.125048    11.00000    0.01139    0.04592 = 
         0.02745    0.01164    0.00159    0.00526 
N1    3    0.141669    0.482986    0.163584    11.00000    0.00806    0.02020 = 
         0.01837    0.00324   -0.00212    0.00136 
H1N   2   -0.031222    0.497052    0.152404    11.00000   -1.20000 
C1    1    0.893225    0.454922    0.471252    11.00000    0.01401    0.01906 = 
         0.01896    0.00334    0.00220    0.00227 
C2    1    0.707090    0.373631    0.421269    11.00000    0.01419    0.01869 = 
         0.01859    0.00361    0.00118    0.00227 
C3    1    0.484727    0.278830    0.361495    11.00000    0.01079    0.01776 = 
         0.01676   -0.00057   -0.00029    0.00239 
C4    1    0.320434    0.047485    0.374031    11.00000    0.01696    0.01808 = 
         0.01847    0.00302   -0.00019    0.00237 
AFIX  43 
H4    2    0.359285   -0.051825    0.421350    11.00000   -1.20000 
AFIX   0 
C5    1    0.100785   -0.035505    0.316906    11.00000    0.01559    0.01651 = 
         0.02345    0.00199    0.00058   -0.00115 
AFIX  43 
H5    2   -0.012095   -0.191186    0.325842    11.00000   -1.20000 
AFIX   0 
C6    1    0.043284    0.105737    0.246741    11.00000    0.01185    0.01807 = 
         0.01944   -0.00203   -0.00120    0.00056 
AFIX  43 
H6    2   -0.107821    0.047144    0.208004    11.00000   -1.20000 
AFIX   0 
C7    1    0.209338    0.334274    0.233681    11.00000    0.01093    0.01716 = 
         0.01602    0.00043    0.00018    0.00340 
C8    1    0.428915    0.420818    0.290811    11.00000    0.01070    0.01599 = 
         0.01857    0.00070    0.00025    0.00045 
AFIX  43 
H8    2    0.541220    0.576757    0.281784    11.00000   -1.20000 
AFIX   0 
C9    1    0.328536    0.615637    0.116459    11.00000    0.01172    0.02319 = 
         0.01821    0.00067   -0.00032    0.00174 
C10   1    0.210159    0.782314    0.051456    11.00000    0.01416    0.02636 = 
         0.02170    0.00707    0.00139    0.00114 
AFIX 137 
H10A  2    0.273860    0.964504    0.065900    11.00000   -1.50000 
H10B  2    0.006950    0.757291    0.050731    11.00000   -1.50000 
H10C  2    0.272524    0.733765   -0.004623    11.00000   -1.50000 
AFIX   0 
HKLF 4 
  
REM  mo_yr1706s in P-1 
REM R1 =  0.0443 for    1623 Fo > 4sig(Fo)  and  0.0702 for all    2209 data 
REM    113 parameters refined using      0 restraints 
  
END 
  
WGHT      0.0485      0.1199 
  
REM Highest difference peak  0.316,  deepest hole -0.255,  1-sigma level  0.051 
Q1    1   0.1304  0.2241  0.2426  11.00000  0.05    0.32 
Q2    1   0.4163  0.1591  0.3696  11.00000  0.05    0.31 
Q3    1   0.3117  0.3786  0.2644  11.00000  0.05    0.30 
Q4    1   0.5856  0.3229  0.3928  11.00000  0.05    0.30 
Q5    1   0.2159  0.0143  0.3435  11.00000  0.05    0.30 
;
_shelx_res_checksum              71496
_shelx_hkl_file
; 
  -1   0   0    0.90    0.05 
  -1   0   0    0.86    0.08 
  -2   0   0    0.04    0.06 
  -2   0   0   -0.04    0.09 
  -3   0   0    2.00    0.16 
  -3   0   0    2.02    0.18 
  -3   0   0    2.13    0.14 
  -4   0   0    1.61    0.19 
  -4   0   0    1.91    0.14 
  -4   0   0    1.79    0.17 
  -5   0   0    1.87    0.24 
   6   0   0    0.12    0.18 
  -6   1   0    1.30    0.22 
   5  -1   0    1.31    0.26 
  -5   1   0    1.28    0.18 
   4  -1   0    1.13    0.19 
  -4   1   0    1.13    0.15 
   3  -1   0   57.55    0.98 
  -3   1   0   57.75    0.95 
   2  -1   0    2.25    0.17 
  -2   1   0    2.43    0.14 
   1  -1   0   22.70    0.41 
  -1   1   0   22.96    0.39 
   0  -1   0  130.29    2.02 
   0  -1   0  130.60    2.00 
   0   1   0  133.23    2.02 
   0   1   0  130.05    2.00 
  -1  -1   0   71.74    1.15 
   1   1   0   72.17    1.12 
  -2  -1   0    2.45    0.18 
   2   1   0    2.28    0.12 
  -3  -1   0    0.13    0.14 
   3   1   0   -0.02    0.08 
  -4  -1   0   18.58    0.49 
   4   1   0   18.13    0.38 
  -5  -1   0    5.14    0.36 
   5   1   0    5.43    0.25 
   6  -2   0    3.79    0.43 
  -6   2   0    2.40    0.27 
   5  -2   0   13.64    0.53 
  -5   2   0   13.36    0.40 
   4  -2   0    4.84    0.33 
  -4   2   0    4.48    0.26 
   3  -2   0    1.81    0.18 
  -3   2   0    1.60    0.14 
   2  -2   0    1.49    0.15 
  -2   2   0    1.89    0.12 
   1  -2   0   12.89    0.25 
   1  -2   0   12.60    0.30 
  -1   2   0   12.68    0.26 
  -1   2   0   12.55    0.25 
   0  -2   0   56.18    0.92 
   0  -2   0   56.44    0.89 
   0   2   0   57.21    0.89 
   0   2   0   54.90    0.89 
  -1  -2   0   12.43    0.25 
  -1  -2   0   12.23    0.25 
  -1  -2   0   12.65    0.30 
   1   2   0   13.02    0.25 
   1   2   0   13.18    0.25 
  -2  -2   0    0.92    0.15 
   2   2   0    0.94    0.10 
  -3  -2   0    9.88    0.35 
   3   2   0    9.86    0.25 
  -4  -2   0  114.67    1.94 
   4   2   0  112.24    1.80 
  -5  -2   0    0.39    0.24 
   6  -3   0    5.23    0.50 
  -6   3   0    4.08    0.33 
   5  -3   0    0.76    0.32 
  -5   3   0    0.74    0.23 
   4  -3   0    3.48    0.30 
  -4   3   0    3.34    0.23 
   3  -3   0   10.46    0.37 
  -3   3   0   10.77    0.32 
   2  -3   0   14.63    0.38 
  -2   3   0   15.09    0.34 
  -2   3   0   14.84    0.31 
   1  -3   0   11.16    0.26 
   1  -3   0   10.79    0.31 
  -1   3   0   11.20    0.27 
  -1   3   0   11.08    0.26 
   0  -3   0   10.73    0.25 
   0  -3   0   10.61    0.30 
   0   3   0   10.61    0.25 
   0   3   0   10.56    0.25 
  -1  -3   0   27.92    0.55 
  -1  -3   0   26.82    0.49 
   1   3   0   27.29    0.49 
   1   3   0   28.57    0.49 
  -2  -3   0   -0.10    0.16 
  -2  -3   0   -0.01    0.10 
   2   3   0    0.05    0.11 
  -3  -3   0    0.16    0.19 
   3   3   0    0.18    0.13 
  -4  -3   0   12.86    0.50 
   4   3   0   13.98    0.38 
  -5  -3   0    5.43    0.45 
   5  -4   0    2.75    0.42 
  -5   4   0    2.00    0.28 
   4  -4   0    0.32    0.29 
  -4   4   0    0.02    0.23 
   3  -4   0   33.87    0.76 
  -3   4   0   35.26    0.68 
  -3   4   0   35.79    0.66 
   2  -4   0    1.90    0.23 
  -2   4   0    1.73    0.16 
  -2   4   0    2.08    0.18 
   1  -4   0   15.27    0.42 
  -1   4   0   15.50    0.36 
  -1   4   0   15.36    0.35 
   0  -4   0    0.38    0.13 
   0  -4   0    0.53    0.18 
   0   4   0    0.27    0.13 
   0   4   0    0.28    0.13 
  -1  -4   0    0.17    0.18 
  -1  -4   0    0.20    0.18 
  -1  -4   0    0.47    0.14 
   1   4   0    0.41    0.14 
  -2  -4   0    0.25    0.21 
  -2  -4   0    0.22    0.14 
   2   4   0    0.20    0.13 
  -3  -4   0    1.06    0.26 
  -3  -4   0    1.60    0.18 
   3   4   0    1.11    0.17 
  -4  -4   0    3.88    0.44 
  -5  -4   0    1.67    0.38 
   5  -5   0    0.04    0.46 
  -5   5   0    0.21    0.30 
   4  -5   0    0.33    0.35 
  -4   5   0   -0.10    0.26 
  -4   5   0   -0.23    0.24 
   3  -5   0    1.18    0.31 
  -3   5   0    1.16    0.22 
  -3   5   0    0.65    0.23 
   2  -5   0   21.65    0.61 
  -2   5   0   22.27    0.51 
  -2   5   0   21.52    0.52 
   1  -5   0    4.41    0.36 
  -1   5   0    5.69    0.31 
  -1   5   0    4.66    0.37 
   0  -5   0    0.87    0.25 
   0   5   0    1.24    0.19 
  -1  -5   0    4.48    0.29 
  -1  -5   0    4.27    0.38 
   1   5   0    4.88    0.29 
  -2  -5   0    3.26    0.33 
  -2  -5   0    3.09    0.23 
   2   5   0    3.05    0.23 
  -3  -5   0    3.54    0.26 
  -3  -5   0    2.98    0.37 
  -4  -5   0    1.92    0.29 
   4  -6   0    1.11    0.48 
  -4   6   0    0.28    0.33 
  -4   6   0    0.26    0.35 
   3  -6   0    1.36    0.40 
  -3   6   0    0.39    0.29 
  -3   6   0    0.76    0.32 
   2  -6   0    6.10    0.52 
  -2   6   0    6.09    0.41 
   1  -6   0   -0.01    0.30 
  -1   6   0   -0.06    0.23 
   0  -6   0    0.66    0.31 
   0   6   0    0.92    0.24 
  -1  -6   0    6.27    0.52 
   1   6   0    7.42    0.40 
  -2  -6   0    0.70    0.26 
  -3  -6   0    0.59    0.29 
   2  -7   0    1.24    0.44 
  -2   7   0    0.79    0.34 
   1  -7   0   -0.75    0.39 
  -1   7   0   -0.11    0.31 
   0  -7   0   -0.31    0.39 
   0   7   0    0.65    0.31 
   0   7  -1    0.29    0.32 
  -1   7  -1   -0.03    0.33 
   1  -7   1   -0.92    0.39 
  -2   7  -1   -0.10    0.32 
   2  -7   1   -0.02    0.40 
  -3  -6   1   -0.03    0.27 
  -2  -6   1    0.43    0.26 
   1   6  -1    0.38    0.24 
   0   6  -1    4.07    0.29 
   0  -6   1    3.63    0.35 
  -1   6  -1    4.42    0.31 
   1  -6   1    4.93    0.45 
  -2   6  -1   10.31    0.48 
   2  -6   1   11.07    0.55 
  -3   6  -1    2.01    0.32 
  -3   6  -1    2.20    0.31 
   3  -6   1    2.49    0.45 
  -4   6  -1    0.86    0.32 
  -4   6  -1    0.63    0.36 
   4  -6   1    1.64    0.46 
  -4  -5   1    0.24    0.34 
  -4  -5   1   -0.04    0.26 
  -3  -5   1    2.77    0.26 
  -3  -5   1    2.48    0.34 
   2   5  -1    2.98    0.24 
  -2  -5   1    2.82    0.23 
  -2  -5   1    2.83    0.32 
   1   5  -1    6.23    0.31 
  -1  -5   1    6.43    0.31 
   0   5  -1    1.64    0.20 
   0  -5   1    1.22    0.24 
  -1   5  -1    8.29    0.33 
  -1   5  -1    8.33    0.34 
   1  -5   1    8.20    0.40 
  -2   5  -1   17.13    0.44 
  -2   5  -1   16.30    0.47 
   2  -5   1   16.73    0.54 
  -3   5  -1    3.59    0.30 
  -3   5  -1    3.95    0.28 
   3  -5   1    3.98    0.43 
  -4   5  -1   -0.05    0.25 
  -4   5  -1   -0.09    0.26 
   4  -5   1   -0.16    0.36 
  -5   5  -1    0.11    0.31 
  -5   5  -1    0.31    0.32 
   5  -5   1    0.09    0.44 
  -5  -4   1    0.37    0.33 
  -4  -4   1    6.46    0.46 
   3   4  -1    2.67    0.20 
  -3  -4   1    3.13    0.20 
  -3  -4   1    3.06    0.30 
   2   4  -1    3.51    0.23 
  -2  -4   1    3.36    0.23 
  -2  -4   1    3.87    0.33 
   1   4  -1    4.08    0.24 
  -1  -4   1    4.10    0.28 
  -1  -4   1    4.42    0.23 
   0   4  -1    0.89    0.14 
   0   4  -1    0.74    0.14 
   0  -4   1    0.79    0.14 
   0  -4   1    1.07    0.18 
  -1   4  -1    0.68    0.13 
  -1   4  -1    0.52    0.13 
   1  -4   1    0.65    0.18 
  -2   4  -1   10.27    0.32 
  -2   4  -1    9.49    0.29 
   2  -4   1    9.84    0.38 
  -3   4  -1    2.12    0.22 
  -3   4  -1    2.27    0.19 
   3  -4   1    2.58    0.28 
  -4   4  -1    6.87    0.37 
   4  -4   1    6.62    0.47 
  -5   4  -1    5.74    0.42 
   5  -4   1    5.70    0.60 
  -5  -3   1    0.14    0.27 
   4   3  -1    1.49    0.18 
  -4  -3   1    1.60    0.26 
   3   3  -1    0.15    0.13 
  -3  -3   1    0.16    0.19 
   2   3  -1    2.41    0.18 
  -2  -3   1    2.30    0.16 
  -2  -3   1    2.30    0.25 
   1   3  -1    1.55    0.11 
   1   3  -1    1.36    0.11 
  -1  -3   1    1.46    0.12 
  -1  -3   1    1.22    0.16 
   0   3  -1    0.59    0.10 
   0   3  -1    0.55    0.10 
   0  -3   1    0.54    0.11 
   0  -3   1    0.57    0.13 
  -1   3  -1   14.68    0.31 
  -1   3  -1   14.93    0.31 
   1  -3   1   14.65    0.30 
   1  -3   1   14.88    0.36 
  -2   3  -1    7.61    0.21 
  -2   3  -1    7.84    0.24 
   2  -3   1    7.56    0.29 
  -3   3  -1   15.56    0.38 
   3  -3   1   15.21    0.44 
  -4   3  -1    5.58    0.31 
   4  -3   1    5.19    0.40 
  -5   3  -1    5.01    0.35 
   5  -3   1    5.07    0.51 
  -6   3  -1    3.73    0.32 
   6  -3   1    4.12    0.48 
  -6  -2   1   -0.01    0.30 
   5   2  -1    0.48    0.16 
  -5  -2   1    0.49    0.25 
   4   2  -1    1.33    0.15 
  -4  -2   1    1.52    0.24 
   3   2  -1   20.82    0.41 
  -3  -2   1   21.51    0.51 
   2   2  -1   31.37    0.54 
  -2  -2   1   30.84    0.61 
   1   2  -1   10.86    0.23 
   1   2  -1   10.97    0.22 
  -1  -2   1   10.29    0.23 
  -1  -2   1   11.08    0.28 
   0   2  -1   14.96    0.28 
   0   2  -1   15.16    0.29 
   0  -2   1   14.84    0.31 
   0  -2   1   14.91    0.29 
  -1   2  -1   95.93    1.53 
  -1   2  -1  100.21    1.54 
   1  -2   1   99.26    1.56 
   1  -2   1   98.03    1.52 
  -2   2  -1   12.90    0.28 
   2  -2   1   12.94    0.33 
  -3   2  -1   -0.06    0.12 
   3  -2   1    0.32    0.16 
  -4   2  -1    1.32    0.16 
   4  -2   1    1.53    0.24 
  -5   2  -1    0.71    0.18 
   5  -2   1    0.65    0.28 
  -6   2  -1    9.64    0.41 
   6  -2   1   10.97    0.61 
  -6  -1   1    0.75    0.29 
   5   1  -1    0.10    0.13 
  -5  -1   1    0.22    0.22 
   4   1  -1   30.81    0.56 
  -4  -1   1   30.26    0.66 
   3   1  -1    5.86    0.19 
  -3  -1   1    6.31    0.26 
   2   1  -1   -0.08    0.07 
  -2  -1   1    0.09    0.11 
   1   1  -1   23.98    0.40 
  -1  -1   1   23.77    0.43 
   0   1  -1    4.39    0.11 
   0   1  -1    4.57    0.12 
   0  -1   1    4.59    0.12 
  -1   1  -1    0.29    0.07 
   1  -1   1    0.31    0.09 
  -2   1  -1    2.35    0.14 
  -3   1  -1    6.96    0.21 
  -4   1  -1    0.52    0.13 
   4  -1   1    0.51    0.19 
  -5   1  -1    4.00    0.26 
   5  -1   1    4.24    0.38 
  -6   1  -1    2.56    0.26 
   6  -1   1    2.96    0.39 
   6   0  -1    0.23    0.18 
  -5   0   1   13.99    0.45 
  -4   0   1   -0.18    0.15 
  -4   0   1   -0.01    0.11 
  -3   0   1    0.15    0.12 
  -3   0   1    0.23    0.09 
  -2   0   1    6.60    0.20 
  -2   0   1    6.56    0.17 
  -1   0   1  156.04    2.35 
  -1   0   1  149.84    2.36 
  -1   0  -1  146.94    2.31 
  -1   0  -1  149.85    2.31 
  -1   0  -1  153.76    2.31 
  -2   0  -1   47.25    0.79 
  -2   0  -1   47.22    0.75 
  -2   0  -1   47.11    0.79 
  -3   0  -1    4.60    0.16 
  -3   0  -1    4.22    0.20 
  -3   0  -1    4.44    0.22 
  -4   0  -1    0.15    0.16 
  -4   0  -1    0.43    0.15 
  -4   0  -1    0.57    0.12 
  -6   1   1    3.82    0.28 
   5  -1  -1    1.00    0.24 
  -5   1   1    1.16    0.18 
   4  -1  -1    9.91    0.34 
  -4   1   1   10.15    0.30 
   3  -1  -1   15.30    0.36 
  -3   1   1   15.55    0.33 
   2  -1  -1    3.42    0.18 
  -2   1   1    3.79    0.15 
   1  -1  -1    2.55    0.15 
  -1   1   1    2.72    0.12 
   0  -1  -1   86.35    1.32 
   0  -1  -1   84.34    1.33 
   0   1   1   84.99    1.32 
   0   1   1   86.35    1.31 
  -1  -1  -1   10.38    0.23 
  -1  -1  -1   10.17    0.24 
  -2  -1  -1    0.16    0.11 
   2   1   1    0.08    0.07 
  -3  -1  -1    7.72    0.29 
   3   1   1    7.45    0.19 
  -4  -1  -1   13.86    0.43 
   4   1   1   14.18    0.32 
  -5  -1  -1    2.65    0.28 
   5   1   1    2.37    0.17 
   6  -2  -1    0.26    0.36 
  -6   2   1    0.24    0.24 
   5  -2  -1    3.46    0.33 
  -5   2   1    2.92    0.23 
   4  -2  -1   10.06    0.39 
  -4   2   1   10.34    0.33 
   3  -2  -1    6.98    0.29 
  -3   2   1    7.15    0.25 
   2  -2  -1    2.46    0.20 
  -2   2   1    2.81    0.17 
   1  -2  -1   13.51    0.26 
   1  -2  -1   13.54    0.31 
  -1   2   1   13.53    0.28 
  -1   2   1   13.01    0.26 
   0  -2  -1    6.88    0.21 
   0  -2  -1    6.96    0.18 
   0   2   1    6.75    0.17 
   0   2   1    6.91    0.18 
  -1  -2  -1    1.44    0.14 
  -1  -2  -1    1.44    0.12 
  -1  -2  -1    1.54    0.17 
  -1  -2  -1    1.45    0.09 
   1   2   1    1.41    0.11 
  -2  -2  -1    1.02    0.15 
  -3  -2  -1   32.80    0.68 
   3   2   1   32.67    0.57 
  -4  -2  -1    0.70    0.22 
   4   2   1    0.37    0.12 
  -5  -2  -1    3.24    0.32 
   6  -3  -1    0.54    0.38 
  -6   3   1   -0.18    0.26 
   5  -3  -1    1.10    0.33 
  -5   3   1    0.93    0.22 
   4  -3  -1    3.80    0.36 
  -4   3   1    4.42    0.30 
   3  -3  -1    0.43    0.19 
  -3   3   1    0.29    0.15 
   2  -3  -1   12.48    0.35 
  -2   3   1   12.53    0.31 
  -2   3   1   12.14    0.28 
   1  -3  -1    0.70    0.11 
   1  -3  -1    0.98    0.15 
  -1   3   1    0.88    0.11 
  -1   3   1    0.71    0.10 
   0  -3  -1   13.23    0.29 
   0  -3  -1   13.35    0.34 
   0   3   1   13.21    0.29 
   0   3   1   12.81    0.28 
  -1  -3  -1   33.64    0.64 
  -1  -3  -1   32.28    0.57 
  -1  -3  -1   33.86    0.62 
   1   3   1   32.61    0.56 
   1   3   1   31.93    0.56 
  -2  -3  -1   -0.12    0.09 
  -2  -3  -1   -0.25    0.16 
   2   3   1    0.13    0.10 
  -3  -3  -1    0.49    0.21 
   3   3   1    0.64    0.13 
  -4  -3  -1   -0.04    0.23 
   6  -4  -1    3.72    0.54 
   5  -4  -1    0.80    0.36 
  -5   4   1    0.08    0.25 
   4  -4  -1    6.27    0.47 
  -4   4   1    6.63    0.33 
  -4   4   1    6.28    0.36 
   3  -4  -1    2.41    0.27 
  -3   4   1    2.45    0.19 
  -3   4   1    2.53    0.22 
   2  -4  -1    0.21    0.19 
  -2   4   1   -0.07    0.13 
  -2   4   1    0.07    0.16 
   1  -4  -1    6.09    0.32 
  -1   4   1    6.05    0.25 
  -1   4   1    5.82    0.24 
   0  -4  -1    4.47    0.30 
   0  -4  -1    4.34    0.22 
   0   4   1    4.40    0.22 
   0   4   1    4.33    0.22 
  -1  -4  -1    1.90    0.21 
  -1  -4  -1    1.85    0.22 
  -1  -4  -1    2.04    0.16 
   1   4   1    1.99    0.15 
  -2  -4  -1    1.57    0.22 
  -2  -4  -1    1.58    0.25 
  -2  -4  -1    1.72    0.16 
   2   4   1    1.60    0.15 
  -3  -4  -1    0.28    0.16 
  -3  -4  -1    0.13    0.25 
  -4  -4  -1   -0.13    0.27 
   5  -5  -1    0.80    0.43 
  -5   5   1   -0.85    0.31 
  -5   5   1    0.22    0.31 
   4  -5  -1    2.74    0.39 
  -4   5   1    1.76    0.27 
  -4   5   1    1.40    0.30 
   3  -5  -1    0.84    0.31 
  -3   5   1    0.32    0.21 
  -3   5   1    0.24    0.24 
   2  -5  -1    0.24    0.26 
  -2   5   1    0.12    0.19 
  -2   5   1   -0.08    0.20 
   1  -5  -1    0.23    0.24 
  -1   5   1    0.17    0.18 
   0  -5  -1    0.18    0.24 
   0   5   1    0.04    0.17 
  -1  -5  -1    3.03    0.22 
  -1  -5  -1    2.58    0.29 
   1   5   1    2.89    0.22 
  -2  -5  -1    1.21    0.20 
   2   5   1    1.38    0.24 
  -3  -5  -1    3.87    0.28 
  -4  -5  -1    0.26    0.28 
   4  -6  -1    2.60    0.53 
  -4   6   1    1.29    0.38 
  -4   6   1    1.41    0.35 
   3  -6  -1    6.81    0.59 
  -3   6   1    4.12    0.36 
  -3   6   1    4.79    0.36 
   2  -6  -1    5.46    0.51 
  -2   6   1    4.94    0.42 
   1  -6  -1    0.15    0.32 
  -1   6   1    0.45    0.25 
   0  -6  -1    5.34    0.46 
   0   6   1    5.79    0.38 
  -1  -6  -1    1.01    0.35 
   1   6   1    0.96    0.26 
  -2  -6  -1    1.21    0.28 
   2   6   1    1.95    0.39 
  -3  -6  -1    0.09    0.28 
   3   6   1    0.72    0.43 
   2  -7  -1    1.43    0.48 
  -2   7   1    1.28    0.34 
   1  -7  -1    0.02    0.41 
  -1   7   1    0.13    0.33 
   0  -7  -1   -0.32    0.41 
   0   7   1    0.97    0.33 
   1   7  -2   -0.05    0.31 
   0   7  -2    0.92    0.31 
  -1   7  -2    2.44    0.33 
   1  -7   2    1.85    0.42 
  -2   7  -2    0.44    0.39 
   2  -7   2    0.47    0.40 
  -3  -6   2    4.26    0.46 
  -3  -6   2    4.43    0.33 
   2   6  -2    4.39    0.32 
  -2  -6   2    4.57    0.32 
  -2  -6   2    4.37    0.50 
   1   6  -2    0.14    0.24 
   0   6  -2    2.38    0.27 
   0  -6   2    1.74    0.32 
  -1   6  -2    0.14    0.24 
   1  -6   2    0.66    0.29 
  -2   6  -2   26.15    0.66 
   2  -6   2   27.02    0.74 
  -3   6  -2    0.27    0.26 
  -3   6  -2    0.20    0.28 
   3  -6   2    1.01    0.38 
  -4   6  -2    4.32    0.42 
  -4   6  -2    3.87    0.39 
   4  -6   2    4.47    0.58 
  -4  -5   2    0.29    0.34 
  -4  -5   2    0.46    0.28 
   3   5  -2   -0.15    0.21 
  -3  -5   2   -0.02    0.22 
  -3  -5   2    0.37    0.31 
   2   5  -2    3.81    0.31 
  -2  -5   2    3.43    0.40 
  -2  -5   2    3.85    0.30 
   1   5  -2    4.97    0.30 
  -1  -5   2    4.56    0.31 
   0   5  -2    2.00    0.20 
   0  -5   2    1.81    0.24 
  -1   5  -2    7.02    0.31 
  -1   5  -2    7.07    0.32 
   1  -5   2    7.32    0.38 
  -2   5  -2   -0.07    0.19 
  -2   5  -2    0.22    0.20 
   2  -5   2    0.38    0.25 
  -3   5  -2    1.41    0.23 
  -3   5  -2    1.25    0.23 
   3  -5   2    1.38    0.33 
  -4   5  -2    1.07    0.27 
  -4   5  -2    0.80    0.26 
   4  -5   2    1.02    0.37 
  -5   5  -2   -0.11    0.32 
   5  -5   2    0.54    0.44 
  -5  -4   2    8.82    0.58 
   4   4  -2    5.30    0.34 
  -4  -4   2    4.61    0.43 
   3   4  -2    1.24    0.18 
  -3  -4   2    1.34    0.18 
  -3  -4   2    0.84    0.25 
   2   4  -2    2.23    0.17 
  -2  -4   2    2.05    0.25 
  -2  -4   2    1.95    0.17 
   1   4  -2    0.31    0.14 
  -1  -4   2   -0.04    0.17 
  -1  -4   2    0.11    0.13 
   0   4  -2    4.23    0.22 
   0   4  -2    4.36    0.22 
   0  -4   2    4.05    0.22 
   0  -4   2    4.18    0.27 
  -1   4  -2    9.86    0.28 
  -1   4  -2   10.09    0.29 
   1  -4   2   10.51    0.35 
  -2   4  -2   -0.04    0.15 
  -2   4  -2    0.04    0.13 
   2  -4   2    0.03    0.20 
  -3   4  -2    0.06    0.16 
  -3   4  -2    0.09    0.18 
   3  -4   2    0.09    0.24 
  -4   4  -2    6.83    0.38 
   4  -4   2    7.05    0.49 
  -5   4  -2    6.90    0.42 
   5  -4   2    6.97    0.60 
  -5  -3   2    0.86    0.29 
   4   3  -2    7.06    0.30 
  -4  -3   2    7.58    0.41 
   3   3  -2    2.77    0.17 
  -3  -3   2    2.98    0.25 
   2   3  -2    0.78    0.13 
  -2  -3   2    0.60    0.18 
  -2  -3   2    0.48    0.11 
   1   3  -2    2.59    0.15 
   1   3  -2    2.26    0.17 
  -1  -3   2    2.39    0.17 
  -1  -3   2    2.42    0.22 
   0   3  -2   23.19    0.43 
   0   3  -2   22.82    0.43 
   0  -3   2   23.59    0.46 
   0  -3   2   22.86    0.43 
  -1   3  -2    9.07    0.24 
  -1   3  -2    9.04    0.23 
   1  -3   2    8.94    0.28 
   1  -3   2    9.31    0.23 
  -2   3  -2   28.36    0.51 
  -2   3  -2   28.89    0.53 
   2  -3   2   28.85    0.58 
  -3   3  -2    2.97    0.24 
   3  -3   2    3.09    0.30 
  -4   3  -2    0.16    0.19 
   4  -3   2    0.21    0.25 
  -5   3  -2    4.54    0.34 
   5  -3   2    4.81    0.49 
  -6   3  -2    1.65    0.28 
   6  -3   2    2.06    0.46 
  -6  -2   2   -0.23    0.29 
   5   2  -2    3.32    0.22 
  -5  -2   2    3.24    0.32 
   4   2  -2    0.11    0.13 
  -4  -2   2   -0.08    0.19 
   3   2  -2    3.16    0.18 
  -3  -2   2    3.29    0.26 
   2   2  -2   17.25    0.35 
  -2  -2   2   17.73    0.41 
   1   2  -2  131.12    2.00 
   1   2  -2  132.06    2.02 
  -1  -2   2  126.76    2.01 
  -1  -2   2  130.16    2.06 
   0   2  -2   23.23    0.41 
   0   2  -2   23.18    0.40 
   0  -2   2   23.12    0.41 
  -1   2  -2    0.32    0.08 
  -1   2  -2    0.24    0.07 
   1  -2   2    0.14    0.11 
   1  -2   2    0.15    0.08 
  -2   2  -2    1.22    0.11 
   2  -2   2    1.05    0.15 
  -3   2  -2    2.61    0.19 
   3  -2   2    2.47    0.24 
  -4   2  -2    1.38    0.17 
   4  -2   2    1.49    0.24 
  -5   2  -2    0.95    0.19 
   5  -2   2    0.93    0.30 
  -6   2  -2    1.08    0.24 
   6  -2   2    1.01    0.37 
   6   1  -2    6.83    0.38 
  -6  -1   2    6.74    0.45 
   5   1  -2   51.22    0.91 
  -5  -1   2   50.27    1.01 
   4   1  -2   25.78    0.50 
  -4  -1   2   26.14    0.60 
   3   1  -2    3.13    0.16 
  -3  -1   2    2.84    0.22 
   2   1  -2   24.73    0.43 
  -2  -1   2   24.15    0.48 
   1   1  -2    0.67    0.08 
  -1  -1   2    0.76    0.11 
   0   1  -2  213.83    3.31 
   0   1  -2  221.33    3.33 
   0  -1   2  213.09    3.33 
   0  -1   2  220.21    3.30 
  -1   1  -2    1.11    0.08 
  -2   1  -2    0.77    0.12 
  -2   1  -2    0.72    0.09 
  -3   1  -2    9.59    0.29 
  -3   1  -2    9.81    0.24 
  -4   1  -2   22.14    0.45 
  -5   1  -2    0.90    0.16 
   5  -1   2    1.21    0.27 
   6  -1   2    8.80    0.56 
   6   0  -2    0.25    0.18 
  -5   0   2   13.23    0.43 
  -4   0   2    3.17    0.25 
  -3   0   2   15.13    0.32 
  -3   0   2   15.55    0.36 
  -2   0   2    1.34    0.09 
  -2   0   2    1.26    0.12 
  -1   0   2    4.32    0.14 
  -1   0   2    4.18    0.12 
   0   0  -2   50.60    0.77 
   0   0  -2   50.12    0.78 
   0   0  -2   50.79    0.77 
   0   0   2   50.10    0.77 
   0   0   2   49.35    0.79 
  -1   0  -2   27.70    0.48 
   1   0   2   28.53    0.48 
  -2   0  -2  123.52    1.94 
  -3   0  -2   48.04    0.77 
  -3   0  -2   46.84    0.83 
  -4   0  -2    2.56    0.23 
  -4   0  -2    3.03    0.18 
  -5   0  -2    0.63    0.22 
  -5   1   2   11.29    0.37 
   4  -1  -2    2.96    0.21 
  -4   1   2    2.79    0.19 
   3  -1  -2   -0.20    0.12 
  -3   1   2    0.06    0.11 
   2  -1  -2   48.39    0.82 
  -2   1   2   49.29    0.80 
   1  -1  -2  984.91   15.09 
  -1   1   2  982.20   15.01 
  -1   1   2  959.47   14.94 
  -1   1   2 1000.00   14.95 
   0  -1  -2  110.96    1.70 
   0  -1  -2  108.09    1.71 
   0   1   2  111.63    1.70 
   0   1   2  111.51    1.71 
  -1  -1  -2    2.53    0.15 
  -2  -1  -2   12.04    0.28 
  -2  -1  -2   11.99    0.31 
  -3  -1  -2   12.96    0.37 
  -3  -1  -2   12.98    0.33 
  -4  -1  -2   18.00    0.49 
   6   1   2   -0.04    0.37 
   6  -2  -2    2.00    0.41 
  -6   2   2    2.06    0.27 
   5  -2  -2    0.94    0.28 
  -5   2   2    0.69    0.20 
   4  -2  -2    1.67    0.22 
  -4   2   2    1.68    0.19 
   3  -2  -2    0.12    0.15 
  -3   2   2    0.30    0.13 
   2  -2  -2    0.03    0.12 
  -2   2   2    0.03    0.10 
  -2   2   2    0.00    0.08 
  -2   2   2    0.08    0.08 
   1  -2  -2   36.08    0.64 
   1  -2  -2   36.71    0.59 
  -1   2   2   35.45    0.59 
  -1   2   2   35.64    0.60 
   0  -2  -2  134.11    2.06 
   0  -2  -2  134.20    2.09 
   0   2   2  131.28    2.05 
   0   2   2  132.82    2.05 
  -1  -2  -2    2.17    0.13 
  -1  -2  -2    2.68    0.18 
  -1  -2  -2    2.44    0.13 
  -1  -2  -2    2.44    0.19 
  -2  -2  -2   11.12    0.33 
  -2  -2  -2   11.07    0.30 
  -3  -2  -2    1.54    0.17 
  -3  -2  -2    1.35    0.20 
  -4  -2  -2    7.37    0.38 
   6   2   2   10.82    0.66 
   6  -3  -2    2.45    0.43 
  -6   3   2    1.42    0.29 
   5  -3  -2    0.95    0.31 
  -5   3   2    1.02    0.23 
   4  -3  -2    1.35    0.25 
  -4   3   2    1.38    0.21 
   3  -3  -2    1.21    0.20 
  -3   3   2    1.14    0.17 
  -3   3   2    0.84    0.13 
   2  -3  -2    4.22    0.25 
  -2   3   2    4.19    0.22 
  -2   3   2    4.42    0.19 
   1  -3  -2   52.73    0.93 
   1  -3  -2   53.45    0.87 
  -1   3   2   53.37    0.87 
  -1   3   2   52.94    0.87 
   0  -3  -2    1.97    0.17 
   0  -3  -2    1.87    0.13 
   0   3   2    1.75    0.12 
   0   3   2    1.77    0.12 
  -1  -3  -2    0.88    0.11 
  -1  -3  -2    1.02    0.17 
   1   3   2    0.91    0.11 
   1   3   2    0.82    0.10 
  -2  -3  -2    1.42    0.12 
  -2  -3  -2    1.45    0.20 
  -2  -3  -2    1.81    0.18 
  -3  -3  -2   80.54    1.44 
   6  -4  -2    0.09    0.47 
   5  -4  -2    0.06    0.37 
  -5   4   2   -0.15    0.26 
   4  -4  -2    2.02    0.33 
  -4   4   2    1.80    0.22 
  -4   4   2    2.03    0.25 
   3  -4  -2   13.49    0.47 
  -3   4   2   14.18    0.37 
  -3   4   2   14.17    0.41 
   2  -4  -2    5.88    0.33 
  -2   4   2    5.56    0.25 
  -2   4   2    5.52    0.27 
   1  -4  -2    0.20    0.19 
  -1   4   2    0.05    0.14 
  -1   4   2   -0.10    0.13 
   0  -4  -2    0.46    0.15 
   0  -4  -2    0.46    0.20 
   0   4   2    0.23    0.14 
   0   4   2    0.52    0.13 
  -1  -4  -2   -0.08    0.13 
  -1  -4  -2   -0.09    0.20 
   1   4   2   -0.03    0.12 
  -2  -4  -2    2.62    0.25 
  -2  -4  -2    2.68    0.22 
  -3  -4  -2    6.38    0.29 
   5  -5  -2    1.52    0.44 
  -5   5   2    0.86    0.32 
  -5   5   2    0.09    0.29 
   4  -5  -2   12.71    0.62 
  -4   5   2   11.82    0.51 
  -4   5   2   12.11    0.48 
   3  -5  -2    9.84    0.50 
  -3   5   2   10.10    0.42 
  -3   5   2   10.03    0.38 
   2  -5  -2    1.58    0.29 
  -2   5   2    1.46    0.22 
  -2   5   2    0.88    0.21 
   1  -5  -2    0.27    0.25 
  -1   5   2    0.27    0.19 
   0  -5  -2    3.65    0.38 
   0   5   2    3.31    0.27 
  -1  -5  -2   -0.06    0.18 
  -1  -5  -2   -0.17    0.26 
   1   5   2   -0.16    0.16 
  -2  -5  -2   -0.14    0.27 
  -2  -5  -2    0.01    0.19 
  -3  -5  -2    6.10    0.36 
  -4  -5  -2   -0.22    0.27 
   4   5   2    0.30    0.42 
  -4   6   2   -0.05    0.35 
  -4   6   2    0.35    0.40 
   3  -6  -2   25.62    0.82 
  -3   6   2   25.57    0.69 
  -3   6   2   24.85    0.70 
   2  -6  -2    0.68    0.36 
  -2   6   2    0.42    0.26 
   1  -6  -2   -0.54    0.33 
  -1   6   2    0.06    0.24 
   0  -6  -2    1.17    0.33 
   0   6   2    1.31    0.25 
  -1  -6  -2    2.96    0.37 
  -2  -6  -2    3.26    0.31 
   2   6   2    3.52    0.43 
  -3  -6  -2   -0.36    0.28 
   3   6   2    0.30    0.42 
  -2   7   2    0.17    0.35 
   1  -7  -2   -0.47    0.41 
  -1   7   2    0.03    0.32 
   0  -7  -2    2.02    0.44 
   1   7  -3    0.21    0.32 
   0   7  -3    3.88    0.37 
  -1   7  -3    0.22    0.32 
   1  -7   3    0.27    0.38 
   2  -7   3    1.04    0.41 
  -3  -6   3   22.49    0.80 
  -3  -6   3   21.54    0.63 
   2   6  -3    0.41    0.26 
  -2  -6   3    0.27    0.27 
  -2  -6   3    0.55    0.34 
   1   6  -3    0.08    0.25 
   0   6  -3    1.56    0.25 
  -1   6  -3    1.90    0.27 
   1  -6   3    2.08    0.32 
  -2   6  -3    0.59    0.27 
   2  -6   3    1.14    0.32 
  -3   6  -3    0.29    0.28 
  -3   6  -3    0.16    0.29 
   3  -6   3    0.68    0.37 
  -4   6  -3    0.63    0.35 
   4  -6   3    1.60    0.61 
  -4  -5   3    0.10    0.34 
  -4  -5   3   -0.11    0.27 
   3   5  -3    3.32    0.27 
  -3  -5   3    4.07    0.39 
  -3  -5   3    4.44    0.28 
   2   5  -3    3.19    0.24 
  -2  -5   3    3.72    0.25 
  -2  -5   3    3.33    0.32 
   1   5  -3    8.20    0.34 
  -1  -5   3    7.81    0.33 
  -1  -5   3    8.41    0.39 
   0   5  -3    5.76    0.31 
   0  -5   3    5.87    0.35 
  -1   5  -3    4.71    0.31 
  -1   5  -3    4.94    0.30 
   1  -5   3    5.40    0.36 
  -2   5  -3   10.38    0.39 
  -2   5  -3   10.68    0.36 
   2  -5   3   10.35    0.45 
  -3   5  -3    0.14    0.23 
  -3   5  -3   -0.04    0.21 
   3  -5   3    0.26    0.30 
  -4   5  -3    5.33    0.41 
  -4   5  -3    4.97    0.41 
   4  -5   3    5.35    0.56 
  -5   5  -3    0.34    0.33 
   5  -5   3    0.70    0.50 
  -5  -4   3    3.55    0.48 
   4   4  -3    0.21    0.20 
  -4  -4   3   -0.05    0.26 
   3   4  -3    4.19    0.28 
  -3  -4   3    4.18    0.38 
  -3  -4   3    4.44    0.28 
   2   4  -3    1.14    0.17 
  -2  -4   3    0.93    0.16 
  -2  -4   3    0.77    0.22 
   1   4  -3    3.80    0.23 
  -1  -4   3    3.47    0.28 
  -1  -4   3    3.57    0.23 
   0   4  -3    9.45    0.29 
   0   4  -3    9.74    0.28 
   0  -4   3    9.40    0.28 
  -1   4  -3   48.40    0.83 
  -1   4  -3   48.98    0.84 
   1  -4   3   48.42    0.89 
  -2   4  -3    0.18    0.14 
  -2   4  -3    0.10    0.16 
   2  -4   3    0.33    0.20 
  -3   4  -3    0.21    0.19 
  -3   4  -3    0.09    0.16 
   3  -4   3    0.19    0.24 
  -4   4  -3    1.22    0.23 
   4  -4   3    1.63    0.33 
  -5   4  -3    7.30    0.44 
   5  -4   3    7.45    0.62 
   5   3  -3   11.57    0.41 
  -5  -3   3   11.87    0.54 
   4   3  -3    0.83    0.18 
  -4  -3   3    0.43    0.24 
   3   3  -3    0.65    0.14 
  -3  -3   3    0.63    0.21 
   2   3  -3    6.06    0.23 
  -2  -3   3    5.74    0.30 
  -2  -3   3    5.66    0.21 
   1   3  -3    1.59    0.11 
   1   3  -3    1.54    0.13 
  -1  -3   3    1.86    0.13 
  -1  -3   3    1.53    0.17 
   0   3  -3    2.11    0.15 
   0   3  -3    1.97    0.16 
   0  -3   3    2.09    0.13 
  -1   3  -3   69.46    1.11 
  -1   3  -3   68.36    1.12 
   1  -3   3   69.14    1.16 
   1  -3   3   70.38    1.11 
  -2   3  -3    9.68    0.27 
  -2   3  -3    9.15    0.24 
   2  -3   3    9.26    0.32 
  -3   3  -3   23.98    0.50 
   3  -3   3   23.76    0.56 
  -4   3  -3    5.78    0.33 
   4  -3   3    5.49    0.41 
  -5   3  -3   11.18    0.41 
   5  -3   3   11.12    0.59 
  -6   3  -3    2.55    0.29 
   6  -3   3    2.61    0.48 
  -6  -2   3    2.74    0.36 
   5   2  -3    0.48    0.18 
  -5  -2   3    0.63    0.25 
   4   2  -3    0.31    0.14 
  -4  -2   3    0.07    0.20 
   3   2  -3    0.85    0.13 
  -3  -2   3    0.90    0.18 
   2   2  -3    4.06    0.18 
  -2  -2   3    4.57    0.24 
   1   2  -3   37.53    0.62 
   1   2  -3   37.41    0.61 
  -1  -2   3   36.34    0.62 
  -1  -2   3   37.95    0.67 
   0   2  -3   12.45    0.25 
   0   2  -3   12.65    0.26 
   0  -2   3   12.88    0.26 
  -1   2  -3   46.05    0.74 
  -1   2  -3   44.12    0.73 
   1  -2   3   45.50    0.73 
   1  -2   3   45.95    0.77 
  -2   2  -3    2.24    0.16 
   2  -2   3    2.32    0.21 
  -3   2  -3   16.30    0.36 
   3  -2   3   16.44    0.42 
  -4   2  -3   15.35    0.38 
   4  -2   3   15.22    0.47 
  -5   2  -3    8.85    0.33 
   5  -2   3    9.43    0.48 
  -6   2  -3    0.67    0.23 
   6  -2   3    0.56    0.38 
   6   1  -3    0.87    0.23 
  -6  -1   3    0.88    0.29 
   5   1  -3   17.63    0.45 
  -5  -1   3   17.45    0.53 
   4   1  -3   40.67    0.72 
  -4  -1   3   40.47    0.82 
   3   1  -3    0.91    0.11 
  -3  -1   3    0.91    0.16 
   2   1  -3    5.95    0.18 
  -2  -1   3    5.84    0.23 
   1   1  -3  125.79    1.91 
  -1  -1   3  127.55    1.95 
  -1  -1   3  118.53    1.90 
   0   1  -3   52.95    0.84 
   0  -1   3   53.31    0.84 
   0  -1   3   53.55    0.85 
  -1   1  -3   19.50    0.33 
  -1   1  -3   19.38    0.33 
  -1   1  -3   18.44    0.36 
  -2   1  -3    0.90    0.12 
  -2   1  -3    0.77    0.08 
  -3   1  -3    0.11    0.13 
  -3   1  -3    0.03    0.08 
  -4   1  -3   -0.02    0.11 
  -4   1  -3   -0.01    0.17 
  -5   1  -3   31.08    0.61 
   6  -1   3    0.24    0.34 
   6   0  -3   -0.10    0.20 
   5   0  -3   11.82    0.37 
  -5   0   3   11.73    0.42 
  -4   0   3   16.41    0.43 
  -3   0   3   12.66    0.33 
  -3   0   3   12.58    0.29 
  -2   0   3   -0.07    0.08 
  -2   0   3    0.04    0.10 
  -1   0   3   54.66    0.88 
   0   0  -3    0.08    0.07 
   0   0  -3    0.01    0.06 
   0   0   3    0.18    0.08 
   0   0   3    0.03    0.06 
  -1   0  -3    1.59    0.13 
   1   0   3    1.38    0.14 
  -2   0  -3   11.66    0.29 
   2   0   3   11.79    0.29 
  -3   0  -3   18.83    0.42 
   3   0   3   18.74    0.43 
  -4   0  -3    3.33    0.26 
  -4   0  -3    3.52    0.18 
   4   0   3    3.23    0.29 
  -5   0  -3    3.50    0.33 
   5   0   3    3.66    0.35 
  -5   1   3    2.79    0.22 
  -4   1   3   15.94    0.39 
   3  -1  -3   -0.12    0.12 
  -3   1   3    0.28    0.12 
  -2   1   3   57.98    0.94 
   1  -1  -3  144.28    2.26 
   1  -1  -3  148.86    2.23 
  -1   1   3  148.04    2.24 
  -1   1   3  145.87    2.24 
  -1   1   3  143.24    2.24 
   0  -1  -3  429.81    6.75 
   0  -1  -3  438.30    6.72 
   0   1   3  450.16    6.68 
   0   1   3  436.59    6.79 
  -1  -1  -3    4.06    0.18 
   1   1   3    4.01    0.19 
  -2  -1  -3    4.70    0.20 
  -3  -1  -3    2.33    0.20 
  -4  -1  -3    5.53    0.30 
  -5  -1  -3    0.96    0.23 
   5   1   3    0.95    0.30 
   6   1   3    3.11    0.41 
  -6   2   3    0.05    0.24 
   5  -2  -3    7.92    0.46 
  -5   2   3    7.43    0.36 
   4  -2  -3    2.88    0.25 
  -4   2   3    2.86    0.21 
   3  -2  -3    1.95    0.18 
  -3   2   3    1.70    0.15 
   2  -2  -3    7.03    0.25 
  -2   2   3    7.13    0.19 
  -2   2   3    7.42    0.22 
   1  -2  -3    7.08    0.18 
   1  -2  -3    6.85    0.24 
  -1   2   3    7.36    0.20 
  -1   2   3    7.05    0.19 
   0  -2  -3   38.97    0.67 
   0  -2  -3   37.78    0.63 
   0   2   3   37.80    0.65 
   0   2   3   38.55    0.63 
   0   2   3   37.42    0.61 
  -1  -2  -3   17.88    0.34 
  -1  -2  -3   18.54    0.39 
   1   2   3   18.36    0.40 
   1   2   3   18.24    0.33 
  -2  -2  -3    4.13    0.22 
  -3  -2  -3   30.60    0.62 
   5   2   3    0.25    0.34 
   6   2   3    1.94    0.45 
   6  -3  -3    0.58    0.39 
  -6   3   3    0.41    0.28 
   5  -3  -3    4.67    0.46 
  -5   3   3    4.16    0.36 
   4  -3  -3    1.85    0.27 
  -4   3   3    1.43    0.21 
   3  -3  -3    0.31    0.19 
  -3   3   3    0.23    0.13 
  -3   3   3    0.50    0.16 
   2  -3  -3   10.09    0.33 
  -2   3   3   10.51    0.29 
  -2   3   3   10.41    0.26 
   1  -3  -3    0.02    0.10 
   1  -3  -3    0.03    0.14 
  -1   3   3    0.01    0.11 
  -1   3   3   -0.22    0.10 
   0  -3  -3   27.35    0.55 
   0  -3  -3   26.70    0.49 
   0   3   3   26.26    0.47 
   0   3   3   26.49    0.48 
  -1  -3  -3   -0.03    0.15 
  -1  -3  -3   -0.07    0.11 
   1   3   3    0.06    0.15 
   1   3   3   -0.12    0.11 
  -2  -3  -3   34.48    0.67 
  -2  -3  -3   33.27    0.59 
  -3  -3  -3    2.59    0.23 
   5   3   3    0.46    0.38 
   6  -4  -3    0.98    0.46 
   5  -4  -3    2.84    0.40 
  -5   4   3    1.91    0.28 
   4  -4  -3    0.42    0.29 
  -4   4   3    0.22    0.23 
  -4   4   3   -0.22    0.20 
   3  -4  -3    1.13    0.26 
  -3   4   3    0.67    0.18 
  -3   4   3    1.25    0.21 
   2  -4  -3    3.32    0.32 
  -2   4   3    3.48    0.21 
  -2   4   3    2.83    0.23 
   1  -4  -3    8.82    0.37 
  -1   4   3    9.31    0.29 
  -1   4   3    9.52    0.29 
   0  -4  -3    0.48    0.14 
   0  -4  -3    0.84    0.21 
   0   4   3    0.62    0.13 
  -1  -4  -3    1.95    0.25 
  -1  -4  -3    2.00    0.17 
   1   4   3    2.25    0.24 
   1   4   3    1.88    0.15 
  -2  -4  -3    1.40    0.24 
  -2  -4  -3    1.21    0.17 
  -3  -4  -3    3.59    0.27 
  -4  -4  -3    4.76    0.36 
   4   4   3    4.40    0.45 
   5  -5  -3    1.81    0.45 
  -5   5   3    1.33    0.32 
  -5   5   3    1.28    0.35 
   4  -5  -3    0.81    0.38 
  -4   5   3    0.15    0.25 
  -4   5   3    0.15    0.27 
   3  -5  -3    1.60    0.34 
  -3   5   3    1.09    0.23 
  -3   5   3    1.62    0.26 
   2  -5  -3    0.20    0.28 
  -2   5   3   -0.27    0.21 
  -2   5   3   -0.11    0.19 
   1  -5  -3    4.38    0.39 
  -1   5   3    4.35    0.29 
   0  -5  -3    0.00    0.25 
   0   5   3    0.13    0.17 
  -1  -5  -3    0.17    0.20 
  -1  -5  -3    0.13    0.27 
   1   5   3    0.30    0.26 
   1   5   3    0.19    0.17 
  -2  -5  -3    0.62    0.21 
  -2  -5  -3    0.04    0.28 
   2   5   3    0.56    0.30 
  -3  -5  -3    0.03    0.23 
   3   5   3    0.24    0.34 
  -4  -5  -3    1.43    0.31 
   4   5   3    1.42    0.45 
  -4   6   3    0.75    0.35 
   3  -6  -3    0.66    0.42 
  -3   6   3    1.17    0.31 
   2  -6  -3    2.33    0.41 
  -2   6   3    1.86    0.30 
   1  -6  -3    0.66    0.36 
  -1   6   3    0.75    0.24 
   0  -6  -3    0.86    0.35 
   0   6   3    1.78    0.25 
  -1  -6  -3   -0.11    0.34 
  -2  -6  -3    2.58    0.31 
   2   6   3    3.16    0.43 
  -3  -6  -3    0.55    0.29 
   3   6   3    0.97    0.45 
  -2   7   3    0.15    0.35 
   1  -7  -3    1.90    0.45 
  -1   7   3    2.00    0.36 
   0  -7  -3   -0.20    0.40 
   1   7  -4    0.02    0.33 
   0   7  -4    0.74    0.31 
  -1   7  -4    1.69    0.34 
   2  -7   4    1.37    0.40 
   3   6  -4    0.70    0.36 
  -3  -6   4    0.65    0.29 
  -3  -6   4    0.85    0.39 
   2   6  -4    0.50    0.26 
  -2  -6   4    0.84    0.36 
  -2  -6   4    1.06    0.36 
   1   6  -4    3.70    0.30 
   0   6  -4    2.09    0.28 
  -1   6  -4    0.46    0.24 
   1  -6   4    0.81    0.29 
  -2   6  -4    0.22    0.26 
   2  -6   4    0.66    0.32 
  -3   6  -4    0.09    0.27 
  -3   6  -4   -0.17    0.30 
   3  -6   4    0.64    0.37 
  -4   6  -4    1.61    0.38 
  -4  -5   4    3.62    0.42 
  -4  -5   4    4.12    0.32 
   3   5  -4    1.81    0.25 
  -3  -5   4    1.75    0.25 
  -3  -5   4    1.94    0.34 
   2   5  -4    0.94    0.21 
  -2  -5   4    1.42    0.29 
  -2  -5   4    1.15    0.21 
   1   5  -4    4.70    0.32 
  -1  -5   4    4.59    0.35 
  -1  -5   4    4.26    0.30 
   0   5  -4    3.87    0.30 
  -1   5  -4   60.20    1.07 
  -1   5  -4   63.47    1.16 
   1  -5   4   59.93    1.12 
  -2   5  -4    0.93    0.22 
  -2   5  -4    0.56    0.20 
   2  -5   4    0.56    0.26 
  -3   5  -4    0.58    0.23 
  -3   5  -4    1.02    0.24 
   3  -5   4    0.94    0.32 
  -4   5  -4    1.48    0.29 
  -4   5  -4    1.61    0.28 
   4  -5   4    2.06    0.40 
  -5   5  -4    0.25    0.35 
  -5  -4   4    0.08    0.53 
   4   4  -4    0.26    0.21 
  -4  -4   4    0.22    0.28 
   3   4  -4    0.46    0.19 
  -3  -4   4    0.22    0.24 
  -3  -4   4    0.22    0.19 
   2   4  -4    7.58    0.30 
  -2  -4   4    7.91    0.38 
  -2  -4   4    8.00    0.30 
   1   4  -4    4.46    0.25 
  -1  -4   4    4.55    0.24 
  -1  -4   4    4.13    0.29 
   0   4  -4    0.30    0.13 
   0   4  -4    0.14    0.14 
   0  -4   4    0.07    0.14 
  -1   4  -4    0.08    0.13 
  -1   4  -4    0.16    0.13 
   1  -4   4    0.01    0.17 
  -2   4  -4    0.23    0.16 
  -2   4  -4    0.45    0.15 
   2  -4   4    0.38    0.21 
  -3   4  -4    1.81    0.22 
  -3   4  -4    1.91    0.19 
   3  -4   4    1.83    0.28 
  -4   4  -4    2.06    0.25 
   4  -4   4    2.64    0.36 
  -5   4  -4    0.42    0.27 
   5  -4   4    0.81    0.41 
   5   3  -4    5.59    0.36 
  -5  -3   4    5.53    0.45 
   4   3  -4    2.16    0.21 
  -4  -3   4    2.17    0.29 
   3   3  -4    0.53    0.15 
  -3  -3   4    0.24    0.20 
   2   3  -4    0.42    0.13 
  -2  -3   4    0.45    0.12 
  -2  -3   4    0.52    0.17 
   1   3  -4    3.47    0.19 
   1   3  -4    3.55    0.17 
  -1  -3   4    3.33    0.19 
  -1  -3   4    3.60    0.24 
   0   3  -4   18.89    0.38 
   0   3  -4   18.84    0.37 
   0  -3   4   18.96    0.38 
  -1   3  -4    0.56    0.10 
  -1   3  -4    0.70    0.11 
   1  -3   4    0.67    0.11 
   1  -3   4    0.59    0.14 
  -2   3  -4    3.66    0.17 
  -2   3  -4    3.61    0.21 
   2  -3   4    3.53    0.26 
  -3   3  -4   18.28    0.41 
   3  -3   4   17.40    0.49 
  -4   3  -4    0.39    0.19 
   4  -3   4    0.56    0.28 
  -5   3  -4   38.86    0.79 
   5  -3   4   40.65    0.96 
  -6   3  -4    2.13    0.27 
   6  -3   4    3.22    0.49 
   6   2  -4    0.33    0.24 
  -6  -2   4    0.21    0.30 
   5   2  -4    7.90    0.34 
  -5  -2   4    7.72    0.43 
   4   2  -4    9.13    0.31 
  -4  -2   4    9.67    0.40 
   3   2  -4    3.21    0.20 
  -3  -2   4    3.63    0.27 
   2   2  -4    0.28    0.10 
  -2  -2   4    0.14    0.14 
  -2  -2   4    0.23    0.09 
  -2  -2   4    0.12    0.08 
   1   2  -4    2.68    0.15 
   1   2  -4    2.79    0.13 
  -1  -2   4    2.75    0.15 
  -1  -2   4    2.84    0.18 
   0   2  -4    2.81    0.15 
   0   2  -4    2.81    0.14 
   0  -2   4    2.74    0.15 
  -1   2  -4    9.28    0.21 
  -1   2  -4    9.56    0.23 
   1  -2   4    9.49    0.22 
   1  -2   4    9.44    0.26 
  -2   2  -4   12.97    0.29 
  -2   2  -4   12.89    0.26 
   2  -2   4   13.05    0.34 
  -3   2  -4    4.49    0.21 
   3  -2   4    4.65    0.28 
  -4   2  -4    1.55    0.17 
   4  -2   4    1.52    0.25 
  -5   2  -4    1.48    0.19 
   5  -2   4    2.04    0.33 
   6  -2   4    1.62    0.41 
   6   1  -4    0.34    0.23 
  -6  -1   4    0.13    0.27 
   5   1  -4    0.54    0.19 
  -5  -1   4    0.04    0.21 
   4   1  -4    6.12    0.24 
  -4  -1   4    5.86    0.32 
   3   1  -4    5.40    0.20 
  -3  -1   4    5.93    0.27 
   2   1  -4  106.12    1.67 
  -2  -1   4  107.24    1.73 
   1   1  -4   19.79    0.35 
  -1  -1   4   19.48    0.34 
  -1  -1   4   19.77    0.39 
  -1  -1   4   19.25    0.34 
   0   1  -4   10.43    0.21 
   0   1  -4   10.17    0.21 
   0  -1   4   10.25    0.22 
   0  -1   4   10.37    0.24 
  -1   1  -4   16.12    0.29 
  -1   1  -4   15.22    0.32 
  -1   1  -4   16.06    0.29 
  -1   1  -4   16.20    0.28 
  -2   1  -4    5.50    0.22 
  -2   1  -4    5.57    0.16 
  -3   1  -4    2.00    0.17 
  -3   1  -4    2.02    0.15 
  -4   1  -4    2.58    0.28 
  -4   1  -4    2.74    0.19 
  -5   1  -4    2.35    0.18 
   6  -1   4    1.01    0.37 
   6   0  -4    8.44    0.39 
   5   0  -4   15.64    0.42 
  -5   0   4   15.16    0.47 
  -4   0   4    5.84    0.29 
  -3   0   4    0.39    0.14 
  -2   0   4    0.46    0.11 
   1   0  -4  353.08    5.34 
  -1   0   4  362.18    5.35 
  -1   0   4  348.92    5.34 
  -1   0   4  340.69    5.49 
   0   0  -4   41.63    0.68 
   0   0  -4   42.46    0.67 
   0   0   4   42.22    0.70 
   0   0   4   41.97    0.67 
  -1   0  -4   21.06    0.40 
   1   0   4   21.13    0.40 
  -2   0  -4    0.69    0.12 
   2   0   4    0.72    0.13 
  -3   0  -4    7.96    0.28 
   3   0   4    7.53    0.29 
  -4   0  -4    0.17    0.17 
   4   0   4   -0.22    0.19 
  -5   0  -4    0.31    0.23 
   5   0   4    0.23    0.26 
  -5   1   4    0.30    0.19 
  -4   1   4    2.54    0.19 
  -3   1   4    0.72    0.13 
  -2   1   4   26.98    0.48 
   1  -1  -4   36.88    0.58 
   1  -1  -4   35.54    0.61 
  -1   1   4   35.73    0.59 
  -1   1   4   36.18    0.59 
   0  -1  -4   94.46    1.49 
   0  -1  -4   93.36    1.46 
   0   1   4   93.35    1.48 
   0   1   4   95.71    1.46 
  -1  -1  -4    1.91    0.11 
  -1  -1  -4    1.69    0.16 
  -1  -1  -4    1.71    0.11 
   1   1   4    1.68    0.17 
  -2  -1  -4   54.58    0.93 
   2   1   4   54.42    0.94 
  -3  -1  -4    4.01    0.24 
   3   1   4    3.90    0.27 
  -4  -1  -4    0.58    0.19 
   4   1   4    0.26    0.22 
  -5  -1  -4    3.80    0.37 
   5   1   4    3.99    0.42 
   6   1   4    1.70    0.40 
  -6   2   4    2.14    0.28 
   5  -2  -4    6.01    0.43 
  -5   2   4    5.64    0.34 
   4  -2  -4    2.25    0.23 
  -4   2   4    2.41    0.21 
   3  -2  -4   18.14    0.43 
  -3   2   4   18.20    0.40 
   2  -2  -4   75.77    1.27 
  -2   2   4   76.60    1.22 
  -2   2   4   79.35    1.24 
   1  -2  -4   20.16    0.37 
   1  -2  -4   20.35    0.42 
  -1   2   4   20.20    0.37 
  -1   2   4   20.41    0.37 
   0  -2  -4    6.67    0.24 
   0  -2  -4    6.36    0.18 
   0   2   4    6.22    0.19 
   0   2   4    6.03    0.22 
  -1  -2  -4    3.63    0.15 
  -1  -2  -4    3.84    0.21 
   1   2   4    3.59    0.15 
   1   2   4    3.56    0.22 
  -2  -2  -4   19.68    0.44 
   2   2   4   19.57    0.46 
  -3  -2  -4   54.77    0.98 
   3   2   4   54.76    1.02 
  -4  -2  -4   -0.08    0.18 
   4   2   4   -0.02    0.27 
  -5  -2  -4    4.08    0.40 
   5   2   4    5.05    0.43 
   6   2   4    1.60    0.46 
   6  -3  -4    0.69    0.43 
  -6   3   4    0.62    0.30 
   5  -3  -4    0.17    0.30 
  -5   3   4    0.64    0.25 
   4  -3  -4    2.09    0.28 
  -4   3   4    1.98    0.22 
   3  -3  -4    2.61    0.29 
  -3   3   4    2.47    0.19 
  -3   3   4    2.37    0.20 
   2  -3  -4    1.07    0.18 
  -2   3   4    0.90    0.13 
  -2   3   4    0.84    0.14 
   1  -3  -4   26.94    0.49 
   1  -3  -4   27.01    0.56 
  -1   3   4   26.70    0.49 
  -1   3   4   27.25    0.49 
   0  -3  -4    1.82    0.13 
   0  -3  -4    2.06    0.19 
   0   3   4    1.76    0.13 
   0   3   4    1.70    0.12 
  -1  -3  -4    3.99    0.27 
  -1  -3  -4    3.96    0.20 
   1   3   4    3.70    0.27 
  -2  -3  -4    2.90    0.27 
  -2  -3  -4    2.76    0.18 
   2   3   4    2.70    0.30 
  -3  -3  -4    5.19    0.23 
  -3  -3  -4    5.47    0.34 
   3   3   4    5.23    0.39 
  -4  -3  -4    5.62    0.38 
   4   3   4    5.78    0.48 
   5   3   4    1.48    0.40 
   6  -4  -4    1.41    0.47 
   5  -4  -4    1.79    0.38 
  -5   4   4    1.70    0.28 
   4  -4  -4    6.47    0.46 
  -4   4   4    6.24    0.38 
  -4   4   4    6.86    0.32 
   3  -4  -4    6.55    0.41 
  -3   4   4    6.67    0.35 
  -3   4   4    7.07    0.29 
   2  -4  -4   10.32    0.41 
  -2   4   4    9.88    0.31 
  -2   4   4   10.47    0.34 
   1  -4  -4    3.42    0.32 
  -1   4   4    3.47    0.23 
  -1   4   4    3.67    0.23 
   0  -4  -4    0.55    0.15 
   0  -4  -4    0.40    0.22 
   0   4   4    0.47    0.13 
  -1  -4  -4    4.91    0.25 
  -1  -4  -4    4.81    0.35 
   1   4   4    4.95    0.34 
  -2  -4  -4   19.10    0.43 
  -2  -4  -4   19.65    0.53 
   2   4   4   18.82    0.55 
  -3  -4  -4    1.33    0.20 
  -3  -4  -4    0.96    0.27 
   3   4   4    1.09    0.31 
  -4  -4  -4   -0.10    0.24 
   4   4   4    0.31    0.36 
   5  -5  -4    0.96    0.47 
  -5   5   4    0.32    0.34 
   4  -5  -4    5.92    0.56 
  -4   5   4    5.36    0.36 
  -4   5   4    6.67    0.43 
   3  -5  -4    5.26    0.50 
  -3   5   4    6.14    0.34 
  -3   5   4    5.11    0.41 
   2  -5  -4    0.76    0.30 
  -2   5   4    0.81    0.20 
  -2   5   4    0.74    0.23 
   1  -5  -4    0.84    0.30 
  -1   5   4    1.06    0.20 
   0  -5  -4    0.47    0.28 
   0   5   4    0.49    0.18 
  -1  -5  -4    2.58    0.23 
  -1  -5  -4    2.48    0.32 
   1   5   4    2.88    0.31 
  -2  -5  -4    0.21    0.29 
  -2  -5  -4    0.76    0.22 
   2   5   4    0.37    0.30 
  -3  -5  -4   12.10    0.43 
   3   5   4   12.35    0.60 
  -4   6   4    4.77    0.44 
   3  -6  -4    0.22    0.43 
  -3   6   4    0.44    0.32 
   2  -6  -4    1.10    0.40 
  -2   6   4    0.76    0.29 
   1  -6  -4    4.05    0.43 
  -1   6   4    3.62    0.30 
   0  -6  -4    1.93    0.38 
  -1  -6  -4   -0.05    0.35 
  -2  -6  -4    2.36    0.44 
  -2  -6  -4    3.08    0.31 
   2   6   4    4.77    0.54 
  -3  -6  -4   -0.26    0.32 
   3   6   4    0.61    0.48 
  -2   7   4   -0.08    0.35 
   1  -7  -4   -0.59    0.45 
   0  -7  -4    1.33    0.45 
  -1  -7  -4    1.88    0.49 
   0   7  -5    2.72    0.35 
   2  -7   5    2.11    0.41 
   3   6  -5    4.63    0.36 
  -3  -6   5    4.91    0.48 
  -3  -6   5    4.69    0.35 
   2   6  -5   -0.46    0.27 
  -2  -6   5    0.06    0.34 
   1   6  -5    5.21    0.41 
   0   6  -5    2.54    0.29 
  -1   6  -5    2.04    0.27 
   1  -6   5    2.45    0.32 
  -2   6  -5    0.05    0.25 
   2  -6   5    1.11    0.31 
  -3   6  -5   -0.14    0.27 
  -3   6  -5    0.11    0.30 
   3  -6   5    0.33    0.36 
  -4   6  -5   -0.33    0.35 
   4   5  -5   16.03    0.56 
  -4  -5   5   17.48    0.55 
  -4  -5   5   15.96    0.68 
   3   5  -5    0.06    0.23 
  -3  -5   5    0.38    0.23 
  -3  -5   5    0.10    0.30 
   2   5  -5   -0.03    0.20 
  -2  -5   5   -0.05    0.26 
  -2  -5   5   -0.06    0.20 
   1   5  -5    1.60    0.23 
  -1  -5   5    1.48    0.26 
  -1  -5   5    1.32    0.21 
   0   5  -5   23.71    0.54 
  -1   5  -5    6.55    0.34 
   1  -5   5    7.20    0.37 
  -2   5  -5    1.64    0.23 
  -2   5  -5    1.88    0.23 
   2  -5   5    1.65    0.28 
  -3   5  -5    0.18    0.23 
  -3   5  -5    0.31    0.23 
   3  -5   5    0.41    0.30 
  -4   5  -5    9.78    0.48 
  -4   5  -5   12.32    0.51 
   4  -5   5   11.07    0.64 
  -5   5  -5    0.21    0.37 
   5   4  -5    0.78    0.29 
   4   4  -5    1.46    0.23 
  -4  -4   5    1.55    0.30 
   3   4  -5   15.27    0.43 
  -3  -4   5   16.32    0.55 
  -3  -4   5   16.06    0.42 
   2   4  -5    0.93    0.18 
  -2  -4   5    1.03    0.18 
  -2  -4   5    1.07    0.23 
   1   4  -5    3.28    0.24 
  -1  -4   5    2.92    0.24 
  -1  -4   5    3.34    0.29 
   0   4  -5    0.92    0.15 
   0   4  -5    0.96    0.15 
   0  -4   5    0.88    0.16 
  -1   4  -5    6.97    0.27 
  -1   4  -5    6.89    0.27 
   1  -4   5    7.00    0.31 
  -2   4  -5   -0.01    0.14 
  -2   4  -5   -0.02    0.17 
   2  -4   5    0.25    0.20 
  -3   4  -5    7.59    0.34 
  -3   4  -5    8.22    0.30 
   3  -4   5    7.36    0.43 
  -4   4  -5    3.09    0.28 
   4  -4   5    3.37    0.38 
  -5   4  -5   13.17    0.51 
   5  -4   5   14.05    0.72 
   5   3  -5    1.15    0.23 
  -5  -3   5    1.20    0.30 
   4   3  -5    4.94    0.31 
  -4  -3   5    4.94    0.39 
   3   3  -5    1.27    0.17 
  -3  -3   5    1.03    0.15 
  -3  -3   5    1.02    0.22 
   2   3  -5    0.06    0.13 
  -2  -3   5    0.03    0.11 
  -2  -3   5    0.10    0.17 
   1   3  -5    0.90    0.11 
   1   3  -5    0.97    0.13 
  -1  -3   5    1.01    0.13 
  -1  -3   5    1.07    0.17 
   0   3  -5   45.86    0.77 
   0   3  -5   45.82    0.77 
   0  -3   5   45.18    0.77 
  -1   3  -5    0.59    0.12 
  -1   3  -5    0.63    0.10 
   1  -3   5    0.55    0.15 
   1  -3   5    0.39    0.12 
  -2   3  -5    2.33    0.17 
  -2   3  -5    2.26    0.16 
   2  -3   5    2.34    0.26 
  -3   3  -5    3.86    0.25 
  -3   3  -5    3.66    0.20 
   3  -3   5    3.94    0.33 
  -4   3  -5   50.84    0.92 
   4  -3   5   51.20    1.03 
  -5   3  -5    0.87    0.23 
   5  -3   5    1.30    0.38 
   6  -3   5    0.18    0.44 
   6   2  -5    8.16    0.43 
  -6  -2   5    7.98    0.52 
   5   2  -5   -0.07    0.18 
  -5  -2   5    0.25    0.24 
   4   2  -5    2.50    0.19 
  -4  -2   5    3.07    0.27 
   3   2  -5    0.68    0.14 
  -3  -2   5    0.06    0.16 
   2   2  -5    0.29    0.11 
  -2  -2   5    0.20    0.09 
  -2  -2   5    0.16    0.14 
   1   2  -5    6.23    0.18 
   1   2  -5    6.81    0.20 
  -1  -2   5    6.43    0.23 
  -1  -2   5    6.43    0.20 
   0   2  -5   77.98    1.23 
   0   2  -5   77.25    1.22 
   0  -2   5   77.72    1.25 
   0  -2   5   76.60    1.22 
  -1   2  -5  138.60    2.15 
  -1   2  -5  140.48    2.16 
   1  -2   5  138.20    2.19 
   1  -2   5  139.58    2.15 
  -2   2  -5   14.00    0.30 
  -3   2  -5    5.84    0.23 
  -4   2  -5    0.11    0.14 
  -5   2  -5    0.26    0.17 
   5  -2   5    0.25    0.31 
   6  -2   5    0.90    0.42 
   6   1  -5    6.19    0.40 
  -6  -1   5    6.17    0.45 
   5   1  -5    2.34    0.22 
  -5  -1   5    2.26    0.27 
   4   1  -5    1.91    0.17 
  -4  -1   5    2.28    0.23 
   3   1  -5   28.19    0.53 
  -3  -1   5   29.08    0.60 
   2   1  -5   14.68    0.31 
  -2  -1   5   14.70    0.36 
   1   1  -5    6.56    0.18 
  -1  -1   5    6.48    0.18 
  -1  -1   5    6.77    0.22 
   0   1  -5   47.81    0.77 
   0   1  -5   48.43    0.77 
   0  -1   5   47.30    0.77 
   0  -1   5   48.02    0.80 
  -1   1  -5   33.01    0.54 
  -1   1  -5   31.32    0.58 
  -1   1  -5   32.22    0.54 
  -1   1  -5   33.50    0.54 
   1  -1   5   33.36    0.54 
   1  -1   5   32.97    0.57 
  -2   1  -5    0.36    0.08 
  -2   1  -5    0.35    0.12 
  -3   1  -5    7.59    0.28 
  -4   1  -5    6.57    0.23 
  -4   1  -5    6.27    0.34 
   6   0  -5   38.76    0.79 
   5   0  -5    7.32    0.34 
  -5   0   5    6.89    0.37 
  -4   0   5    0.71    0.18 
  -3   0   5    0.29    0.14 
  -2   0   5   43.69    0.76 
   1   0  -5    0.44    0.08 
   1   0  -5    0.33    0.08 
  -1   0   5    0.48    0.09 
  -1   0   5    0.52    0.12 
   0   0  -5   15.42    0.28 
   0   0  -5   15.22    0.30 
   0   0   5   15.48    0.29 
   0   0   5   15.56    0.33 
  -1   0  -5   12.22    0.23 
  -1   0  -5   11.90    0.28 
  -1   0  -5   12.08    0.23 
   1   0   5   11.78    0.28 
  -2   0  -5   11.08    0.29 
   2   0   5   10.94    0.30 
  -3   0  -5    0.68    0.16 
   3   0   5    0.47    0.16 
  -4   0  -5   30.58    0.66 
   4   0   5   29.64    0.65 
  -5   0  -5   13.30    0.48 
   5   0   5   13.03    0.48 
  -6   0  -5    4.06    0.40 
  -5   1   5    2.44    0.24 
  -4   1   5    8.63    0.31 
  -3   1   5    1.88    0.14 
  -2   1   5   85.96    1.37 
   1  -1  -5   29.98    0.53 
   1  -1  -5   30.44    0.50 
  -1   1   5   30.86    0.54 
  -1   1   5   29.97    0.51 
  -1   1   5   30.38    0.51 
   0  -1  -5    4.20    0.14 
   0  -1  -5    3.74    0.18 
   0   1   5    3.79    0.15 
   0   1   5    3.42    0.19 
  -1  -1  -5   97.74    1.57 
  -1  -1  -5  101.32    1.62 
  -1  -1  -5  106.01    1.58 
   1   1   5  100.86    1.63 
  -2  -1  -5   16.74    0.38 
   2   1   5   16.68    0.40 
  -3  -1  -5   -0.06    0.15 
   3   1   5    0.13    0.17 
  -4  -1  -5    3.77    0.31 
   4   1   5    3.71    0.37 
  -5  -1  -5    3.12    0.30 
   5   1   5    3.38    0.36 
   6   1   5    1.18    0.39 
  -6   2   5    0.22    0.26 
  -5   2   5   17.07    0.49 
   4  -2  -5    1.55    0.22 
  -4   2   5    1.41    0.20 
   3  -2  -5   16.28    0.41 
  -3   2   5   16.68    0.39 
   2  -2  -5  170.97    2.72 
  -2   2   5  176.02    2.69 
  -2   2   5  172.46    2.68 
   1  -2  -5   51.22    0.89 
   1  -2  -5   51.64    0.84 
  -1   2   5   53.25    0.84 
  -1   2   5   52.23    0.85 
   0  -2  -5    2.77    0.14 
   0  -2  -5    2.85    0.21 
   0   2   5    2.45    0.19 
   0   2   5    2.57    0.15 
  -1  -2  -5    1.02    0.10 
  -1  -2  -5    1.09    0.15 
   1   2   5    0.99    0.10 
   1   2   5    1.03    0.15 
  -2  -2  -5    0.84    0.16 
   2   2   5    0.78    0.18 
  -3  -2  -5    0.44    0.19 
   3   2   5    0.52    0.21 
  -4  -2  -5    0.33    0.21 
   4   2   5    0.29    0.28 
  -5  -2  -5    5.15    0.43 
   5   2   5    5.41    0.51 
  -6   3   5    0.49    0.31 
   5  -3  -5    8.79    0.52 
  -5   3   5    7.18    0.42 
   4  -3  -5    1.65    0.27 
  -4   3   5    1.67    0.23 
   3  -3  -5    0.59    0.21 
  -3   3   5    0.35    0.15 
  -3   3   5    0.63    0.18 
   2  -3  -5    1.66    0.20 
  -2   3   5    1.90    0.15 
  -2   3   5    1.94    0.16 
   1  -3  -5    0.21    0.10 
   1  -3  -5    0.29    0.16 
  -1   3   5    0.36    0.12 
  -1   3   5    0.41    0.12 
   0  -3  -5   30.49    0.62 
   0  -3  -5   30.45    0.55 
   0   3   5   31.41    0.55 
   0   3   5   30.48    0.59 
  -1  -3  -5    2.06    0.21 
  -1  -3  -5    2.12    0.18 
   1   3   5    1.94    0.20 
  -2  -3  -5   41.72    0.81 
  -2  -3  -5   42.41    0.73 
   2   3   5   41.93    0.84 
  -3  -3  -5    0.76    0.15 
  -3  -3  -5    0.89    0.22 
   3   3   5    0.99    0.26 
  -4  -3  -5    0.19    0.25 
   4   3   5    0.02    0.31 
   5   3   5    7.36    0.61 
   6  -4  -5    2.02    0.49 
   5  -4  -5    1.23    0.38 
  -5   4   5    0.50    0.27 
   4  -4  -5    1.97    0.34 
  -4   4   5    1.65    0.23 
  -4   4   5    1.69    0.26 
   3  -4  -5    0.96    0.28 
  -3   4   5    0.83    0.19 
  -3   4   5    0.68    0.22 
   2  -4  -5    0.81    0.24 
  -2   4   5    0.60    0.18 
  -2   4   5    0.63    0.17 
   1  -4  -5   19.01    0.52 
  -1   4   5   18.64    0.43 
  -1   4   5   18.59    0.42 
   0  -4  -5    1.02    0.24 
   0  -4  -5    0.93    0.16 
   0   4   5    1.24    0.14 
  -1  -4  -5   21.19    0.46 
  -1  -4  -5   21.80    0.57 
   1   4   5   21.16    0.54 
  -2  -4  -5   18.95    0.44 
  -2  -4  -5   19.49    0.55 
   2   4   5   18.86    0.57 
  -3  -4  -5    6.27    0.32 
  -3  -4  -5    5.86    0.44 
   3   4   5    6.23    0.47 
  -4  -4  -5    0.27    0.25 
   4   4   5    0.44    0.39 
   5  -5  -5    1.96    0.46 
   4  -5  -5    1.98    0.41 
  -4   5   5    1.22    0.32 
  -4   5   5    1.51    0.31 
   3  -5  -5    2.57    0.40 
  -3   5   5    2.00    0.28 
   2  -5  -5    1.51    0.32 
  -2   5   5    1.47    0.23 
  -2   5   5    1.09    0.22 
   1  -5  -5    1.13    0.31 
  -1   5   5    0.68    0.21 
   0  -5  -5   -0.22    0.27 
   0   5   5    0.06    0.18 
  -1  -5  -5    1.25    0.31 
  -1  -5  -5    1.23    0.22 
   1   5   5    1.99    0.30 
  -2  -5  -5    9.39    0.50 
  -2  -5  -5    9.56    0.38 
   2   5   5    9.26    0.50 
  -3  -5  -5    0.05    0.23 
  -3  -5  -5    0.09    0.35 
   3   5   5    0.49    0.37 
  -4   6   5    0.48    0.37 
   3  -6  -5    0.99    0.46 
  -3   6   5   -0.22    0.32 
   2  -6  -5    0.73    0.41 
  -2   6   5    1.39    0.29 
   1  -6  -5    0.08    0.37 
  -1   6   5    0.36    0.27 
   0  -6  -5    0.74    0.36 
  -1  -6  -5   -0.23    0.36 
  -2  -6  -5    0.22    0.39 
  -2  -6  -5   -0.04    0.27 
   2   6   5    0.48    0.41 
  -2   7   5    0.29    0.38 
   0  -7  -5   -0.42    0.63 
   2  -7   6    2.36    0.42 
   3   6  -6    3.46    0.36 
  -3  -6   6    4.12    0.47 
  -3  -6   6    4.16    0.35 
   2   6  -6    0.15    0.28 
  -2  -6   6    0.63    0.36 
   1   6  -6    0.69    0.26 
   0   6  -6    4.58    0.39 
  -1   6  -6    2.03    0.27 
   1  -6   6    2.71    0.32 
  -2   6  -6    0.16    0.27 
   2  -6   6    0.64    0.30 
  -3   6  -6    1.01    0.31 
  -3   6  -6    1.10    0.32 
   3  -6   6    1.24    0.38 
  -4   6  -6    2.06    0.38 
   4   5  -6    2.55    0.30 
  -4  -5   6    3.09    0.32 
  -4  -5   6    2.69    0.41 
   3   5  -6    2.06    0.27 
  -3  -5   6    2.09    0.34 
  -3  -5   6    2.61    0.27 
   2   5  -6    1.80    0.24 
  -2  -5   6    1.74    0.23 
  -2  -5   6    1.64    0.30 
   1   5  -6    0.08    0.21 
  -1  -5   6    0.27    0.20 
   0   5  -6    2.61    0.23 
  -1   5  -6    0.36    0.20 
   1  -5   6    0.53    0.22 
  -2   5  -6    2.02    0.23 
  -2   5  -6    1.74    0.25 
   2  -5   6    2.21    0.29 
  -3   5  -6    2.65    0.27 
  -3   5  -6    2.22    0.28 
   3  -5   6    2.42    0.35 
  -4   5  -6    0.04    0.28 
  -4   5  -6   -0.12    0.29 
   4  -5   6    0.07    0.38 
  -5   5  -6   -0.98    0.53 
   5   4  -6    4.99    0.42 
   4   4  -6    0.09    0.22 
  -4  -4   6    0.07    0.27 
   3   4  -6    2.85    0.23 
  -3  -4   6    3.42    0.25 
  -3  -4   6    2.84    0.30 
   2   4  -6    0.04    0.18 
  -2  -4   6    0.50    0.23 
  -2  -4   6    0.35    0.18 
   1   4  -6   16.20    0.40 
  -1  -4   6   16.55    0.47 
  -1  -4   6   16.12    0.40 
   0   4  -6   86.88    1.43 
   0   4  -6   88.87    1.46 
   0  -4   6   86.63    1.42 
  -1   4  -6    0.12    0.14 
  -1   4  -6    0.26    0.15 
   1  -4   6    0.41    0.18 
  -2   4  -6    2.25    0.21 
  -2   4  -6    2.24    0.19 
   2  -4   6    2.23    0.25 
  -3   4  -6    0.14    0.17 
  -3   4  -6    0.26    0.21 
   3  -4   6    0.21    0.27 
  -4   4  -6    0.58    0.23 
   4  -4   6    0.86    0.34 
  -5   4  -6    2.39    0.30 
   5  -4   6    3.14    0.48 
   5   3  -6    4.71    0.37 
  -5  -3   6    4.60    0.45 
   4   3  -6    0.89    0.20 
  -4  -3   6    0.90    0.25 
   3   3  -6   10.67    0.34 
  -3  -3   6   11.10    0.43 
  -3  -3   6   10.73    0.31 
   2   3  -6    0.08    0.13 
  -2  -3   6   -0.04    0.17 
  -2  -3   6    0.04    0.13 
   1   3  -6    1.14    0.14 
  -1  -3   6    1.06    0.17 
  -1  -3   6    0.95    0.13 
   0   3  -6    0.22    0.10 
   0   3  -6    0.16    0.11 
   0  -3   6    0.11    0.12 
  -1   3  -6    0.26    0.11 
  -1   3  -6    0.10    0.11 
   1  -3   6    0.03    0.12 
   1  -3   6   -0.05    0.14 
  -2   3  -6    0.11    0.14 
  -2   3  -6    0.00    0.11 
   2  -3   6    0.13    0.18 
  -3   3  -6    2.37    0.16 
  -3   3  -6    2.89    0.20 
   3  -3   6    2.50    0.27 
  -4   3  -6    1.14    0.20 
   4  -3   6    0.95    0.29 
  -5   3  -6    0.67    0.22 
   5  -3   6    0.79    0.37 
   6   2  -6    5.61    0.41 
  -6  -2   6    5.31    0.49 
   5   2  -6    5.02    0.34 
  -5  -2   6    5.32    0.41 
   4   2  -6    3.20    0.27 
  -4  -2   6    3.38    0.32 
   3   2  -6    0.03    0.14 
  -3  -2   6    0.08    0.18 
   2   2  -6    6.43    0.22 
  -2  -2   6    5.93    0.20 
  -2  -2   6    6.07    0.26 
   1   2  -6   49.57    0.83 
   1   2  -6   49.83    0.82 
  -1  -2   6   50.67    0.82 
  -1  -2   6   50.74    0.88 
   0   2  -6    4.38    0.18 
   0   2  -6    4.17    0.17 
   0  -2   6    4.18    0.21 
   0  -2   6    4.02    0.18 
  -1   2  -6   44.09    0.74 
   1  -2   6   44.77    0.73 
  -2   2  -6    0.20    0.10 
  -2   2  -6    0.22    0.09 
  -2   2  -6    0.48    0.10 
  -3   2  -6   10.28    0.28 
  -4   2  -6   52.75    0.91 
  -5   2  -6    0.74    0.19 
   5  -2   6    0.96    0.33 
   6  -2   6    0.49    0.42 
   6   1  -6    3.07    0.28 
  -6  -1   6    2.90    0.34 
   5   1  -6    2.98    0.25 
  -5  -1   6    2.93    0.34 
   4   1  -6    3.06    0.25 
  -4  -1   6    2.95    0.29 
   3   1  -6   -0.08    0.11 
  -3  -1   6    0.04    0.15 
   2   1  -6    3.99    0.18 
  -2  -1   6    4.39    0.22 
  -2  -1   6    4.27    0.15 
  -2  -1   6    4.11    0.16 
   1   1  -6   53.91    0.88 
  -1  -1   6   53.33    0.87 
  -1  -1   6   54.99    0.92 
   0   1  -6    4.66    0.15 
   0   1  -6    4.41    0.16 
   0  -1   6    4.56    0.20 
   0  -1   6    4.86    0.17 
  -1   1  -6   54.63    0.88 
  -1   1  -6   54.81    0.92 
  -1   1  -6   55.37    0.87 
   1  -1   6   54.33    0.92 
   1  -1   6   54.97    0.87 
  -2   1  -6    0.86    0.14 
  -3   1  -6    9.68    0.34 
  -4   1  -6    0.02    0.20 
  -5   1  -6    1.09    0.28 
   6   0  -6    0.43    0.21 
   5   0  -6    0.44    0.19 
  -5   0   6    0.62    0.22 
   4   0  -6   22.00    0.49 
  -4   0   6   22.09    0.53 
   3   0  -6   17.78    0.39 
  -3   0   6   18.00    0.43 
   2   0  -6   12.53    0.28 
  -2   0   6   12.47    0.32 
  -2   0   6   12.39    0.26 
   1   0  -6   55.36    0.87 
  -1   0   6   54.15    0.87 
  -1   0   6   53.84    0.92 
   0   0  -6    1.06    0.09 
   0   0   6    1.21    0.14 
   0   0   6    0.95    0.10 
  -1   0  -6   10.16    0.22 
  -1   0  -6   10.19    0.27 
  -1   0  -6   10.34    0.21 
   1   0   6    9.89    0.28 
  -2   0  -6   10.31    0.29 
   2   0   6   10.10    0.30 
  -3   0  -6   10.81    0.34 
   3   0   6   10.64    0.35 
  -4   0  -6    2.31    0.24 
   4   0   6    1.77    0.25 
  -5   0  -6    6.93    0.42 
   5   0   6    6.83    0.43 
  -6   0  -6    0.48    0.33 
  -5   1   6    0.90    0.22 
  -4   1   6    5.07    0.28 
  -3   1   6    7.04    0.26 
  -2   1   6   98.97    1.59 
  -2   1   6  101.21    1.56 
  -2   1   6   97.43    1.54 
  -2   1   6   97.39    1.54 
   1  -1  -6    3.97    0.15 
   1  -1  -6    3.94    0.19 
  -1   1   6    4.16    0.20 
  -1   1   6    3.93    0.16 
  -1   1   6    3.91    0.16 
   0  -1  -6   29.44    0.54 
   0  -1  -6   29.76    0.51 
   0   1   6   29.95    0.51 
   0   1   6   30.66    0.56 
  -1  -1  -6   -0.02    0.08 
  -1  -1  -6    0.05    0.09 
  -1  -1  -6    0.09    0.12 
   1   1   6   -0.08    0.13 
  -2  -1  -6    4.14    0.23 
   2   1   6    3.74    0.24 
  -3  -1  -6   13.32    0.39 
   3   1   6   13.12    0.41 
  -4  -1  -6    0.25    0.20 
   4   1   6    0.13    0.24 
  -5  -1  -6    2.63    0.30 
   5   1   6    3.25    0.37 
  -6  -1  -6    0.38    0.34 
   6   1   6    0.57    0.40 
  -6   2   6    0.34    0.27 
   5  -2  -6    0.57    0.31 
  -5   2   6    0.07    0.22 
   4  -2  -6    3.34    0.32 
  -4   2   6    3.47    0.24 
   3  -2  -6    9.54    0.33 
  -3   2   6    9.72    0.31 
  -3   2   6    9.29    0.27 
   2  -2  -6   10.24    0.32 
  -2   2   6   10.19    0.26 
  -2   2   6   10.34    0.28 
   1  -2  -6    0.93    0.16 
   1  -2  -6    0.69    0.10 
  -1   2   6    0.79    0.12 
  -1   2   6    0.89    0.11 
   0  -2  -6   29.58    0.52 
   0  -2  -6   30.26    0.58 
   0   2   6   29.59    0.57 
   0   2   6   29.64    0.52 
  -1  -2  -6   11.02    0.32 
  -1  -2  -6   11.08    0.25 
   1   2   6   10.75    0.32 
   1   2   6   10.97    0.25 
  -2  -2  -6    2.01    0.20 
  -2  -2  -6    1.92    0.15 
   2   2   6    2.07    0.20 
  -3  -2  -6    1.61    0.22 
   3   2   6    1.75    0.25 
  -4  -2  -6    0.80    0.24 
   4   2   6    1.38    0.30 
  -5  -2  -6    5.75    0.46 
   5   2   6    6.16    0.52 
  -6   3   6    3.15    0.39 
   5  -3  -6    2.98    0.36 
  -5   3   6    2.17    0.28 
   4  -3  -6    0.45    0.25 
  -4   3   6    0.25    0.21 
  -4   3   6   -0.09    0.18 
   3  -3  -6   16.32    0.48 
  -3   3   6   16.61    0.40 
  -3   3   6   17.04    0.43 
   2  -3  -6    1.83    0.22 
  -2   3   6    1.83    0.17 
  -2   3   6    1.83    0.16 
   1  -3  -6    0.11    0.11 
   1  -3  -6    0.02    0.18 
  -1   3   6    0.15    0.13 
  -1   3   6   -0.12    0.12 
   0  -3  -6   19.09    0.39 
   0  -3  -6   18.88    0.47 
   0   3   6   19.52    0.40 
   0   3   6   19.19    0.44 
  -1  -3  -6    0.90    0.14 
  -1  -3  -6    0.65    0.19 
   1   3   6    0.77    0.19 
  -2  -3  -6   57.57    0.96 
  -2  -3  -6   57.95    1.05 
   2   3   6   56.22    1.06 
  -3  -3  -6    0.57    0.24 
  -3  -3  -6    0.97    0.16 
   3   3   6    0.72    0.28 
  -4  -3  -6    4.11    0.42 
   4   3   6    4.31    0.48 
   5   3   6    0.33    0.41 
   5  -4  -6    1.73    0.39 
  -5   4   6    1.48    0.32 
  -5   4   6    1.15    0.29 
   4  -4  -6    0.98    0.33 
  -4   4   6    0.42    0.26 
  -4   4   6    0.52    0.23 
   3  -4  -6    0.71    0.29 
  -3   4   6    0.72    0.22 
  -3   4   6    0.67    0.20 
   2  -4  -6    4.50    0.38 
  -2   4   6    4.46    0.28 
  -2   4   6    4.28    0.29 
   1  -4  -6    0.75    0.24 
  -1   4   6    0.65    0.17 
  -1   4   6    0.71    0.18 
   0  -4  -6    0.14    0.23 
   0  -4  -6   -0.15    0.15 
  -1  -4  -6    3.00    0.25 
  -1  -4  -6    3.49    0.30 
   1   4   6    3.53    0.34 
  -2  -4  -6    4.10    0.27 
  -2  -4  -6    4.25    0.38 
   2   4   6    4.74    0.40 
  -3  -4  -6    1.74    0.31 
  -3  -4  -6    2.18    0.22 
   3   4   6    2.45    0.35 
  -4  -4  -6    0.33    0.33 
  -4  -4  -6    0.51    0.24 
   4   4   6    0.82    0.39 
   4  -5  -6    4.25    0.49 
  -4   5   6    3.69    0.35 
  -4   5   6    3.40    0.36 
   3  -5  -6    1.90    0.40 
  -3   5   6    1.41    0.26 
  -3   5   6    1.45    0.28 
   2  -5  -6    1.79    0.36 
  -2   5   6    2.01    0.25 
  -2   5   6    1.50    0.25 
   1  -5  -6    1.44    0.33 
  -1   5   6    1.71    0.23 
   0  -5  -6   -0.16    0.29 
  -1  -5  -6    4.19    0.38 
  -1  -5  -6    4.14    0.33 
   1   5   6    4.89    0.41 
  -2  -5  -6   -0.15    0.22 
  -2  -5  -6   -0.12    0.30 
   2   5   6    0.34    0.32 
  -3  -5  -6    1.70    0.27 
  -3  -5  -6    1.06    0.38 
   3   5   6    2.07    0.40 
  -4   6   6    1.81    0.44 
   3  -6  -6    2.32    0.52 
  -3   6   6    1.77    0.36 
   2  -6  -6   -0.19    0.42 
  -2   6   6    0.09    0.29 
   1  -6  -6    1.38    0.40 
   0  -6  -6    0.70    0.40 
  -1  -6  -6   -0.40    0.38 
  -2  -6  -6    3.31    0.44 
  -3  -6   7    2.18    0.50 
  -3  -6   7    1.98    0.32 
   2   6  -7    0.95    0.30 
  -2  -6   7    1.41    0.36 
   1   6  -7    0.51    0.26 
   0   6  -7    3.52    0.31 
  -1   6  -7    2.49    0.29 
  -2   6  -7    0.35    0.28 
   2  -6   7    1.01    0.32 
  -3   6  -7    0.21    0.31 
  -3   6  -7    0.01    0.32 
   3  -6   7    0.16    0.37 
   4   5  -7    0.47    0.28 
  -4  -5   7    0.72    0.30 
   3   5  -7   -0.05    0.24 
  -3  -5   7   -0.52    0.30 
  -3  -5   7   -0.01    0.25 
   2   5  -7    1.21    0.24 
  -2  -5   7    1.19    0.29 
  -2  -5   7    1.26    0.24 
   1   5  -7    3.95    0.27 
  -1  -5   7    3.54    0.37 
   0   5  -7    4.42    0.33 
  -1   5  -7    0.90    0.22 
   1  -5   7    0.92    0.23 
  -2   5  -7    1.71    0.25 
  -2   5  -7    2.02    0.24 
   2  -5   7    1.81    0.28 
  -3   5  -7    2.49    0.28 
  -3   5  -7    2.41    0.29 
   3  -5   7    2.75    0.35 
  -4   5  -7    0.21    0.28 
  -4   5  -7   -0.53    0.29 
   4  -5   7    0.08    0.39 
   5   4  -7    3.85    0.33 
   4   4  -7   -0.01    0.23 
  -4  -4   7    0.16    0.28 
  -4  -4   7    0.01    0.24 
   3   4  -7    0.34    0.20 
  -3  -4   7    0.11    0.25 
  -3  -4   7    0.14    0.21 
   2   4  -7    1.37    0.20 
  -2  -4   7    1.09    0.25 
  -2  -4   7    0.86    0.20 
   1   4  -7   38.37    0.72 
  -1  -4   7   38.41    0.79 
  -1  -4   7   37.25    0.71 
   0   4  -7   49.19    0.87 
   0  -4   7   49.36    0.87 
  -1   4  -7    5.70    0.26 
  -1   4  -7    5.50    0.28 
   1  -4   7    5.74    0.31 
  -2   4  -7    4.75    0.29 
  -2   4  -7    5.36    0.26 
   2  -4   7    5.12    0.36 
  -3   4  -7    2.81    0.24 
  -3   4  -7    3.04    0.22 
   3  -4   7    2.39    0.31 
  -4   4  -7    1.44    0.25 
  -4   4  -7    1.94    0.24 
   4  -4   7    1.53    0.36 
  -5   4  -7    2.84    0.33 
   5  -4   7    3.33    0.48 
   5   3  -7    0.42    0.23 
  -5  -3   7    0.54    0.29 
   4   3  -7    7.07    0.35 
  -4  -3   7    6.37    0.42 
   3   3  -7    0.58    0.18 
  -3  -3   7    0.97    0.17 
  -3  -3   7    0.84    0.23 
   2   3  -7    0.26    0.14 
  -2  -3   7    0.39    0.14 
  -2  -3   7    0.11    0.18 
   1   3  -7    8.09    0.27 
  -1  -3   7    8.10    0.26 
  -1  -3   7    8.32    0.32 
   0   3  -7    2.63    0.18 
   0   3  -7    2.50    0.16 
   0  -3   7    2.40    0.23 
   0  -3   7    2.40    0.21 
  -1   3  -7    1.77    0.15 
  -1   3  -7    1.64    0.14 
   1  -3   7    1.61    0.17 
  -2   3  -7    2.57    0.22 
  -2   3  -7    2.58    0.16 
   2  -3   7    2.43    0.23 
  -3   3  -7    0.76    0.18 
  -3   3  -7    0.80    0.15 
   3  -3   7    0.51    0.24 
  -4   3  -7   27.37    0.59 
   4  -3   7   28.07    0.72 
  -5   3  -7    0.33    0.24 
   5  -3   7    0.41    0.37 
   6   2  -7    0.79    0.28 
  -6  -2   7    0.64    0.32 
   5   2  -7    2.27    0.25 
  -5  -2   7    2.32    0.31 
   4   2  -7    0.33    0.17 
  -4  -2   7    0.17    0.21 
   3   2  -7    0.10    0.14 
  -3  -2   7    0.18    0.12 
  -3  -2   7    0.20    0.18 
   2   2  -7    0.92    0.13 
  -2  -2   7    0.77    0.12 
  -2  -2   7    0.71    0.16 
   1   2  -7    5.97    0.20 
   1   2  -7    5.94    0.19 
  -1  -2   7    5.69    0.20 
  -1  -2   7    5.54    0.25 
   0   2  -7    3.52    0.16 
   0   2  -7    3.74    0.18 
   0  -2   7    3.52    0.18 
   0  -2   7    3.43    0.22 
  -1   2  -7    0.85    0.11 
  -1   2  -7    0.92    0.11 
   1  -2   7    0.60    0.11 
  -2   2  -7    0.03    0.15 
  -2   2  -7    0.16    0.11 
  -2   2  -7   -0.01    0.10 
  -3   2  -7   93.05    1.49 
  -3   2  -7   93.00    1.58 
  -4   2  -7   24.28    0.50 
   6  -2   7    1.90    0.45 
   6   1  -7    0.82    0.25 
  -6  -1   7    0.53    0.28 
   5   1  -7    2.61    0.24 
  -5  -1   7    2.32    0.28 
   4   1  -7    2.16    0.19 
  -4  -1   7    2.28    0.24 
   3   1  -7    8.16    0.26 
  -3  -1   7    8.44    0.32 
   2   1  -7   13.38    0.30 
  -2  -1   7   13.01    0.29 
  -2  -1   7   13.56    0.36 
  -2  -1   7   13.33    0.28 
   1   1  -7    0.85    0.09 
   1   1  -7    0.91    0.11 
  -1  -1   7    1.11    0.15 
  -1  -1   7    0.96    0.11 
   0   1  -7  122.05    1.90 
   0   1  -7  122.09    1.90 
   0  -1   7  124.94    1.90 
   0  -1   7  120.81    1.94 
  -1   1  -7    1.64    0.14 
  -1   1  -7    1.66    0.15 
   1  -1   7    1.78    0.21 
   1  -1   7    1.38    0.11 
  -2   1  -7    0.55    0.15 
   2  -1   7    0.27    0.15 
  -3   1  -7    4.05    0.28 
  -4   1  -7   13.33    0.45 
  -5   1  -7    0.15    0.27 
   6   0  -7    6.05    0.40 
   5   0  -7    0.11    0.20 
  -5   0   7    0.06    0.21 
   4   0  -7   34.19    0.67 
  -4   0   7   35.44    0.73 
   3   0  -7    9.19    0.28 
  -3   0   7    9.17    0.32 
   2   0  -7    2.58    0.17 
  -2   0   7    2.59    0.16 
  -2   0   7    2.48    0.21 
  -2   0   7    2.79    0.14 
   1   0  -7    9.06    0.22 
   1   0  -7    9.09    0.21 
  -1   0   7    9.57    0.27 
  -1   0   7    8.92    0.22 
   0   0  -7    6.09    0.18 
   0   0  -7    6.02    0.20 
   0   0   7    6.13    0.19 
   0   0   7    6.29    0.25 
  -1   0  -7    5.34    0.22 
  -1   0  -7    5.75    0.17 
   1   0   7    5.39    0.25 
  -2   0  -7   -0.03    0.13 
   2   0   7   -0.09    0.14 
  -3   0  -7    0.21    0.17 
   3   0   7    0.04    0.18 
  -4   0  -7    0.92    0.23 
   4   0   7    1.02    0.25 
  -5   0  -7    0.03    0.26 
   5   0   7    0.16    0.28 
  -6   0  -7    0.19    0.34 
   6  -1  -7    0.58    0.28 
  -4   1   7    4.20    0.28 
  -3   1   7    0.93    0.14 
  -2   1   7    4.36    0.19 
  -2   1   7    4.64    0.21 
  -2   1   7    4.78    0.24 
   1  -1  -7   24.84    0.44 
  -1   1   7   25.27    0.49 
  -1   1   7   24.90    0.44 
  -1   1   7   25.02    0.45 
   0  -1  -7   24.78    0.44 
   0  -1  -7   24.14    0.47 
   0   1   7   24.47    0.44 
   0   1   7   25.40    0.51 
  -1  -1  -7   50.91    0.89 
  -1  -1  -7   51.52    0.83 
   1   1   7   52.00    0.83 
   1   1   7   50.72    0.89 
  -2  -1  -7    7.53    0.28 
   2   1   7    7.60    0.31 
  -3  -1  -7    6.22    0.32 
   3   1   7    6.21    0.34 
  -4  -1  -7   10.66    0.43 
   4   1   7   11.01    0.46 
  -5  -1  -7    1.13    0.30 
   5   1   7    1.36    0.35 
  -6  -1  -7    0.18    0.35 
   6   1   7    0.95    0.42 
  -6   2   7    0.08    0.28 
  -5   2   7    0.52    0.23 
  -4   2   7    0.77    0.20 
   3  -2  -7   15.57    0.42 
  -3   2   7   16.73    0.40 
  -3   2   7   15.97    0.37 
   2  -2  -7   37.79    0.71 
  -2   2   7   38.00    0.66 
  -2   2   7   37.69    0.66 
   1  -2  -7    0.24    0.15 
   1  -2  -7    0.07    0.09 
  -1   2   7    0.18    0.10 
  -1   2   7    0.26    0.16 
  -1   2   7   -0.04    0.11 
   0  -2  -7  111.15    1.76 
   0  -2  -7  112.87    1.81 
   0   2   7  111.34    1.76 
   0   2   7  114.16    1.82 
  -1  -2  -7    2.74    0.16 
  -1  -2  -7    2.40    0.23 
   1   2   7    2.50    0.24 
   1   2   7    2.36    0.17 
  -2  -2  -7    0.56    0.19 
  -2  -2  -7    0.56    0.11 
   2   2   7    0.72    0.19 
  -3  -2  -7    0.79    0.22 
   3   2   7    0.84    0.23 
  -4  -2  -7    0.77    0.26 
   4   2   7    0.93    0.31 
  -5  -2  -7    0.50    0.30 
   5   2   7    0.87    0.38 
   5  -3  -7    2.35    0.36 
  -5   3   7    1.51    0.28 
   4  -3  -7    0.75    0.26 
  -4   3   7    0.34    0.23 
  -4   3   7    0.23    0.20 
   3  -3  -7   68.48    1.24 
  -3   3   7   70.46    1.17 
  -3   3   7   70.20    1.19 
   2  -3  -7    0.15    0.20 
  -2   3   7    0.35    0.15 
  -2   3   7   -0.05    0.15 
   1  -3  -7    0.44    0.13 
   1  -3  -7    0.80    0.20 
  -1   3   7    0.19    0.14 
  -1   3   7    0.54    0.13 
   0  -3  -7    5.36    0.32 
   0  -3  -7    5.53    0.22 
   0   3   7    5.40    0.23 
   0   3   7    5.47    0.29 
  -1  -3  -7   15.37    0.35 
  -1  -3  -7   15.42    0.44 
   1   3   7   16.03    0.45 
  -2  -3  -7    0.01    0.21 
  -2  -3  -7    0.07    0.14 
   2   3   7    0.21    0.22 
  -3  -3  -7    2.99    0.24 
  -3  -3  -7    2.95    0.30 
   3   3   7    3.48    0.33 
  -4  -3  -7    2.98    0.33 
   4   3   7    3.56    0.40 
  -5  -3  -7    7.97    0.70 
   5   3   7    8.65    0.60 
   5  -4  -7    2.32    0.42 
  -5   4   7    1.69    0.32 
  -5   4   7    1.34    0.32 
   4  -4  -7    0.33    0.33 
  -4   4   7   -0.05    0.23 
  -4   4   7    0.11    0.26 
   3  -4  -7    3.59    0.35 
  -3   4   7    3.13    0.26 
  -3   4   7    2.67    0.24 
   2  -4  -7    6.95    0.43 
  -2   4   7    7.30    0.32 
  -2   4   7    6.80    0.32 
   1  -4  -7    6.92    0.41 
  -1   4   7    7.16    0.29 
  -1   4   7    7.08    0.32 
   0  -4  -7    2.20    0.19 
   0  -4  -7    2.68    0.29 
  -1  -4  -7   17.20    0.42 
  -1  -4  -7   18.05    0.54 
   1   4   7   17.27    0.52 
  -2  -4  -7    3.66    0.39 
  -2  -4  -7    3.29    0.27 
   2   4   7    3.40    0.33 
  -3  -4  -7   -0.31    0.29 
  -3  -4  -7   -0.16    0.20 
   3   4   7    0.27    0.31 
  -4  -4  -7   11.49    0.61 
  -4  -4  -7   12.01    0.44 
   4   4   7   11.74    0.64 
   4  -5  -7    0.46    0.44 
  -4   5   7    0.16    0.32 
  -4   5   7    0.44    0.28 
   3  -5  -7    2.86    0.42 
  -3   5   7    2.63    0.32 
  -3   5   7    2.61    0.30 
   2  -5  -7    3.77    0.43 
  -2   5   7    3.41    0.28 
   1  -5  -7    0.91    0.34 
  -1   5   7    0.85    0.22 
   0  -5  -7    3.63    0.38 
  -1  -5  -7   16.61    0.61 
  -1  -5  -7   17.48    0.47 
   1   5   7   17.27    0.56 
  -2  -5  -7    0.07    0.32 
  -2  -5  -7    0.10    0.22 
   2   5   7    0.82    0.34 
  -3  -5  -7    0.25    0.38 
  -3  -5  -7    0.62    0.26 
   3   5   7    0.98    0.39 
   3  -6  -7   -0.67    0.49 
  -3   6   7    0.11    0.34 
   2  -6  -7   -0.17    0.44 
  -2   6   7   -0.70    0.31 
   1  -6  -7   -0.81    0.41 
   0  -6  -7    0.64    0.41 
  -1  -6  -7    5.79    0.59 
   2   6   7    3.09    0.50 
   2   6  -8   -0.33    0.28 
  -2  -6   8   -0.01    0.35 
   1   6  -8    5.19    0.42 
   0   6  -8   -0.12    0.26 
  -1   6  -8    3.62    0.31 
  -2   6  -8    0.43    0.30 
   2  -6   8    1.06    0.32 
  -3   6  -8    0.02    0.30 
  -3   6  -8    0.18    0.34 
   3  -6   8    0.49    0.37 
   4   5  -8   11.71    0.56 
   3   5  -8   -0.37    0.25 
  -3  -5   8    0.07    0.26 
  -3  -5   8    0.14    0.31 
   2   5  -8    1.07    0.25 
  -2  -5   8    0.92    0.25 
  -2  -5   8    0.71    0.29 
   1   5  -8    4.61    0.36 
  -1  -5   8    4.52    0.39 
   0   5  -8    3.48    0.26 
  -1   5  -8    0.36    0.22 
   1  -5   8    0.08    0.23 
  -2   5  -8    0.19    0.23 
  -2   5  -8   -0.30    0.23 
   2  -5   8    0.27    0.26 
  -3   5  -8    0.61    0.25 
  -3   5  -8    0.22    0.26 
   3  -5   8    0.50    0.32 
  -4   5  -8    0.28    0.29 
  -4   5  -8    0.26    0.29 
   4  -5   8    0.36    0.40 
   4   4  -8   -0.07    0.24 
  -4  -4   8    0.25    0.25 
  -4  -4   8    0.22    0.29 
   3   4  -8    0.80    0.22 
  -3  -4   8    1.16    0.24 
  -3  -4   8    0.95    0.28 
   2   4  -8   -0.02    0.19 
  -2  -4   8    0.05    0.24 
  -2  -4   8    0.00    0.20 
   1   4  -8    0.57    0.18 
  -1  -4   8    0.57    0.19 
  -1  -4   8    0.33    0.22 
   0   4  -8   14.29    0.39 
  -1   4  -8    0.40    0.16 
  -1   4  -8    0.44    0.17 
   1  -4   8    0.55    0.19 
  -2   4  -8    2.24    0.19 
  -2   4  -8    2.26    0.21 
   2  -4   8    2.17    0.26 
  -3   4  -8    2.88    0.25 
  -3   4  -8    3.06    0.22 
   3  -4   8    2.36    0.32 
  -4   4  -8    0.97    0.25 
   4  -4   8    1.73    0.38 
  -5   4  -8    1.30    0.31 
   5  -4   8    2.25    0.48 
   5   3  -8    1.00    0.25 
  -5  -3   8    0.90    0.31 
   4   3  -8    0.00    0.20 
  -4  -3   8    0.10    0.24 
   3   3  -8    6.17    0.31 
  -3  -3   8    6.43    0.38 
  -3  -3   8    6.84    0.30 
   2   3  -8    7.54    0.29 
  -2  -3   8    7.65    0.29 
  -2  -3   8    7.73    0.36 
   1   3  -8   73.30    1.21 
  -1  -3   8   72.23    1.20 
  -1  -3   8   74.79    1.28 
   0   3  -8   22.73    0.46 
   0   3  -8   23.13    0.45 
   0  -3   8   22.95    0.46 
   0  -3   8   22.00    0.50 
  -1   3  -8    0.80    0.15 
  -1   3  -8    0.47    0.13 
   1  -3   8    0.52    0.16 
  -2   3  -8    0.06    0.14 
  -2   3  -8    0.09    0.13 
   2  -3   8    0.01    0.19 
  -3   3  -8    0.11    0.15 
  -3   3  -8    0.10    0.17 
   3  -3   8    0.27    0.24 
  -4   3  -8    4.61    0.31 
   4  -3   8    4.29    0.44 
   5  -3   8    1.88    0.41 
   5   2  -8    1.96    0.25 
  -5  -2   8    2.24    0.30 
   4   2  -8    6.98    0.33 
  -4  -2   8    6.89    0.39 
   3   2  -8    3.35    0.26 
  -3  -2   8    3.19    0.29 
   2   2  -8    0.58    0.13 
  -2  -2   8    0.63    0.12 
  -2  -2   8    0.62    0.16 
   1   2  -8    7.44    0.21 
   1   2  -8    6.75    0.22 
  -1  -2   8    7.04    0.23 
  -1  -2   8    7.16    0.28 
   0   2  -8    4.99    0.20 
   0  -2   8    4.63    0.25 
   0  -2   8    4.56    0.20 
  -1   2  -8    0.02    0.15 
  -1   2  -8   -0.04    0.11 
  -1   2  -8   -0.08    0.11 
   1  -2   8    0.02    0.11 
  -2   2  -8    2.21    0.20 
  -2   2  -8    1.98    0.17 
  -2   2  -8    2.07    0.18 
  -3   2  -8    0.55    0.13 
  -3   2  -8    0.33    0.20 
  -4   2  -8   16.13    0.40 
   6   1  -8    1.43    0.28 
  -6  -1   8    1.39    0.32 
   5   1  -8    5.64    0.36 
  -5  -1   8    5.61    0.39 
   4   1  -8    3.41    0.29 
  -4  -1   8    3.65    0.32 
   3   1  -8    0.08    0.13 
  -3  -1   8    0.14    0.16 
   2   1  -8   18.49    0.38 
  -2  -1   8   19.52    0.45 
  -2  -1   8   18.93    0.38 
   1   1  -8   22.11    0.40 
   1   1  -8   22.17    0.41 
  -1  -1   8   21.82    0.41 
  -1  -1   8   22.30    0.47 
   0   1  -8   11.09    0.25 
   0   1  -8   11.41    0.25 
   0  -1   8   11.34    0.26 
   0  -1   8   11.57    0.31 
  -1   1  -8   30.16    0.52 
  -1   1  -8   29.07    0.56 
   1  -1   8   30.38    0.52 
   1  -1   8   30.19    0.58 
  -2   1  -8    6.63    0.29 
  -2   1  -8    6.89    0.20 
   2  -1   8    6.66    0.30 
  -3   1  -8   51.38    0.96 
  -4   1  -8    4.46    0.36 
   4  -1   8    4.34    0.34 
  -5   1  -8    0.22    0.28 
   6   0  -8    0.01    0.24 
   5   0  -8    0.29    0.20 
  -5   0   8    0.04    0.22 
   4   0  -8    0.72    0.18 
  -4   0   8    0.89    0.21 
   3   0  -8   28.78    0.56 
  -3   0   8   29.16    0.62 
   2   0  -8   27.31    0.50 
  -2   0   8   27.41    0.49 
  -2   0   8   28.18    0.57 
   1   0  -8   17.25    0.34 
  -1   0   8   17.24    0.34 
  -1   0   8   17.73    0.40 
   0   0  -8   20.15    0.38 
   0   0  -8   20.34    0.40 
   0   0   8   20.68    0.45 
   0   0   8   19.73    0.38 
  -1   0  -8   29.22    0.56 
  -1   0  -8   29.00    0.50 
   1   0   8   29.51    0.50 
   1   0   8   28.59    0.58 
  -2   0  -8    0.95    0.16 
   2   0   8    0.67    0.18 
  -3   0  -8    0.28    0.18 
   3   0   8    0.03    0.20 
  -4   0  -8    5.46    0.39 
   4   0   8    5.15    0.38 
  -5   0  -8    1.49    0.31 
   5   0   8    1.79    0.32 
  -6   0  -8    4.61    0.44 
  -4   1   8    3.43    0.29 
  -3   1   8   15.54    0.38 
  -3   1   8   15.08    0.34 
  -3   1   8   15.09    0.42 
  -2   1   8    6.43    0.22 
  -2   1   8    6.26    0.23 
  -2   1   8    6.64    0.28 
   1  -1  -8   18.88    0.40 
   1  -1  -8   18.82    0.36 
  -1   1   8   19.69    0.43 
  -1   1   8   18.74    0.37 
  -1   1   8   19.04    0.36 
   0  -1  -8   -0.03    0.09 
   0  -1  -8   -0.09    0.12 
   0   1   8   -0.01    0.18 
   0   1   8   -0.12    0.10 
  -1  -1  -8    0.62    0.15 
  -1  -1  -8    0.69    0.10 
   1   1   8    0.56    0.17 
   1   1   8    0.64    0.11 
  -2  -1  -8    2.74    0.16 
  -2  -1  -8    2.83    0.25 
   2   1   8    2.92    0.27 
  -3  -1  -8    4.75    0.32 
   3   1   8    4.47    0.35 
  -4  -1  -8    4.21    0.38 
   4   1   8    4.91    0.42 
  -5  -1  -8    2.79    0.35 
   5   1   8    4.18    0.48 
  -6  -1  -8    0.37    0.37 
   6   1   8    1.95    0.45 
  -5   2   8   -0.26    0.23 
   4  -2  -8    4.53    0.35 
  -4   2   8    3.84    0.33 
   3  -2  -8   44.58    0.85 
  -3   2   8   46.77    0.82 
  -3   2   8   45.28    0.79 
   2  -2  -8    0.21    0.18 
  -2   2   8    0.09    0.13 
  -2   2   8    0.45    0.15 
   1  -2  -8    1.98    0.19 
   1  -2  -8    1.32    0.12 
  -1   2   8    1.98    0.20 
  -1   2   8    1.68    0.13 
  -1   2   8    1.49    0.14 
   0  -2  -8    0.41    0.16 
   0  -2  -8    0.41    0.11 
   0   2   8    0.50    0.12 
   0   2   8    0.65    0.18 
  -1  -2  -8   19.75    0.38 
  -1  -2  -8   18.67    0.45 
   1   2   8   19.57    0.47 
  -2  -2  -8   16.81    0.35 
  -2  -2  -8   17.21    0.47 
   2   2   8   16.67    0.48 
  -3  -2  -8    1.24    0.24 
   3   2   8    0.91    0.25 
  -4  -2  -8    1.43    0.28 
   4   2   8    1.90    0.34 
  -5  -2  -8    1.84    0.35 
   5   2   8    3.09    0.42 
   5  -3  -8    5.33    0.59 
  -5   3   8    3.49    0.32 
   4  -3  -8    3.29    0.36 
  -4   3   8    2.70    0.28 
  -4   3   8    2.55    0.24 
   3  -3  -8    0.77    0.26 
  -3   3   8    1.14    0.21 
  -3   3   8    0.66    0.19 
   2  -3  -8    9.05    0.40 
  -2   3   8    9.10    0.31 
  -2   3   8    9.46    0.33 
   1  -3  -8    5.45    0.33 
  -1   3   8    5.92    0.24 
  -1   3   8    5.86    0.26 
   0  -3  -8    0.34    0.13 
   0  -3  -8    0.19    0.20 
   0   3   8    0.08    0.20 
  -1  -3  -8    7.39    0.26 
  -1  -3  -8    7.55    0.36 
   1   3   8    7.49    0.37 
  -2  -3  -8    0.15    0.22 
  -2  -3  -8   -0.05    0.14 
   2   3   8    0.38    0.24 
  -3  -3  -8    1.56    0.18 
  -3  -3  -8    1.57    0.28 
   3   3   8    1.98    0.31 
  -4  -3  -8    6.03    0.49 
   4   3   8    6.02    0.51 
  -5  -3  -8    0.27    0.38 
   5  -4  -8    2.09    0.46 
  -5   4   8    1.23    0.33 
  -5   4   8    1.47    0.34 
   4  -4  -8   10.26    0.62 
  -4   4   8    9.74    0.48 
  -4   4   8    9.68    0.44 
   3  -4  -8    0.12    0.31 
  -3   4   8    0.13    0.24 
  -3   4   8    0.27    0.22 
   2  -4  -8    2.80    0.34 
  -2   4   8    2.82    0.23 
  -2   4   8    2.63    0.24 
   1  -4  -8    0.95    0.28 
  -1   4   8    1.01    0.18 
   0  -4  -8    1.37    0.18 
   0  -4  -8    1.33    0.29 
   0   4   8    1.49    0.26 
  -1  -4  -8   48.72    0.97 
  -1  -4  -8   47.79    0.85 
   1   4   8   46.19    0.95 
  -2  -4  -8    1.06    0.29 
  -2  -4  -8    0.86    0.19 
   2   4   8    1.66    0.30 
  -3  -4  -8    1.04    0.33 
  -3  -4  -8    0.70    0.21 
   3   4   8    1.39    0.35 
  -4  -4  -8   -0.07    0.23 
  -4  -4  -8    0.01    0.36 
   4   4   8    0.43    0.40 
   4  -5  -8    2.48    0.49 
  -4   5   8    1.87    0.36 
  -4   5   8    2.27    0.36 
   3  -5  -8    2.71    0.46 
  -3   5   8    2.74    0.31 
  -3   5   8    2.63    0.34 
   2  -5  -8    1.89    0.41 
  -2   5   8    1.47    0.26 
   1  -5  -8    0.08    0.34 
   0  -5  -8    1.70    0.36 
  -1  -5  -8    0.35    0.24 
  -1  -5  -8    1.14    0.34 
   1   5   8    1.39    0.33 
  -2  -5  -8    0.24    0.34 
  -2  -5  -8   -0.51    0.23 
   2   5   8    0.56    0.34 
  -3  -5  -8    0.29    0.39 
  -3  -5  -8   -0.24    0.25 
   3   5   8    0.98    0.41 
  -3   6   8    0.86    0.38 
   2  -6  -8   -0.26    0.44 
   1  -6  -8   -0.01    0.43 
   0  -6  -8    1.92    0.45 
  -1  -6  -8    0.51    0.42 
  -2  -6  -8    1.90    0.44 
   2   6   8    3.45    0.59 
   2   6  -9    4.57    0.36 
  -2  -6   9    3.42    0.46 
   1   6  -9    0.06    0.28 
   0   6  -9    2.42    0.30 
  -1   6  -9    0.64    0.29 
  -2   6  -9   -0.10    0.29 
   2  -6   9    0.45    0.33 
  -3   6  -9    0.33    0.37 
   3  -6   9    0.42    0.37 
   3   5  -9   -0.20    0.26 
  -3  -5   9    0.08    0.32 
  -3  -5   9   -0.10    0.27 
   2   5  -9    0.24    0.25 
  -2  -5   9    0.05    0.28 
  -2  -5   9    0.01    0.25 
   1   5  -9    0.98    0.25 
  -1  -5   9    0.92    0.28 
   0   5  -9    7.77    0.38 
  -1   5  -9    0.63    0.24 
   1  -5   9    0.84    0.25 
  -2   5  -9   -0.12    0.23 
  -2   5  -9   -0.15    0.24 
   2  -5   9    0.11    0.27 
  -3   5  -9    4.14    0.30 
  -3   5  -9    3.83    0.32 
   3  -5   9    3.69    0.38 
  -4   5  -9    7.77    0.47 
  -4   5  -9    7.33    0.47 
   4  -5   9    7.50    0.65 
   4   4  -9   -0.10    0.25 
  -4  -4   9    0.11    0.28 
  -4  -4   9    0.13    0.26 
   3   4  -9    0.10    0.22 
  -3  -4   9   -0.11    0.23 
  -3  -4   9    0.01    0.27 
   2   4  -9    0.13    0.20 
  -2  -4   9    0.62    0.21 
  -2  -4   9    0.19    0.25 
   1   4  -9    5.35    0.31 
  -1  -4   9    5.46    0.37 
  -1  -4   9    5.73    0.32 
   0   4  -9    0.19    0.18 
  -1   4  -9    0.30    0.18 
  -1   4  -9    0.14    0.16 
  -2   4  -9   10.43    0.37 
  -2   4  -9   10.38    0.34 
   2  -4   9   10.10    0.42 
  -3   4  -9   -0.18    0.19 
  -3   4  -9    0.04    0.22 
   3  -4   9    0.20    0.28 
  -4   4  -9    7.57    0.37 
  -4   4  -9    6.94    0.40 
   4  -4   9    7.81    0.55 
   5  -4   9    0.11    0.51 
   5   3  -9    0.78    0.26 
  -5  -3   9    0.72    0.32 
   4   3  -9    0.60    0.22 
  -4  -3   9    0.47    0.26 
   3   3  -9    5.61    0.31 
  -3  -3   9    5.84    0.31 
  -3  -3   9    5.77    0.39 
   2   3  -9    5.47    0.28 
  -2  -3   9    5.05    0.28 
  -2  -3   9    5.54    0.34 
   1   3  -9   91.55    1.50 
  -1  -3   9   93.57    1.58 
  -1  -3   9   91.44    1.49 
   0   3  -9   14.82    0.36 
   0   3  -9   15.06    0.35 
   0  -3   9   14.43    0.42 
   0  -3   9   14.79    0.36 
  -1   3  -9    1.87    0.17 
  -1   3  -9    2.02    0.16 
   1  -3   9    1.74    0.19 
  -2   3  -9    1.48    0.17 
  -2   3  -9    1.66    0.16 
   2  -3   9    1.40    0.23 
  -3   3  -9    0.50    0.18 
  -3   3  -9    0.44    0.17 
   3  -3   9    0.47    0.26 
  -4   3  -9    6.72    0.33 
   4  -3   9    7.44    0.49 
   5  -3   9    1.23    0.41 
   5   2  -9    0.23    0.23 
  -5  -2   9   -0.02    0.26 
   4   2  -9    0.44    0.20 
  -4  -2   9    0.34    0.23 
   3   2  -9    1.67    0.19 
  -3  -2   9    1.72    0.16 
  -3  -2   9    1.45    0.22 
   2   2  -9   -0.04    0.13 
  -2  -2   9   -0.06    0.16 
  -2  -2   9   -0.10    0.13 
   1   2  -9   10.61    0.28 
  -1  -2   9   10.67    0.29 
  -1  -2   9   10.62    0.34 
   0   2  -9    9.54    0.26 
   0  -2   9    9.37    0.27 
   0  -2   9    9.19    0.32 
  -1   2  -9    0.31    0.12 
  -1   2  -9    0.11    0.12 
  -1   2  -9    0.26    0.16 
   1  -2   9    0.36    0.16 
   1  -2   9    0.08    0.17 
  -2   2  -9    3.78    0.20 
  -2   2  -9    3.50    0.28 
  -2   2  -9    3.65    0.19 
  -3   2  -9   21.73    0.44 
  -3   2  -9   22.04    0.55 
  -4   2  -9    0.11    0.27 
   6   1  -9    1.10    0.30 
  -6  -1   9    0.68    0.31 
   5   1  -9    1.53    0.24 
  -5  -1   9    1.18    0.28 
   4   1  -9    3.20    0.23 
  -4  -1   9    2.97    0.33 
   3   1  -9    0.10    0.14 
  -3  -1   9    0.15    0.14 
  -3  -1   9    0.18    0.17 
   2   1  -9    1.84    0.14 
  -2  -1   9    2.44    0.24 
  -2  -1   9    2.28    0.19 
   1   1  -9   19.36    0.38 
   1   1  -9   19.60    0.37 
  -1  -1   9   19.22    0.39 
  -1  -1   9   19.63    0.45 
   0   1  -9    1.55    0.12 
   0   1  -9    1.49    0.12 
   0  -1   9    1.43    0.13 
   0  -1   9    1.79    0.17 
  -1   1  -9   27.16    0.49 
  -1   1  -9   27.05    0.54 
   1  -1   9   27.94    0.49 
   1  -1   9   27.44    0.56 
  -2   1  -9   39.06    0.75 
  -2   1  -9   39.06    0.67 
   2  -1   9   39.24    0.76 
  -3   1  -9   56.16    1.03 
   3  -1   9   54.03    1.01 
  -4   1  -9    4.04    0.39 
  -5   1  -9    0.67    0.32 
   6   0  -9    0.18    0.26 
   5   0  -9    0.39    0.22 
  -5   0   9    0.01    0.23 
   4   0  -9    3.67    0.28 
  -4   0   9    3.80    0.32 
   3   0  -9    5.01    0.25 
  -3   0   9    4.65    0.31 
  -3   0   9    4.70    0.23 
   2   0  -9    0.29    0.11 
  -2   0   9    0.28    0.12 
  -2   0   9    0.14    0.16 
   1   0  -9    1.03    0.11 
   1   0  -9    1.05    0.11 
  -1   0   9    1.21    0.16 
  -1   0   9    0.98    0.12 
   0   0  -9    0.29    0.10 
   0   0   9    0.31    0.16 
   0   0   9    0.31    0.11 
  -1   0  -9    8.20    0.22 
  -1   0  -9    8.31    0.28 
   1   0   9    8.64    0.34 
   1   0   9    8.42    0.23 
  -2   0  -9    0.76    0.17 
   2   0   9    1.07    0.21 
  -3   0  -9   30.10    0.66 
   3   0   9   29.62    0.66 
  -4   0  -9    2.91    0.31 
   4   0   9    3.10    0.31 
  -5   0  -9    0.31    0.31 
   5   0   9    0.58    0.32 
  -6   0  -9    1.92    0.45 
   6  -1  -9    0.15    0.30 
   5  -1  -9    5.08    0.41 
  -3   1   9    1.03    0.15 
  -3   1   9    0.77    0.19 
  -2   1   9    1.70    0.15 
  -2   1   9    1.66    0.19 
   1  -1  -9    8.02    0.26 
   1  -1  -9    7.93    0.22 
  -1   1   9    8.01    0.24 
  -1   1   9    7.87    0.30 
   0  -1  -9    2.89    0.17 
   0  -1  -9    2.90    0.20 
   0   1   9    3.45    0.29 
   0   1   9    2.99    0.18 
  -1  -1  -9    0.17    0.10 
  -1  -1  -9    0.15    0.15 
   1   1   9    0.02    0.11 
   1   1   9    0.12    0.18 
  -2  -1  -9    0.03    0.17 
  -2  -1  -9    0.02    0.10 
   2   1   9   -0.01    0.18 
  -3  -1  -9    7.29    0.37 
   3   1   9    7.18    0.39 
  -4  -1  -9    0.03    0.25 
   4   1   9    0.45    0.28 
  -5  -1  -9    1.89    0.35 
   5   1   9    2.55    0.38 
  -5   2   9    0.62    0.26 
   4  -2  -9    9.78    0.42 
  -4   2   9    9.41    0.39 
  -3   2   9   23.76    0.50 
  -3   2   9   24.30    0.53 
   2  -2  -9    4.78    0.31 
  -2   2   9    5.32    0.25 
  -2   2   9    5.33    0.26 
   1  -2  -9    0.30    0.17 
   1  -2  -9    0.16    0.12 
  -1   2   9    0.34    0.19 
  -1   2   9    0.42    0.14 
   0  -2  -9   25.88    0.48 
   0  -2  -9   25.48    0.54 
   0   2   9   26.78    0.57 
   0   2   9   25.55    0.49 
  -1  -2  -9    4.12    0.20 
  -1  -2  -9    4.43    0.27 
   1   2   9    4.32    0.30 
  -2  -2  -9    1.66    0.15 
  -2  -2  -9    1.69    0.23 
   2   2   9    1.83    0.25 
  -3  -2  -9    0.25    0.24 
   3   2   9    0.61    0.27 
  -4  -2  -9    0.96    0.30 
   4   2   9    1.33    0.34 
  -5  -2  -9    2.15    0.37 
   5   2   9    3.28    0.45 
  -5   3   9    1.74    0.31 
   4  -3  -9    0.44    0.30 
  -4   3   9   -0.01    0.25 
  -4   3   9    0.20    0.22 
   3  -3  -9   12.00    0.47 
  -3   3   9   11.97    0.38 
  -3   3   9   11.93    0.41 
   2  -3  -9    2.50    0.28 
  -2   3   9    2.59    0.20 
  -2   3   9    2.70    0.21 
   1  -3  -9   20.05    0.53 
  -1   3   9   19.82    0.44 
   0  -3  -9   15.39    0.37 
   0  -3  -9   15.21    0.46 
   0   3   9   15.44    0.47 
  -1  -3  -9    4.12    0.24 
  -1  -3  -9    3.98    0.33 
   1   3   9    3.85    0.34 
  -2  -3  -9    0.07    0.15 
  -2  -3  -9    0.07    0.23 
   2   3   9    0.27    0.25 
  -3  -3  -9    1.47    0.29 
  -3  -3  -9    1.47    0.19 
   3   3   9    1.79    0.32 
  -4  -3  -9   -0.15    0.31 
   4   3   9    0.72    0.36 
  -5  -3  -9    0.05    0.39 
   5  -4  -9    0.82    0.46 
  -5   4   9    0.52    0.35 
  -5   4   9   -0.07    0.32 
   4  -4  -9   11.37    0.65 
  -4   4   9   11.46    0.49 
  -4   4   9   11.98    0.52 
   3  -4  -9    0.12    0.34 
  -3   4   9    0.06    0.23 
  -3   4   9    0.41    0.26 
   2  -4  -9   -0.01    0.30 
  -2   4   9    0.09    0.21 
  -2   4   9   -0.10    0.21 
   1  -4  -9   -0.34    0.28 
  -1   4   9    0.38    0.18 
   0  -4  -9   33.55    0.77 
   0   4   9   32.60    0.74 
  -1  -4  -9    5.14    0.42 
  -1  -4  -9    5.13    0.30 
   1   4   9    5.13    0.40 
  -2  -4  -9    4.34    0.29 
  -2  -4  -9    3.53    0.35 
   2   4   9    4.64    0.42 
  -3  -4  -9   -0.03    0.32 
  -3  -4  -9    0.30    0.22 
   3   4   9    0.50    0.35 
  -4  -4  -9    6.16    0.38 
  -4  -4  -9    5.59    0.60 
   4   4   9    6.26    0.56 
   4  -5  -9    0.23    0.50 
  -4   5   9    0.30    0.39 
  -4   5   9    0.55    0.36 
   3  -5  -9    4.75    0.52 
  -3   5   9    4.23    0.37 
  -3   5   9    3.98    0.38 
   2  -5  -9    1.20    0.39 
  -2   5   9    0.72    0.28 
   1  -5  -9    1.13    0.37 
   0  -5  -9    2.62    0.39 
  -1  -5  -9    1.66    0.38 
   1   5   9    2.56    0.35 
  -2  -5  -9    0.50    0.36 
  -2  -5  -9    0.53    0.24 
   2   5   9    1.24    0.36 
  -3  -5  -9    3.92    0.46 
  -3  -5  -9    4.82    0.39 
   3   5   9    6.59    0.58 
  -3   6   9    0.61    0.38 
   2  -6  -9    0.12    0.46 
   1  -6  -9   -0.55    0.44 
   0  -6  -9    3.71    0.51 
  -1  -6  -9   -0.10    0.43 
  -2  -6  10    0.06    0.52 
   1   6 -10    0.98    0.30 
   0   6 -10    0.36    0.28 
  -1   6 -10    0.03    0.28 
  -2   6 -10    4.05    0.37 
   3  -6  10    1.66    0.39 
   3   5 -10    1.02    0.29 
  -3  -5  10    1.41    0.36 
  -3  -5  10    1.60    0.31 
   2   5 -10    9.77    0.45 
  -2  -5  10   11.99    0.53 
  -2  -5  10   10.41    0.55 
   1   5 -10    3.12    0.29 
  -1  -5  10    3.08    0.34 
   0   5 -10    2.19    0.26 
  -1   5 -10    0.27    0.24 
  -2   5 -10    0.25    0.24 
  -2   5 -10    0.12    0.25 
   2  -5  10    0.48    0.29 
  -3   5 -10    0.20    0.28 
  -3   5 -10   -0.03    0.27 
   3  -5  10    0.40    0.33 
  -4   5 -10    0.52    0.30 
  -4   5 -10    0.91    0.31 
   4  -5  10    1.06    0.44 
   4   4 -10    0.90    0.27 
  -4  -4  10    1.07    0.32 
  -4  -4  10    1.34    0.28 
   3   4 -10    2.48    0.26 
  -3  -4  10    2.62    0.26 
  -3  -4  10    2.09    0.32 
   2   4 -10    0.63    0.22 
  -2  -4  10    0.20    0.26 
  -2  -4  10    0.53    0.21 
   1   4 -10    9.59    0.38 
  -1  -4  10    9.81    0.37 
  -1  -4  10    9.49    0.44 
   0   4 -10    0.07    0.19 
   0  -4  10    0.33    0.23 
  -1   4 -10    0.14    0.19 
  -1   4 -10   -0.10    0.17 
  -2   4 -10    1.19    0.22 
  -2   4 -10    0.91    0.20 
   2  -4  10    0.96    0.25 
  -3   4 -10    2.03    0.23 
  -3   4 -10    1.97    0.25 
   3  -4  10    2.18    0.33 
  -4   4 -10    0.48    0.26 
  -4   4 -10    0.62    0.23 
   4  -4  10    0.32    0.38 
   5   3 -10    1.55    0.29 
  -5  -3  10    1.57    0.36 
   4   3 -10    3.10    0.27 
  -4  -3  10    3.36    0.27 
  -4  -3  10    2.60    0.33 
   3   3 -10    1.06    0.21 
  -3  -3  10    0.76    0.21 
  -3  -3  10    0.87    0.25 
   2   3 -10    8.56    0.33 
  -2  -3  10    8.60    0.33 
  -2  -3  10    8.74    0.40 
   1   3 -10   16.38    0.41 
  -1  -3  10   16.62    0.48 
  -1  -3  10   16.49    0.41 
   0   3 -10    3.08    0.25 
   0   3 -10    2.59    0.22 
   0  -3  10    2.75    0.20 
   0  -3  10    2.81    0.25 
  -1   3 -10    0.14    0.14 
  -1   3 -10    0.27    0.16 
   1  -3  10    0.26    0.18 
  -2   3 -10   15.66    0.38 
  -2   3 -10   15.40    0.39 
   2  -3  10   14.96    0.46 
  -3   3 -10    0.39    0.18 
  -3   3 -10    0.30    0.18 
   3  -3  10    0.63    0.28 
  -4   3 -10    1.83    0.29 
   4  -3  10    2.30    0.37 
   5  -3  10    0.43    0.41 
   5   2 -10    7.74    0.43 
  -5  -2  10    7.08    0.48 
   4   2 -10    1.26    0.23 
  -4  -2  10    1.07    0.25 
   3   2 -10    2.85    0.21 
  -3  -2  10    2.33    0.25 
  -3  -2  10    3.36    0.20 
   2   2 -10   22.90    0.49 
  -2  -2  10   22.99    0.47 
  -2  -2  10   23.19    0.56 
   1   2 -10   29.36    0.56 
  -1  -2  10   30.56    0.57 
  -1  -2  10   30.78    0.64 
   0   2 -10   10.88    0.29 
   0   2 -10   10.65    0.29 
   0  -2  10   10.81    0.30 
   0  -2  10   10.49    0.36 
  -1   2 -10    1.14    0.14 
  -1   2 -10    1.27    0.18 
  -1   2 -10    1.34    0.14 
   1  -2  10    1.04    0.19 
  -2   2 -10    1.75    0.15 
  -2   2 -10    2.14    0.22 
  -2   2 -10    2.00    0.15 
  -3   2 -10   22.71    0.46 
  -3   2 -10   23.37    0.58 
  -3   2 -10   22.53    0.46 
  -4   2 -10    2.98    0.34 
  -6  -1  10    0.69    0.32 
   5   1 -10    1.11    0.25 
  -5  -1  10    0.91    0.27 
   4   1 -10    0.19    0.19 
  -4  -1  10    0.13    0.21 
   3   1 -10    0.91    0.16 
  -3  -1  10    0.47    0.19 
  -3  -1  10    0.60    0.16 
   2   1 -10   10.66    0.30 
  -2  -1  10   10.97    0.30 
  -2  -1  10   11.32    0.37 
   1   1 -10   24.29    0.47 
  -1  -1  10   24.99    0.47 
  -1  -1  10   24.97    0.54 
   0   1 -10    8.26    0.24 
   0   1 -10    7.98    0.23 
   0  -1  10    8.08    0.31 
   0  -1  10    8.34    0.25 
  -1   1 -10   12.32    0.29 
  -1   1 -10   11.71    0.34 
   1  -1  10   12.41    0.38 
   1  -1  10   10.25    0.39 
  -2   1 -10   11.39    0.38 
  -2   1 -10   11.44    0.29 
   2  -1  10   11.45    0.42 
  -3   1 -10   23.76    0.59 
   3  -1  10   22.42    0.58 
  -4   1 -10    0.18    0.28 
   4  -1  10    0.45    0.29 
  -5   1 -10    2.18    0.37 
   5   0 -10    1.53    0.25 
  -5   0  10    1.19    0.27 
   4   0 -10   -0.04    0.18 
  -4   0  10    0.11    0.21 
   3   0 -10    3.14    0.25 
  -3   0  10    3.07    0.23 
  -3   0  10    3.33    0.31 
   2   0 -10   18.52    0.39 
  -2   0  10   18.73    0.39 
  -2   0  10   18.93    0.47 
   1   0 -10   20.66    0.40 
   1   0 -10   20.92    0.41 
  -1   0  10   21.18    0.48 
  -1   0  10   20.83    0.41 
   0   0 -10   12.29    0.29 
   0   0 -10   12.33    0.32 
   0   0  10   12.64    0.37 
   0   0  10   12.48    0.30 
  -1   0 -10    2.68    0.23 
  -1   0 -10    2.52    0.17 
   1   0  10    2.81    0.30 
   1   0  10    2.30    0.17 
  -2   0 -10   16.69    0.44 
  -2   0 -10   16.65    0.35 
   2   0  10   17.00    0.48 
  -3   0 -10    6.57    0.37 
   3   0  10    6.55    0.39 
  -4   0 -10    8.70    0.48 
   4   0  10    8.53    0.46 
  -5   0 -10    0.08    0.33 
   5   0  10    1.01    0.35 
   5  -1 -10    0.43    0.26 
  -3   1  10    0.05    0.21 
  -3   1  10   -0.18    0.16 
  -2   1  10    5.07    0.31 
  -2   1  10    4.97    0.24 
   1  -1 -10    0.60    0.11 
   1  -1 -10    0.50    0.12 
   1  -1 -10    0.57    0.15 
  -1   1  10    0.43    0.14 
  -1   1  10    0.57    0.18 
   0  -1 -10    2.65    0.22 
   0  -1 -10    2.88    0.18 
   0   1  10    2.83    0.30 
   0   1  10    2.78    0.20 
  -1  -1 -10   -0.12    0.16 
  -1  -1 -10   -0.01    0.11 
   1   1  10    0.03    0.19 
  -2  -1 -10    1.83    0.14 
  -2  -1 -10    1.94    0.22 
   2   1  10    1.49    0.24 
  -3  -1 -10   10.54    0.43 
   3   1  10   10.29    0.45 
  -4  -1 -10    0.43    0.28 
   4   1  10    0.53    0.31 
  -5  -1 -10    6.77    0.56 
   5   1  10    6.81    0.56 
  -5   2  10    0.55    0.27 
  -4   2  10   11.03    0.39 
  -4   2  10   11.35    0.42 
   3  -2 -10    3.97    0.34 
  -3   2  10    4.56    0.32 
  -3   2  10    4.13    0.29 
   2  -2 -10    1.80    0.22 
  -2   2  10    1.75    0.18 
  -2   2  10    1.93    0.19 
   1  -2 -10   -0.06    0.18 
   1  -2 -10   -0.06    0.13 
  -1   2  10   -0.17    0.13 
  -1   2  10    0.04    0.20 
   0  -2 -10    0.68    0.13 
   0  -2 -10    0.56    0.18 
   0   2  10    0.80    0.15 
   0   2  10    0.67    0.25 
  -1  -2 -10   -0.04    0.13 
  -1  -2 -10    0.04    0.17 
   1   2  10   -0.07    0.21 
  -2  -2 -10    8.69    0.28 
  -2  -2 -10    8.73    0.40 
   2   2  10    8.59    0.41 
  -3  -2 -10    0.01    0.15 
  -3  -2 -10    0.18    0.25 
   3   2  10    0.14    0.28 
  -4  -2 -10    3.24    0.36 
   4   2  10    4.22    0.40 
  -5  -2 -10    0.17    0.36 
   5   2  10    0.74    0.40 
  -5   3  10    0.49    0.29 
   4  -3 -10   37.48    0.90 
  -4   3  10   35.75    0.75 
  -4   3  10   36.33    0.80 
   3  -3 -10    1.19    0.30 
  -3   3  10    1.58    0.24 
  -3   3  10    1.52    0.22 
   2  -3 -10    0.03    0.25 
  -2   3  10   -0.03    0.18 
  -2   3  10    0.27    0.19 
   1  -3 -10    0.50    0.24 
  -1   3  10    0.55    0.18 
  -1   3  10    0.33    0.25 
   0  -3 -10   22.83    0.48 
   0  -3 -10   22.77    0.58 
   0   3  10   22.84    0.59 
  -1  -3 -10    4.40    0.35 
  -1  -3 -10    4.44    0.26 
   1   3  10    4.62    0.38 
  -2  -3 -10    0.64    0.26 
  -2  -3 -10    0.37    0.16 
   2   3  10    0.45    0.28 
  -3  -3 -10    0.03    0.29 
  -3  -3 -10   -0.05    0.18 
   3   3  10    0.62    0.31 
  -4  -3 -10    0.49    0.35 
   4   3  10    1.14    0.38 
  -5   4  10   -0.06    0.43 
  -5   4  10    0.67    0.37 
   4  -4 -10    2.13    0.47 
  -4   4  10    2.39    0.30 
  -4   4  10    2.08    0.33 
   3  -4 -10    3.41    0.40 
  -3   4  10    3.60    0.29 
  -3   4  10    3.86    0.29 
   2  -4 -10   -0.36    0.32 
  -2   4  10   -0.14    0.22 
  -2   4  10    0.04    0.23 
   1  -4 -10    0.70    0.31 
   0  -4 -10    4.82    0.44 
   0   4  10    5.52    0.43 
  -1  -4 -10    5.53    0.46 
  -1  -4 -10    6.10    0.32 
   1   4  10    6.31    0.43 
  -2  -4 -10    1.28    0.33 
  -2  -4 -10    1.85    0.23 
   2   4  10    1.79    0.34 
  -3  -4 -10    3.46    0.27 
  -3  -4 -10    2.91    0.40 
   3   4  10    4.56    0.49 
  -4  -4 -10    0.24    0.41 
   4  -5 -10   -1.13    0.52 
  -4   5  10    0.06    0.38 
  -4   5  10   -0.31    0.40 
   3  -5 -10    0.95    0.47 
  -3   5  10    0.81    0.33 
   2  -5 -10    0.52    0.41 
   1  -5 -10    0.64    0.39 
   0  -5 -10   33.08    0.87 
  -1  -5 -10   -0.12    0.37 
   1   5  10    0.98    0.35 
  -2  -5 -10    0.48    0.26 
  -2  -5 -10    0.21    0.39 
   2   5  10    0.78    0.37 
  -3  -5 -10   -0.02    0.42 
  -3  -5 -10    0.27    0.28 
   1  -6 -10    0.16    0.49 
   0  -6 -10    0.06    0.46 
   1   6 -11    1.49    0.32 
   0   6 -11    0.61    0.30 
  -1   6 -11   10.96    0.51 
  -2   6 -11    0.54    0.34 
   3   5 -11    3.48    0.33 
  -3  -5  11    2.63    0.39 
  -3  -5  11    4.49    0.37 
   2   5 -11    0.74    0.28 
  -2  -5  11    0.77    0.34 
   1   5 -11    0.08    0.25 
  -1  -5  11    0.23    0.30 
   0   5 -11    0.51    0.25 
  -1   5 -11   -0.06    0.25 
  -2   5 -11    0.03    0.26 
   2  -5  11    0.56    0.29 
  -3   5 -11    1.32    0.29 
  -3   5 -11    1.09    0.30 
   3  -5  11    1.26    0.36 
  -4   5 -11    3.18    0.36 
  -4   5 -11    3.71    0.39 
   4   4 -11    2.28    0.31 
  -4  -4  11    2.56    0.30 
  -4  -4  11    1.60    0.35 
   3   4 -11   -0.08    0.24 
  -3  -4  11   -0.03    0.29 
  -3  -4  11   -0.10    0.24 
   2   4 -11   -0.22    0.22 
  -2  -4  11    0.02    0.22 
  -2  -4  11    0.18    0.27 
   1   4 -11   13.07    0.43 
  -1  -4  11   13.69    0.50 
   0   4 -11    1.25    0.22 
   0  -4  11    0.90    0.26 
  -1   4 -11    0.43    0.19 
  -1   4 -11    0.15    0.20 
  -2   4 -11    1.01    0.23 
  -2   4 -11    0.97    0.21 
   2  -4  11    0.85    0.26 
  -3   4 -11    5.12    0.37 
  -3   4 -11    5.28    0.34 
   3  -4  11    5.13    0.46 
  -4   4 -11    4.14    0.31 
  -4   4 -11    3.57    0.31 
   4  -4  11    3.56    0.45 
   4   3 -11    0.49    0.24 
  -4  -3  11    0.02    0.24 
  -4  -3  11   -0.05    0.26 
   3   3 -11    0.13    0.20 
  -3  -3  11    0.09    0.22 
  -3  -3  11   -0.13    0.23 
   2   3 -11    5.51    0.31 
  -2  -3  11    5.23    0.32 
  -2  -3  11    5.17    0.38 
   1   3 -11    0.10    0.18 
  -1  -3  11    0.01    0.22 
  -1  -3  11   -0.11    0.18 
   0   3 -11    8.32    0.32 
   0   3 -11    9.04    0.32 
   0  -3  11    8.51    0.38 
  -1   3 -11    9.32    0.31 
  -1   3 -11    9.65    0.32 
   1  -3  11    9.31    0.38 
  -2   3 -11    0.05    0.18 
  -3   3 -11    2.29    0.22 
  -4   3 -11    0.72    0.22 
   4  -3  11    0.79    0.37 
   5  -3  11    0.26    0.43 
   5   2 -11    2.37    0.29 
  -5  -2  11    1.87    0.34 
   4   2 -11    0.40    0.22 
  -4  -2  11    0.43    0.20 
  -4  -2  11    0.19    0.24 
   3   2 -11    0.41    0.19 
  -3  -2  11    0.44    0.21 
  -3  -2  11    0.40    0.19 
   2   2 -11   67.91    1.14 
  -2  -2  11   68.62    1.24 
  -2  -2  11   66.76    1.13 
   1   2 -11    9.04    0.29 
  -1  -2  11    9.30    0.30 
  -1  -2  11    9.13    0.37 
   0   2 -11    9.19    0.29 
   0   2 -11    9.44    0.28 
   0  -2  11    9.49    0.36 
   0  -2  11    9.62    0.30 
  -1   2 -11    0.15    0.14 
  -1   2 -11    0.40    0.14 
   1  -2  11    0.47    0.20 
  -2   2 -11    5.32    0.24 
  -2   2 -11    5.72    0.24 
  -2   2 -11    5.28    0.33 
   2  -2  11    5.29    0.35 
  -3   2 -11    9.75    0.43 
  -3   2 -11    9.37    0.30 
  -4   2 -11    2.62    0.34 
  -6  -1  11    0.11    0.37 
   5   1 -11   -0.06    0.25 
  -5  -1  11    0.13    0.26 
   4   1 -11    0.95    0.21 
  -4  -1  11    0.62    0.23 
   3   1 -11    3.72    0.28 
  -3  -1  11    4.61    0.27 
  -3  -1  11    4.41    0.36 
   2   1 -11    0.64    0.15 
  -2  -1  11    0.99    0.16 
  -2  -1  11    0.65    0.19 
   1   1 -11    4.94    0.23 
   1   1 -11    4.81    0.21 
  -1  -1  11    5.28    0.30 
  -1  -1  11    5.21    0.24 
   0   1 -11    4.58    0.21 
   0   1 -11    4.57    0.21 
   0  -1  11    4.84    0.29 
   0  -1  11    4.83    0.23 
  -1   1 -11    5.23    0.28 
  -1   1 -11    5.46    0.22 
   1  -1  11    5.31    0.33 
  -2   1 -11   18.09    0.49 
  -2   1 -11   18.14    0.40 
   2  -1  11   18.52    0.53 
  -3   1 -11    0.48    0.24 
   3  -1  11    0.51    0.28 
  -4   1 -11    4.39    0.45 
   4  -1  11    4.09    0.44 
  -5   1 -11    7.82    0.57 
   5   0 -11    5.88    0.41 
  -5   0  11    5.35    0.42 
   4   0 -11    2.58    0.24 
  -4   0  11    2.09    0.26 
   3   0 -11    5.74    0.30 
  -3   0  11    5.80    0.28 
  -3   0  11    5.98    0.37 
   2   0 -11    9.07    0.29 
  -2   0  11    9.35    0.37 
  -2   0  11    9.28    0.29 
   1   0 -11    9.49    0.26 
   1   0 -11    9.55    0.27 
  -1   0  11    9.48    0.28 
  -1   0  11    9.07    0.34 
   0   0 -11    8.19    0.28 
   0   0 -11    8.51    0.25 
   0   0  11    8.56    0.26 
   0   0  11    8.84    0.35 
  -1   0 -11    1.43    0.14 
  -1   0 -11    1.57    0.19 
   1   0  11    1.34    0.24 
  -2   0 -11   47.28    0.81 
  -2   0 -11   47.47    0.90 
   2   0  11   47.79    0.93 
  -3   0 -11    3.31    0.29 
   3   0  11    3.52    0.40 
  -4   0 -11    3.14    0.35 
   4   0  11    3.81    0.44 
  -5   0 -11    2.17    0.40 
   5   0  11    3.22    0.40 
   5  -1 -11    0.74    0.27 
   4  -1 -11    0.74    0.24 
  -4   1  11    0.37    0.25 
  -4   1  11    0.51    0.21 
   3  -1 -11   11.19    0.38 
  -3   1  11   11.36    0.36 
  -3   1  11   11.71    0.44 
   2  -1 -11    0.12    0.15 
  -2   1  11    0.03    0.16 
  -2   1  11    0.16    0.20 
   1  -1 -11    1.38    0.13 
   1  -1 -11    1.30    0.15 
  -1   1  11    1.54    0.16 
  -1   1  11    1.42    0.22 
   0  -1 -11    3.44    0.24 
   0  -1 -11    3.96    0.21 
   0   1  11    3.74    0.22 
   0   1  11    3.84    0.33 
  -1  -1 -11   16.64    0.44 
  -1  -1 -11   16.96    0.37 
   1   1  11   17.20    0.49 
  -2  -1 -11   12.16    0.31 
  -2  -1 -11   12.37    0.42 
   2   1  11   11.75    0.46 
  -3  -1 -11    5.00    0.40 
   3   1  11    5.11    0.42 
  -4  -1 -11    2.32    0.34 
   4   1  11    3.99    0.46 
  -5  -1 -11    4.07    0.45 
   5   1  11    5.49    0.55 
  -4   2  11    1.91    0.26 
  -4   2  11    2.28    0.25 
  -3   2  11    2.44    0.22 
  -3   2  11    2.69    0.23 
   2  -2 -11    1.65    0.23 
  -2   2  11    1.47    0.24 
  -2   2  11    1.82    0.19 
  -2   2  11    1.51    0.18 
   1  -2 -11   16.79    0.46 
  -1   2  11   17.84    0.50 
  -1   2  11   17.66    0.41 
   0  -2 -11    1.27    0.15 
   0  -2 -11    1.26    0.21 
   0   2  11    1.45    0.28 
  -1  -2 -11    3.19    0.31 
  -1  -2 -11    3.31    0.22 
   1   2  11    3.32    0.37 
  -2  -2 -11    3.29    0.36 
  -2  -2 -11    3.45    0.24 
   2   2  11    3.29    0.38 
  -3  -2 -11    0.06    0.27 
  -3  -2 -11    0.24    0.16 
   3   2  11    0.65    0.29 
  -4  -2 -11    1.11    0.35 
   4   2  11    1.31    0.36 
  -5  -2 -11    1.43    0.40 
   5   2  11    2.16    0.58 
  -5   3  11    1.92    0.33 
  -5   3  11    1.94    0.34 
   4  -3 -11   21.29    0.72 
  -4   3  11   22.32    0.57 
  -4   3  11   20.95    0.60 
   3  -3 -11    3.02    0.34 
  -3   3  11    3.26    0.27 
  -3   3  11    3.15    0.27 
   2  -3 -11    0.31    0.28 
  -2   3  11    0.58    0.21 
  -2   3  11    0.50    0.21 
   1  -3 -11    4.66    0.39 
  -1   3  11    4.52    0.40 
  -1   3  11    4.56    0.38 
   0  -3 -11    0.24    0.17 
   0  -3 -11    0.16    0.24 
   0   3  11    0.38    0.28 
  -1  -3 -11    7.36    0.40 
  -1  -3 -11    7.08    0.30 
   1   3  11    7.91    0.44 
  -2  -3 -11    0.20    0.27 
  -2  -3 -11   -0.01    0.18 
   2   3  11    0.29    0.28 
  -3  -3 -11    1.38    0.33 
  -3  -3 -11    0.96    0.21 
   3   3  11    1.74    0.36 
  -4  -3 -11    2.02    0.39 
   4   3  11    3.03    0.44 
   4  -4 -11    2.87    0.50 
  -4   4  11    3.51    0.37 
  -4   4  11    2.94    0.37 
   3  -4 -11    0.54    0.38 
  -3   4  11    0.88    0.27 
  -3   4  11    0.93    0.28 
   2  -4 -11   -0.62    0.33 
  -2   4  11    0.17    0.24 
   1  -4 -11    4.36    0.47 
   0  -4 -11    8.85    0.51 
   0   4  11    8.62    0.49 
  -1  -4 -11    0.85    0.31 
  -1  -4 -11    1.02    0.23 
   1   4  11    1.82    0.33 
  -2  -4 -11    0.84    0.34 
  -2  -4 -11    0.97    0.23 
   2   4  11    1.74    0.35 
  -3  -4 -11    4.44    0.38 
  -3  -4 -11    3.62    0.43 
   3   4  11    4.20    0.45 
   4  -5 -11   -0.38    0.55 
  -4   5  11   -0.03    0.39 
  -4   5  11    0.32    0.38 
   3  -5 -11    0.39    0.47 
  -3   5  11    0.74    0.35 
   2  -5 -11   -0.14    0.43 
   1  -5 -11   12.74    0.67 
   0  -5 -11   12.14    0.64 
  -1  -5 -11    3.72    0.45 
   1   5  11    4.36    0.50 
  -2  -5 -11    0.11    0.27 
  -2  -5 -11    0.07    0.41 
   2   5  11    1.22    0.39 
   0   6 -12    8.45    0.51 
  -1   6 -12   -0.09    0.32 
  -3  -5  12    0.23    0.37 
  -3  -5  12    0.04    0.32 
   2   5 -12    4.80    0.34 
  -2  -5  12    4.79    0.53 
   1   5 -12   -0.18    0.26 
  -1  -5  12   -0.09    0.31 
   0   5 -12    1.85    0.29 
  -1   5 -12    0.44    0.27 
  -2   5 -12    0.90    0.27 
   2  -5  12    0.97    0.32 
  -3   5 -12    0.07    0.29 
  -3   5 -12    0.76    0.29 
   3  -5  12    0.88    0.38 
  -4   5 -12    1.03    0.34 
  -4  -4  12    3.97    0.35 
   3   4 -12    3.29    0.30 
  -3  -4  12    3.34    0.30 
  -3  -4  12    2.44    0.36 
   2   4 -12    7.30    0.40 
  -2  -4  12    6.84    0.48 
  -2  -4  12    7.36    0.40 
   1   4 -12    0.23    0.23 
  -1  -4  12    0.40    0.28 
   0   4 -12    0.23    0.23 
   0  -4  12    0.24    0.26 
  -1   4 -12    2.60    0.25 
  -2   4 -12    0.53    0.22 
  -2   4 -12    1.07    0.24 
   2  -4  12    0.99    0.28 
  -3   4 -12   -0.25    0.23 
  -3   4 -12   -0.16    0.25 
   3  -4  12    0.20    0.32 
  -4   4 -12   20.38    0.56 
   4  -4  12   20.22    0.75 
   4   3 -12    1.70    0.27 
  -4  -3  12    2.06    0.28 
  -4  -3  12    1.14    0.31 
   3   3 -12    0.08    0.21 
  -3  -3  12   -0.09    0.26 
  -3  -3  12   -0.01    0.22 
   2   3 -12   24.00    0.55 
  -2  -3  12   23.65    0.65 
  -2  -3  12   24.58    0.55 
   1   3 -12    2.14    0.22 
  -1  -3  12    1.94    0.27 
  -1  -3  12    1.82    0.22 
   0   3 -12    7.41    0.31 
   0  -3  12    7.58    0.39 
  -1   3 -12    0.00    0.16 
  -1   3 -12    0.16    0.18 
   1  -3  12   -0.14    0.22 
  -2   3 -12    5.90    0.31 
  -3   3 -12    0.39    0.20 
  -4   3 -12    5.75    0.34 
   4  -3  12    5.72    0.54 
   5   2 -12    3.95    0.32 
  -5  -2  12    2.74    0.36 
   4   2 -12    0.55    0.23 
  -4  -2  12    0.18    0.21 
  -4  -2  12    0.18    0.25 
   3   2 -12   23.03    0.53 
  -3  -2  12   23.04    0.52 
  -3  -2  12   22.85    0.63 
   2   2 -12    0.35    0.17 
  -2  -2  12    0.09    0.21 
  -2  -2  12    0.03    0.18 
   1   2 -12    9.10    0.31 
  -1  -2  12    9.27    0.40 
  -1  -2  12    9.45    0.32 
   0   2 -12    5.07    0.25 
   0   2 -12    4.91    0.25 
   0  -2  12    5.33    0.34 
  -1   2 -12    5.27    0.25 
  -1   2 -12    5.35    0.26 
   1  -2  12    5.46    0.35 
  -2   2 -12    6.61    0.36 
  -2   2 -12    6.92    0.27 
   2  -2  12    6.37    0.39 
  -3   2 -12   -0.01    0.16 
  -3   2 -12    0.16    0.25 
  -4   2 -12    1.76    0.34 
   5   1 -12    1.36    0.28 
  -5  -1  12    0.79    0.30 
   4   1 -12    1.37    0.23 
  -4  -1  12    1.42    0.22 
  -4  -1  12    0.87    0.26 
   3   1 -12    2.39    0.21 
  -3  -1  12    2.29    0.28 
  -3  -1  12    2.31    0.21 
   2   1 -12    0.75    0.17 
  -2  -1  12    0.66    0.22 
  -2  -1  12    0.90    0.18 
   1   1 -12   10.46    0.31 
  -1  -1  12   11.36    0.40 
  -1  -1  12   11.24    0.32 
   0   1 -12    3.71    0.22 
   0   1 -12    3.85    0.21 
   0  -1  12    3.59    0.31 
   0  -1  12    3.68    0.24 
  -1   1 -12    2.63    0.18 
  -1   1 -12    2.57    0.27 
   1  -1  12    2.45    0.26 
  -2   1 -12   66.14    1.09 
  -2   1 -12   63.84    1.17 
   2  -1  12   64.56    1.19 
  -3   1 -12    0.19    0.17 
  -3   1 -12    0.07    0.26 
   3  -1  12    0.37    0.31 
  -4   1 -12    5.64    0.49 
   4  -1  12    5.11    0.48 
  -5   1 -12   -0.03    0.37 
   5   0 -12    1.63    0.30 
  -5   0  12    0.88    0.30 
   4   0 -12    2.35    0.25 
  -4   0  12    1.88    0.22 
  -4   0  12    1.52    0.27 
   3   0 -12    1.50    0.20 
  -3   0  12    1.40    0.27 
  -3   0  12    1.83    0.20 
   2   0 -12    8.53    0.31 
  -2   0  12    8.55    0.30 
  -2   0  12    9.00    0.39 
   1   0 -12   11.15    0.43 
   1   0 -12   13.61    0.32 
  -1   0  12   13.74    0.42 
  -1   0  12   13.72    0.34 
   0   0 -12    6.53    0.28 
   0   0 -12    6.65    0.25 
   0   0  12    7.18    0.36 
   0   0  12    6.67    0.26 
  -1   0 -12   50.87    0.88 
  -1   0 -12   51.23    0.94 
   1   0  12   52.78    1.00 
  -2   0 -12    1.36    0.23 
  -2   0 -12    1.38    0.16 
   2   0  12    1.37    0.28 
  -3   0 -12    1.93    0.29 
   3   0  12    1.45    0.32 
  -4   0 -12   -0.21    0.32 
   4   0  12    0.54    0.34 
  -5   0 -12   -0.04    0.38 
   5   0  12    1.03    0.40 
   5  -1 -12    1.35    0.29 
   4  -1 -12    2.72    0.27 
  -4   1  12    2.21    0.31 
  -4   1  12    3.47    0.26 
   3  -1 -12    2.80    0.23 
  -3   1  12    2.50    0.29 
  -3   1  12    2.97    0.22 
   2  -1 -12   15.09    0.39 
  -2   1  12   15.00    0.39 
  -2   1  12   15.24    0.48 
  -1   1  12    1.02    0.24 
  -1   1  12    0.93    0.17 
   0  -1 -12    0.83    0.19 
   0  -1 -12    0.95    0.15 
   0   1  12    0.92    0.25 
  -1  -1 -12    0.24    0.15 
  -1  -1 -12    0.19    0.19 
   1   1  12    0.17    0.26 
  -2  -1 -12    1.17    0.16 
  -2  -1 -12    1.02    0.24 
   2   1  12    1.35    0.29 
  -3  -1 -12   13.12    0.51 
   3   1  12   12.94    0.53 
  -4  -1 -12    0.09    0.32 
   4   1  12    0.94    0.35 
  -5  -1 -12    4.64    0.49 
   5   1  12    6.29    0.58 
  -4   2  12    0.32    0.24 
  -3   2  12    0.66    0.22 
   2  -2 -12    0.34    0.23 
  -2   2  12    0.12    0.24 
  -2   2  12    0.50    0.19 
   1  -2 -12    3.13    0.32 
  -1   2  12    3.43    0.38 
  -1   2  12    3.83    0.27 
   0  -2 -12    2.41    0.19 
   0  -2 -12    2.44    0.24 
   0   2  12    2.68    0.32 
  -1  -2 -12    0.25    0.22 
  -1  -2 -12    0.11    0.15 
   1   2  12    0.17    0.27 
  -2  -2 -12    3.81    0.39 
  -2  -2 -12    3.99    0.26 
   2   2  12    4.16    0.42 
  -3  -2 -12    2.11    0.33 
  -3  -2 -12    2.05    0.20 
   3   2  12    2.23    0.35 
  -4  -2 -12    5.20    0.55 
   4   2  12    6.20    0.54 
  -5   3  12    0.75    0.31 
  -5   3  12    0.98    0.34 
  -4   3  12    7.61    0.46 
  -4   3  12    7.05    0.43 
   3  -3 -12    0.52    0.32 
  -3   3  12    0.60    0.25 
  -3   3  12    1.18    0.26 
   2  -3 -12    0.10    0.28 
  -2   3  12    0.13    0.22 
  -2   3  12    0.21    0.23 
   1  -3 -12    5.46    0.41 
  -1   3  12    5.09    0.44 
   0  -3 -12    0.35    0.22 
   0  -3 -12    0.62    0.26 
   0   3  12    0.20    0.32 
  -1  -3 -12    3.59    0.29 
  -1  -3 -12    2.78    0.31 
   1   3  12    3.65    0.36 
  -2  -3 -12    1.19    0.21 
  -2  -3 -12    1.33    0.32 
   2   3  12    2.01    0.34 
  -3  -3 -12    0.72    0.22 
  -3  -3 -12    0.53    0.33 
   3   3  12    1.05    0.34 
  -4  -3 -12   -0.25    0.37 
   4   3  12    0.69    0.40 
   4  -4 -12    4.39    0.54 
  -4   4  12    4.83    0.44 
  -4   4  12    3.76    0.41 
   3  -4 -12   -0.50    0.37 
  -3   4  12   -0.26    0.30 
  -3   4  12   -0.12    0.31 
   2  -4 -12    2.99    0.40 
   1  -4 -12    3.43    0.40 
   0  -4 -12    1.36    0.34 
   0   4  12    0.83    0.36 
  -1  -4 -12   -0.37    0.30 
  -1  -4 -12   -0.21    0.22 
   1   4  12    0.39    0.35 
  -2  -4 -12   -0.45    0.23 
  -2  -4 -12    0.11    0.35 
   2   4  12    1.00    0.36 
  -3  -4 -12    0.63    0.40 
  -3  -4 -12    0.51    0.26 
   3   4  12    2.26    0.41 
   3  -5 -12   -1.20    0.48 
   2  -5 -12    0.15    0.46 
   1  -5 -12   -0.26    0.42 
   0  -5 -12    9.53    0.62 
  -1  -5 -12   -0.13    0.39 
   1   5  12    0.99    0.42 
  -2  -5 -12    0.57    0.45 
   2   5  12    2.63    0.43 
   2   5 -13   -0.09    0.28 
  -2  -5  13    0.10    0.35 
   1   5 -13    1.00    0.29 
  -1  -5  13    1.16    0.34 
   0   5 -13   12.34    0.50 
  -1   5 -13    1.31    0.29 
  -2   5 -13   -0.19    0.28 
  -3   5 -13    0.94    0.31 
  -3   5 -13    1.00    0.30 
   3  -5  13    0.91    0.38 
  -4  -4  13    0.74    0.39 
   3   4 -13    4.27    0.32 
  -3  -4  13    3.25    0.39 
  -3  -4  13    4.53    0.33 
   2   4 -13    0.10    0.25 
  -2  -4  13    0.59    0.28 
  -2  -4  13    0.24    0.30 
   1   4 -13    3.23    0.28 
  -1  -4  13    2.45    0.33 
   0   4 -13    0.29    0.24 
   0  -4  13    0.11    0.27 
  -1   4 -13    0.10    0.22 
  -2   4 -13    0.72    0.25 
  -2   4 -13    0.62    0.23 
   2  -4  13    0.74    0.29 
  -3   4 -13    2.97    0.28 
  -3   4 -13    2.63    0.28 
   3  -4  13    3.12    0.38 
  -4   4 -13    0.72    0.28 
   4  -4  13    0.98    0.44 
   4   3 -13    0.81    0.27 
  -4  -3  13    0.50    0.31 
  -4  -3  13    0.99    0.29 
   3   3 -13    0.39    0.23 
  -3  -3  13    0.06    0.25 
  -3  -3  13    0.21    0.27 
   2   3 -13    9.74    0.39 
  -2  -3  13    9.32    0.40 
  -2  -3  13    9.34    0.48 
   1   3 -13    0.13    0.20 
  -1  -3  13   -0.16    0.25 
   0   3 -13   -0.12    0.19 
   0  -3  13    0.06    0.25 
  -1   3 -13    1.19    0.20 
   1  -3  13    0.92    0.26 
  -2   3 -13    0.63    0.21 
  -5  -2  13    0.99    0.34 
  -5  -2  13    1.33    0.34 
   4   2 -13    0.11    0.24 
  -4  -2  13   -0.04    0.27 
  -4  -2  13    0.35    0.23 
   3   2 -13    5.52    0.34 
  -3  -2  13    5.36    0.42 
  -3  -2  13    5.26    0.34 
   2   2 -13    8.58    0.33 
  -2  -2  13    8.06    0.43 
  -2  -2  13    7.91    0.34 
   1   2 -13   15.62    0.40 
  -1  -2  13   15.68    0.50 
  -1  -2  13   15.99    0.41 
   0   2 -13    4.01    0.26 
   0   2 -13    4.32    0.26 
   0  -2  13    4.22    0.36 
  -1   2 -13    0.60    0.21 
  -1   2 -13    0.36    0.17 
  -1   2 -13    0.40    0.17 
   1  -2  13    0.51    0.25 
  -2   2 -13   -0.04    0.16 
  -2   2 -13    0.02    0.23 
   2  -2  13   -0.04    0.25 
  -3   2 -13    0.39    0.18 
  -3   2 -13    0.64    0.28 
   3  -2  13   -0.20    0.30 
  -4   2 -13    0.09    0.33 
   5   1 -13    3.27    0.31 
  -5  -1  13    2.32    0.35 
   4   1 -13    0.29    0.23 
  -4  -1  13    0.10    0.22 
  -4  -1  13    0.14    0.25 
   3   1 -13   40.50    0.78 
  -3  -1  13   41.00    0.89 
  -3  -1  13   40.90    0.76 
   2   1 -13    0.10    0.18 
  -2  -1  13    0.13    0.23 
  -2  -1  13    0.37    0.18 
   1   1 -13    9.59    0.31 
  -1  -1  13   10.03    0.33 
  -1  -1  13    9.51    0.41 
   0   1 -13    6.36    0.27 
   0   1 -13    6.45    0.25 
   0  -1  13    6.41    0.37 
  -1   1 -13    6.43    0.27 
  -1   1 -13    6.72    0.34 
   1  -1  13    6.79    0.41 
  -2   1 -13    6.63    0.28 
  -2   1 -13    7.17    0.39 
   2  -1  13    6.89    0.45 
  -3   1 -13   -0.05    0.28 
  -3   1 -13    0.09    0.18 
   3  -1  13   -0.17    0.33 
  -4   1 -13    0.18    0.33 
   4  -1  13   -0.39    0.37 
  -5   1 -13    2.46    0.43 
   5   0 -13    0.06    0.29 
  -5   0  13    0.17    0.29 
   4   0 -13    0.54    0.25 
  -4   0  13    0.58    0.29 
  -4   0  13    0.48    0.23 
   3   0 -13    0.64    0.21 
  -3   0  13    0.46    0.28 
  -3   0  13    0.36    0.20 
   2   0 -13    4.09    0.27 
  -2   0  13    3.98    0.28 
  -2   0  13    4.16    0.36 
   1   0 -13    9.48    0.29 
  -1   0  13    9.15    0.39 
  -1   0  13    9.44    0.32 
   0   0 -13    0.67    0.18 
   0   0 -13    0.54    0.16 
   0   0  13    0.55    0.24 
  -1   0 -13   19.86    0.51 
  -1   0 -13   20.35    0.44 
   1   0  13   20.46    0.58 
  -2   0 -13    2.82    0.20 
  -2   0 -13    3.03    0.27 
   2   0  13    2.99    0.35 
  -3   0 -13   10.14    0.49 
  -3   0 -13    9.78    0.33 
   3   0  13   10.11    0.52 
  -4   0 -13    4.46    0.42 
   4   0  13    4.16    0.42 
  -5   0 -13   -0.20    0.42 
   5   0  13    0.90    0.44 
   5  -1 -13    1.38    0.31 
   4  -1 -13    2.64    0.28 
  -4   1  13    2.51    0.36 
  -4   1  13    3.03    0.27 
   3  -1 -13    4.01    0.26 
  -3   1  13    4.08    0.32 
  -3   1  13    3.79    0.42 
   2  -1 -13    4.38    0.29 
  -2   1  13    4.32    0.39 
  -2   1  13    4.29    0.30 
  -1   1  13    3.53    0.28 
  -1   1  13    3.36    0.37 
   0  -1 -13    0.16    0.16 
   0  -1 -13    0.35    0.19 
   0   1  13    0.55    0.27 
  -1  -1 -13   31.73    0.68 
  -1  -1 -13   30.94    0.61 
   1   1  13   32.36    0.77 
  -2  -1 -13    0.07    0.24 
  -2  -1 -13   -0.01    0.16 
   2   1  13    0.17    0.30 
  -3  -1 -13    4.71    0.28 
  -3  -1 -13    5.00    0.45 
   3   1  13    4.84    0.49 
  -4  -1 -13    0.40    0.36 
   4   1  13    1.45    0.38 
   5   1  13   12.94    0.70 
   5  -2 -13    1.57    0.35 
  -5   2  13    1.45    0.31 
  -4   2  13   14.27    0.49 
  -3   2  13    0.93    0.30 
  -3   2  13    1.34    0.24 
  -2   2  13    0.67    0.21 
  -2   2  13    0.23    0.27 
   1  -2 -13   -0.10    0.22 
  -1   2  13   -0.04    0.23 
  -1   2  13   -0.22    0.28 
   0  -2 -13    6.39    0.29 
   0  -2 -13    5.80    0.36 
   0   2  13    6.45    0.47 
  -1  -2 -13    4.25    0.38 
  -1  -2 -13    4.28    0.28 
   1   2  13    4.57    0.45 
  -2  -2 -13    6.09    0.30 
  -2  -2 -13    6.53    0.43 
   2   2  13    6.43    0.49 
  -3  -2 -13    4.60    0.49 
  -3  -2 -13    4.73    0.30 
   3   2  13    4.62    0.48 
  -4  -2 -13    0.66    0.38 
   4   2  13    1.39    0.40 
  -4   3  13    1.12    0.31 
  -4   3  13    1.53    0.30 
   3  -3 -13    0.45    0.35 
  -3   3  13    1.32    0.26 
  -3   3  13    1.39    0.24 
   2  -3 -13    9.23    0.49 
  -2   3  13   10.50    0.41 
   1  -3 -13    0.76    0.29 
  -1   3  13    0.13    0.32 
   0  -3 -13    1.78    0.30 
   0   3  13    1.55    0.36 
  -1  -3 -13    1.21    0.21 
  -1  -3 -13    1.61    0.31 
   1   3  13    1.30    0.35 
  -2  -3 -13    0.88    0.21 
  -2  -3 -13    0.87    0.32 
   2   3  13    0.86    0.35 
  -3  -3 -13    0.22    0.21 
  -3  -3 -13    0.47    0.35 
   3   3  13    0.91    0.37 
   4  -4 -13    2.33    0.56 
  -4   4  13    2.32    0.39 
  -4   4  13    3.10    0.40 
   3  -4 -13   -0.94    0.43 
  -3   4  13   -0.07    0.33 
   2  -4 -13    0.64    0.40 
   1  -4 -13   -0.10    0.36 
  -1   4  13   -1.03    0.47 
   0  -4 -13    9.73    0.54 
   0   4  13    9.11    0.58 
  -1  -4 -13   -0.05    0.33 
   1   4  13    0.42    0.38 
  -2  -4 -13    1.13    0.39 
  -2  -4 -13    1.16    0.26 
   2   4  13    2.12    0.41 
  -3  -4 -13    0.54    0.43 
  -3  -4 -13    0.43    0.27 
   3   4  13    1.34    0.49 
   3  -5 -13   -1.44    0.51 
   2  -5 -13   -0.54    0.48 
   1  -5 -13    8.70    0.66 
   0  -5 -13    0.19    0.42 
  -1  -5 -13    0.04    0.42 
   1   5  13    0.82    0.45 
   2   5  13    7.12    0.71 
  -2  -5  14    2.67    0.41 
   1   5 -14    5.63    0.37 
  -1  -5  14    4.89    0.53 
   0   5 -14    0.90    0.30 
  -1   5 -14    3.14    0.32 
  -2   5 -14    3.73    0.35 
  -3   5 -14    1.47    0.32 
  -3   5 -14    1.13    0.33 
   3  -5  14    1.64    0.42 
   3   4 -14    4.05    0.34 
  -3  -4  14    4.41    0.34 
  -3  -4  14    2.76    0.39 
   2   4 -14    0.40    0.27 
  -2  -4  14    0.29    0.32 
   1   4 -14   -0.13    0.25 
  -1  -4  14   -0.12    0.31 
   0   4 -14   -0.22    0.24 
   0  -4  14   -0.16    0.29 
  -1   4 -14    0.49    0.24 
  -2   4 -14    0.21    0.25 
  -2   4 -14   -0.06    0.24 
   2  -4  14    0.12    0.29 
  -3   4 -14   -0.33    0.25 
   3  -4  14    0.27    0.36 
   4   3 -14    0.47    0.28 
  -4  -3  14    0.55    0.30 
  -4  -3  14    0.23    0.32 
   3   3 -14    1.83    0.26 
  -3  -3  14    1.07    0.30 
  -3  -3  14    1.83    0.28 
   2   3 -14   -0.09    0.23 
  -2  -3  14    0.04    0.30 
  -2  -3  14    0.16    0.24 
   1   3 -14    0.66    0.22 
  -1  -3  14    0.68    0.29 
   0   3 -14    4.01    0.31 
   0  -3  14    4.23    0.41 
  -1   3 -14    4.70    0.31 
   1  -3  14    4.59    0.41 
  -2   3 -14    2.12    0.24 
   2  -3  14    1.34    0.32 
   4   2 -14    1.08    0.27 
  -4  -2  14    1.19    0.26 
  -4  -2  14    0.67    0.30 
   3   2 -14   19.74    0.52 
  -3  -2  14   19.72    0.64 
  -3  -2  14   19.27    0.51 
   2   2 -14    0.89    0.21 
  -2  -2  14    1.14    0.29 
  -2  -2  14    1.07    0.23 
   1   2 -14    9.98    0.36 
  -1  -2  14    9.99    0.37 
  -1  -2  14    9.74    0.46 
   0   2 -14    9.33    0.33 
   0  -2  14    9.64    0.45 
  -1   2 -14    3.72    0.28 
  -1   2 -14    3.80    0.27 
   1  -2  14    4.11    0.40 
  -2   2 -14    5.57    0.38 
  -2   2 -14    5.34    0.29 
   2  -2  14    5.26    0.44 
  -3   2 -14    0.93    0.30 
  -3   2 -14    0.66    0.20 
   3  -2  14    0.04    0.34 
  -4   2 -14    1.43    0.36 
  -4   2 -14    0.66    0.23 
   5   1 -14    0.70    0.30 
  -5  -1  14    0.97    0.29 
  -5  -1  14    0.31    0.33 
   4   1 -14   10.00    0.44 
  -4  -1  14    8.45    0.40 
   3   1 -14   10.08    0.40 
  -3  -1  14    9.64    0.38 
  -3  -1  14    8.95    0.49 
   2   1 -14    5.96    0.32 
  -2  -1  14    6.53    0.33 
  -2  -1  14    6.21    0.41 
   1   1 -14    5.43    0.28 
  -1  -1  14    5.37    0.39 
  -1  -1  14    5.53    0.31 
   0   1 -14    5.83    0.27 
   0   1 -14    5.85    0.28 
   0  -1  14    6.09    0.39 
  -1   1 -14    0.93    0.23 
  -1   1 -14    0.48    0.17 
   1  -1  14    0.70    0.28 
  -2   1 -14    1.31    0.28 
  -2   1 -14    0.86    0.18 
   2  -1  14    0.88    0.32 
  -3   1 -14    0.56    0.31 
  -3   1 -14    0.56    0.19 
   3  -1  14    0.07    0.36 
  -4   1 -14   16.48    0.65 
   4  -1  14   13.55    0.68 
   5   0 -14    0.68    0.31 
  -5   0  14    0.02    0.30 
  -5   0  14    0.25    0.27 
   4   0 -14    1.68    0.28 
  -4   0  14    1.38    0.25 
  -4   0  14    1.04    0.31 
   3   0 -14    2.68    0.24 
  -3   0  14    2.76    0.24 
  -3   0  14    2.43    0.34 
   2   0 -14    0.34    0.18 
  -2   0  14   -0.06    0.25 
  -2   0  14    0.10    0.19 
   1   0 -14    1.11    0.17 
  -1   0  14    0.98    0.24 
  -1   0  14    1.03    0.20 
   0   0 -14    0.86    0.18 
   0   0  14    0.60    0.25 
  -1   0 -14   53.11    0.98 
  -1   0 -14   52.70    0.92 
   1   0  14   52.53    1.05 
  -2   0 -14   -0.04    0.17 
  -2   0 -14    0.16    0.23 
   2   0  14    0.11    0.32 
  -3   0 -14    8.35    0.49 
  -3   0 -14    8.02    0.33 
   3   0  14    7.65    0.54 
  -4   0 -14    5.16    0.46 
   4   0  14    4.90    0.56 
   5   0  14    0.67    0.47 
   5  -1 -14    4.36    0.37 
   4  -1 -14    0.16    0.26 
  -4   1  14   -0.03    0.32 
  -4   1  14   -0.25    0.25 
   3  -1 -14    0.09    0.22 
  -3   1  14    0.23    0.30 
  -3   1  14   -0.02    0.23 
   2  -1 -14    6.29    0.32 
  -2   1  14    6.11    0.44 
  -2   1  14    6.21    0.34 
   1  -1 -14   -0.05    0.19 
  -1   1  14   -0.02    0.19 
  -1   1  14   -0.06    0.27 
   0  -1 -14   22.58    0.55 
   0  -1 -14   23.30    0.50 
   0   1  14   22.51    0.64 
  -1  -1 -14    3.65    0.27 
  -1  -1 -14    3.87    0.34 
   1   1  14    4.07    0.47 
  -2  -1 -14    1.11    0.20 
  -2  -1 -14    1.31    0.28 
   2   1  14    1.30    0.35 
  -3  -1 -14    0.48    0.20 
  -3  -1 -14    0.48    0.32 
   3   1  14    0.69    0.36 
  -4  -1 -14    7.59    0.60 
   4   1  14    8.49    0.61 
   5  -2 -14    2.06    0.37 
  -5   2  14    1.88    0.34 
   4  -2 -14    0.02    0.29 
  -4   2  14    0.11    0.28 
   3  -2 -14    0.42    0.24 
  -3   2  14    0.34    0.25 
  -3   2  14    0.01    0.32 
   2  -2 -14    0.50    0.21 
  -2   2  14    0.52    0.23 
  -2   2  14   -0.10    0.30 
   1  -2 -14   -0.07    0.23 
  -1   2  14   -0.13    0.30 
   0  -2 -14    0.29    0.24 
   0   2  14    0.71    0.34 
  -1  -2 -14   13.46    0.39 
  -1  -2 -14   13.39    0.50 
   1   2  14   12.85    0.59 
  -2  -2 -14    2.95    0.23 
  -2  -2 -14    2.86    0.33 
   2   2  14    3.45    0.39 
  -3  -2 -14    0.35    0.21 
  -3  -2 -14    0.08    0.34 
   3   2  14    0.72    0.37 
  -4  -2 -14   -0.03    0.39 
   4   2  14    1.17    0.42 
  -4   3  14    0.00    0.33 
   3  -3 -14    2.64    0.41 
  -3   3  14    2.60    0.31 
   2  -3 -14    0.88    0.33 
  -2   3  14    0.95    0.35 
   1  -3 -14    6.78    0.44 
  -1   3  14    5.95    0.52 
   0  -3 -14    0.01    0.28 
   0   3  14   -0.22    0.36 
  -1  -3 -14    0.16    0.21 
  -1  -3 -14    0.06    0.31 
   1   3  14    0.10    0.36 
  -2  -3 -14    0.73    0.23 
  -2  -3 -14    0.66    0.34 
   2   3  14    1.14    0.39 
  -3  -3 -14    0.94    0.25 
  -3  -3 -14    0.67    0.39 
   3   3  14    1.62    0.41 
  -4   4  14    0.99    0.38 
  -4   4  14    1.46    0.44 
   3  -4 -14   -0.43    0.45 
   2  -4 -14    4.16    0.46 
   1  -4 -14    0.88    0.38 
   0  -4 -14    0.09    0.36 
   0   4  14   -0.01    0.42 
  -1  -4 -14   -0.40    0.35 
   1   4  14    0.38    0.41 
  -2  -4 -14    0.33    0.26 
  -2  -4 -14    0.27    0.40 
   2   4  14    0.95    0.43 
   2  -5 -14   -0.27    0.51 
   1  -5 -14    2.01    0.51 
   0  -5 -14   -0.19    0.44 
   1   5  14    1.36    0.49 
  -2  -5  15    0.68    0.42 
   1   5 -15    0.26    0.31 
  -1  -5  15    0.33    0.38 
   0   5 -15    3.98    0.35 
  -1   5 -15    1.72    0.32 
  -2   5 -15    3.18    0.35 
   3   4 -15    1.91    0.48 
  -3  -4  15    1.01    0.38 
  -3  -4  15    1.48    0.45 
   2   4 -15    2.46    0.31 
  -2  -4  15    1.57    0.37 
   1   4 -15    3.78    0.31 
  -1  -4  15    3.33    0.40 
   0   4 -15    5.69    0.40 
   0  -4  15    5.36    0.50 
  -1   4 -15    0.15    0.24 
  -2   4 -15    1.30    0.28 
  -3   4 -15    3.88    0.33 
   3  -4  15    3.82    0.44 
  -4  -3  15    9.91    0.51 
   3   3 -15    0.83    0.27 
  -3  -3  15    0.47    0.31 
  -3  -3  15    0.41    0.29 
   2   3 -15    4.76    0.39 
  -2  -3  15    4.67    0.50 
  -2  -3  15    4.09    0.44 
   1   3 -15    0.72    0.24 
  -1  -3  15    1.14    0.32 
   0   3 -15   -0.08    0.21 
   0  -3  15   -0.13    0.29 
  -1   3 -15   -0.03    0.21 
   1  -3  15   -0.14    0.29 
   2  -3  15   -0.46    0.34 
   4   2 -15    0.42    0.27 
  -4  -2  15    0.08    0.31 
  -4  -2  15    0.20    0.27 
   3   2 -15   11.52    0.44 
  -3  -2  15   11.82    0.44 
  -3  -2  15   11.21    0.56 
   2   2 -15    1.56    0.23 
  -2  -2  15    1.24    0.30 
  -2  -2  15    1.45    0.25 
   1   2 -15    1.37    0.21 
  -1  -2  15    0.91    0.29 
   0  -2  15   12.52    0.52 
  -1   2 -15    1.38    0.21 
  -1   2 -15    1.34    0.20 
  -1   2 -15    1.56    0.26 
   1  -2  15    1.41    0.31 
  -2   2 -15    5.39    0.31 
  -2   2 -15    5.55    0.41 
   2  -2  15    4.88    0.47 
  -3   2 -15    4.22    0.37 
  -3   2 -15    4.07    0.31 
   3  -2  15    2.58    0.40 
  -4   2 -15    3.26    0.28 
  -4   2 -15    3.48    0.43 
  -5  -1  15   -0.03    0.34 
   4   1 -15    0.30    0.26 
  -4  -1  15    0.41    0.27 
  -4  -1  15    0.48    0.31 
   3   1 -15   16.70    0.50 
  -3  -1  15   17.25    0.49 
  -3  -1  15   17.54    0.63 
   2   1 -15    1.72    0.22 
  -2  -1  15    1.64    0.24 
  -2  -1  15    1.18    0.29 
   1   1 -15    0.68    0.18 
  -1  -1  15    0.41    0.27 
   0   1 -15   10.18    0.32 
   0  -1  15   10.34    0.47 
  -1   1 -15    2.98    0.28 
  -1   1 -15    2.55    0.21 
   1  -1  15    2.21    0.32 
  -2   1 -15    3.39    0.32 
  -2   1 -15    2.87    0.22 
   2  -1  15    2.45    0.37 
  -3   1 -15    0.12    0.32 
  -3   1 -15    0.17    0.21 
   3  -1  15   -0.66    0.37 
  -4   1 -15    0.12    0.37 
   4  -1  15   -0.66    0.44 
  -5   0  15    0.53    0.33 
  -5   0  15    0.92    0.34 
   4   0 -15   20.66    0.59 
  -4   0  15   20.10    0.55 
   3   0 -15    3.73    0.27 
  -3   0  15    3.31    0.37 
  -3   0  15    3.39    0.27 
   2   0 -15    0.50    0.19 
  -2   0  15    0.13    0.28 
  -2   0  15    0.43    0.22 
   1   0 -15    5.92    0.29 
  -1   0  15    5.26    0.42 
   0   0 -15    8.50    0.37 
   0   0 -15    8.75    0.37 
   0   0  15    8.60    0.46 
  -1   0 -15   13.43    0.45 
  -1   0 -15   13.55    0.39 
   1   0  15   12.85    0.56 
  -2   0 -15    3.68    0.30 
  -2   0 -15    4.05    0.38 
   2   0  15    3.52    0.40 
  -3   0 -15   -0.25    0.31 
  -3   0 -15    0.09    0.20 
   3   0  15   -0.11    0.40 
  -4   0 -15    6.11    0.37 
  -4   0 -15    6.68    0.62 
   4   0  15    6.03    0.61 
   5  -1 -15    0.34    0.56 
  -5   1  15    0.33    0.36 
   4  -1 -15    3.19    0.32 
  -4   1  15    1.93    0.38 
  -4   1  15    2.96    0.30 
   3  -1 -15    8.08    0.41 
  -3   1  15    7.58    0.53 
  -3   1  15    8.18    0.40 
   2  -1 -15    1.36    0.21 
  -2   1  15    1.25    0.23 
  -2   1  15    1.43    0.32 
  -1   1  15    0.13    0.30 
   0  -1 -15    6.39    0.36 
   0   1  15    5.63    0.48 
  -1  -1 -15    9.47    0.42 
  -1  -1 -15    9.85    0.35 
   1   1  15    9.28    0.54 
  -2  -1 -15    2.26    0.22 
  -2  -1 -15    2.35    0.32 
   2   1  15    2.73    0.41 
  -3  -1 -15    1.10    0.23 
  -3  -1 -15    1.21    0.35 
   3   1  15    1.26    0.40 
  -4  -1 -15    1.48    0.42 
   4   1  15    1.74    0.47 
   4  -2 -15    3.40    0.34 
  -4   2  15    2.60    0.32 
   3  -2 -15    0.09    0.25 
  -3   2  15   -0.11    0.26 
  -3   2  15   -0.32    0.35 
   2  -2 -15    3.73    0.28 
   2  -2 -15    3.26    0.30 
  -2   2  15    3.48    0.31 
  -2   2  15    2.62    0.37 
   1  -2 -15    1.72    0.27 
  -1   2  15    1.54    0.36 
   0  -2 -15   11.44    0.46 
   0   2  15   10.68    0.57 
  -1  -2 -15    2.85    0.32 
  -1  -2 -15    2.46    0.24 
   1   2  15    2.79    0.42 
  -2  -2 -15    0.25    0.30 
  -2  -2 -15    0.20    0.21 
   2   2  15    0.09    0.36 
  -3  -2 -15    2.42    0.26 
  -3  -2 -15    2.72    0.40 
   3   2  15    2.60    0.44 
  -4   3  15    1.03    0.39 
  -3   3  15    0.57    0.31 
   2  -3 -15    0.05    0.33 
  -2   3  15    0.28    0.36 
   1  -3 -15    0.22    0.31 
  -1   3  15   -0.72    0.37 
   0  -3 -15    3.88    0.37 
   0   3  15    3.11    0.45 
  -1  -3 -15    7.74    0.50 
  -1  -3 -15    6.69    0.48 
   1   3  15    6.83    0.59 
  -2  -3 -15    0.90    0.37 
  -2  -3 -15    0.84    0.25 
   2   3  15    1.26    0.43 
  -3  -3 -15   -0.18    0.41 
  -3  -3 -15    0.09    0.25 
   3   3  15    0.66    0.44 
   3  -4 -15    2.09    0.54 
   2  -4 -15    0.29    0.41 
   1  -4 -15   -0.04    0.38 
   0  -4 -15    0.95    0.38 
   0   4  15    0.54    0.46 
  -1  -4 -15   -0.08    0.38 
   1   4  15    0.01    0.44 
  -2  -4 -15    0.73    0.31 
  -2  -4 -15    0.56    0.46 
   2   4  15    1.01    0.46 
  -1  -5  16   -0.08    0.40 
   0   5 -16    0.44    0.32 
  -1   5 -16    0.22    0.31 
  -2   5 -16   12.49    0.55 
   2   4 -16    0.35    0.30 
  -2  -4  16    0.42    0.36 
   1   4 -16    2.16    0.30 
  -1  -4  16    1.70    0.40 
   0   4 -16    4.74    0.41 
   0  -4  16    5.15    0.53 
  -1   4 -16    0.01    0.26 
  -3   4 -16    1.11    0.31 
   3  -4  16    1.23    0.41 
   3   3 -16    0.21    0.29 
  -3  -3  16    0.01    0.30 
  -3  -3  16    0.11    0.31 
   2   3 -16    1.04    0.27 
  -2  -3  16    1.04    0.35 
   1   3 -16    0.94    0.25 
  -1  -3  16    1.06    0.34 
   0   3 -16    0.51    0.23 
   0  -3  16    0.45    0.33 
  -1   3 -16    0.12    0.22 
   1  -3  16    0.01    0.32 
   2  -3  16   -0.61    0.40 
   4   2 -16    0.58    0.29 
  -4  -2  16    0.29    0.30 
  -4  -2  16    0.23    0.34 
   3   2 -16    0.29    0.26 
  -3  -2  16    0.20    0.27 
  -3  -2  16    0.07    0.34 
   2   2 -16    0.04    0.23 
  -2  -2  16   -0.24    0.30 
  -2  -2  16    0.12    0.26 
   1   2 -16    0.36    0.21 
  -1  -2  16    0.35    0.30 
   0   2 -16    1.90    0.22 
   0  -2  16    1.81    0.33 
  -1   2 -16    2.43    0.23 
   1  -2  16    1.93    0.34 
  -2   2 -16    4.29    0.32 
  -2   2 -16    4.34    0.41 
   2  -2  16    4.79    0.51 
  -3   2 -16    0.43    0.22 
  -3   2 -16    0.50    0.33 
   3  -2  16   -0.81    0.38 
  -4   2 -16    7.42    0.61 
   4   1 -16    9.33    0.49 
  -4  -1  16    9.22    0.47 
   3   1 -16    0.23    0.24 
  -3  -1  16    0.02    0.26 
  -3  -1  16   -0.03    0.33 
   2   1 -16    0.24    0.21 
  -2  -1  16   -0.08    0.24 
  -2  -1  16   -0.03    0.29 
   1   1 -16   16.89    0.43 
  -1  -1  16   15.90    0.59 
   0  -1  16    1.52    0.32 
  -1   1 -16    4.50    0.31 
  -1   1 -16    5.01    0.40 
   1  -1  16    4.80    0.48 
  -2   1 -16    0.99    0.30 
  -2   1 -16    0.62    0.22 
   2  -1  16    0.74    0.37 
  -3   1 -16    0.05    0.22 
  -3   1 -16    0.37    0.35 
   3  -1  16   -0.90    0.40 
  -4   1 -16    0.24    0.39 
   4  -1  16   -0.91    0.46 
  -5   0  16    0.05    0.36 
   4   0 -16    8.07    0.46 
  -4   0  16    7.84    0.44 
  -4   0  16    6.82    0.60 
   3   0 -16    3.01    0.27 
  -3   0  16    2.72    0.29 
  -3   0  16    2.24    0.38 
   2   0 -16    0.45    0.21 
  -2   0  16    0.02    0.23 
  -2   0  16   -0.47    0.29 
   1   0 -16    9.19    0.33 
  -1   0  16    8.10    0.49 
   0   0 -16    5.05    0.36 
   0   0  16    5.29    0.47 
  -1   0 -16    1.28    0.22 
  -1   0 -16    1.02    0.26 
   1   0  16    0.55    0.35 
  -2   0 -16    0.01    0.27 
  -2   0 -16    0.35    0.22 
   2   0  16   -0.63    0.37 
  -3   0 -16    6.31    0.52 
  -3   0 -16    5.71    0.36 
   3   0  16    5.09    0.50 
  -4   0 -16    2.44    0.28 
  -4   0 -16    2.61    0.47 
   4   0  16    2.00    0.51 
   4  -1 -16    0.98    0.31 
  -4   1  16    0.39    0.41 
  -4   1  16    0.44    0.29 
   3  -1 -16    0.37    0.26 
  -3   1  16    0.45    0.36 
  -3   1  16    0.39    0.26 
   2  -1 -16    1.33    0.22 
  -2   1  16    1.30    0.34 
  -2   1  16    1.22    0.26 
  -1   1  16    4.64    0.48 
   0  -1 -16   23.53    0.59 
   0   1  16   22.41    0.71 
  -1  -1 -16    0.86    0.27 
  -1  -1 -16    0.59    0.22 
   1   1  16    0.43    0.37 
  -2  -1 -16    0.74    0.31 
  -2  -1 -16    1.04    0.22 
   2   1  16    0.96    0.42 
  -3  -1 -16    7.67    0.55 
  -3  -1 -16    7.22    0.37 
   3   1  16    7.00    0.62 
   4   1  16    0.40    0.49 
   4  -2 -16    0.26    0.32 
  -4   2  16   -0.24    0.32 
   3  -2 -16    3.29    0.30 
  -3   2  16    2.88    0.32 
  -3   2  16    2.83    0.42 
  -2   2  16   -0.61    0.34 
   1  -2 -16    1.16    0.28 
  -1   2  16    0.91    0.38 
   0  -2 -16    4.47    0.41 
   0   2  16    3.88    0.43 
  -1  -2 -16    0.18    0.30 
  -1  -2 -16    0.25    0.23 
   1   2  16    0.03    0.39 
  -2  -2 -16    0.30    0.23 
  -2  -2 -16    0.40    0.32 
   2   2  16    0.23    0.41 
  -3  -2 -16   11.78    0.62 
  -3  -2 -16   11.10    0.43 
   3   2  16   10.59    0.68 
   4  -3 -16    0.72    0.37 
  -4   3  16    0.44    0.42 
   2  -3 -16   -0.02    0.34 
  -2   3  16   -0.12    0.38 
   1  -3 -16    2.64    0.36 
  -1   3  16    1.46    0.42 
   0  -3 -16    8.35    0.51 
   0   3  16    6.87    0.62 
  -1  -3 -16   -0.23    0.34 
   1   3  16   -0.23    0.45 
  -2  -3 -16    1.03    0.27 
  -2  -3 -16    0.94    0.38 
   2   3  16    1.28    0.45 
  -3  -3 -16    0.18    0.28 
   3  -4 -16   -0.46    0.52 
   2  -4 -16    3.26    0.51 
   1  -4 -16   -0.07    0.40 
   0  -4 -16   -0.06    0.38 
   0   4  16   -1.03    0.46 
  -1  -4 -16    0.15    0.40 
   1   4  16   -0.52    0.49 
  -1   5 -17    2.46    0.41 
   2   4 -17    5.84    0.47 
  -2  -4  17    5.71    0.62 
   1   4 -17    0.43    0.29 
  -1  -4  17    0.63    0.40 
   0   4 -17   -0.12    0.28 
   0  -4  17   -0.04    0.38 
  -1   4 -17   -0.57    0.27 
   3   3 -17    2.37    0.33 
  -3  -3  17    1.74    0.39 
   2   3 -17    0.17    0.28 
  -2  -3  17    0.04    0.36 
   1   3 -17    0.17    0.25 
  -1  -3  17    0.76    0.37 
   0   3 -17    0.16    0.24 
   0  -3  17    0.39    0.36 
   1  -3  17    0.83    0.37 
  -4  -2  17    8.11    0.51 
   3   2 -17    0.39    0.28 
  -3  -2  17    0.02    0.28 
  -3  -2  17   -0.01    0.37 
   2   2 -17    0.66    0.25 
  -2  -2  17    0.49    0.34 
   1   2 -17    0.66    0.24 
  -1  -2  17    0.64    0.33 
   0   2 -17    0.19    0.22 
   0  -2  17   -0.04    0.33 
   1  -2  17   -0.29    0.34 
  -2   2 -17    5.62    0.36 
  -2   2 -17    6.18    0.46 
   2  -2  17    5.72    0.57 
  -3   2 -17    1.36    0.37 
  -3   2 -17    1.15    0.25 
   3  -2  17    0.50    0.45 
   4   1 -17   20.05    0.61 
  -4  -1  17   20.51    0.62 
   3   1 -17    0.56    0.26 
  -3  -1  17    0.63    0.29 
  -3  -1  17    0.08    0.36 
   2   1 -17    0.14    0.23 
  -2  -1  17   -0.10    0.32 
   1   1 -17   12.77    0.41 
  -1  -1  17   11.69    0.57 
   0  -1  17    6.01    0.50 
  -1   1 -17    4.24    0.33 
  -1   1 -17    5.50    0.43 
   1  -1  17    4.91    0.53 
  -2   1 -17    0.03    0.31 
  -2   1 -17   -0.01    0.21 
   2  -1  17   -0.46    0.38 
  -3   1 -17   -0.09    0.23 
  -3   1 -17    0.11    0.36 
   3  -1  17   -0.77    0.42 
   4  -1  17   -1.51    0.50 
   4   0 -17    4.48    0.34 
  -4   0  17    4.27    0.36 
  -4   0  17    2.92    0.46 
   3   0 -17    0.27    0.25 
  -3   0  17    0.07    0.28 
  -3   0  17   -0.01    0.37 
   2   0 -17    0.03    0.23 
  -2   0  17   -0.14    0.33 
  -1   0  17    6.25    0.50 
   0   0  17   20.39    0.68 
  -1   0 -17    0.02    0.26 
  -1   0 -17    0.22    0.24 
   1   0  17   -0.40    0.36 
  -2   0 -17   -0.11    0.23 
  -2   0 -17    0.16    0.30 
   2   0  17   -0.46    0.40 
  -3   0 -17    2.63    0.28 
  -3   0 -17    2.78    0.40 
   3   0  17    1.86    0.48 
   4   0  17    0.29    0.53 
   4  -1 -17    0.74    0.32 
  -4   1  17    0.26    0.31 
  -4   1  17    0.44    0.45 
   3  -1 -17    4.93    0.42 
  -3   1  17    3.49    0.44 
  -3   1  17    4.14    0.32 
  -2   1  17    0.40    0.36 
  -1   1  17    6.41    0.54 
   0  -1 -17   30.90    0.70 
   0   1  17   28.26    0.83 
  -1  -1 -17    1.69    0.30 
  -1  -1 -17    1.34    0.25 
   1   1  17    1.31    0.40 
  -2  -1 -17    0.03    0.31 
  -2  -1 -17   -0.05    0.23 
   2   1  17    0.03    0.43 
  -3  -1 -17    5.54    0.55 
  -3  -1 -17    3.58    0.29 
   3   1  17    3.64    0.53 
   4  -2 -17    6.64    0.54 
  -4   2  17    4.91    0.40 
  -3   2  17    0.14    0.42 
  -2   2  17   -0.71    0.38 
   1  -2 -17   -0.03    0.29 
  -1   2  17    0.21    0.40 
   0  -2 -17    2.25    0.32 
   0   2  17    1.25    0.41 
  -1  -2 -17    0.16    0.32 
   1   2  17   -0.09    0.43 
  -2  -2 -17    0.27    0.26 
  -2  -2 -17    0.26    0.34 
   2   2  17    0.09    0.45 
  -3  -2 -17    0.54    0.27 
  -3  -2 -17    0.42    0.44 
   3   2  17    0.94    0.71 
   2  -3 -17    0.45    0.38 
  -2   3  17    0.06    0.44 
   1  -3 -17    2.28    0.37 
  -1   3  17    1.60    0.46 
   0  -3 -17    0.15    0.35 
   0   3  17   -0.54    0.45 
  -1  -3 -17    3.13    0.41 
   1   3  17    2.75    0.52 
  -2  -3 -17    1.30    0.41 
  -2  -3 -17    0.82    0.28 
   2   3  17    0.87    0.50 
   2  -4 -17    0.12    0.48 
   1  -4 -17    3.14    0.48 
   0  -4 -17    3.37    0.47 
   0   4  17    2.18    0.54 
   1   4  17   -0.87    0.52 
   1   4 -18   -0.16    0.30 
  -1  -4  18    0.48    0.43 
   0   4 -18    0.03    0.29 
   0  -4  18    0.38    0.40 
   2   3 -18    1.27    0.30 
  -2  -3  18    0.89    0.39 
   1   3 -18   -0.04    0.26 
  -1  -3  18    0.32    0.38 
   0   3 -18    1.83    0.28 
   0  -3  18    1.37    0.40 
   1  -3  18    1.35    0.40 
   3   2 -18    0.47    0.28 
  -3  -2  18   -0.13    0.39 
   2   2 -18    2.87    0.29 
  -2  -2  18    2.26    0.40 
   1   2 -18    0.89    0.25 
  -1  -2  18    0.62    0.36 
   0  -2  18    0.10    0.36 
   1  -2  18    0.54    0.39 
  -2   2 -18    0.64    0.25 
  -2   2 -18    0.62    0.32 
   2  -2  18    0.27    0.41 
  -3   2 -18    0.09    0.37 
  -3   2 -18    0.12    0.26 
   3  -2  18   -0.60    0.54 
  -4  -1  18    0.24    0.35 
   3   1 -18    1.03    0.28 
  -3  -1  18    0.71    0.33 
  -3  -1  18    0.47    0.41 
   2   1 -18    0.20    0.24 
  -2  -1  18    0.10    0.34 
  -1  -1  18    0.34    0.33 
   0  -1  18   -0.05    0.36 
  -1   1 -18    3.37    0.35 
   1  -1  18    2.67    0.43 
  -2   1 -18    0.73    0.24 
  -2   1 -18    0.74    0.35 
   2  -1  18    0.34    0.41 
  -3   1 -18    2.18    0.28 
  -3   1 -18    3.44    0.44 
   3  -1  18    1.58    0.49 
   4   0 -18    1.35    0.32 
  -4   0  18    0.53    0.45 
  -4   0  18    1.06    0.35 
   3   0 -18    2.32    0.30 
  -3   0  18    1.53    0.33 
  -3   0  18    1.47    0.43 
  -2   0  18    3.73    0.42 
  -1   0  18   -0.67    0.33 
   0   0  18    0.78    0.37 
  -1   0 -18    0.03    0.28 
   1   0  18   -0.39    0.39 
  -2   0 -18    2.16    0.28 
  -2   0 -18    2.37    0.36 
   2   0  18    1.26    0.46 
  -3   0 -18    0.38    0.38 
  -3   0 -18   -0.13    0.27 
   3   0  18   -1.12    0.48 
   4  -1 -18    0.47    0.33 
  -4   1  18    0.10    0.48 
  -4   1  18    0.32    0.34 
   3  -1 -18    1.51    0.29 
  -3   1  18    0.82    0.43 
  -2   1  18    0.40    0.39 
  -1   1  18    8.89    0.59 
   0  -1 -18    1.42    0.29 
   0   1  18    1.32    0.40 
  -1  -1 -18    0.35    0.30 
   1   1  18   -0.09    0.41 
  -2  -1 -18    0.46    0.26 
  -2  -1 -18    0.72    0.34 
   2   1  18    0.10    0.47 
  -3  -1 -18    1.19    0.40 
  -3  -1 -18    0.91    0.28 
   3   1  18    0.32    0.51 
   4  -2 -18    0.44    0.40 
  -4   2  18   -0.14    0.39 
  -3   2  18    1.57    0.47 
  -2   2  18    0.60    0.42 
   1  -2 -18   11.24    0.52 
  -1   2  18   10.03    0.69 
   0  -2 -18    0.17    0.31 
   0   2  18   -0.84    0.42 
  -1  -2 -18    0.07    0.32 
   1   2  18   -0.96    0.45 
  -2  -2 -18    2.88    0.41 
  -2  -2 -18    2.81    0.30 
   2   2  18    2.10    0.51 
  -2   3  18   -1.48    0.59 
   1  -3 -18    1.36    0.40 
  -1   3  18    0.95    0.49 
   0  -3 -18    0.07    0.36 
   0   3  18   -0.76    0.47 
  -1  -3 -18    1.18    0.40 
   1   3  18    0.57    0.53 
   0   4  18   -1.23    0.55 
   0   4 -19    4.59    0.36 
   0  -4  19    5.86    0.66 
   2   3 -19    0.11    0.30 
   1   3 -19    0.25    0.28 
  -1  -3  19   -0.09    0.41 
   0  -3  19    1.41    0.43 
   1  -3  19    3.64    0.47 
   3   2 -19    0.60    0.30 
   2   2 -19    0.59    0.29 
  -2  -2  19    0.69    0.40 
   1   2 -19    0.23    0.30 
  -1  -2  19    0.52    0.39 
   0  -2  19    2.04    0.42 
   1  -2  19    0.22    0.42 
  -2   2 -19    7.08    0.52 
   2  -2  19    6.24    0.65 
  -3   2 -19   -0.05    0.28 
  -3   2 -19    0.22    0.40 
   3   1 -19    0.60    0.30 
  -3  -1  19    0.18    0.42 
   2   1 -19    2.53    0.28 
  -2  -1  19    1.62    0.40 
  -1  -1  19    0.73    0.37 
   0  -1  19   -0.13    0.38 
   1  -1  19    4.21    0.48 
  -2   1 -19   -0.18    0.25 
  -2   1 -19   -0.16    0.36 
   2  -1  19   -0.37    0.43 
  -3   1 -19    0.17    0.42 
  -3   1 -19   -0.08    0.27 
   3  -1  19   -1.04    0.49 
   3   0 -19    1.87    0.32 
  -3   0  19    0.48    0.44 
  -2   0  19    0.33    0.38 
  -1   0  19    4.72    0.47 
   0   0  19    4.03    0.44 
  -1   0 -19   -0.08    0.29 
   1   0  19   -0.31    0.40 
  -2   0 -19    1.73    0.30 
  -2   0 -19    1.54    0.37 
   2   0  19    0.48    0.47 
  -3   0 -19    0.74    0.49 
  -3   0 -19    0.45    0.30 
   3   0  19   -1.06    0.57 
  -3   1  19    0.13    0.45 
  -2   1  19   -0.10    0.40 
  -1   1  19   16.20    0.72 
   0  -1 -19    1.77    0.31 
   0   1  19    1.72    0.45 
  -1  -1 -19    0.18    0.32 
   1   1  19   -0.21    0.44 
  -2  -1 -19    6.27    0.43 
   2   1  19    4.97    0.56 
  -3  -1 -19   -0.10    0.36 
  -3   2  19   -0.03    0.48 
  -2   2  19    1.37    0.46 
  -1   2  19   24.85    0.88 
   0  -2 -19   -0.06    0.34 
   0   2  19   -0.67    0.46 
  -1  -2 -19    1.00    0.36 
   1   2  19   -0.06    0.48 
  -2  -2 -19    0.44    0.47 
   1  -3 -19    0.05    0.41 
  -1   3  19   -0.79    0.50 
   0  -3 -19   -0.45    0.39 
   0   3  19   -1.23    0.50 
   1   3 -20   -0.38    0.30 
  -1  -3  20   -0.09    0.63 
   0  -3  20    7.99    0.70 
   1  -3  20    6.80    0.70 
   2   2 -20    0.10    0.29 
  -1  -2  20   -0.18    0.41 
   0  -2  20    1.86    0.45 
   1  -2  20    5.99    0.68 
   2  -2  20    0.47    0.48 
   3   1 -20    0.61    0.32 
  -2  -1  20    0.53    0.40 
  -1  -1  20   -0.05    0.39 
   0  -1  20    0.02    0.41 
   1  -1  20    0.01    0.44 
  -2   1 -20    0.79    0.40 
   2  -1  20   -0.16    0.49 
  -3   0  20   -0.58    0.67 
  -2   0  20    1.23    0.44 
  -1   0  20    0.70    0.42 
   0   0  20    3.08    0.46 
  -1   0 -20    0.30    0.33 
   1   0  20    0.08    0.45 
  -2   0 -20    0.21    0.37 
   2   0  20   -0.55    0.49 
  -3   1  20    0.63    0.50 
  -2   1  20    0.47    0.45 
  -1   1  20    1.08    0.46 
   0  -1 -20    1.72    0.47 
   0   1  20    2.04    0.48 
  -1  -1 -20    1.15    0.36 
   1   1  20    0.26    0.49 
  -2  -1 -20    0.60    0.40 
  -2   2  20    4.49    0.53 
  -1   2  20   -0.27    0.47 
   0  -2 -20    1.65    0.39 
   0   2  20    1.55    0.51 
  -1  -2 -20    0.27    0.37 
   1  -3 -20    0.24    0.48 
  -1   3  20   -0.41    0.63 
   0  -2  21    0.07    0.45 
   1  -2  21   -0.15    0.49 
  -1  -1  21    1.25    0.44 
   0  -1  21   -0.49    0.44 
   1  -1  21    2.11    0.50 
  -2   1 -21    0.32    0.47 
  -1   0  21    1.84    0.46 
   0   0  21    0.71    0.46 
   1   0  21   -0.30    0.49 
  -2   0 -21    0.29    0.41 
  -1   1  21    1.79    0.51 
   0   1  21    0.65    0.52 
  -1  -1 -21    0.15    0.37 
   0  -2 -21    0.24    0.38 
   0   0   0    0.00    0.00 
;
_shelx_hkl_checksum              68271
loop_
_space_group_symop_operation_xyz
'x, y, z'
'-x, -y, -z'
loop_
_atom_site_label
_atom_site_type_symbol
_atom_site_fract_x
_atom_site_fract_y
_atom_site_fract_z
_atom_site_U_iso_or_equiv
_atom_site_adp_type
_atom_site_occupancy
_atom_site_site_symmetry_order
_atom_site_calc_flag
_atom_site_refinement_flags_posn
_atom_site_refinement_flags_adp
O1 O 0.58106(19) 0.6032(2) 0.12505(7) 0.0278(3) Uani 1 1 d . .
N1 N 0.1417(2) 0.4830(2) 0.16358(7) 0.0156(2) Uani 1 1 d . .
H1N H -0.031(3) 0.497(3) 0.1524(10) 0.019 Uiso 1 1 d . U
C1 C 0.8932(3) 0.4549(2) 0.47125(8) 0.0172(3) Uani 1 1 d . .
C2 C 0.7071(3) 0.3736(2) 0.42127(8) 0.0170(3) Uani 1 1 d . .
C3 C 0.4847(2) 0.2788(2) 0.36150(8) 0.0151(3) Uani 1 1 d . .
C4 C 0.3204(3) 0.0475(2) 0.37403(9) 0.0178(3) Uani 1 1 d . .
H4 H 0.3593 -0.0518 0.4214 0.021 Uiso 1 1 calc R U
C5 C 0.1008(3) -0.0355(2) 0.31691(9) 0.0187(3) Uani 1 1 d . .
H5 H -0.0121 -0.1912 0.3258 0.022 Uiso 1 1 calc R U
C6 C 0.0433(3) 0.1057(2) 0.24674(8) 0.0167(3) Uani 1 1 d . .
H6 H -0.1078 0.0471 0.2080 0.020 Uiso 1 1 calc R U
C7 C 0.2093(2) 0.3343(2) 0.23368(8) 0.0146(3) Uani 1 1 d . .
C8 C 0.4289(2) 0.4208(2) 0.29081(8) 0.0152(3) Uani 1 1 d . .
H8 H 0.5412 0.5768 0.2818 0.018 Uiso 1 1 calc R U
C9 C 0.3285(3) 0.6156(3) 0.11646(8) 0.0178(3) Uani 1 1 d . .
C10 C 0.2102(3) 0.7823(3) 0.05146(9) 0.0206(3) Uani 1 1 d . .
H10A H 0.2739 0.9645 0.0659 0.031 Uiso 1 1 calc R U
H10B H 0.0070 0.7573 0.0507 0.031 Uiso 1 1 calc R U
H10C H 0.2725 0.7338 -0.0046 0.031 Uiso 1 1 calc R U
loop_
_atom_site_aniso_label
_atom_site_aniso_U_11
_atom_site_aniso_U_22
_atom_site_aniso_U_33
_atom_site_aniso_U_23
_atom_site_aniso_U_13
_atom_site_aniso_U_12
O1 0.0114(5) 0.0459(6) 0.0274(6) 0.0116(5) 0.0016(4) 0.0053(4)
N1 0.0081(5) 0.0202(5) 0.0184(6) 0.0032(4) -0.0021(4) 0.0014(4)
C1 0.0140(6) 0.0191(6) 0.0190(6) 0.0033(5) 0.0022(5) 0.0023(4)
C2 0.0142(6) 0.0187(6) 0.0186(6) 0.0036(5) 0.0012(5) 0.0023(5)
C3 0.0108(6) 0.0178(6) 0.0168(6) -0.0006(5) -0.0003(5) 0.0024(4)
C4 0.0170(6) 0.0181(6) 0.0185(6) 0.0030(5) -0.0002(5) 0.0024(5)
C5 0.0156(6) 0.0165(6) 0.0235(7) 0.0020(5) 0.0006(5) -0.0011(5)
C6 0.0118(6) 0.0181(6) 0.0194(6) -0.0020(5) -0.0012(5) 0.0006(4)
C7 0.0109(6) 0.0172(6) 0.0160(6) 0.0004(5) 0.0002(4) 0.0034(4)
C8 0.0107(6) 0.0160(6) 0.0186(6) 0.0007(5) 0.0002(4) 0.0004(4)
C9 0.0117(6) 0.0232(6) 0.0182(6) 0.0007(5) -0.0003(5) 0.0017(5)
C10 0.0142(6) 0.0264(7) 0.0217(7) 0.0071(5) 0.0014(5) 0.0011(5)
loop_
_atom_type_symbol
_atom_type_description
_atom_type_scat_dispersion_real
_atom_type_scat_dispersion_imag
_atom_type_scat_source
C C 0.0033 0.0016 'International Tables Vol C Tables 4.2.6.8 and 6.1.1.4'
H H 0.0000 0.0000 'International Tables Vol C Tables 4.2.6.8 and 6.1.1.4'
N N 0.0061 0.0033 'International Tables Vol C Tables 4.2.6.8 and 6.1.1.4'
O O 0.0106 0.0060 'International Tables Vol C Tables 4.2.6.8 and 6.1.1.4'
loop_
_geom_angle_atom_site_label_1
_geom_angle_atom_site_label_2
_geom_angle_atom_site_label_3
_geom_angle
_geom_angle_site_symmetry_3
C9 N1 C7 125.07(10) .
C9 N1 H1N 117.6(10) .
C7 N1 H1N 117.2(10) .
C2 C1 C1 179.32(18) 2_766
C1 C2 C3 179.53(14) .
C8 C3 C4 119.73(11) .
C8 C3 C2 119.62(11) .
C4 C3 C2 120.63(11) .
C5 C4 C3 119.54(12) .
C5 C4 H4 120.2 .
C3 C4 H4 120.2 .
C4 C5 C6 120.97(12) .
C4 C5 H5 119.5 .
C6 C5 H5 119.5 .
C5 C6 C7 119.45(12) .
C5 C6 H6 120.3 .
C7 C6 H6 120.3 .
C8 C7 C6 120.19(11) .
C8 C7 N1 120.76(11) .
C6 C7 N1 118.98(11) .
C7 C8 C3 120.11(11) .
C7 C8 H8 119.9 .
C3 C8 H8 119.9 .
O1 C9 N1 123.16(12) .
O1 C9 C10 121.02(12) .
N1 C9 C10 115.83(11) .
C9 C10 H10A 109.5 .
C9 C10 H10B 109.5 .
H10A C10 H10B 109.5 .
C9 C10 H10C 109.5 .
H10A C10 H10C 109.5 .
H10B C10 H10C 109.5 .
loop_
_geom_bond_atom_site_label_1
_geom_bond_atom_site_label_2
_geom_bond_distance
_geom_bond_site_symmetry_2
O1 C9 1.2340(16) .
N1 C9 1.3533(16) .
N1 C7 1.4237(16) .
N1 H1N 0.860(16) .
C1 C2 1.2027(18) .
C1 C1 1.377(3) 2_766
C2 C3 1.4345(18) .
C3 C8 1.3972(17) .
C3 C4 1.4010(17) .
C4 C5 1.3863(18) .
C4 H4 0.9500 .
C5 C6 1.3901(18) .
C5 H5 0.9500 .
C6 C7 1.3952(17) .
C6 H6 0.9500 .
C7 C8 1.3900(17) .
C8 H8 0.9500 .
C9 C10 1.5039(18) .
C10 H10A 0.9800 .
C10 H10B 0.9800 .
C10 H10C 0.9800 .
