#------------------------------------------------------------------------------
#$Date: 2019-11-25 22:06:33 +0200 (Mon, 25 Nov 2019) $
#$Revision: 241932 $
#$URL: file:///home/coder/svn-repositories/cod/cif/4/13/17/4131764.cif $
#------------------------------------------------------------------------------
#
# This file is available in the Crystallography Open Database (COD),
# http://www.crystallography.net/
#
# All data on this site have been placed in the public domain by the
# contributors.
#
data_4131764
loop_
_publ_author_name
'Liao, Wei-Qiang'
'Tang, Yuan-Yuan'
'Li, Peng-Fei'
'You, Yu-Meng'
'Xiong, Ren-Gen'
_publ_section_title
;
 Large Piezoelectric Effect in a Lead-Free Molecular Ferroelectric Thin
 Film.
;
_journal_issue                   49
_journal_name_full               'Journal of the American Chemical Society'
_journal_page_first              18071
_journal_page_last               18077
_journal_paper_doi               10.1021/jacs.7b10449
_journal_volume                  139
_journal_year                    2017
_chemical_formula_sum            'C0.21 H0.58 Br0.21 Mn0.05 N0.05'
_chemical_formula_weight         23.56
_space_group_crystal_system      hexagonal
_space_group_IT_number           194
_space_group_name_Hall           '-P 6c 2c'
_space_group_name_H-M_alt        'P 63/m m c'
_atom_sites_solution_hydrogens   geom
_audit_creation_method           SHELXL-2014/7
_cell_angle_alpha                90
_cell_angle_beta                 90
_cell_angle_gamma                120
_cell_formula_units_Z            38
_cell_length_a                   10.031(19)
_cell_length_b                   10.031(19)
_cell_length_c                   6.977(19)
_cell_measurement_reflns_used    196
_cell_measurement_temperature    433(2)
_cell_measurement_theta_max      27.4855
_cell_measurement_theta_min      2.4132
_cell_volume                     608(2)
_computing_structure_refinement  'SHELXL-2014/7 (Sheldrick, 2014)'
_diffrn_ambient_temperature      433(2)
_diffrn_measured_fraction_theta_full 0.996
_diffrn_measured_fraction_theta_max 0.996
_diffrn_measurement_device_type  'Rigaku saturn 724'
_diffrn_radiation_type           MoK\a
_diffrn_radiation_wavelength     0.71073
_diffrn_reflns_av_R_equivalents  0.1374
_diffrn_reflns_av_unetI/netI     0.0377
_diffrn_reflns_Laue_measured_fraction_full 0.996
_diffrn_reflns_Laue_measured_fraction_max 0.996
_diffrn_reflns_limit_h_max       12
_diffrn_reflns_limit_h_min       -12
_diffrn_reflns_limit_k_max       12
_diffrn_reflns_limit_k_min       -12
_diffrn_reflns_limit_l_max       8
_diffrn_reflns_limit_l_min       -8
_diffrn_reflns_number            6018
_diffrn_reflns_point_group_measured_fraction_full 0.996
_diffrn_reflns_point_group_measured_fraction_max 0.996
_diffrn_reflns_theta_full        25.242
_diffrn_reflns_theta_max         27.003
_diffrn_reflns_theta_min         3.746
_exptl_absorpt_coefficient_mu    14.175
_exptl_absorpt_correction_T_max  1.0000
_exptl_absorpt_correction_T_min  0.4052
_exptl_absorpt_correction_type   multi-scan
_exptl_crystal_colour            pink
_exptl_crystal_density_diffrn    2.446
_exptl_crystal_description       block
_exptl_crystal_F_000             414
_exptl_crystal_size_max          0.22
_exptl_crystal_size_mid          0.17
_exptl_crystal_size_min          0.14
_refine_diff_density_max         0.844
_refine_diff_density_min         -0.628
_refine_diff_density_rms         0.195
_refine_ls_extinction_method     none
_refine_ls_goodness_of_fit_ref   1.410
_refine_ls_hydrogen_treatment    constr
_refine_ls_matrix_type           full
_refine_ls_number_parameters     31
_refine_ls_number_reflns         283
_refine_ls_number_restraints     28
_refine_ls_restrained_S_all      1.338
_refine_ls_R_factor_all          0.1973
_refine_ls_R_factor_gt           0.1791
_refine_ls_shift/su_max          0.000
_refine_ls_shift/su_mean         0.000
_refine_ls_structure_factor_coef Fsqd
_refine_ls_weighting_details
'w=1/[\s^2^(Fo^2^)+(0.1345P)^2^+8.4773P] where P=(Fo^2^+2Fc^2^)/3'
_refine_ls_weighting_scheme      calc
_refine_ls_wR_factor_gt          0.3923
_refine_ls_wR_factor_ref         0.4054
_reflns_Friedel_coverage         0.000
_reflns_number_gt                244
_reflns_number_total             283
_reflns_threshold_expression     'I > 2\s(I)'
_cod_data_source_file            ja7b10449_si_003.cif
_cod_data_source_block           1
_cod_depositor_comments
;
The following automatic conversions were performed:

data item '_exptl_absorpt_correction_type' value 'Multi-scan' was
changed to 'multi-scan' in accordance with the
/home/saulius/struct/COD-crude-data/automatic-downloads/DataCite-retrospective/ACS/depositions/lib/dictionaries/cif_core.dic
dictionary named 'cif_core.dic' version 2.4.2 last updated on
2011-04-26.

Automatic conversion script
Id: cif_fix_values 6909 2019-04-08 15:41:33Z antanas 
;
_cod_original_cell_volume        608(3)
_cod_database_code               4131764
_shelx_shelxl_version_number     2014/7
_shelx_space_group_comment
;
The symmetry employed for this shelxl refinement is uniquely defined
by the following loop, which should always be used as a source of
symmetry information in preference to the above space-group names.
They are only intended as comments.
;
_shelx_res_file
;

    1.res created by SHELXL-2014/7


TITL 1 in P6(3)/mmc
CELL 0.71073  10.0313  10.0313   6.9770  90.000  90.000 120.000
ZERR   38.00   0.0190   0.0190   0.0185   0.000   0.000   0.000
LATT  1
SYMM -Y, X-Y, Z
SYMM -X+Y, -X, Z
SYMM -X, -Y, 0.5+Z
SYMM Y, -X+Y, 0.5+Z
SYMM X-Y, X, 0.5+Z
SYMM Y, X, -Z
SYMM X-Y, -Y, -Z
SYMM -X, -X+Y, -Z
SYMM -Y, -X, 0.5-Z
SYMM -X+Y, Y, 0.5-Z
SYMM X, X-Y, 0.5-Z
SFAC C H N Br Mn
UNIT 8 22 2 8 2
L.S. 30
acta
TEMP 160
BOND
omit 0 1 0
eqiv $25 -x, -y, -z
bond mn1 br1_$25

FMAP 2
PLAN 10

bond mn1 br1
sadi  N1 C1 N1 C2 N1 C3 N1 C4
sadi   C1 C2 C1 C3 C1 C4 C2 C3 C2 C4 C3 C4
dfix 1.9 c1 br2
dfix 2.8 n1 br2
simu 0.005 n1 C1 C2 C3 C4 br2
WGHT    0.134500    8.477300
FVAR       0.64822
MN1   5    0.000000    0.000000    0.000000    10.08333    0.10698    0.10698 =
         0.06507    0.00000    0.00000    0.05349
BR1   4    0.123222   -0.123222    0.250000    10.25000    0.15276    0.15276 =
         0.08519    0.00000    0.00000    0.10746
PART  -1
N1    3    0.312361   -0.277318   -0.237723    10.08333    0.38073
BR2   4    0.359386   -0.445561    0.047401    10.08333    0.38284
C1    1    0.324795   -0.284116   -0.031442    10.08333    0.38118
AFIX  23
H1A   2    0.230750   -0.298779    0.027311    10.08333   -1.20000
H1B   2    0.408922   -0.186747    0.013653    10.08333   -1.20000
AFIX   0
C2    1    0.393282   -0.118131   -0.299256    10.08333    0.38025
AFIX  33
H2A   2    0.348524   -0.063722   -0.238942    10.08333   -1.50000
H2B   2    0.499751   -0.071620   -0.263699    10.08333   -1.50000
H2C   2    0.385217   -0.113519   -0.435920    10.08333   -1.50000
AFIX   0
C3    1    0.151616   -0.347633   -0.290824    10.08333    0.38049
AFIX  33
H3A   2    0.106984   -0.293088   -0.230558    10.08333   -1.50000
H3B   2    0.143238   -0.343355   -0.427482    10.08333   -1.50000
H3C   2    0.098075   -0.453066   -0.249631    10.08333   -1.50000
AFIX   0
C4    1    0.379738   -0.359534   -0.328575    10.08333    0.38026
AFIX  33
H4A   2    0.326016   -0.465043   -0.287693    10.08333   -1.50000
H4B   2    0.371670   -0.354986   -0.465247    10.08333   -1.50000
H4C   2    0.486204   -0.313088   -0.293026    10.08333   -1.50000
PART   0

AFIX   0
HKLF 4

REM  1 in P6(3)/mmc
REM R1 =  0.1791 for     244 Fo > 4sig(Fo)  and  0.1973 for all     283 data
REM     31 parameters refined using     28 restraints

END

WGHT      0.1370      8.7150

REM Highest difference peak  0.844,  deepest hole -0.628,  1-sigma level  0.195
Q1    1   0.0803 -0.0803  0.2500  10.25000  0.05    0.84
Q2    1   0.3333 -0.3333 -0.2500  10.08333  0.05    0.84
Q3    1   0.3333 -0.3333  0.0762  10.16667  0.05    0.79
Q4    1   0.3034 -0.3034  0.0782  10.50000  0.05    0.79
Q5    1   0.1698 -0.1698  0.2500  10.25000  0.05    0.75
Q6    1   0.4431 -0.1137 -0.3733  10.50000  0.05    0.46
Q7    1   0.5398 -0.2301 -0.2500  10.25000  0.05    0.38
Q8    1   0.3333 -0.3333  0.2500  10.08333  0.05    0.36
Q9    1   0.0399  0.0797  0.0282  10.50000  0.05    0.35
Q10   1   0.1294 -0.1294 -0.2500  10.25000  0.05    0.31
;
_shelx_res_checksum              6112
_shelx_hkl_file
;
   0   0   1   41.60    8.87
   0   0  -1    9.74    6.15
   0   0  -1   17.89    4.80
   0   0   1   17.46    8.21
   0   0  -1   10.97    6.41
   0   0   2 6346.04  298.80
   0   0  -2 6333.70  299.59
   0   0  -2 6013.57  282.47
   0   0  -2 5225.54  245.49
   0   0   2 6266.73  296.04
   0   0  -3    6.41    4.58
   0   0  -3   -0.02    6.01
   0   0   3   18.03    9.76
   0   0  -4 5143.63  375.94
   0   0  -4 5742.90  418.46
   0   0  -4 5078.40  368.55
   0   0   4 5882.56  432.30
   0   0  -5   15.15   11.23
   0   0  -5    4.52    7.91
   0   0   5   -1.67   13.20
   0   0  -6  349.74   31.64
   0   0  -6  285.66   20.31
   0   0   6  278.68   59.17
   0   0  -7   29.15   24.83
   0   0   7   19.11   13.65
   0   0  -8   78.28   22.04
   0   0   8   92.33   33.91
  -1   1   0  -11.04    5.01
  -1   1   0  -12.56    3.85
   1  -1   0  -15.58    5.95
   1  -1   1   21.38    8.56
  -1   1  -1   14.48    9.70
   1  -1  -1   13.43    4.85
  -1   1   1    2.73    5.30
   1  -1   1    9.86    4.63
  -1   1  -1   15.63    3.72
   1  -1  -1   11.05    2.76
  -1   1   1   21.75    4.44
  -1   1   1   14.45    9.28
   1  -1  -1    6.80    7.52
  -1   1  -1   11.23    7.07
   1  -1   2  682.02   35.87
   1  -1  -2  676.26   28.56
   1  -1   2  620.60   23.26
   1  -1  -2  616.85   21.24
   1  -1   2  714.39   28.02
  -1   1  -2  605.15   34.93
  -1   1   2  667.88   37.58
   1  -1  -2  626.28   23.52
   1  -1   3    1.34    7.31
   1  -1  -3   18.11   10.55
   1  -1  -3    9.57    2.23
   1  -1  -3   10.72    4.44
  -1   1  -3    4.36    8.03
   1  -1   3   12.77    6.80
  -1   1  -3    8.52    8.33
  -1   1   3    9.71   10.59
   1  -1   4 1613.39  102.09
   1  -1  -4 1648.20  104.53
   1  -1  -4 1651.64   99.97
  -1   1  -4 1664.92  104.02
   1  -1   4 1601.88  131.80
  -1   1   4 1606.46  116.33
   1  -1  -5   20.85   15.13
   1  -1  -5   27.99    8.94
   1  -1  -5   44.38   13.42
  -1   1  -5   46.24   18.28
   1  -1   5   25.00   17.50
  -1   1   5   57.67   22.57
   1  -1  -6   -3.61   16.35
  -1   1  -6    6.61   12.54
  -1   1  -6    5.05   12.39
   1  -1   6   14.70   16.05
  -1   1   6   34.45   14.00
   1  -1  -7    9.59   18.32
  -1   1  -7    2.25   13.37
   1  -1   7   11.70   15.51
  -1   1   7   -9.04   14.38
   1  -1  -8   34.35   22.71
  -1   1  -8   45.30   20.92
  -1   1   8   34.66   17.45
   2  -2   0  195.21   41.17
  -2   2   0   99.46   11.09
   2  -2   0  109.45   14.32
  -2   2   0  139.94   10.74
  -2   2   0  119.55   12.52
   2  -2   0  130.23   13.08
   2  -2   1 5115.09  246.06
   2  -2  -1 4884.33  150.28
  -2   2   1 4491.20  137.38
   2  -2   1 5020.49  239.33
  -2   2  -1 5081.91  241.61
  -2   2   1 5085.56  238.88
  -2   2   1 4852.74  151.09
   2  -2  -1 4583.43  140.43
   2  -2   1 5602.47  264.77
   2  -2   2 2022.50   66.91
   2  -2  -2 1925.26   63.39
   2  -2   2 1939.59   61.92
   2  -2  -2 2054.98   62.55
  -2   2   2 1934.88   60.10
  -2   2  -2 1883.01   60.50
  -2   2   2 1980.53   65.70
  -2   2  -2 2055.77   65.62
   2  -2   3 2098.87  107.48
   2  -2  -3 2186.69  109.12
  -2   2  -3 2001.84  102.92
  -2   2  -3 2232.93  108.97
   2  -2   4    4.47    8.48
   2  -2  -4   10.03   13.06
  -2   2  -4   14.60   17.77
  -2   2   4   10.79   11.49
   2  -2   5  311.10   36.89
   2  -2  -5  363.52   46.21
  -2   2  -5  387.53   47.41
  -2   2   5  318.97   95.84
   2  -2  -6  175.24   30.48
  -2   2  -6  209.52   31.32
  -2   2   6  151.82   46.49
   2  -2  -7   56.42   23.53
  -2   2  -7   37.20   16.08
  -2   2  -7   76.64   23.39
  -2   2   7   75.84   24.71
   2  -2  -8   14.03   17.23
  -2   2  -8    7.52   15.19
  -2   2   8    5.91   16.06
   3  -3   0  378.96   72.97
   3  -3   0  269.94   20.78
  -3   3   0  223.67   14.52
   3  -3   0  218.09   13.64
   3  -3   1 3175.61  126.66
  -3   3  -1 3349.68  118.54
   3  -3  -1 3558.79  113.41
   3  -3   1 3689.43  117.62
   3  -3  -1 3604.50  112.56
  -3   3   1 3790.98  117.04
  -3   3   1 3720.29  125.74
  -3   3  -1 3689.96  114.58
   3  -3   1 3271.68  102.13
   3  -3   2 2432.11  141.01
   3  -3  -2 2272.73  113.26
   3  -3   2 2244.77  113.91
   3  -3  -2 2252.55  107.13
  -3   3   2 2235.49  107.39
  -3   3   2 1996.47  104.67
  -3   3  -2 2173.66  104.79
   3  -3   2 1994.31   96.99
   3  -3   3 1996.66  133.87
   3  -3  -3 2054.59  152.64
   3  -3   3 2005.52  123.59
  -3   3  -3 1637.66  103.75
  -3   3   3 2067.97  161.01
  -3   3  -3 2489.30  183.16
   3  -3   4   70.68   19.02
   3  -3  -4   72.63   26.78
  -3   3  -4   47.49   21.50
  -3   3   4   69.81   25.69
  -3   3  -4   52.26   14.17
   3  -3   5  436.41   27.92
   3  -3  -5  436.13   34.85
  -3   3   5  363.75  119.49
   3  -3  -6  215.44   38.45
  -3   3   6  145.38   33.60
  -3   3  -6  143.95   20.16
   3  -3  -7   88.16   25.76
  -3   3  -7   59.41   25.06
  -3   3   7   61.40   35.56
   3  -3  -8    7.74   18.40
  -3   3  -8    5.66    9.30
  -3   3   8   12.95   16.95
   4  -4   0   22.85   37.25
  -4   4   0    4.61   10.68
   4  -4   1   27.65   15.14
   4  -4  -1   51.73   30.78
   4  -4   1    5.27    6.95
   4  -4  -1    2.40    6.13
  -4   4   1   15.01    6.28
  -4   4  -1    7.84    9.50
   4  -4   2  447.33   63.52
   4  -4  -2  657.29   55.61
   4  -4   2  645.74   46.37
   4  -4  -2  626.40   44.99
  -4   4   2  589.12   44.07
  -4   4   2  677.36   52.19
  -4   4  -2  706.21   48.59
   4  -4   3   -8.12   14.10
   4  -4  -3   -8.98   15.53
   4  -4   3    1.96    9.57
  -4   4   3   -4.56    3.61
  -4   4   3    6.47    8.65
  -4   4  -3   -1.12    8.30
   4  -4   4   14.15    5.88
   4  -4  -4   13.54   17.65
  -4   4  -4   37.17   26.85
  -4   4   4    1.69   22.84
  -4   4  -4   12.14   14.11
   4  -4   5   11.66    9.52
   4  -4  -5   36.26   25.80
  -4   4  -5    8.84   21.08
  -4   4   5   -6.82   23.46
  -4   4  -5   -3.49   12.38
   4  -4   6    5.40    8.25
   4  -4  -6   61.75   31.00
  -4   4  -6   65.30   36.72
  -4   4   6   58.61   43.66
   4  -4   7    4.85    8.34
   4  -4  -7   43.84   23.12
  -4   4  -7    7.83   20.92
  -4   4   7   22.74   24.64
   4  -4  -8    9.92   17.84
  -4   4   8   23.89   25.02
   5  -5   0   32.85   26.16
   5  -5   0   13.79   11.74
  -5   5   0   28.12   14.98
   5  -5   1  706.97  149.85
   5  -5   1  910.30   62.08
   5  -5  -1  852.75   65.43
  -5   5   1  935.74   95.04
  -5   5  -1 1029.38   69.99
   5  -5   2  319.85   78.95
   5  -5  -2  459.21   46.83
   5  -5   2  497.42   48.05
   5  -5  -2  442.10   36.62
  -5   5   2  545.03  118.08
  -5   5  -2  501.14   44.33
   5  -5   3  449.76   99.12
   5  -5  -3  456.51   91.15
   5  -5   3  424.30   81.81
  -5   5   3  435.99  139.88
  -5   5  -3  552.03   60.32
   5  -5   4   23.33   16.16
   5  -5  -4    0.11   20.19
  -5   5   4   11.02    6.32
  -5   5  -4   41.88   30.94
  -5   5   4  -12.79   23.41
  -5   5  -4    9.68    8.73
   5  -5   5   81.39   23.11
   5  -5  -5  129.13   29.80
  -5   5  -5  109.24   39.36
  -5   5   5  130.95   33.86
   5  -5   6   26.30   10.82
   5  -5  -6   14.65   20.22
  -5   5  -6   10.13   23.64
  -5   5   6   14.67   22.07
   5  -5  -7   31.27   19.05
  -5   5  -7   37.28   32.43
  -5   5   7    1.27   18.62
   6  -6   0   47.83   32.07
   6  -6   0    9.65    9.50
  -6   6   0   31.83   15.34
   6  -6   1  230.18   85.52
   6  -6  -1  428.50  152.69
   6  -6  -1  280.10   55.12
   6  -6   1  261.44   54.78
  -6   6   1  284.17   82.94
  -6   6  -1  312.19   64.15
   6  -6   2  173.85   60.23
   6  -6  -2  294.79   57.85
   6  -6  -2  252.04   32.17
   6  -6   2  212.99   32.97
  -6   6   2  279.55   58.33
  -6   6  -2  252.34   36.84
   6  -6   3   86.12   36.88
   6  -6  -3  107.87   44.43
   6  -6   3  117.49   36.75
  -6   6   3  122.95   29.63
  -6   6   3  115.37   39.25
   6  -6   4   -6.70   14.16
   6  -6  -4   13.10   20.13
  -6   6  -4   47.96   27.67
  -6   6   4    7.06   22.22
  -6   6  -4   -1.52    7.76
   6  -6   5   -0.50   11.31
   6  -6  -5   48.63   24.65
  -6   6  -5   33.45   23.32
  -6   6   5   58.08   33.24
   6  -6   6   15.77    9.36
   6  -6  -6   26.56   21.97
  -6   6  -6  -14.42   22.80
  -6   6   6   12.30   21.68
   6  -6  -7   44.14   35.01
  -6   6  -7   30.86   30.36
  -6   6   7   -9.27   30.16
   7  -7   0  111.63   51.33
   7  -7   0   69.85   25.62
  -7   7   0   68.10   30.87
   7  -7   1   17.62   28.13
   7  -7  -1   42.05   38.13
   7  -7  -1    3.15    8.67
   7  -7   1   24.77   15.79
  -7   7   1   25.11   12.84
  -7   7  -1   -2.50   13.67
   7  -7   2   30.21   27.42
   7  -7  -2   21.21   21.65
   7  -7   2    6.27   11.75
  -7   7   2    4.12   16.36
  -7   7  -2    0.97   10.47
   7  -7   3   22.11   25.57
   7  -7  -3   -1.90   28.19
  -7   7   3   -0.85    6.79
  -7   7   3   18.33   13.30
  -7   7  -3    1.94    9.99
   7  -7   4    6.80   10.91
   7  -7  -4   24.07   21.92
  -7   7  -4    6.83   23.71
  -7   7   4   21.66   15.34
   7  -7   5   15.38   14.85
   7  -7  -5   -1.44   22.53
  -7   7  -5   65.92   42.75
  -7   7   5   46.20   25.64
   7  -7  -6   38.99   37.52
  -7   7  -6   38.56   26.07
  -7   7   6    1.68   21.03
   8  -8   0  182.55   63.29
  -8   8   0   56.99   26.55
   8  -8   1  -22.96   36.94
   8  -8  -1   11.01   28.68
  -8   8   1   29.43   13.29
  -8   8  -1   -2.91   13.72
   8  -8   2   47.59   38.82
   8  -8  -2   -0.67   43.17
  -8   8   2    3.49   10.21
  -8   8   2   17.11   14.25
  -8   8  -2   12.45   11.38
   8  -8   3    1.94    9.03
   8  -8  -3    0.85   44.68
  -8   8  -3    3.58   23.47
  -8   8   3   16.57   14.83
   8  -8   4   17.26    9.36
   8  -8  -4   -4.73   28.41
  -8   8  -4   29.73   36.63
  -8   8   4   26.53   21.72
   8  -8  -5   18.67   34.88
  -8   8  -5   -9.82   23.78
  -8   8   5  -28.18   26.83
   8  -8  -6   28.02   31.40
  -8   8  -6   34.04   22.17
  -8   8   6   27.42   23.12
   9  -9   0  -25.62   44.66
  -9   9   0   27.27   19.22
  -9   9   0    9.91   10.56
   9  -9   1   30.75   39.46
   9  -9  -1   85.49   58.55
  -9   9   1   29.12   19.25
  -9   9  -1   -2.36   19.78
  -9   9   1   12.49   17.50
  -9   9  -1    5.28    9.64
   9  -9   2   35.48   44.84
   9  -9  -2   38.85   37.53
  -9   9   2   21.65   19.04
  -9   9  -2   31.70   21.51
  -9   9   2   17.49   19.57
  -9   9  -2   -0.10   12.25
   9  -9   3   16.83   18.48
   9  -9  -3  -18.85   45.55
  -9   9  -3   -1.38   23.18
  -9   9   3  -14.48   21.56
   9  -9  -4   52.38   66.68
  -9   9  -4    8.73   25.52
  -9   9   4    3.62   16.39
   9  -9  -5   11.43   32.36
  -9   9  -5   19.75   32.55
  -9   9   5   -7.14   24.87
  10 -10   0  -19.28   51.87
 -10  10   0   21.78   19.60
 -10  10   0   -1.12   11.43
  10 -10   1   -4.39   18.21
  10 -10  -1   88.06   67.57
 -10  10   1   19.18   16.14
 -10  10  -1   16.23   19.68
 -10  10   1    5.43   21.80
 -10  10  -1   14.31   12.83
  10 -10  -2   26.62   31.00
 -10  10  -2   56.93   41.18
 -10  10   2   25.75   14.81
  10 -10  -3   -3.39   33.80
 -10  10  -3   -3.24   25.02
 -10  10   3    4.66   13.07
  11 -11   0   17.34   36.01
 -11  11   0    2.19   18.77
 -11  11   0   14.57   11.24
  11 -11  -1   -5.66   44.00
 -11  11   1   28.44   15.04
 -11  11  -1   -5.58   21.29
 -11  11   1   17.13   12.29
   1   0   0   -1.34    2.31
   0   1   0  -31.10   12.04
   0  -1   0   -7.03    3.60
   1   0   0  -21.76    7.37
  -1   0  -1   13.91    3.33
  -1   0   1   13.94    5.32
   1   0  -1    8.22    2.69
   0  -1   1   11.79    5.23
   0   1  -1   10.65    6.05
   0  -1  -1    8.50    5.40
   0   1   1   24.82   10.47
  -1   0  -1   14.06    3.40
   1   0   1   16.80    7.54
  -1   0  -1   12.45    4.72
   0   1   1   35.07   12.50
   0  -1  -1    4.94    5.23
   1   0  -1   11.61    6.11
  -1   0   1   52.44   17.72
   0   1  -1    7.95    8.11
   0  -1   1   10.45    7.15
   1   0   1   13.51    9.48
  -1   0  -1    7.92    9.77
   0   1   1   11.10    6.54
   0  -1  -1    3.86    9.42
  -1   0   1   11.20    7.14
   1   0  -1   10.27    5.61
   0   1  -1    5.80    3.13
  -1   0   2  686.68   28.33
  -1   0  -2  709.30   25.09
   0  -1   2  683.62   32.07
   0   1  -2  737.79   36.33
   0  -1  -2  663.55   26.19
   0   1   2  636.85   23.67
   1   0   2  695.57   24.43
   0   1   2  609.62   24.27
  -1   0  -2  697.05   25.66
   0  -1  -2  673.90   24.49
   1   0  -2  644.71   24.64
  -1   0   2  658.59   24.39
   0  -1   2  614.07   21.88
   1   0   2  725.94   32.71
  -1   0  -2  661.42   28.66
   0   1   2  711.40   30.56
   0  -1   2  667.33   30.49
   0  -1  -2  640.72   34.72
  -1   0   2  663.27   35.08
   0   1  -2  654.20   27.42
  -1   0   3    9.52    8.97
   0  -1   3    9.94    9.41
  -1   0  -3   11.22    9.71
   0   1  -3    8.12    4.31
   0   1   3   12.37    4.40
   1   0   3   13.58    4.22
  -1   0  -3    9.39    5.24
   0  -1  -3    9.29    4.46
   1   0  -3   13.08   30.14
   0   1  -3    6.99    9.74
  -1   0   3    6.59    4.40
   1   0   3   -2.62   11.23
   0   1   3    7.58    4.78
   0  -1   3    9.40    6.46
  -1   0   3    3.51    7.88
   0   1  -3    3.07    3.85
   0  -1   4 1599.89  100.46
   0  -1  -4 1764.15  112.79
  -1   0  -4 1487.88   93.66
   1   0  -4 1308.98   79.59
   0  -1  -4 1305.97   80.24
   0   1  -4 1580.37  100.03
   0  -1  -4 1329.50   80.78
   1   0   4 1677.47  120.20
   0   1   4 1662.33  139.85
   0  -1   4 1553.95  118.63
  -1   0   4 1523.58  122.68
   0  -1   5   26.06   18.98
   0  -1  -5   59.26   23.40
  -1   0  -5   49.94   20.39
   1   0  -5   38.92   21.88
   1   0  -5   72.08   28.70
   0   1  -5   51.03   21.29
   0  -1  -5   15.91    7.79
  -1   0  -5   33.75   14.01
   1   0   5   54.33   17.62
   0   1   5   50.09   25.31
   0  -1   5   13.55   14.91
  -1   0   5   53.02   22.86
   0  -1  -6   39.81   25.70
  -1   0  -6    6.33   14.41
   1   0  -6   11.56   16.21
   0   1  -6   28.45   24.17
   1   0  -6    9.04    8.17
   0   1  -6   25.25   16.34
  -1   0  -6   15.91    8.74
   1   0   6   -6.82   12.12
   0  -1   6   18.80    6.79
   0   1   6   -0.99   14.22
  -1   0   6   10.26    9.36
   0  -1  -7   -5.98   15.30
  -1   0  -7    4.65   13.51
   1   0  -7   11.56   23.11
   0   1  -7   -0.84   13.61
   1   0   7   20.42   22.51
   0  -1   7    3.68    4.79
   0   1   7   16.19    5.88
  -1   0   7    4.17    7.60
   0  -1  -8   12.17   14.50
  -1   0  -8   35.50   18.72
   1   0  -8   38.84   23.75
   0   1  -8   38.52   26.26
   1   0   8   23.41   19.78
   0   1   8   24.70   16.96
  -1   0   8   26.44   12.28
   1  -2   0 1820.47   68.90
  -1   2   0 1676.52   61.94
   2  -1   0 1851.57   57.46
  -2   1   0 1863.33   57.18
   2  -1   0 1863.00   59.74
  -2   1   0 1845.99   59.22
  -1   2   0 1848.96   58.07
  -1   2   0 1777.25   55.79
   1  -2   0 1724.40   53.70
  -2   1   0 1991.72   63.70
   2  -1   0 1922.75   61.08
   1  -2   1   10.80   14.54
  -1   2  -1    7.65   11.84
  -2   1  -1   15.82    9.44
   1  -2  -1   22.31   15.97
  -1   2   1   10.64   10.24
   2  -1  -1   13.70   11.51
  -2   1   1    4.60    5.25
   2  -1   1   -0.39    7.20
  -2   1  -1    3.92    4.18
   2  -1  -1   10.27    6.23
  -2   1   1   -2.64    6.41
  -1   2   1   32.16   16.44
  -1   2  -1   36.53   15.31
   1  -2  -1    0.96    3.16
   1  -2   1    9.47    6.09
  -1   2   1   -0.45    7.73
   1  -2  -1    7.50    5.19
  -2   1   1   17.41   12.50
   2  -1  -1   32.30   14.47
   1  -2   1   23.47    6.31
  -2   1  -1    4.27   13.35
   2  -1   1   24.07   11.14
   2  -1   2 1757.14   59.86
   1  -2   2 1694.40   65.27
  -2   1  -2 1754.29   59.03
   1  -2  -2 1714.51   58.55
   2  -1  -2 1672.75   55.72
   2  -1   2 1653.20   59.49
   2  -1  -2 1763.50   60.07
  -2   1   2 1578.32   51.34
  -1   2  -2 1675.08   55.68
  -2   1  -2 1671.25   56.60
  -1   2  -2 1620.00   51.21
  -1   2   2 1736.00   70.56
  -2   1   2 1789.92   64.42
  -1   2  -2 1702.78   53.03
   2  -1   3    4.31    6.37
   1  -2   3   -1.19    7.57
   1  -2  -3    2.05    9.61
   2  -1  -3   11.89   10.96
   2  -1   3    2.83    5.82
   2  -1  -3    4.90    3.68
  -2   1   3    3.47    4.36
  -1   2  -3    2.22   12.31
   1  -2   3    1.60    4.75
  -1   2  -3    1.22    2.55
  -2   1   3    0.69    7.82
   1  -2   4   18.27   13.90
   1  -2  -4   43.78   18.28
   2  -1  -4   27.81   19.08
   2  -1   4   36.96   11.34
   2  -1  -4   35.69    7.59
  -1   2  -4   65.53   19.08
   2  -1   4   40.18   18.95
   1  -2   4   21.49    7.40
  -1   2   4   37.45   18.95
  -2   1   4   20.63   18.26
  -1   2  -4   26.36    6.70
   1  -2   5   15.39   11.61
   1  -2  -5   -2.54   15.63
   2  -1  -5    3.10   15.54
  -2   1  -5    8.68    8.98
   2  -1  -5    2.01    1.98
   2  -1  -5    2.77    5.23
  -1   2  -5   -1.67   14.30
  -2   1  -5    8.42   11.10
   2  -1   5   15.61   14.95
   1  -2   5   -3.84    9.17
  -1   2   5   14.32   15.80
  -2   1   5   18.11   19.65
   1  -2   6   27.09   11.98
   1  -2  -6   30.43   16.73
   2  -1  -6   31.18   25.12
  -2   1  -6   65.94   18.79
  -1   2  -6   88.24   26.65
  -2   1  -6   37.94   18.03
   2  -1   6   32.77   22.51
   1  -2   6   54.72   17.34
  -1   2   6   76.65   32.00
  -2   1   6   40.98   17.69
   1  -2  -7    8.01   21.82
   2  -1  -7   -2.58   17.60
  -2   1  -7   51.01   24.46
  -1   2  -7   -4.59   12.02
   2  -1   7   -4.49   11.43
   1  -2   7    7.66    9.17
  -1   2   7   -8.75   20.08
  -2   1   7    1.73    8.43
   1  -2  -8   -6.74   15.64
   2  -1  -8   25.84   26.65
  -2   1  -8   13.18   12.02
  -1   2  -8    5.54   12.63
  -1   2   8   19.93   16.02
  -2   1   8   20.12   12.99
   2  -3   0  392.80   81.06
  -2   3   0  307.14   63.68
   3  -2   0  321.49   20.97
  -3   2   0  336.18   15.94
  -2   3   0  321.20   23.40
   3  -2   0  318.47   29.45
  -3   2   0  361.72   22.52
  -2   3   0  345.36   17.74
  -2   3   0  381.26   31.27
   2  -3   0  301.61   14.36
  -3   2   0  355.64   23.43
   3  -2   0  378.65   23.30
   2  -3   1 2015.89   89.19
   3  -2   1 2065.20   76.43
  -3   2  -1 1950.08   64.43
   2  -3  -1 2225.46   76.93
   3  -2  -1 2228.15   73.01
  -3   2   1 2102.68   66.30
  -2   3   1 1961.78   61.07
   3  -2   1 1983.08   75.05
  -3   2   1 2170.21   71.50
  -2   3   1 2161.19   67.62
  -2   3  -1 2168.42   69.96
  -2   3   1 2143.62   70.04
  -2   3  -1 2042.76   62.99
  -3   2   1 2241.90   74.97
   2  -3   1 2191.86   68.83
   3  -2   1 2155.35   71.74
   3  -2   2 2047.70  102.80
   2  -3   2 2342.53  136.65
  -3   2  -2 2625.17  131.44
   2  -3  -2 2184.06  107.52
   3  -2  -2 2181.07  107.09
   3  -2   2 2121.81  106.70
  -2   3   2 2189.96  103.41
   3  -2  -2 2023.17   97.54
  -3   2   2 2289.87  109.45
  -2   3  -2 2191.20  106.91
  -2   3   2 2153.10  114.53
  -3   2   2 2322.38  114.83
  -2   3  -2 2234.55  106.11
  -3   2  -2 2422.93  118.98
   3  -2   3  431.19   34.45
   2  -3   3  433.33   53.75
   2  -3  -3  444.00   36.50
   3  -2  -3  469.29   35.87
   3  -2   3  503.34   41.59
  -3   2   3  365.62   25.25
  -2   3  -3  432.83   41.81
  -2   3   3  490.53   60.12
  -3   2   3  504.00   51.21
  -2   3  -3  490.96   33.29
  -3   2  -3  495.96   39.39
   3  -2   4    8.20   10.37
   2  -3   4   13.40    9.29
   2  -3  -4    3.12   14.64
   3  -2  -4    4.61   23.57
   3  -2   4   23.21   11.82
  -2   3  -4   27.41   18.24
  -3   2   4   19.60    5.81
  -2   3   4   27.89   18.42
  -2   3  -4    4.30    5.26
  -3   2   4   21.84    9.72
  -2   3  -4   14.67    6.74
  -3   2  -4   20.51   12.42
   2  -3   5  132.89   41.94
   2  -3  -5  208.19   36.99
   3  -2  -5  174.52   33.29
  -2   3   5  197.58   54.36
  -3   2   5  162.07   44.77
  -3   2  -5  193.43   35.67
   2  -3  -6  127.73   30.23
   3  -2  -6  137.68   33.04
  -3   2  -6  122.25   20.75
  -2   3   6  119.15   37.20
  -3   2   6  142.26   38.19
   2  -3   7   10.16   10.36
   2  -3  -7   30.20   18.44
   3  -2  -7   44.15   27.37
  -3   2  -7   24.10   14.70
  -2   3  -7   14.81   16.02
  -3   2  -7    4.78   14.92
  -2   3   7   17.83   18.66
  -3   2   7   12.57   14.69
  -3   2  -7    4.50   22.94
   2  -3  -8  -16.77   17.37
   3  -2  -8   20.04   22.00
  -2   3  -8   16.92   16.74
  -2   3   8   18.97   12.98
  -3   2   8   10.71   16.02
   3  -4   0  446.22   69.90
   4  -3   0  591.82   66.65
  -4   3   0  332.49   20.38
   4  -3   0  377.50   39.63
  -3   4   0  354.74   22.46
  -3   4   0  394.18   28.92
  -4   3   0  359.25   27.57
   3  -4   1  549.83  113.90
   4  -3   1  464.71   67.08
   4  -3  -1  642.28   42.00
  -3   4   1  564.15   32.38
   4  -3   1  546.93   39.38
   4  -3  -1  603.84   35.44
  -3   4   1  599.07   32.55
  -3   4  -1  620.81   36.25
  -3   4   1  638.27   41.20
  -3   4  -1  609.19   32.23
  -4   3   1  621.30   38.60
  -4   3  -1  569.49   35.54
   3  -4   1  594.71   32.51
   4  -3   2  329.64   33.31
   3  -4   2  258.82   52.41
  -4   3  -2  237.89   51.23
   3  -4  -2  294.81   30.07
   4  -3  -2  303.69   29.38
   4  -3   2  283.42   27.91
  -3   4   2  267.82   21.22
   4  -3  -2  264.56   22.28
  -4   3   2  262.77   30.57
  -3   4   2  290.88   18.62
  -3   4  -2  312.54   26.66
  -3   4   2  273.66   40.03
  -4   3   2  311.61   65.40
  -3   4  -2  320.08   20.14
  -4   3  -2  273.79   23.22
   4  -3   3  247.52   33.83
   3  -4   3  266.86   58.58
   3  -4  -3  272.71   29.27
   4  -3  -3  266.97   30.18
   4  -3   3  246.66   29.13
   4  -3  -3  270.63   23.11
  -3   4  -3  306.56   33.28
  -3   4  -3  177.30   25.57
  -3   4   3  270.95   63.80
  -4   3   3  298.43   55.57
  -3   4  -3  284.04   22.46
   4  -3   4   62.15   20.48
   3  -4   4   43.34   16.68
   3  -4  -4   77.91   30.42
   4  -3  -4   66.83   30.26
   4  -3   4   82.99   29.64
   4  -3  -4   43.15   13.57
  -4   3   4   17.87    5.51
  -3   4  -4   79.46   33.26
  -3   4  -4   33.96   12.83
  -3   4   4   50.67   26.98
  -4   3   4   18.14   15.46
  -4   3  -4   72.72   26.44
   4  -3   5   68.71   22.37
   3  -4  -5   91.24   31.05
   4  -3  -5   27.29   19.34
  -3   4  -5   95.86   44.99
  -3   4   5   38.97   31.17
  -4   3   5   53.76   25.37
  -3   4  -5  111.71   30.09
  -4   3  -5   54.48   23.60
   4  -3   6   22.35   10.00
   3  -4   6   21.39   13.17
   3  -4  -6   14.95   25.53
   4  -3  -6   30.81   20.19
  -3   4  -6   21.13   22.88
  -4   3  -6   14.25   17.14
  -3   4   6   -2.15   26.77
  -4   3   6   21.49   12.83
  -4   3  -6   10.55   10.61
   3  -4   7   11.67   14.96
   3  -4  -7   -0.95   17.85
   4  -3  -7   -0.12   19.96
  -3   4  -7   40.43   29.27
  -4   3  -7    9.18   15.74
  -3   4   7   -3.84   23.71
  -4   3   7   56.70   25.05
   3  -4  -8   -3.03   17.50
   4  -3  -8    0.18   19.00
  -3   4   8   -6.76   20.08
  -4   3   8   67.90   28.33
   4  -5   0  405.74   90.35
   5  -4   0  399.11   89.49
  -4   5   0  362.71   32.34
  -4   5   0  325.78   48.54
   4  -5   1   82.70   66.86
   5  -4   1  159.09   46.72
   4  -5  -1  350.09   77.03
   5  -4  -1  212.52   28.15
   5  -4   1  242.67   23.42
   5  -4  -1  213.63   34.23
  -4   5   1  267.52   26.27
  -4   5  -1  269.26   26.61
  -4   5  -1  257.03   22.87
  -5   4   1  260.87   31.95
  -5   4  -1  237.61   26.59
   5  -4   2    8.58   14.21
   4  -5   2   -3.39   24.95
   4  -5  -2   27.12   30.83
   5  -4  -2   27.35   19.27
   5  -4   2   27.91   11.01
   5  -4  -2   11.49    5.24
  -4   5   2   10.56    7.21
  -4   5  -2   24.43   21.57
  -4   5   2   25.29   11.83
  -5   4   2   28.50   15.71
  -4   5  -2   14.64    8.58
  -5   4  -2   27.76   15.45
   4  -5   2    8.79   10.97
   5  -4   3   95.65   32.37
   4  -5   3   67.02   24.29
   4  -5  -3  137.46   45.25
   5  -4  -3  117.19   37.01
   5  -4   3   77.74   32.64
   5  -4  -3   79.20   20.77
  -4   5   3   57.03   13.92
  -5   4   3   41.01   13.36
  -4   5   3  114.50   27.01
  -4   5  -3  119.10   31.46
  -4   5   3  115.78   41.11
  -5   4   3   67.45   29.76
  -4   5  -3   89.91   20.31
  -5   4  -3   89.48   25.54
   5  -4   4   66.63   21.75
   4  -5   4   49.34   20.39
   4  -5  -4  100.04   37.76
   5  -4  -4   67.30   28.06
   5  -4   4   94.39   28.02
   5  -4  -4   44.81   14.22
  -4   5  -4   88.91   41.44
  -4   5   4   94.27   42.72
  -5   4   4   83.27   29.51
   5  -4   5   18.36   10.35
   4  -5   5   -5.06   13.15
   4  -5  -5   27.57   18.18
   5  -4  -5   29.40   27.55
  -4   5  -5   84.43   43.66
  -4   5   5   17.76   22.25
  -5   4   5    9.74   13.48
  -5   4  -5   21.73   24.27
   5  -4   6   -5.13    6.90
   4  -5   6    8.59    8.85
   4  -5  -6   23.48   18.55
   5  -4  -6   23.89   19.58
  -4   5  -6   49.22   38.32
  -5   4  -6   -1.94   19.11
  -4   5   6   30.82   25.57
  -5   4   6    4.09   14.92
   4  -5   7   18.15   14.48
   4  -5  -7   24.87   20.60
   5  -4  -7    1.93   22.51
  -4   5  -7   -3.76   25.33
  -5   4  -7   13.85   26.67
  -4   5   7  -17.05   27.19
  -5   4   7   28.17   16.91
   4  -5  -8  -16.25   16.31
   5  -4  -8   -3.18   21.05
  -4   5   8   33.05   22.19
  -5   4   8   36.96   17.80
   5  -6   0   10.46   33.14
   6  -5   0   24.61   35.45
   6  -5   0   -1.19    9.05
  -5   6   0   12.58   13.21
  -5   6   0   -0.48   13.03
  -6   5   0   29.19   20.37
   5  -6   1  202.75   62.79
   6  -5   1  190.61   66.91
   5  -6  -1  418.85   96.19
   6  -5  -1  280.97   47.14
   6  -5   1  219.31   60.49
   6  -5  -1  250.69   44.07
  -5   6   1  301.23   30.00
  -5   6  -1  317.93   33.29
  -5   6   1  273.67   57.15
  -5   6  -1  255.47   58.96
  -6   5   1  282.55   35.72
  -6   5  -1  299.22   36.29
   5  -6   2  186.56   62.50
   6  -5   2  171.67   60.26
   5  -6  -2  495.07   81.58
   6  -5  -2  326.54   70.80
   6  -5   2  246.10   83.36
   6  -5  -2  230.38   51.12
  -5   6   2  303.22   58.87
  -5   6  -2  343.45   70.49
  -5   6   2  277.62  107.82
  -6   5   2  356.71   97.87
  -5   6  -2  297.76   57.56
  -6   5  -2  247.12   51.73
   6  -5   3  128.08   35.15
   5  -6   3   80.80   33.22
   5  -6  -3  146.95   39.01
   6  -5  -3  119.62   32.51
   6  -5   3  125.20   31.44
   6  -5  -3   88.65   27.70
  -5   6   3  143.31   21.43
  -5   6  -3  183.60   37.57
  -5   6   3  118.09   49.28
  -6   5   3  131.44   68.46
  -5   6  -3  112.28   17.62
  -6   5  -3  135.33   28.42
   6  -5   4   -6.69   11.71
   5  -6   4    7.11   10.16
   5  -6  -4    8.35   22.45
   6  -5  -4   25.86   20.02
   6  -5   4    9.12   12.58
  -5   6  -4   -5.95   24.43
  -5   6   4   17.07   17.47
  -6   5   4   16.02   13.40
  -6   5  -4    3.13   11.40
   6  -5   5   15.60    5.79
   5  -6   5   33.42   28.04
   5  -6  -5   41.38   31.29
   6  -5  -5   40.44   21.11
  -5   6  -5    3.24   23.94
  -5   6   5   65.36   25.07
  -6   5   5   31.83   16.03
  -6   5  -5   33.26   16.48
   5  -6   6   16.29   14.61
   5  -6  -6   40.04   40.05
   6  -5  -6  -14.86   19.31
  -5   6  -6   25.76   39.53
  -6   5  -6   26.23   20.87
  -5   6   6   32.58   28.13
  -6   5   6   32.17   29.44
   5  -6   7    4.52   10.19
   5  -6  -7   46.67   25.52
   6  -5  -7   17.16   37.58
  -5   6  -7   42.65   24.08
  -6   5  -7   -7.11   20.17
  -5   6   7   -0.03   29.82
  -6   5   7   30.30   25.94
   6  -7   0   33.95   29.01
   7  -6   0   24.13   34.11
   7  -6   0   -0.28   11.03
  -6   7   0   10.75   14.90
  -6   7   0   -3.75   13.90
  -7   6   0   14.22   15.28
   6  -7   1   24.62   30.91
   7  -6   1   -0.72   43.77
   6  -7  -1   20.55   43.97
   7  -6  -1   53.33   34.56
   7  -6   1   14.43   11.27
   7  -6  -1    2.80    6.33
  -6   7   1    5.02   10.95
  -6   7  -1   13.39   15.51
  -6   7   1   30.91   20.89
  -6   7  -1   -3.65   11.60
  -7   6   1   16.88   20.56
  -7   6  -1   27.30   19.03
   6  -7   2   36.01   26.16
   7  -6   2   31.25   24.01
   6  -7  -2   23.72   40.42
   7  -6  -2  102.90   41.04
   7  -6   2   41.92   19.48
   7  -6  -2   50.90   20.79
  -6   7   2   32.70   23.00
  -6   7  -2   60.46   28.83
  -6   7   2   46.15   17.08
  -7   6   2   45.00   29.79
  -6   7  -2   18.63   14.22
  -7   6  -2   34.49   16.26
   7  -6   3    3.47   12.58
   6  -7   3   29.85   15.91
   6  -7  -3    1.32   29.37
   7  -6  -3   -9.53   20.50
   7  -6   3   -4.92   12.45
   7  -6  -3    5.06    4.47
  -6   7   3    1.68    8.16
  -6   7  -3   10.12   24.54
  -6   7   3   10.37   16.94
  -7   6   3  -13.54   21.08
  -6   7  -3    3.10    7.63
  -7   6  -3    7.99   11.45
   7  -6   4   -3.73   10.90
   6  -7   4   28.73   18.02
   6  -7  -4   -6.61   24.89
   7  -6  -4   -5.15   21.95
   7  -6   4    5.41   11.03
  -6   7  -4   -8.14   26.64
  -6   7   4    4.44   16.09
  -7   6   4   12.39   18.62
  -7   6  -4    0.87    9.55
   6  -7   5   -2.16   14.83
   6  -7  -5   36.70   28.44
   7  -6  -5   18.89   23.97
  -6   7  -5    6.01   24.16
  -6   7   5  -26.20   23.51
  -7   6   5   13.27   31.75
   6  -7   6    7.34    7.70
   6  -7  -6   25.42   36.06
   7  -6  -6    9.06   21.09
  -6   7  -6    9.66   29.75
  -7   6  -6    6.39   20.39
  -6   7   6  -13.84   30.42
  -7   6   6  -17.25   27.57
   6  -7  -7   -4.22   20.92
   7  -6  -7   25.72   28.84
  -6   7  -7    5.94   27.73
  -7   6  -7    7.56   19.68
  -6   7   7   32.41   22.44
  -7   6   7   33.15   32.52
   7  -8   0  161.22   72.96
   8  -7   0   83.25   27.13
   8  -7   0   49.58   20.71
  -7   8   0   85.88   26.55
  -8   7   0   86.74   28.60
   7  -8   1   54.23   37.26
   8  -7   1   35.27   39.43
   7  -8  -1   47.09   44.65
   8  -7  -1   27.49   34.78
   8  -7   1   12.29    7.26
   8  -7  -1   -9.88    9.62
  -7   8   1   34.93   23.61
  -7   8  -1   50.27   29.59
  -7   8   1    6.71   11.73
  -7   8  -1   27.19   16.43
  -8   7   1   -2.59   14.76
  -8   7  -1   19.43   21.32
   7  -8   2   -8.16   31.46
   8  -7   2  -11.40   22.08
   7  -8  -2   57.47   27.06
   8  -7  -2   42.92   51.70
   8  -7   2    0.96   12.07
   8  -7  -2    5.60    8.50
  -7   8   2    4.94   11.44
  -7   8  -2   31.03   29.67
  -7   8   2    8.25    9.02
  -8   7   2    5.88   21.63
  -7   8  -2   17.28    8.29
  -8   7  -2   -4.63   12.30
   8  -7   3   26.53   15.12
   7  -8   3   26.22   22.31
   7  -8  -3   31.01   47.01
   8  -7  -3   42.13   39.63
   8  -7   3    3.01   12.34
   8  -7  -3    5.87    5.23
  -7   8  -3    9.07   24.27
  -7   8   3   -0.78   23.06
  -8   7   3    5.26   14.19
  -8   7  -3   17.56   11.71
   7  -8   4   41.53   19.42
   7  -8  -4   36.54   32.11
   8  -7  -4   60.03   38.52
   8  -7   4   17.44   14.20
  -7   8  -4   66.17   36.49
  -7   8   4   26.23   16.60
  -8   7   4   12.24   23.01
   7  -8   5   14.63   13.03
   7  -8  -5   32.18   35.23
   8  -7  -5  -10.74   23.44
  -7   8  -5   58.72   39.71
  -8   7  -5   43.30   31.77
  -7   8   5   21.48   25.85
  -8   7   5  -18.27   24.29
   7  -8  -6   24.42   24.32
   8  -7  -6    9.12   24.72
  -7   8  -6  -15.27   24.68
  -8   7  -6  -10.38   20.58
  -7   8   6   35.49   22.37
  -8   7   6   30.31   24.58
   8  -9   0   75.04   71.53
   9  -8   0   20.08   23.61
   9  -8   0   22.50    9.97
  -8   9   0   23.97   19.24
  -8   9   0    6.82   12.96
  -9   8   0   -1.23   13.99
   8  -9   1   85.34   46.54
   9  -8   1   73.01   35.28
   8  -9  -1   48.63   22.84
   9  -8  -1   23.53   17.17
   9  -8   1    3.00   11.04
   9  -8  -1    9.63   11.94
  -8   9   1  -22.36   13.56
  -8   9  -1  -10.45   20.70
  -8   9   1    7.03   13.44
  -8   9  -1    1.17    4.53
  -9   8   1    8.40   12.13
  -9   8  -1   -1.63   14.65
   8  -9   2   48.64   36.69
   9  -8   2  -27.98   22.51
   8  -9  -2   31.15   31.79
   9  -8  -2   -7.27   35.56
   9  -8  -2    3.68    6.99
   9  -8   2   -8.49   10.94
  -8   9   2   16.35   11.72
  -8   9  -2    9.59   21.44
  -8   9   2    0.69   22.38
  -9   8   2   12.20   17.05
  -8   9  -2   16.88    7.39
  -9   8  -2    7.15   12.10
   8  -9   3   48.55   24.10
   8  -9  -3   42.31   31.77
   9  -8  -3   33.87   52.58
   9  -8   3   -8.13   11.95
  -8   9  -3   33.62   25.78
  -8   9   3   -7.48   19.81
  -9   8   3   -0.52   20.66
  -9   8  -3    7.96   11.09
   8  -9   4   14.04   13.59
   8  -9  -4   65.63   35.05
   9  -8  -4   44.16   37.75
  -8   9  -4   35.53   40.66
  -8   9   4   20.85   29.67
  -9   8   4   -6.92   26.97
   8  -9  -5  -41.13   37.84
   9  -8  -5   17.43   24.57
  -8   9  -5   -4.47   24.28
  -9   8  -5    5.11   21.83
  -8   9   5    5.13   12.23
  -9   8   5   21.27   19.91
   9 -10   0   90.15   66.35
  10  -9   0   96.81   41.28
  10  -9   0   23.71   10.80
  -9  10   0   15.40   21.97
  -9  10   0    1.48   17.24
 -10   9   0   19.61   11.95
   9 -10   1   32.72   48.25
  10  -9   1   64.49   32.30
   9 -10  -1   23.35   39.38
  10  -9  -1  -29.64   44.87
  10  -9   1   30.29   16.20
  10  -9  -1   21.29   13.10
  -9  10   1    7.69   17.47
  -9  10  -1   -1.62   22.43
  -9  10   1    9.87   12.08
  -9  10  -1   -0.53   12.50
 -10   9   1   14.43   15.50
 -10   9  -1   -4.50   15.76
   9 -10   2   60.37   38.83
   9 -10  -2   -3.01   52.86
  10  -9  -2   44.35   37.47
  -9  10   2  -11.00   12.28
  -9  10  -2   -2.01   24.03
  -9  10   2   16.94   15.91
 -10   9   2   10.67   14.32
 -10   9  -2   14.74   16.95
   9 -10   3   -2.35   20.98
   9 -10  -3  -16.82   55.19
  10  -9  -3   30.22   20.62
  -9  10  -3   19.88   25.75
  -9  10   3   14.69   17.21
 -10   9   3   21.81   26.14
   9 -10  -4   24.97   58.39
  10  -9  -4   16.20   47.70
  -9  10  -4   40.87   35.93
 -10   9  -4   32.55   21.83
  -9  10   4   43.69   30.36
 -10   9   4   33.91   13.96
  10 -11   0    6.39   52.68
  11 -10   0   -2.64   39.25
 -10  11   0   69.27   30.12
 -11  10   0    2.66   15.94
 -10  11   0   -6.00   13.03
 -11  10   0   26.93   14.71
  10 -11   1   29.15   30.48
  10 -11  -1   74.01   39.83
  11 -10  -1   24.33   28.65
 -10  11   1    4.76   15.70
 -10  11  -1  -17.74   19.89
 -11  10   1  -12.74   13.45
 -11  10  -1   22.90   29.27
 -10  11   1   11.48   21.13
 -11  10   1    3.61   11.87
 -11  10  -1   21.17   16.34
  10 -11   2    2.66   20.18
  10 -11  -2  105.26   48.94
  11 -10  -2   67.63   51.82
 -10  11  -2   37.51   32.49
 -11  10  -2  -17.95   20.89
 -10  11   2    8.58   20.59
 -11  10   2   43.06   26.99
  -1  -1   0 2020.21   71.46
   1   1   0 1940.41   62.29
  -1  -1   0 1891.07   67.52
  -1  -1   0 1989.89   65.77
   1   1   0 2026.86   64.12
  -1  -1   1   10.99    6.84
   1   1  -1    3.61    6.61
  -1  -1  -1    9.31    9.02
   1   1   1    2.93    5.28
   1   1   1    8.30    8.92
  -1  -1  -1   10.26    4.28
   1   1  -1   47.45   23.29
  -1  -1   1    8.48   18.92
   1   1   1    3.27   10.61
  -1  -1  -1    5.14    3.61
  -1  -1   1   46.97   15.96
  -1  -1   2 1693.79   65.12
  -1  -1  -2 1661.75   54.37
   1   1   2 1740.85   55.67
   1   1   2 1857.28   62.51
  -1  -1  -2 1745.70   55.79
  -1  -1   2 1651.79   54.80
   1   1   2 1705.43   60.20
  -1  -1   2 1773.50   57.32
   1   1  -2 1745.82   54.98
  -1  -1   3    6.45    8.44
  -1  -1  -3   15.77   12.46
   1   1   3    4.78    3.69
  -1  -1  -3   -0.55    4.02
   1   1  -3   82.34   40.81
   1   1   3   21.78   11.91
  -1  -1   3    3.21    6.23
   1   1  -3    6.94    5.17
  -1  -1   4   12.31   10.04
  -1  -1  -4   41.06   17.37
   1   1   4   27.62    8.46
  -1  -1  -4   19.85    5.62
   1   1  -4   82.33   41.60
   1   1   4   25.05   13.32
  -1  -1   4   14.23   12.04
  -1  -1   5    3.06   11.67
  -1  -1  -5   27.97   21.00
   1   1  -5   12.56   19.36
   1   1   5   14.62    9.70
  -1  -1   5    4.80    8.17
  -1  -1  -6   23.71   13.43
   1   1   6   88.32   39.35
  -1  -1   6   42.58   14.87
  -1  -1  -7    7.16   13.73
   1   1  -7   13.28   15.18
   1   1   7   21.22   17.04
  -1  -1   7   15.92   11.82
  -1  -1  -8   23.18   22.19
   1   1  -8    9.24   16.75
   1   1   8   30.28   18.82
  -2   0   0  120.97    8.09
   2   0   0  128.68   13.79
   0  -2   0  189.63   41.45
   0   2   0  163.38   31.22
   2   0   0  157.64   28.05
  -2   0   0  155.08   19.75
   0   2   0  253.05   34.95
   0  -2   0  123.05   17.15
   0   2   0  115.17   19.79
   0  -2   0  109.75   29.21
  -2   0   0  150.48   18.72
   2   0   0  147.03   16.90
  -2   0   1 4757.87  145.19
   0  -2   1 5555.04  271.04
  -2   0  -1 5357.48  253.00
   2   0   1 5183.98  247.48
  -2   0  -1 4680.43  146.36
   2   0  -1 5331.68  258.65
  -2   0   1 4917.27  153.35
   0   2   1 5118.05  243.78
   0   2  -1 4802.09  149.22
   0  -2   1 4429.29  136.38
   0  -2   1 4901.17  148.29
   0   2   1 5129.38  244.06
   0  -2  -1 5016.35  238.94
  -2   0   1 5068.00  240.12
   2   0  -1 5473.06  258.33
  -2   0  -1 5531.56  265.10
   2   0   1 4875.01  150.94
  -2   0   2 2007.12   65.55
  -2   0  -2 1973.78   61.93
   0  -2   2 1962.11   66.58
  -2   0  -2 1944.65   60.04
   2   0   2 2019.58   73.90
  -2   0  -2 1917.39   62.85
   0   2   2 1990.72   75.46
   2   0  -2 2033.90   66.90
   0  -2  -2 1875.54   63.45
  -2   0   2 1907.31   63.23
   0   2  -2 1975.73   67.99
   0   2   2 2207.74   92.46
  -2   0   2 1992.80   64.23
   2   0  -2 2036.57   65.32
  -2   0  -2 1955.25   70.95
  -2   0   3 1932.81   96.39
  -2   0  -3 2111.94  102.19
   0  -2  -3 2147.44  106.72
  -2   0  -3 2194.27  105.45
   2   0   3 2059.65  107.19
   0   2   3 1882.94   94.94
   0  -2  -3 2134.33  104.83
   2   0  -3 2159.66  106.32
   0   2  -3 2209.80  110.37
  -2   0   3 2072.42  100.78
   2   0   3 2194.97  110.78
   0   2   3 2356.69  129.69
   0  -2   3 2088.03  104.37
  -2   0   3 2243.59  120.77
   0   2  -3 2017.21   95.85
   0  -2   4   13.17    5.46
   0  -2  -4   -8.52   11.67
  -2   0  -4    3.79    7.81
   2   0   4    2.09    5.68
   0  -2  -4    6.08    3.73
   2   0  -4    4.34    6.69
   0   2  -4   29.48   14.88
   2   0   4   17.72   15.47
   0   2   4   -4.81   15.10
   0  -2   4   20.20    8.12
  -2   0   4   -1.13   13.31
   0   2  -4    3.49    4.11
   0  -2   5  306.30   41.82
   0  -2  -5  324.10   44.40
  -2   0  -5  401.23   47.43
   2   0  -5  326.31   43.42
   2   0   5  291.66   34.07
   2   0  -5  280.03   55.60
   0   2  -5  317.48   44.86
   2   0   5  327.23   43.73
   0   2   5  369.70   77.76
   0  -2   5  276.35   55.71
  -2   0   5  328.19   64.09
   0  -2  -6  249.50   31.72
  -2   0  -6  158.22   26.04
   2   0  -6  168.97   29.06
   0   2  -6  153.68   34.15
   2   0   6  184.79   29.68
   0  -2   6  110.48   26.68
   0   2   6  154.79   41.44
  -2   0   6  171.59   37.29
   0  -2  -7   91.82   27.34
  -2   0  -7   51.46   21.32
   2   0  -7   65.64   25.17
   2   0   7   39.96   21.10
   0   2   7   47.17   22.44
  -2   0   7   39.13   16.74
   0  -2  -8    1.82   16.39
  -2   0  -8   -7.58   10.83
   2   0  -8  -20.24   18.08
   0   2  -8   32.58   20.15
   2   0   8    6.38   12.97
   0   2   8   34.79   22.89
   1  -3   0  406.14   71.13
  -1   3   0  302.55   54.69
   3  -1   0  343.77   17.86
   3  -1   0  373.36   22.96
  -3   1   0  383.01   26.45
  -1   3   0  361.93   23.56
   1  -3   0  327.85   16.75
   1  -3   0  349.28   15.26
  -3   1   0  284.81   24.96
   3  -1   0  417.73   25.66
   3  -1  -1 2353.00   73.93
   1  -3   1 2239.77   89.49
   3  -1  -1 2171.14   69.10
   3  -1   1 2238.11   77.28
  -3   1   1 2328.02   78.37
  -1   3   1 2456.11   79.27
  -1   3  -1 2151.37   72.51
   1  -3  -1 2120.60   67.04
  -1   3  -1 2208.67   68.05
  -1   3   1 2315.82   75.88
   1  -3   1 2203.16   67.41
  -3   1   1 2295.76   74.69
  -3   1  -1 2596.01   87.99
   1  -3   2 2158.41  113.64
  -3   1  -2 2175.47  108.26
   1  -3  -2 2034.30  100.75
   3  -1  -2 2019.67   98.16
   3  -1   2 2146.93  113.81
   3  -1  -2 2270.64  109.41
  -3   1   2 2003.89   97.64
  -1   3   2 1974.61  114.32
   1  -3  -2 2036.58   96.87
  -1   3  -2 2305.27  113.67
  -1   3   2 2268.21  120.82
  -3   1   2 2094.91  104.35
   1  -3   3  484.01   56.00
  -3   1  -3  435.02   38.35
   3  -1  -3  486.39   41.62
   3  -1   3  467.58   59.91
   3  -1  -3  443.81   40.24
  -3   1   3  420.42   29.94
   1  -3  -3  482.41   29.81
  -1   3   3  518.90   74.27
  -3   1   3  513.68   48.01
  -1   3  -3  465.60   28.46
  -1   3  -3  561.84   34.97
  -3   1  -3  533.92   51.04
   1  -3   4   20.30    8.69
   1  -3  -4   11.59   13.21
   3  -1  -4    7.29   15.00
  -3   1  -4   24.62   10.56
   3  -1   4   24.25   12.14
   3  -1  -4   16.03    8.83
  -3   1   4   21.64    9.81
  -1   3  -4   21.72   18.87
  -1   3   4   15.44   14.20
  -3   1   4    4.90    9.75
  -1   3  -4   13.74    6.02
  -3   1  -4   -2.81   16.08
   1  -3   5  182.10   42.00
   1  -3  -5  198.51   35.20
   3  -1  -5  192.70   34.06
  -3   1  -5  183.74   25.74
   3  -1   5  128.09   28.58
   3  -1  -5  157.77   32.84
  -1   3  -5  183.22   36.90
   1  -3   5  172.73   23.10
  -1   3   5  149.48   52.27
  -3   1   5  142.16   32.15
  -3   1  -5  225.16   46.09
   1  -3  -6  162.55   31.09
  -3   1  -6  153.13   21.49
   3  -1  -6  163.06   33.20
  -1   3  -6  107.79   26.08
   1  -3   6  127.86   18.18
  -1   3   6  174.31   44.44
  -3   1   6  114.57   32.22
   1  -3   7   22.47   16.83
   1  -3  -7   15.05   26.04
  -3   1  -7   13.68   11.04
   3  -1  -7   38.17   26.38
  -1   3  -7   82.91   31.84
  -1   3   7   26.13   15.26
  -3   1   7   29.87   19.61
  -3   1  -7    6.91   19.83
   1  -3  -8    3.47   14.48
   3  -1  -8   -9.50   16.73
  -1   3  -8   18.24   16.57
  -1   3   8   -7.10   18.99
  -3   1   8    1.81   17.82
   2  -4   0 1681.19  112.33
   4  -2   0 1393.11   69.25
  -4   2   0 1403.09   44.51
   4  -2   0 1471.43   79.02
  -2   4   0 1567.30   55.43
  -2   4   0 1496.06   74.47
   2  -4   0 1307.09   64.17
  -4   2   0 1453.47   53.74
   2  -4   1  -12.16   26.12
   4  -2   1   15.28   11.52
   2  -4  -1   -2.07   30.37
  -4   2  -1    4.73    4.46
   4  -2  -1   -2.97    8.26
   4  -2   1    9.02    5.54
   4  -2  -1    7.47    6.02
  -2   4   1    5.98   12.56
  -2   4  -1   -1.33   17.96
  -2   4   1   -3.26   12.53
  -2   4  -1    0.95    3.44
   2  -4   1   15.58    7.45
  -4   2   1    3.13   18.04
  -4   2  -1    3.77   13.26
   4  -2   2    1.87    6.41
   2  -4   2   18.16   20.51
  -4   2  -2   18.87   12.28
   2  -4  -2   35.10   24.08
   4  -2  -2    8.18   12.62
   4  -2   2    8.92    6.74
   4  -2  -2   -1.58    6.82
  -2   4   2    0.19    9.99
  -2   4  -2   28.20   28.11
  -2   4   2   -8.73   14.73
  -4   2   2   18.02   22.77
  -4   2  -2   44.10   30.80
   4  -2   3    8.13    4.42
   2  -4   3   19.03   15.04
  -4   2  -3   -0.68   10.29
   2  -4  -3   -0.63   15.18
   4  -2  -3    2.47   13.39
  -2   4   3    1.54    1.46
   4  -2   3    4.82    4.79
   4  -2  -3    1.66    7.30
  -4   2   3    2.75    6.89
  -2   4  -3   -4.40   20.35
  -2   4   3    0.65    8.69
  -4   2   3    9.53    7.63
  -4   2  -3    0.37   14.40
   4  -2   4  266.79   50.72
   2  -4   4  203.06   62.52
   2  -4  -4  237.84   53.13
   4  -2  -4  264.82   55.93
   4  -2   4  225.99   45.43
   4  -2  -4  225.88   44.09
  -4   2   4  189.81   37.20
  -2   4  -4  317.94   66.91
  -2   4   4  274.90   88.57
  -4   2   4  188.67   71.99
  -2   4  -4  239.23   44.35
  -4   2  -4  281.97   59.49
   2  -4   5   14.05   13.81
   2  -4  -5    1.65   16.65
   4  -2  -5    6.96   23.07
  -4   2  -5    1.93    6.24
   4  -2   5   10.91   11.98
  -2   4  -5   17.49   22.38
  -2   4   5    1.77   22.65
  -4   2   5   -6.92   19.95
  -4   2  -5    3.29   18.19
   2  -4   6  -15.03   13.13
   2  -4  -6  -10.45   15.88
   4  -2  -6   22.74   30.58
  -4   2  -6   -8.40    7.60
  -2   4  -6   17.76   21.97
  -2   4   6    4.75   27.64
  -4   2   6   12.06   12.81
  -4   2  -6   -0.20   18.72
   2  -4   7    3.91   13.99
   2  -4  -7   26.02   28.97
   4  -2  -7   20.94   29.97
  -2   4  -7   35.36   19.18
  -4   2  -7    4.02   13.58
  -2   4   7   -4.67   21.80
  -4   2   7   -4.78   13.09
  -4   2  -7   -4.00   16.87
   2  -4   8    3.05   10.33
   2  -4  -8   24.09   30.46
   4  -2  -8   16.02   26.90
  -2   4   8    6.40   13.50
  -4   2   8   16.32    6.40
   3  -5   0 4219.51  341.35
   5  -3   0 3235.85  158.41
   5  -3   0 3189.90  158.64
  -3   5   0 3708.91  226.21
  -3   5   0 3409.23  165.16
  -5   3   0 3370.84  165.28
   3  -5   1   14.72   19.38
   5  -3   1    7.86    7.01
   3  -5  -1   33.08   20.25
   5  -3  -1   25.40   16.02
  -5   3  -1    9.66    8.36
   5  -3   1  -18.22   13.02
   5  -3  -1   13.66    5.49
  -3   5   1   18.45   19.86
  -3   5  -1   31.91   23.49
  -3   5   1   -1.49    9.57
  -3   5  -1    9.13    5.54
  -5   3   1   17.59   16.99
   3  -5   1   10.63    6.89
   5  -3   2  486.55   50.99
   3  -5   2  319.02   66.47
  -5   3  -2  437.27   32.96
   3  -5  -2  590.57   59.14
   5  -3  -2  482.09   42.93
   5  -3   2  433.44   45.25
   5  -3  -2  420.02   33.32
  -3   5   2  486.40   36.25
  -3   5  -2  551.39   44.77
  -3   5   2  463.14   69.13
  -3   5  -2  457.87   34.57
  -5   3   2  509.94   44.75
  -5   3  -2  421.16   39.13
   3  -5   2  492.31   35.33
   5  -3   3   -6.98    4.53
   3  -5   3  -18.06   20.02
  -5   3  -3   12.94    9.83
   3  -5  -3    3.42   21.10
   5  -3  -3    0.59   14.27
   5  -3   3    6.78    6.75
  -3   5   3    1.57    2.34
   5  -3  -3    9.40    4.55
  -3   5  -3    1.91   20.66
  -3   5  -3    1.37    2.18
  -3   5   3   -4.66   21.06
  -3   5  -3    2.09    1.46
  -5   3   3   -3.70   21.21
  -5   3  -3    8.92   19.61
   5  -3   4  731.68   79.34
   3  -5   4  677.46   79.36
   3  -5  -4  805.82   87.27
   5  -3  -4  844.41  180.26
   5  -3   4  611.37  113.72
   5  -3  -4  683.45   71.64
  -3   5  -4  932.01  200.35
  -3   5   4  863.32  194.51
  -5   3   4  827.60   93.96
  -5   3  -4  970.52  207.47
   5  -3   5    5.60    5.64
   3  -5   5    1.71    8.21
   3  -5  -5   -1.11   17.73
   5  -3  -5   16.02   19.17
   5  -3   5   21.01   11.72
  -3   5  -5   23.23   28.03
  -3   5   5   23.34   18.52
  -5   3   5  -20.05   18.48
  -5   3  -5   20.86   21.18
   3  -5   6   38.24   24.21
   3  -5  -6  -17.77   19.09
   5  -3  -6   58.31   36.70
  -3   5  -6  -12.79   28.75
  -3   5   6   22.01   19.14
  -5   3   6   28.31   16.51
  -5   3  -6   15.42   19.18
   3  -5   7    2.40   13.00
   3  -5  -7   15.16   20.23
   5  -3  -7   23.79   33.81
  -3   5  -7  -17.75   25.66
  -5   3  -7   -5.70   13.38
  -3   5   7    3.44   12.19
  -5   3   7   -2.95   24.24
   3  -5   8    7.74   11.10
   3  -5  -8   30.58   24.75
   5  -3  -8   10.14   20.63
  -3   5   8   -6.29   27.13
  -5   3   8   49.16   21.78
   4  -6   0  557.04  160.38
   6  -4   0  715.73  220.97
   6  -4   0  449.72   52.61
  -4   6   0  504.14   47.20
  -4   6   0  462.39   65.63
  -6   4   0  483.76   47.26
   4  -6   1   62.10   37.64
   6  -4   1   16.16   20.46
   4  -6  -1   74.19   40.74
   6  -4  -1   24.35   20.21
   6  -4   1    4.11    7.43
   6  -4  -1   14.32    9.79
  -4   6   1   28.70   17.88
  -4   6  -1    9.28   17.16
  -4   6   1   26.84   16.18
  -4   6  -1   17.79   13.12
  -6   4   1   19.62   17.14
  -6   4  -1   28.81   14.42
   6  -4   2    5.01   12.39
   4  -6   2   25.45   22.31
   4  -6  -2   60.83   49.89
  -6   4  -2   13.49    8.90
   6  -4  -2    5.64   14.32
   6  -4   2    8.04   12.48
   6  -4  -2   16.91   11.25
  -4   6   2   10.88   11.03
  -4   6  -2   31.85   18.28
  -4   6   2   17.59   11.07
  -4   6  -2   -4.43    5.08
  -6   4   2   38.33   29.98
  -6   4  -2   -2.04   13.79
   4  -6   2    4.13    5.04
   6  -4   3   24.22    7.69
   4  -6   3   19.14   17.12
   4  -6  -3    9.84   25.32
   6  -4  -3   51.23   26.41
   6  -4   3   12.45    9.81
   6  -4  -3   22.52    8.71
  -4   6   3   17.51    6.62
  -4   6   3   15.94   10.72
  -4   6  -3   53.89   29.72
  -4   6   3    8.51   10.73
  -4   6  -3   10.97    4.02
  -6   4   3   28.73   17.08
  -6   4  -3   29.05   24.52
   6  -4   4  110.82   29.79
   4  -6   4  108.09   26.33
   4  -6  -4  115.76   37.29
   6  -4  -4  171.44   38.68
   6  -4   4  129.21   27.80
   6  -4  -4   95.83   16.25
  -4   6  -4  178.01   42.83
  -4   6   4  166.84   32.63
  -6   4   4  114.74   31.67
  -6   4  -4  164.70   27.90
   6  -4   5    5.67    5.18
   4  -6   5    7.72   13.76
   4  -6  -5   20.15   21.99
   6  -4  -5    8.76   25.07
   6  -4   5   23.85   15.88
  -4   6  -5  -29.68   26.40
  -4   6   5   -9.22   28.67
  -6   4   5   13.00   17.93
  -6   4  -5   10.38   19.22
   4  -6   6   17.18   16.50
   4  -6  -6   -3.22   21.85
   6  -4  -6   30.46   20.48
  -4   6  -6   31.18   31.42
  -4   6   6  -27.07   33.29
  -6   4   6    0.51   27.64
  -6   4  -6   20.02   18.74
   4  -6   7    8.71   13.37
   4  -6  -7   17.45   26.40
   6  -4  -7   -4.59   22.36
  -4   6  -7   13.26   29.28
  -6   4  -7   -5.22   15.51
  -4   6   7   -0.94   14.73
  -6   4   7   17.61   16.98
   5  -7   0   48.56   50.04
   7  -5   0   37.11   21.78
   7  -5   0    1.29   13.65
  -5   7   0   27.73   21.85
  -5   7   0   17.77   12.89
  -7   5   0  -12.63   16.48
   5  -7   1  100.24   68.58
   7  -5   1   31.27   23.60
   5  -7  -1  104.86   57.42
   7  -5  -1   -2.35   15.68
   7  -5   1   14.10    5.80
   7  -5  -1   19.88    8.70
  -5   7   1   55.16   20.67
  -5   7  -1   49.93   24.41
  -5   7   1   47.79   20.23
  -5   7  -1   26.15   12.59
  -7   5   1   48.47   27.04
  -7   5  -1   59.03   27.87
   5  -7   2  124.98   50.81
   7  -5   2   69.59   33.68
   5  -7  -2  199.48   66.73
   7  -5  -2  128.19   34.57
   7  -5   2   96.74   35.77
   7  -5  -2   94.00   27.97
  -5   7   2  164.54   28.97
  -5   7  -2  132.01   28.05
  -5   7   2  145.07   35.68
  -5   7  -2  120.69   33.40
  -7   5   2  114.20   26.58
  -7   5  -2  117.39   25.58
   7  -5   3   25.72   15.09
   5  -7   3   14.29   14.27
   5  -7  -3   32.70   42.67
   7  -5  -3  103.58   33.77
   7  -5   3   27.90   15.46
   7  -5  -3    9.65    5.53
  -5   7   3   12.59   10.24
  -5   7  -3  -11.76   23.24
  -5   7   3   13.60   12.98
  -5   7  -3   12.36    8.56
  -7   5   3   27.32   17.27
  -7   5  -3   38.39   26.02
   5  -7   4  -26.12   17.98
   5  -7  -4   21.57   24.59
   7  -5  -4   12.27   20.32
   7  -5   4   16.46   16.91
  -5   7  -4   34.87   39.27
  -5   7   4   17.53   16.33
  -7   5   4    5.77   12.15
  -7   5  -4   17.72   14.70
   5  -7   5   20.51   17.62
   5  -7  -5  -25.88   23.38
   7  -5  -5  -14.74   19.39
   7  -5   5   37.17   17.49
  -5   7  -5   13.51   30.25
  -5   7   5    1.44   21.47
  -7   5   5   -2.57   21.58
  -7   5  -5   -0.63   10.93
   5  -7   6   16.46   17.95
   5  -7  -6   23.44   33.20
   7  -5  -6   26.41   29.80
  -5   7  -6   28.43   31.54
  -5   7   6    4.36   39.14
  -7   5   6   18.10   29.56
   5  -7   7    4.49    6.29
   5  -7  -7   18.26   29.39
   7  -5  -7   -4.83   20.60
  -5   7  -7   31.98   45.20
  -7   5  -7   34.66   21.01
  -5   7   7   38.75   15.11
  -7   5   7   -5.69   26.56
   6  -8   0  -21.54   54.39
   8  -6   0   -3.57   43.09
   8  -6   0   11.46   11.03
  -6   8   0   18.78   19.47
  -6   8   0    8.49   11.95
  -8   6   0   -3.05   15.86
   6  -8   1  103.21   45.21
   8  -6   1   29.76   28.57
   6  -8  -1   48.67   53.44
   8  -6  -1  139.04   57.28
   8  -6   1  109.66   26.56
   8  -6  -1   71.03   21.83
  -6   8   1  102.68   23.83
  -6   8  -1  113.60   34.36
  -6   8   1   56.76   29.23
  -6   8  -1   64.32   15.96
  -8   6   1   56.98   19.65
  -8   6  -1   86.73   28.63
   6  -8   2   54.23   37.62
   8  -6   2   24.28   13.96
   6  -8  -2   43.26   38.66
   8  -6  -2   37.78   29.24
   8  -6   2   34.34   13.95
   8  -6  -2   60.65   18.16
  -6   8   2   29.54   15.10
  -6   8  -2   71.50   33.05
  -6   8   2   28.63   19.67
  -6   8  -2   41.79   12.65
  -8   6   2  100.93   36.98
  -8   6  -2   32.92   21.80
   8  -6   3   38.48   22.57
   6  -8   3   -3.19   16.34
   6  -8  -3   22.02   28.78
   8  -6  -3   29.43   26.86
   8  -6   3   30.10   16.73
   8  -6  -3   34.94   10.70
  -6   8   3   23.28   10.78
  -6   8  -3   96.77   44.65
  -6   8   3   49.90   29.40
  -8   6   3   42.03   21.36
  -8   6  -3   45.20   19.51
   6  -8   4   -6.15   17.70
   6  -8  -4   43.70   40.54
   8  -6  -4   33.75   29.14
   8  -6   4  -25.92   11.55
  -6   8  -4   43.12   27.89
  -6   8   4   36.78   22.45
  -8   6   4    5.08   16.69
  -8   6  -4   16.00   12.11
   6  -8   5  -19.11   19.23
   6  -8  -5   -3.82   27.52
   8  -6  -5  -14.05   22.00
   8  -6   5   15.34   13.50
  -6   8  -5   57.42   45.84
  -6   8   5   45.12   30.00
  -8   6   5   16.23   18.46
   6  -8   6   11.13    9.55
   6  -8  -6   -0.45   24.67
   8  -6  -6   40.01   21.76
  -6   8  -6    5.69   30.05
  -8   6  -6  -12.23   18.57
  -6   8   6   15.38   14.37
  -8   6   6  -16.45   23.71
   7  -9   0   11.43   30.00
   9  -7   0    8.97   34.22
   9  -7   0   12.91    6.64
  -7   9   0   -4.92   18.98
  -7   9   0   19.57   14.78
  -9   7   0   26.81   17.90
   7  -9   1  -15.59   56.95
   9  -7   1    5.54   15.32
   7  -9  -1   59.61   51.62
   9  -7  -1   32.76   33.14
   9  -7   1   17.48   12.82
   9  -7  -1   -0.24    8.98
  -7   9   1    4.65   14.37
  -7   9  -1   27.60   20.12
  -7   9   1   -0.06   15.74
  -7   9  -1   -4.53   10.88
  -9   7   1   -0.32   19.09
  -9   7  -1   15.98   15.46
   7  -9   2   -2.07   40.57
   9  -7   2   17.98   24.14
   7  -9  -2   40.26   48.65
   9  -7  -2   31.19   41.45
   9  -7   2   20.55   13.55
   9  -7  -2   16.01   10.53
  -7   9   2    2.90   12.45
  -7   9  -2  -17.32   24.03
  -7   9   2   -4.80   18.33
  -9   7   2  -17.56   21.88
  -9   7  -2   27.38   24.30
   7  -9   3    4.62   28.05
   7  -9  -3   25.40   23.54
   9  -7  -3   20.46   23.10
   9  -7   3    1.20    6.03
   9  -7  -3   -4.18    6.66
  -7   9  -3    1.35   27.73
  -7   9   3   15.12   10.27
  -9   7   3   43.65   24.48
  -9   7  -3   -0.07   12.84
   7  -9   4   37.30   24.03
   7  -9  -4   22.02   31.10
   9  -7  -4   -0.94   21.27
   9  -7   4    4.65   12.72
  -7   9  -4   39.73   31.12
  -7   9   4  -12.19   27.80
  -9   7   4   -7.13   26.53
   7  -9   5   14.69   13.55
   7  -9  -5  -45.78   45.95
   9  -7  -5    5.73   22.82
   9  -7   5   29.33   17.77
  -7   9  -5   29.38   26.54
  -7   9   5   10.41   16.62
  -9   7   5   19.70   32.11
   7  -9  -6   -8.07   29.38
   9  -7  -6   28.80   31.72
  -7   9  -6  -17.82   29.13
  -9   7  -6   27.65   18.25
  -7   9   6   36.08   32.19
  -9   7   6   22.13   19.33
   8 -10   0   -5.29   59.44
  10  -8   0   -5.94   34.85
  10  -8   0   13.08    6.47
  -8  10   0   -8.42   20.74
  -8  10   0   -3.02   12.88
 -10   8   0   26.72   17.73
   8 -10   1  125.81   76.45
  10  -8   1   75.70   39.23
   8 -10  -1   -6.04   57.41
  10  -8  -1   56.85   48.43
  10  -8   1   20.73   11.68
  10  -8  -1    3.64   10.51
  -8  10   1    7.17   17.27
  -8  10  -1   25.22   39.33
  -8  10   1    4.75   10.12
  -8  10  -1   12.04    7.36
 -10   8   1   13.89   17.20
 -10   8  -1   -8.13   13.47
   8 -10   2   31.87   35.04
   8 -10  -2    7.04   23.65
  10  -8  -2  -46.39   40.00
  10  -8   2   -8.84   13.73
  10  -8  -2    8.40    3.17
  -8  10   2   21.69   13.77
  -8  10  -2   40.71   27.09
  -8  10   2   22.37   20.03
 -10   8   2   -4.86   21.69
 -10   8  -2   -9.96   12.99
   8 -10   3   -6.77   29.77
   8 -10  -3   66.02   46.65
  10  -8  -3   49.44   62.40
  10  -8   3   -2.92   14.09
  -8  10  -3   71.89   26.38
  -8  10   3    3.66   17.35
 -10   8   3   31.70   21.34
 -10   8  -3   22.11   17.79
   8 -10   4   14.13   21.54
   8 -10  -4   23.38   22.81
  10  -8  -4   -7.93   22.02
  10  -8   4    8.44   12.54
  -8  10  -4   37.83   26.75
  -8  10   4   14.37    8.69
 -10   8   4   16.71   22.16
   8 -10  -5   44.66   38.56
  10  -8  -5   25.01   22.68
  -8  10  -5   -0.02   29.32
  -8  10   5   44.96   25.69
 -10   8   5  -15.84   23.42
   9 -11   0    5.04   37.08
  11  -9   0   -4.33   10.41
  -9  11   0   21.87   29.07
  -9  11   0   -3.56   12.19
 -11   9   0   10.70   12.83
   9 -11   1   61.76   33.43
   9 -11  -1   82.38   62.91
  11  -9  -1   37.79   17.80
  11  -9   1    6.10   12.07
  11  -9  -1   -5.93    8.77
  -9  11   1    8.15   15.76
  -9  11  -1   23.25   22.73
  -9  11   1   21.00   12.20
 -11   9   1   -7.55   18.96
 -11   9  -1    2.61   15.27
   9 -11   2    0.05   17.94
   9 -11  -2   95.58   41.84
  11  -9  -2   59.53   37.30
  11  -9   2    5.40   11.43
  -9  11  -2   37.72   37.15
  -9  11   2   -2.54    9.65
 -11   9   2   37.87   25.20
 -11   9  -2   29.08   20.34
   9 -11   3   24.61   11.55
   9 -11  -3   -0.40   33.86
  11  -9  -3   81.64   49.77
  11  -9   3   11.57   11.68
  -9  11  -3   21.78   28.25
  -9  11   3   15.99   23.75
 -11   9   3    5.03   25.32
  -1  -2   0  409.38   79.43
   1   2   0  495.72   59.82
   2   1   0  377.72   33.73
  -2  -1   0  394.40   24.42
   1   2   0  386.08   21.94
  -1  -2   0  340.12   22.10
  -1  -2   0  355.93   18.29
  -2  -1   0  328.03   29.66
   2   1   0  368.67   19.71
  -1  -2   0  309.32   23.95
  -2  -1   1 2148.95   73.95
   2   1  -1 2434.25   77.54
  -1  -2   1 2264.41   80.44
  -2  -1  -1 2608.91  107.47
   2   1   1 2157.06   77.76
   1   2   1 2211.23   78.34
   2   1   1 2264.68   76.29
   1   2   1 2251.90   86.00
   2   1  -1 2332.13   88.83
   1   2  -1 2273.48   77.20
   1   2   1 2351.49   78.16
  -1  -2   1 2334.23   75.83
   1   2  -1 2455.48   77.33
  -2  -1  -1 2251.05   79.26
  -2  -1   2 2084.70  104.32
  -1  -2   2 2092.90  119.07
  -1  -2  -2 2616.21  128.82
  -2  -1  -2 2397.10  115.61
   1   2   2 1960.92   94.75
   2   1   2 2177.87  103.54
   2   1   2 2242.40  113.43
   1   2   2 2024.04  107.80
  -1  -2  -2 2201.52  114.67
   1   2  -2 2453.89  123.20
   2   1   2 2196.94  109.59
   1   2   2 2083.26  106.13
  -1  -2   2 2062.80   98.53
  -2  -1   2 2186.92  106.44
   2   1  -2 2301.63  110.27
   1   2  -2 2452.10  116.73
  -2  -1   3  468.42   37.86
  -1  -2   3  443.49   36.72
  -1  -2  -3  462.12   35.24
  -2  -1  -3  475.75   33.95
   2   1   3  431.02   35.73
   1   2   3  508.92   42.56
  -1  -2  -3  488.04   36.25
   2   1  -3  515.43   46.48
   2   1   3  507.05   41.23
   1   2   3  496.70   62.17
  -1  -2   3  477.42   42.31
  -2  -1   3  492.22   51.59
   1   2  -3  582.37   39.02
  -2  -1   4   17.59   12.66
  -1  -2   4    1.64    7.52
  -1  -2  -4   14.26   10.01
  -2  -1  -4   18.83   11.33
   2   1   4   17.69    9.21
   1   2   4   24.03    6.66
  -1  -2  -4   14.41    7.95
   2   1  -4    7.32   16.41
   1   2  -4   -5.97   24.09
   2   1   4   35.32   25.63
   1   2   4    7.62    8.80
  -1  -2   4   14.32    7.59
  -2  -1   4   18.37   12.05
  -2  -1   5  165.19   27.42
  -1  -2   5  160.83   25.71
  -1  -2  -5  174.68   28.16
  -2  -1  -5  187.96   27.42
   1   2   5  137.12   23.33
   2   1   5  120.87   31.72
   2   1  -5  256.45   41.30
   1   2  -5  295.55   49.98
   2   1   5  253.75   51.46
   1   2   5  202.55   49.50
  -1  -2   5  157.52   35.28
  -2  -1   5  157.43   61.94
  -1  -2   6  182.09   35.31
  -1  -2  -6  152.98   25.02
  -2  -1  -6  170.46   23.54
   2   1   6   98.29   11.58
   2   1  -6  145.48   35.36
   1   2  -6  112.19   26.63
   2   1   6  211.54   41.45
   1   2   6  146.51   39.09
  -1  -2   6   84.57   25.38
  -2  -1   6  102.21   26.20
  -1  -2  -7   11.90   14.26
  -2  -1  -7   13.00   17.64
   2   1  -7   -2.77   15.97
   2   1   7   14.26   20.44
   1   2   7    4.28   20.11
  -2  -1   7    3.43   11.81
  -1  -2  -8   -7.82   12.28
   2   1  -8   -1.21   14.98
   1   2  -8   18.53   14.98
   2   1   8    5.34   16.08
   1   2   8   -3.60   17.60
  -3   0   0  254.21   18.53
   3   0   0  259.79   15.14
   0  -3   0  229.59   58.60
   3   0   0  317.61   36.68
   0   3   0  329.54   27.32
   0   3   0  302.59   21.07
   0  -3   0  252.00   23.25
  -3   0   0  210.15   21.33
  -3   0  -1 3405.75  102.60
   0  -3   1 3665.53  126.93
   3   0   1 3764.97  114.01
   3   0   1 3721.32  119.71
   3   0  -1 3726.42  137.39
   0   3   1 4180.42  133.00
   0   3  -1 3957.53  130.03
   0   3   1 3643.47  115.94
   0  -3   1 3456.81  107.96
  -3   0   1 3577.56  113.52
  -3   0  -1 3597.76  117.91
   0  -3   1 3441.08  109.33
  -3   0   2 2171.91  105.58
  -3   0  -2 2140.41  101.13
   0  -3   2 2266.42  131.39
   3   0   2 2382.88  124.05
   3   0  -2 2361.83  127.38
   0   3   2 2226.27  117.18
   0  -3  -2 2128.04  102.94
   0   3  -2 2309.27  115.88
   0  -3   2 2172.79  103.27
   0   3   2 2373.09  131.51
  -3   0   2 2371.56  116.23
  -3   0  -2 2526.26  127.50
  -3   0   3 2068.49  154.95
  -3   0  -3 1860.07  114.89
   0  -3   3 1874.36  128.32
   0  -3  -3 2029.14  127.21
  -3   0  -3 2240.15  163.23
   3   0   3 2123.20  164.09
   0   3   3 1961.17  123.91
   3   0  -3 2044.55  157.43
   0  -3  -3 1698.34  103.98
   0   3   3 2113.02  165.29
  -3   0   3 2007.89  128.65
   0   3  -3 2379.18  172.41
   0  -3   4   58.66   16.99
   0  -3  -4   51.45   14.23
  -3   0  -4   68.43   12.45
   3   0   4   60.19   15.78
   0   3   4   54.94   11.91
   3   0  -4   53.73   13.23
   0  -3  -4   42.99    8.05
   0   3  -4   80.15   30.46
   0   3   4   65.57   36.47
  -3   0   4   57.68   12.51
  -3   0  -4   63.50   25.35
   0  -3   5  391.52   88.04
   0  -3  -5  481.82   30.40
  -3   0  -5  467.20   23.27
   3   0  -5  463.95   33.87
   3   0   5  317.73   74.85
   3   0  -5  341.29   81.97
   0   3  -5  496.02   47.28
   0  -3   5  315.23   71.19
   0   3   5  406.91  130.59
  -3   0   5  392.56  106.80
   0  -3  -6  128.49   24.35
  -3   0  -6  157.39   19.25
   3   0  -6  139.98   31.17
   3   0   6  102.48   15.07
   0   3  -6  240.57   43.80
   0   3   6  137.34   33.87
  -3   0   6  126.48   31.73
   0  -3   7   15.90   18.79
   0  -3  -7   56.85   21.39
   3   0  -7   42.06   27.56
   0   3  -7  174.20   55.34
   0   3   7   16.65   20.36
  -3   0   7   26.68   14.92
  -3   0  -7   15.42   27.81
   0  -3  -8    8.03   14.17
   3   0  -8   15.04   18.43
   0   3   8   -2.67   19.48
  -3   0  -8   21.44   26.98
   4  -1   0  453.87   25.25
   1  -4   0  339.09   97.67
   4  -1   0  380.90   22.61
   4  -1   0  414.10   50.10
  -1   4   0  387.76   33.04
  -1   4   0  412.69   40.21
   1  -4   0  332.46   26.94
  -4   1   0  327.71   32.29
   1  -4   1  676.46  143.50
   1  -4  -1  825.40   93.06
   4  -1  -1  591.65   35.06
   4  -1   1  651.24   61.30
  -1   4  -1  613.08   44.27
  -1   4  -1  573.26   31.41
   1  -4   1  543.02   27.29
  -4   1   1  647.26   43.25
  -4   1  -1  709.74   47.85
   1  -4   2  294.95   84.61
   1  -4  -2  515.57  116.09
   4  -1  -2  295.22   28.14
   4  -1   2  287.29   30.69
   4  -1  -2  321.64   56.41
  -1   4   2  273.05   27.04
  -1   4  -2  354.83   35.30
   1  -4  -2  288.86   20.07
  -1   4   2  335.95   37.89
  -4   1   2  282.21   28.76
  -4   1  -2  263.13   31.08
   1  -4   3  279.05   55.10
  -4   1  -3  247.13   33.32
   1  -4  -3  287.46   36.96
  -4   1  -3  273.63   18.45
   4  -1  -3  328.87   31.47
   4  -1   3  265.88   29.34
   4  -1  -3  250.28   25.37
  -1   4  -3  295.30   35.58
   1  -4  -3  265.39   20.01
  -1   4   3  321.31   69.91
  -4   1   3  218.64   42.51
  -4   1  -3  309.81   37.26
   1  -4   4   48.12   25.11
  -4   1  -4   35.91   15.21
   1  -4  -4   71.35   23.31
  -4   1  -4   68.77   16.99
   4  -1  -4   65.26   24.08
   4  -1   4   55.07   17.41
  -1   4   4   41.64   11.31
   4  -1  -4   69.50   20.85
  -1   4  -4   95.95   37.52
   1  -4  -4   48.49   10.00
  -1   4   4   96.25   29.25
  -4   1   4   48.90   23.42
  -4   1  -4  111.44   36.59
   1  -4   5   67.29   21.09
   1  -4  -5   96.28   32.36
  -4   1  -5   69.38   21.57
   4  -1  -5   66.27   32.94
   4  -1   5   53.58   20.40
   4  -1  -5   55.09   19.73
  -1   4  -5   87.09   34.33
  -1   4   5   50.33   28.49
  -4   1   5   50.23   23.51
  -4   1  -5   34.83   23.96
   1  -4   6   22.23    9.63
   1  -4  -6   22.16   24.31
  -4   1  -6    6.06    7.93
   4  -1  -6   19.57   19.81
   4  -1   6    7.58    6.76
  -1   4  -6   -5.49   19.09
  -1   4   6   52.54   33.30
  -4   1   6   19.56   19.66
  -4   1  -6   34.29   21.92
   1  -4   7    7.80   18.00
   1  -4  -7   18.73   17.43
   4  -1  -7  -18.26   22.41
  -1   4  -7   -7.29   18.87
  -1   4   7   38.03   25.20
  -4   1   7   39.60   23.52
  -4   1  -7   -0.31   19.89
   1  -4   8  -17.28   12.36
   1  -4  -8   28.24   20.69
   4  -1  -8   -9.61   19.15
  -1   4   8   28.52   18.73
  -4   1   8   11.85   14.22
   2  -5   0 3982.10  311.91
   5  -2   0 3232.30  154.84
   5  -2   0 3533.38  183.80
  -2   5   0 3772.10  230.93
  -2   5   0 3614.22  222.08
  -5   2   0 3203.44  159.26
   2  -5   1   35.82   26.32
   2  -5  -1   56.14   38.10
   5  -2  -1   18.93   14.02
   5  -2   1   12.69   12.87
   5  -2  -1   14.60   12.11
  -2   5   1   14.60   16.67
  -2   5  -1   36.23   20.82
  -2   5  -1   10.00    9.45
  -2   5   1  -13.04   12.80
   2  -5   1   20.42    5.54
  -5   2   1   32.65   23.87
  -5   2  -1   23.66   15.09
   2  -5   2  365.46   71.29
   2  -5  -2  738.11   95.33
   5  -2  -2  453.08   40.10
   5  -2   2  456.36   43.71
   5  -2  -2  467.41   52.19
  -2   5   2  588.74   48.31
  -2   5  -2  536.22   47.59
  -2   5   2  467.44   57.99
  -5   2   2  440.83   42.88
  -5   2  -2  467.99   46.52
   2  -5   3   60.14   24.61
  -5   2  -3    8.44    4.65
   2  -5  -3   -6.56   22.34
   5  -2  -3   21.82   24.20
   5  -2   3   -0.91   12.15
   5  -2  -3    1.40    7.00
  -2   5   3   -3.20    5.60
  -2   5  -3   34.09   25.35
  -2   5   3   20.60   15.38
  -5   2   3   10.37   14.86
  -5   2  -3   14.74   19.69
   2  -5   4  828.23  125.81
   2  -5  -4  924.85  200.05
   5  -2  -4  881.12  188.75
  -5   2  -4  856.40  179.14
   5  -2   4  671.31   83.80
   5  -2  -4  751.01   82.65
  -2   5  -4  998.46  216.17
  -2   5   4  807.92  134.48
  -5   2   4  794.72   98.28
  -5   2  -4  816.03   92.35
   2  -5   5   -7.60   15.68
   2  -5  -5   -1.77   20.65
   5  -2  -5   21.08   19.82
  -5   2  -5    7.28    7.92
   5  -2   5   16.20    7.91
   5  -2  -5   -1.81    4.79
  -2   5  -5  -22.16   27.38
  -2   5   5   26.32   13.03
  -5   2   5    5.41    9.78
  -5   2  -5  -18.21   18.91
   2  -5   6   39.44   15.67
   2  -5  -6   27.51   27.57
   5  -2  -6   29.72   33.73
   5  -2   6   24.84   11.61
  -2   5  -6   38.78   25.63
  -2   5   6   38.20   27.22
  -5   2   6   14.60    8.06
  -5   2  -6   16.66   19.34
   2  -5   7   -2.40   12.67
   2  -5  -7   10.79   18.50
   5  -2  -7   31.94   47.46
  -2   5  -7   57.64   35.47
  -2   5   7    8.25   16.09
  -5   2   7  -20.72   19.22
  -5   2  -7   35.41   24.20
   2  -5   8   32.42   21.02
   2  -5  -8   19.47   19.40
   5  -2  -8   36.87   34.89
  -2   5   8  -13.34   24.55
  -5   2   8   19.90    6.37
   3  -6   0 2343.90  228.92
   6  -3   0 1571.54  101.32
   6  -3   0 1745.15  116.71
  -3   6   0 1894.26  121.76
  -3   6   0 1850.74  128.11
  -6   3   0 1570.37  102.15
   3  -6   1  -11.88   26.93
   6  -3   1    8.18    7.77
   3  -6  -1  -14.71   42.22
   6  -3  -1   -7.58   11.94
  -6   3  -1    6.40    5.07
   6  -3   1    8.26    9.90
   6  -3  -1   -2.84   10.10
  -3   6   1    5.44   14.30
  -3   6  -1   29.79   21.06
  -3   6  -1    7.68    7.06
  -3   6   1    3.29    5.73
   3  -6   1   10.14    9.67
  -6   3   1   44.05   28.06
  -6   3  -1   -9.60   16.31
   3  -6   2  251.93   65.87
   3  -6  -2  476.20  140.45
  -6   3  -2  319.56   25.83
   6  -3  -2  305.74   33.16
   6  -3   2  293.11   37.23
   6  -3  -2  283.98   29.56
  -3   6   2  333.86   37.51
  -3   6  -2  404.60   45.65
  -3   6  -2  310.15   29.20
  -3   6   2  336.35   85.37
  -6   3   2  320.47   39.18
  -6   3  -2  299.75   35.80
   3  -6   3  -14.18   25.62
   3  -6  -3   52.58   33.23
  -6   3  -3    3.54    3.30
   6  -3  -3   -5.13   16.99
  -3   6   3   -1.44    2.68
   6  -3   3   14.31   10.95
   6  -3  -3   13.56    8.41
  -3   6   3   18.05   12.73
  -3   6  -3   13.58   24.86
  -3   6   3   -0.47   14.50
  -6   3   3    3.18    9.35
  -6   3  -3    4.07   15.10
   3  -6   4  278.93   94.80
   3  -6  -4  465.65   52.47
   6  -3  -4  513.58   37.68
   6  -3   4  295.73   94.24
   6  -3  -4  321.04   75.77
  -3   6  -4  518.84   51.52
  -3   6   4  449.24  123.80
  -6   3   4  346.97  128.27
  -6   3  -4  731.51   73.40
   3  -6   5  -19.85   19.19
   3  -6  -5  -16.91   21.27
   6  -3  -5   23.07   25.89
   6  -3   5   -6.93   11.90
  -3   6  -5    1.89   26.96
  -3   6   5   22.55   18.61
  -6   3   5    3.49    9.41
  -6   3  -5   -7.66   17.14
   3  -6   6   13.74   19.62
   3  -6  -6   48.35   26.01
   6  -3  -6    5.02   23.40
   6  -3   6   -2.91    9.61
  -3   6  -6    0.74   30.28
  -3   6   6   17.16   18.90
  -6   3   6   -4.07   20.49
  -6   3  -6  -13.68   15.15
   3  -6   7   40.01   16.86
   3  -6  -7    2.13   20.78
   6  -3  -7   34.19   30.06
  -3   6  -7   -4.82   27.95
  -3   6   7    5.78   11.22
  -6   3   7   -3.88   20.03
   4  -7   0    6.64   47.99
   7  -4   0   94.67   49.54
   7  -4   0   25.43   16.63
  -4   7   0   51.57   27.81
  -4   7   0   60.24   17.10
  -7   4   0   71.08   28.18
   4  -7   1  -31.60   41.89
   7  -4   1    7.38    8.68
   4  -7  -1   11.00   32.49
   7  -4  -1   14.64   14.77
   7  -4   1   23.77   16.83
   7  -4  -1    0.39    6.26
  -4   7   1   20.06   15.45
  -4   7  -1   79.51   36.54
  -4   7   1    9.08    9.91
  -4   7  -1   14.83    9.81
  -7   4   1   34.23   28.81
  -7   4  -1   21.17   15.69
   7  -4   2   36.79   11.92
   4  -7   2   37.23   39.12
   4  -7  -2  134.14   55.90
   7  -4  -2   39.75   22.04
   7  -4   2   31.44   19.41
   7  -4  -2   62.95   14.46
  -4   7   2   84.77   30.26
  -4   7  -2   96.62   37.25
  -4   7   2   72.55   33.03
  -4   7  -2   52.67   15.23
  -7   4   2   64.82   30.79
  -7   4  -2   68.92   28.73
   4  -7   2   22.40    6.95
   4  -7   3   22.45   24.10
   4  -7  -3   -9.22   53.48
   7  -4  -3   30.58   28.30
   7  -4   3   15.84    9.61
   7  -4  -3   17.04   13.34
  -4   7   3   51.34   39.47
  -4   7  -3   57.45   39.44
  -4   7   3   30.91   24.20
  -7   4   3   31.00   23.97
  -7   4  -3   12.32   16.50
   4  -7   4   26.32   18.35
   4  -7  -4   54.24   31.32
   7  -4  -4   -8.76   17.25
   7  -4   4    2.40    4.72
   7  -4  -4    6.16    3.43
  -4   7  -4   15.52   27.31
  -4   7   4  -28.08   25.03
  -7   4   4   15.65   20.97
  -7   4  -4    8.75   22.10
   4  -7   5    8.33   16.56
   4  -7  -5   42.10   32.44
   7  -4  -5   10.16   19.55
   7  -4   5    7.82   11.35
  -4   7  -5   23.99   33.11
  -4   7   5   -2.99   28.80
  -7   4   5   27.45   16.36
  -7   4  -5   25.10   14.75
   4  -7   6   27.94   15.86
   4  -7  -6   22.16   24.68
   7  -4  -6    6.76   22.52
   7  -4   6    7.48   12.56
  -4   7  -6   -7.72   29.79
  -4   7   6   33.81   35.33
  -7   4   6    8.53   12.76
  -7   4  -6   -6.08   13.92
   4  -7   7   18.74    8.22
   4  -7  -7   -5.27   19.51
   7  -4  -7  -22.76   22.94
  -4   7  -7   71.97   43.08
  -4   7   7   23.64   35.52
  -7   4   7   11.71   17.46
   5  -8   0  119.26   42.32
   8  -5   0   46.25   39.27
   8  -5   0   24.38   14.08
  -5   8   0   37.45   31.67
  -5   8   0    3.26   14.16
  -8   5   0   12.29   18.47
   5  -8   1  161.39   74.33
   8  -5   1   33.62   45.50
   5  -8  -1  215.47  117.34
   8  -5  -1  138.81   43.82
   8  -5   1  139.57   50.46
   8  -5  -1   93.64   32.09
  -5   8   1  186.30   49.60
  -5   8  -1  183.28   53.40
  -5   8   1  103.66   31.52
  -5   8  -1  104.71   32.27
  -8   5   1  122.80   42.82
  -8   5  -1  158.24   47.97
   5  -8   2   89.23   59.89
   5  -8  -2  171.16   62.80
   8  -5  -2  111.50   22.11
   8  -5   2  132.08   20.99
   8  -5  -2   91.82   27.29
  -5   8   2  104.09   28.05
  -5   8  -2  178.56   42.43
  -5   8   2  158.97   43.66
  -5   8  -2   82.35   21.98
  -8   5   2  140.91   38.11
  -8   5  -2  160.54   34.79
   5  -8   3   64.16   25.94
   5  -8  -3  106.74   46.74
   8  -5  -3   51.57   26.17
   8  -5   3   26.14   13.16
   8  -5  -3   21.94    9.31
  -5   8   3   52.78   23.39
  -5   8  -3   93.78   39.88
  -5   8   3   43.48   24.46
  -8   5   3   56.12   26.58
  -8   5  -3   53.23   24.80
   5  -8   4   19.43   28.10
   5  -8  -4  146.42   68.15
   8  -5  -4   25.00   19.84
   8  -5   4    0.53    6.03
  -5   8  -4  -18.79   34.27
  -5   8   4   24.29   18.03
  -8   5   4   22.99   22.83
  -8   5  -4   13.96   21.31
   5  -8   5  -10.42   20.64
   5  -8  -5   44.74   49.06
   8  -5  -5   37.86   30.90
   8  -5   5   31.11   17.99
  -5   8  -5   13.81   35.97
  -5   8   5   22.42   24.98
  -8   5   5   22.33   16.23
  -8   5  -5   15.04   13.74
   5  -8   6   16.25   12.81
   5  -8  -6  -15.37   24.06
   8  -5  -6   28.75   27.67
   8  -5   6   19.24   15.51
  -5   8  -6   15.94   31.61
  -5   8   6   11.90   20.49
  -8   5   6    1.42   12.90
   6  -9   0   32.41   34.75
   9  -6   0   57.27   36.39
   9  -6   0   12.73   12.01
  -6   9   0    7.54   20.89
  -6   9   0   -1.21   13.47
  -9   6   0   23.85   17.96
   6  -9   1   39.54   51.13
   9  -6   1    3.25   20.97
   6  -9  -1   24.92   29.89
   9  -6  -1   -1.69   22.12
   9  -6   1   15.71   15.48
   9  -6  -1   17.35    7.97
  -6   9   1   30.53   23.41
  -6   9  -1   54.35   31.87
  -6   9   1   12.58   10.16
  -6   9  -1   27.08   12.84
  -9   6   1   23.06   18.33
  -9   6  -1   18.51   23.48
   6  -9   2   65.18   45.58
   6  -9  -2  -59.28   52.95
   9  -6  -2    7.94   16.11
   9  -6   2   18.31   10.69
   9  -6  -2    3.91    7.21
  -6   9   2   -9.56   13.60
  -6   9  -2  -10.98   24.13
  -6   9   2   14.20   16.60
  -9   6   2   51.76   22.53
  -9   6  -2   25.51   16.91
   6  -9   3   54.68   42.52
   6  -9  -3   78.89   46.74
   9  -6  -3   13.19   19.68
   9  -6   3   -8.95   13.50
   9  -6  -3   -7.93    7.32
  -6   9  -3   21.41   30.69
  -6   9   3   26.00   18.52
  -9   6   3    2.42   18.11
  -9   6  -3   35.40   21.32
   6  -9   4   18.68   15.06
   6  -9  -4   47.70   27.63
   9  -6  -4   16.54   19.60
   9  -6   4   -7.82   14.61
  -6   9  -4    2.07   31.70
  -6   9   4   30.87   12.36
  -9   6   4   24.56   26.99
  -9   6  -4    5.73   11.80
   6  -9   5   18.09   10.02
   6  -9  -5   50.21   55.59
   9  -6  -5   18.21   20.92
   9  -6   5   -5.25   13.68
  -6   9  -5   32.50   31.15
  -6   9   5    2.47   14.89
  -9   6   5   43.52   29.30
   6  -9  -6   49.62   58.66
   9  -6  -6   24.58   19.47
   9  -6   6   -1.02   13.21
  -6   9  -6   60.82   31.04
  -6   9   6   -3.88   34.51
  -9   6   6   -3.93   24.23
   7 -10   0   67.83   79.07
  10  -7   0   -5.97   28.37
  10  -7   0   10.54    6.35
  -7  10   0    8.62   22.63
  -7  10   0  -14.37   13.09
 -10   7   0   16.84   25.30
   7 -10   1  -31.32   52.85
   7 -10  -1  -19.11   59.58
  10  -7  -1   28.46   18.29
  10  -7   1   -6.48   12.51
  10  -7  -1   -7.99   11.25
  -7  10   1   15.63   24.03
  -7  10  -1   37.15   25.60
  -7  10   1    2.27   13.33
 -10   7   1   22.33   19.23
 -10   7  -1   22.11   23.84
   7 -10   2   72.28   54.01
   7 -10  -2   79.79   55.32
  10  -7  -2   17.57   25.87
  10  -7   2   13.70    7.47
  10  -7  -2    4.98    6.33
  -7  10   2    8.46   14.15
  -7  10  -2  -18.45   27.10
  -7  10   2   20.47   14.69
 -10   7   2    8.62   14.55
 -10   7  -2    6.12   16.14
   7 -10   3   -7.11   33.89
   7 -10  -3    5.56   44.63
  10  -7  -3    5.52   23.77
  10  -7   3   19.56   11.83
  -7  10  -3   12.00   28.52
  -7  10   3   23.82   17.80
 -10   7   3    6.73   21.83
 -10   7  -3   18.55   20.66
   7 -10   4   -2.99   14.01
   7 -10  -4   35.13   32.19
  10  -7  -4   20.91   19.27
  10  -7   4   -4.32   13.65
  -7  10  -4   55.82   46.19
  -7  10   4   39.88   15.20
 -10   7   4   32.44   23.21
   7 -10   5   23.57   16.17
   7 -10  -5  -20.91   40.85
  10  -7  -5   10.32   23.14
  10  -7   5   11.28   12.85
  -7  10  -5   -1.88   32.64
  -7  10   5   13.29   24.52
 -10   7   5   30.21   16.40
   8 -11   0   32.16   68.20
  11  -8   0   -2.09   10.43
  -8  11   0   10.30   24.70
  -8  11   0  -10.25   14.66
 -11   8   0   13.00   15.79
   8 -11   1  100.46   51.27
   8 -11  -1   44.00   70.31
  11  -8  -1   -1.31   29.11
  11  -8   1  -16.09   13.43
  11  -8  -1    1.47    6.40
  -8  11   1    1.71   18.39
  -8  11  -1   14.26   24.35
  -8  11   1   27.61   16.35
 -11   8   1   35.64   30.51
 -11   8  -1   37.15   21.35
   8 -11   2   19.57   31.63
   8 -11  -2   30.47   31.97
  11  -8  -2   23.18   27.84
  11  -8   2   11.45    9.50
  11  -8  -2   11.50    8.94
  -8  11  -2   36.64   29.28
  -8  11   2    4.31    8.74
 -11   8   2    6.69    9.74
 -11   8  -2    2.26   15.37
   8 -11   3   37.67   30.76
   8 -11  -3   36.74   44.16
  11  -8  -3    6.28   27.47
  11  -8   3   13.23   13.20
  -8  11  -3   84.14   42.76
  -8  11   3   13.33   10.86
 -11   8   3   18.69   15.88
 -11   8  -3   -4.17   12.66
   8 -11   4   12.59   22.37
   8 -11  -4   55.02   46.33
  11  -8  -4    6.01   21.18
  11  -8   4   14.87   12.18
  -8  11  -4   43.39   28.54
  -8  11   4   25.77   17.70
 -11   8   4    6.15   21.67
   9 -12   0  126.68   43.42
  12  -9   0   20.84    8.13
  -9  12   0  -11.93   21.06
 -12   9   0   22.26   26.40
   9 -12   1   10.26   35.55
   9 -12  -1   55.20   63.17
  12  -9  -1    6.20   11.02
  12  -9   1    5.62   11.24
  -9  12   1    2.70   17.03
  -9  12  -1   -9.68   23.74
  -9  12   1  -10.68   13.41
 -12   9   1   19.72   18.15
 -12   9  -1   22.83   14.06
  12  -9   2   12.20   17.45
  -9  12  -2  -20.91   25.82
  -9  12   2   -2.58   17.15
 -12   9   2  -11.10   19.47
 -12   9  -2    5.57   12.51
  -2  -2   0 1595.15   65.20
   2   2   0 1558.83   61.96
  -2  -2   0 1391.65   53.44
  -2  -2   1    3.61    7.39
  -2  -2  -1    2.28   21.37
   2   2   1   14.05    9.99
   2   2   1    5.93   12.80
   2   2  -1    5.59   22.95
  -2  -2   1   -2.01   10.66
   2   2  -1    8.15   13.46
  -2  -2  -1   13.04   17.62
  -2  -2   2    7.98    8.33
  -2  -2  -2   43.88   20.43
   2   2   2   -2.41    4.69
   2   2   2   -9.77   12.10
   2   2  -2    2.89   13.47
   2   2   2   34.20   19.36
  -2  -2   2   32.60   16.59
   2   2  -2   -0.81    7.68
  -2  -2   3   -7.85   12.46
  -2  -2  -3   -9.72   12.75
   2   2   3    7.31    7.61
   2   2  -3   17.01   20.00
   2   2   3    0.47   16.34
  -2  -2   3   17.58   13.24
  -2  -2   4  235.69   49.54
  -2  -2  -4  280.80   55.78
   2   2   4  203.32   55.22
   2   2  -4  355.39   77.01
   2   2   4  289.23   62.63
  -2  -2   4  242.84   56.98
  -2  -2   5    4.37   13.74
  -2  -2  -5   -4.55   10.63
   2   2   5    9.21    5.29
   2   2  -5   15.50   20.34
   2   2   5   -8.35   19.89
  -2  -2   5   13.82   11.47
  -2  -2   6   12.45   16.86
  -2  -2  -6   -5.75   12.07
   2   2  -6    7.40   16.07
   2   2   6    8.23   20.06
  -2  -2   6   -2.19    5.48
  -2  -2  -7   10.31   12.41
   2   2   7   42.36   31.42
   2   2  -8  -14.11   14.36
   2   2   8   -1.77   17.69
  -3  -1   0  372.25   27.07
   3   1   0  483.82   33.64
   3   1   0  346.11   54.62
   1   3   0  456.43   53.29
  -3  -1   0  434.01   34.93
  -1  -3   0  359.34   27.58
  -3  -1   1  587.21   47.10
  -1  -3   1  584.08   55.66
  -3  -1  -1  639.00   38.99
  -1  -3  -1  664.54   85.97
   3   1   1  552.06   46.59
   3   1  -1  637.24   55.58
   1   3   1  700.66   55.32
   1   3  -1  660.30   43.76
  -1  -3   1  611.81   33.04
   1   3   1  694.22   42.46
  -3  -1   1  532.48   34.52
  -1  -3   1  527.31   34.34
  -3  -1  -1  626.58   54.25
  -3  -1   2  330.76   37.87
  -1  -3   2  298.46   28.78
  -3  -1  -2  322.21   57.11
  -1  -3  -2  468.90  112.87
   3   1   2  257.60   15.43
   3   1   2  290.29   56.37
   1   3   2  261.31   29.10
   1   3  -2  297.43   40.48
   1   3   2  310.82   33.51
  -3  -1   2  255.58   26.27
  -1  -3   2  226.74   16.27
   1   3  -2  327.54   21.60
  -3  -1  -2  271.75   39.41
  -3  -1   3  273.80   27.03
  -1  -3   3  265.01   25.93
  -3  -1  -3  357.56   30.50
  -1  -3  -3  389.43   44.17
   3   1   3  237.97   21.67
   1   3   3  193.74   27.97
   3   1  -3  326.17   69.13
   1   3  -3  411.78   50.63
   1   3   3  205.57   62.50
  -3  -1   3  219.25   25.16
   1   3  -3  346.86   25.80
  -3  -1  -3  268.29   41.21
  -3  -1   4   64.57   20.90
  -1  -3   4   51.00   22.70
  -1  -3  -4   58.34   19.71
  -3  -1  -4   78.45   20.76
   3   1   4   77.93   22.68
   1   3   4   55.47   14.84
   3   1  -4   75.09   26.67
   1   3  -4   59.74   42.09
   1   3   4   21.19   20.78
  -1  -3   4   41.32   15.01
  -3  -1   4   38.42   13.24
   1   3  -4   75.06   16.45
  -3  -1   5   45.35   23.05
  -1  -3   5   50.91   27.99
  -1  -3  -5   58.39   27.29
  -3  -1  -5   65.08   18.66
   3   1   5   50.53   20.17
   1   3   5   28.38   12.26
   3   1  -5   93.02   25.54
   1   3  -5   98.20   39.67
   1   3   5   33.97   26.34
  -1  -3   5   36.32   11.72
  -3  -1   5   31.72   13.72
  -1  -3   6    0.60   13.34
  -1  -3  -6   21.66   21.23
  -3  -1  -6   27.52   13.03
   3   1   6    6.06    3.86
   3   1  -6   20.50   14.22
   1   3  -6   56.17   26.92
   1   3   6   19.96   21.41
  -3  -1   6   18.45   14.95
  -1  -3   7  -10.14   14.14
  -1  -3  -7   22.26   17.97
   3   1  -7   41.92   34.14
   1   3   7    6.92   21.94
  -1  -3  -8   -6.31   13.39
   3   1  -8   19.63   17.19
   1   3   8  -12.58   17.71
  -3  -1  -8   17.87   27.34
  -4   0   0   -2.23    2.99
   4   0   0    5.68    6.49
   0  -4   0   14.38   29.88
   4   0   0   -5.03   15.10
   0   4   0   -8.99    8.98
  -4   0   0   -0.11   16.58
  -4   0   1    1.18    5.94
   0  -4   1   10.51   14.18
   0  -4  -1   25.31   21.69
   4   0   1    0.89    4.75
   4   0   1    1.04    8.07
   4   0  -1   12.12    7.43
   0   4   1   22.04   15.60
   0   4  -1   32.51   51.12
   0  -4   1    0.60    2.31
  -4   0   1   33.35   24.00
  -4   0  -1   10.57   21.79
   0  -4   1    6.19   10.63
  -4   0   2  583.53   42.47
   0  -4   2  721.34   65.75
   0  -4  -2 1114.53  147.04
   4   0   2  688.22   59.91
   4   0  -2  665.63   68.26
   0   4   2  686.77   64.39
   0   4   2  633.00   72.68
   0  -4   2  653.78   42.27
  -4   0   2  621.72   48.50
  -4   0  -2  730.46   65.14
  -4   0   3    1.94   10.53
  -4   0  -3   -1.01    2.11
   0  -4   3   20.54   14.77
  -4   0  -3    3.79    4.21
   0  -4  -3   22.39   31.65
   4   0   3   14.40   11.84
   0   4   3   -4.50    6.93
   4   0  -3   11.22    7.02
   0   4  -3    5.58   25.49
   0   4   3   12.53   11.90
  -4   0   3    8.64   22.79
  -4   0  -3    4.45   23.94
   0  -4   4  -11.20   17.30
  -4   0  -4   -0.54    3.30
   0  -4  -4    6.99   18.19
  -4   0  -4    2.93    5.18
   4   0   4   20.60   11.10
   0   4   4    3.82    6.41
   4   0  -4   16.96   10.67
   0  -4  -4   51.26   39.49
   0   4  -4    0.89   30.67
   0   4   4   18.10   14.75
  -4   0   4    7.53   13.82
  -4   0  -4   -1.37   25.56
   0  -4   5    4.82   12.09
   0  -4  -5    3.35   15.84
  -4   0  -5   -5.75    6.22
   4   0  -5    7.50   18.92
   4   0   5    1.62    5.85
   4   0  -5    3.47    7.49
   0   4  -5   11.87   34.14
   0   4   5   22.66   15.70
  -4   0   5   13.28   13.52
  -4   0  -5   -1.79   28.53
   0  -4   6   41.71   24.84
   0  -4  -6   53.06   27.54
   4   0  -6   74.67   33.65
   4   0   6   11.58    5.76
   0   4  -6  187.11   78.86
   0   4   6   39.27   16.07
  -4   0   6    1.46    7.35
  -4   0  -6   22.59   30.35
   0  -4   7   18.94   13.93
   0  -4  -7   -2.08   16.72
   4   0  -7   -9.54   21.98
   0   4  -7   -1.05   21.92
   0   4   7   25.24   12.12
  -4   0   7   31.48   15.04
  -4   0  -7   -7.12   26.50
   0  -4   8   27.51   24.23
   0  -4  -8    4.75   14.22
   4   0  -8    9.30   18.61
   0   4   8    9.24   21.81
  -4   0  -8   14.11   23.47
   5  -1   0  358.85   25.78
   1  -5   0  380.89   83.96
   5  -1   0  316.24   23.31
   5  -1   0  337.38   44.72
  -1   5   0  492.73   57.36
  -1   5   0  300.70   27.77
  -5   1   0  273.14   31.24
   5  -1   1  251.19   20.69
   1  -5   1  205.15   39.25
   1  -5  -1  254.73   60.29
   5  -1   1  245.09   20.77
   5  -1  -1  271.12   27.16
   5  -1   1  226.04   23.53
  -1   5   1  262.69   31.66
  -1   5  -1  219.31   33.31
  -1   5  -1  274.29   24.36
  -1   5   1  275.07   60.67
   1  -5   1  168.24   22.51
  -5   1   1  268.03   33.00
  -5   1  -1  258.02   36.02
   1  -5   2   27.41   18.63
   1  -5  -2   76.63   43.42
   5  -1  -2   26.23   16.02
   5  -1   2    8.34    9.59
   5  -1  -2    5.10   13.36
  -1   5   2   15.37    6.43
  -1   5  -2   77.53   37.62
  -1   5   2   24.90    9.64
   1  -5   2   17.37    3.81
  -5   1   2    2.99   17.23
   1  -5   2   25.62    6.57
  -5   1  -2   19.18   31.26
   1  -5   3  107.87   34.04
   1  -5  -3  210.56   73.78
   5  -1  -3   97.81   28.57
   5  -1   3   94.11   30.75
   5  -1  -3  109.22   31.02
  -1   5   3   70.96   21.06
  -1   5  -3  100.23   34.21
  -1   5   3  101.86   30.32
  -5   1   3   57.70   25.99
  -5   1  -3   94.54   31.61
   1  -5   4   55.98   31.42
   1  -5  -4   86.52   36.56
  -5   1  -4   58.29   14.38
   5  -1  -4   62.84   26.96
   5  -1   4   61.35   20.07
  -1   5   4   50.20   15.60
   5  -1  -4   84.74   27.27
  -1   5  -4   72.09   40.12
  -1   5   4   69.39   30.12
  -5   1   4   30.66   23.24
  -5   1  -4   38.15   21.96
   1  -5   5   22.63   20.65
   1  -5  -5   36.87   27.39
   5  -1  -5   41.95   28.00
   5  -1   5   18.26   11.95
   5  -1  -5   47.32   11.70
  -1   5  -5   43.82   26.73
  -1   5   5   42.34   20.40
  -5   1   5   17.63   18.27
  -5   1  -5   46.76   23.29
   1  -5   6   19.61   15.41
   1  -5  -6   18.47   19.11
   5  -1  -6   33.54   35.29
   5  -1   6  -12.48    8.43
  -1   5  -6   23.17   27.27
  -1   5   6  -19.77   20.16
  -5   1   6    9.60   14.80
  -5   1  -6   20.08   24.72
   1  -5   7    7.67   15.31
   1  -5  -7   14.32   18.10
   5  -1  -7    2.64   23.16
   5  -1   7   15.43    8.94
  -1   5  -7   27.37   41.77
  -1   5   7   42.72   19.00
  -5   1   7    9.08   13.86
  -5   1  -7   16.11   22.19
   1  -5   8    9.93   14.00
   1  -5  -8    9.52   15.59
   5  -1  -8   44.33   23.36
  -1   5   8   15.99    8.42
   6  -2   0  508.00   39.29
   2  -6   0  565.05  168.36
   6  -2   0  407.93   34.45
   6  -2   0  459.40   56.11
  -2   6   0  558.79  109.23
  -2   6   0  514.72   60.75
  -6   2   0  448.84   48.51
   6  -2   1   19.87    5.46
   2  -6   1   -2.57   35.68
   2  -6  -1  -24.90   44.72
   6  -2  -1   30.66   18.88
   6  -2   1   16.95   11.04
   6  -2  -1   13.30    8.24
  -2   6   1    8.43   28.66
  -2   6  -1   37.91   30.87
  -2   6  -1   16.88    7.01
  -2   6   1   14.54   15.38
   2  -6   1   12.26    7.23
  -6   2   1   16.11   17.66
  -6   2  -1   32.65   24.00
   2  -6   2   11.45   17.11
   2  -6  -2  -16.49   49.71
   6  -2  -2   20.29   16.06
   6  -2   2   -0.24    9.32
   6  -2  -2    0.07    7.15
  -2   6   2   -0.87   14.77
  -2   6  -2    1.70   24.12
  -2   6   2   -2.28   16.85
  -6   2   2   11.51   22.88
  -6   2  -2    5.51   18.94
   2  -6   3   -2.85   25.91
   2  -6  -3   23.22   35.28
   6  -2  -3   20.88   17.12
   6  -2   3   24.27   10.61
   6  -2  -3   25.48   13.64
  -2   6   3    9.80    8.51
  -2   6  -3   36.63   36.55
  -2   6   3   15.43   14.59
  -6   2   3   23.42   20.15
  -6   2  -3   47.68   43.55
   2  -6   4  136.43   47.29
   2  -6  -4  210.55   71.22
   6  -2  -4  164.75   46.63
   6  -2   4  114.62   34.10
   6  -2  -4  140.70   38.18
  -2   6  -4  109.08   41.46
  -2   6   4  183.44   57.00
  -6   2   4  133.64   43.00
  -6   2  -4  180.38   55.83
   2  -6   5   40.65   19.53
   2  -6  -5   -8.48   20.36
   6  -2  -5   24.55   21.55
   6  -2   5   25.58   14.17
  -2   6  -5   -3.27   25.01
  -2   6   5    9.32   12.46
  -6   2   5   52.65   18.45
  -6   2  -5   44.43   36.09
   2  -6   6  -14.70   17.66
   2  -6  -6   31.56   29.71
   6  -2  -6   -5.87   25.78
   6  -2   6   15.83    7.63
  -2   6  -6   -9.63   30.58
  -2   6   6    7.06   29.51
  -6   2   6   53.64   39.77
  -6   2  -6    8.66   19.96
   2  -6   7   15.86   12.37
   2  -6  -7   18.51   20.56
   6  -2  -7   -9.55   22.78
   6  -2   7   -9.39    6.60
  -2   6  -7   16.65   28.08
  -2   6   7   19.95   20.62
  -6   2   7   -4.17   16.36
  -6   2  -7    3.15   17.07
   3  -7   0   75.85   42.10
   7  -3   0   51.97   20.18
   7  -3   0   45.64   20.89
  -3   7   0   12.71   21.01
  -3   7   0   32.37   19.04
  -7   3   0   22.61   19.21
   7  -3   1    8.45    4.01
   3  -7   1   -4.04   40.90
   3  -7  -1   68.69   37.30
   7  -3   1   13.52    9.35
   7  -3  -1   22.30   16.69
   7  -3   1   11.48   14.32
   7  -3  -1   25.88   13.22
  -3   7   1   61.20   31.76
  -3   7  -1   54.67   37.55
  -3   7  -1    6.31   12.46
  -3   7   1   12.27   12.07
  -7   3   1   23.42   21.44
  -7   3  -1   16.77   20.26
   3  -7   2    5.91   26.21
   3  -7  -2   61.86   40.74
   7  -3  -2   38.71   16.64
   7  -3   2   59.66   20.46
   7  -3  -2   72.73   17.46
  -3   7   2  119.50   63.80
  -3   7  -2   54.59   33.65
  -3   7  -2   36.54   12.00
  -3   7   2   34.73   30.26
  -7   3   2   74.36   28.97
   3  -7   2   11.96    4.52
  -7   3  -2   34.69   19.11
   3  -7   3   30.72   27.60
   3  -7  -3   22.65   31.85
   7  -3  -3   -5.80   16.48
   7  -3   3   -8.29   16.18
   7  -3  -3   14.58   11.90
  -3   7   3   37.28   21.52
  -3   7  -3   39.17   41.27
  -3   7   3   55.21   34.13
  -7   3   3   33.37   32.43
  -7   3  -3   18.37   27.50
   3  -7   4   -3.43   20.56
   3  -7  -4    9.82   34.11
   7  -3  -4    4.79   15.81
   7  -3   4   28.51   11.48
   7  -3  -4    2.63    7.94
  -3   7  -4    7.14   30.18
  -3   7   4  -25.97   23.23
  -7   3   4  -17.49   22.73
  -7   3  -4   40.22   31.99
   3  -7   5   32.22   25.73
   3  -7  -5   56.33   42.46
   7  -3  -5   17.75   20.04
   7  -3   5   -0.06   11.60
  -3   7  -5   16.25   33.39
  -3   7   5  -35.62   25.71
  -7   3   5   12.02   18.25
  -7   3  -5   30.34   31.04
   3  -7   6   -2.84   18.18
   3  -7  -6  -22.34   25.72
   7  -3  -6   57.46   37.81
   7  -3   6   17.74    8.07
  -3   7  -6  -28.94   26.93
  -3   7   6   12.54   11.54
  -7   3   6    8.88   13.33
  -7   3  -6   44.58   27.19
   3  -7   7    4.10   17.15
   3  -7  -7   70.96   29.80
   7  -3  -7   23.92   33.76
   7  -3   7    6.03    7.76
  -3   7  -7   13.79   26.40
  -3   7   7   -0.91   16.98
  -7   3   7    1.55    8.95
   4  -8   0   32.52   32.90
   8  -4   0   39.17   26.26
   8  -4   0   57.26   20.23
  -4   8   0  108.06   52.73
  -4   8   0   32.25   16.88
  -8   4   0   46.34   30.98
   4  -8   1   59.04   46.38
   4  -8  -1   -9.09   60.77
   8  -4   1   42.88   19.43
   8  -4  -1   -3.51   15.45
   8  -4   1   13.63   16.85
   8  -4  -1    1.18    8.78
  -4   8   1   25.99   25.79
  -4   8  -1  -13.39   22.94
  -4   8  -1   -9.19    9.97
  -4   8   1   18.10   10.37
  -8   4   1    7.30   22.86
  -8   4  -1   19.60   18.68
   4  -8   2   85.70   45.95
   4  -8  -2  266.89  110.86
   8  -4  -2  131.42   25.09
   8  -4   2  132.03   36.03
   8  -4  -2   95.11   28.54
  -4   8   2  178.71   39.46
  -4   8  -2  108.79   37.33
  -4   8   2  180.84   38.61
  -8   4   2  113.87   39.74
  -8   4  -2  110.21   31.33
   4  -8   3   -0.20   27.85
   4  -8  -3   46.80   25.69
   8  -4  -3  -15.89   16.55
   8  -4   3   -3.98   12.67
   8  -4  -3   -3.53   10.38
  -4   8   3   -0.42   12.10
  -4   8  -3  -35.62   30.32
  -4   8   3    7.87   13.70
  -8   4   3   15.14   22.08
  -8   4  -3  -12.79   17.40
   4  -8   4   26.11   18.28
   4  -8  -4  -10.32   46.24
   8  -4  -4   -4.30   18.72
   8  -4   4    4.67    6.55
   8  -4  -4    0.30    8.68
  -4   8  -4    2.10   34.17
  -4   8   4  -27.06   27.47
  -8   4   4   17.05   21.72
  -8   4  -4    4.37   15.93
   4  -8   5   14.32   18.58
   4  -8  -5   99.72   73.53
   8  -4  -5   -5.44   21.29
   8  -4   5   -2.83   12.86
  -4   8  -5   -4.21   35.51
  -4   8   5   50.04   22.37
  -8   4   5   -1.35   23.93
  -8   4  -5   -4.00   15.38
   4  -8   6   18.90   19.54
   4  -8  -6  -15.66   32.36
   8  -4  -6   59.60   39.30
   8  -4   6    7.14    9.42
  -4   8  -6   29.41   34.81
  -4   8   6   36.31   22.45
  -8   4   6   26.34   16.83
  -8   4  -6    9.30   12.87
   5  -9   0    0.99   43.27
   9  -5   0   10.68   12.17
   9  -5   0   -7.97   14.53
  -5   9   0   -1.99   22.55
  -5   9   0   13.16   14.66
  -9   5   0    3.67   19.36
   5  -9   1   47.68   37.01
   9  -5   1   21.40   18.90
   5  -9  -1  -19.23   53.49
   9  -5  -1   17.19   13.74
   9  -5   1   -5.47   15.54
   9  -5  -1   -2.95   14.50
  -5   9   1   23.94   23.91
  -5   9  -1    9.96   24.54
  -5   9  -1    6.25    7.88
  -5   9   1   -9.41   17.79
  -9   5   1  -26.31   20.88
  -9   5  -1   19.00   24.33
   5  -9   2    7.27   23.31
   5  -9  -2   13.15   37.77
   9  -5  -2   48.31   25.19
   9  -5   2    3.88   11.52
   9  -5  -2   10.33    9.49
  -5   9   2   10.29   16.74
  -5   9  -2   18.60   27.64
  -5   9   2   35.25   28.37
  -9   5   2   16.57   19.72
  -9   5  -2    6.74   18.31
   5  -9   3  -53.53   32.59
   5  -9  -3   -9.35   58.99
   9  -5  -3    6.39   16.64
   9  -5   3   -6.68   18.60
   9  -5  -3   -0.88    8.86
  -5   9  -3   49.39   45.19
  -5   9   3   40.45   17.45
  -9   5   3   18.20   26.87
  -9   5  -3   19.53   19.19
   5  -9   4   35.94   22.52
   5  -9  -4   91.51   68.21
   9  -5  -4   -0.70   18.04
   9  -5   4   -9.46   14.94
  -5   9  -4   15.96   33.40
  -5   9   4   13.41   26.84
  -9   5   4  -34.03   26.46
  -9   5  -4   24.52   25.48
   5  -9   5   20.39   19.24
   5  -9  -5   53.12   30.65
   9  -5  -5   56.80   34.23
   9  -5   5   13.44   17.70
  -5   9  -5    3.03   33.83
  -5   9   5   21.87   14.14
  -9   5   5   10.62   13.79
  -9   5  -5    8.08   12.76
   5  -9   6   -9.53   15.44
   5  -9  -6   10.85   48.61
   9  -5  -6   19.78   33.76
   9  -5   6    4.69    8.62
  -5   9  -6  -11.68   31.74
  -5   9   6  -27.29   25.30
  -9   5   6   56.39   26.64
   6 -10   0   50.90   64.79
  10  -6   0    3.36   26.77
  10  -6   0   10.91   13.57
  -6  10   0   -0.04   22.85
  -6  10   0    3.60   15.47
 -10   6   0   11.26   28.33
   6 -10   1  -14.48   49.44
   6 -10  -1   73.29   56.35
  10  -6  -1   24.76   22.36
  10  -6   1   13.77   13.45
  10  -6  -1   21.79   15.85
  -6  10   1  -18.89   18.24
  -6  10  -1   21.16   24.81
  -6  10   1   31.44   15.86
 -10   6   1    2.46   18.25
 -10   6  -1   24.37   19.92
   6 -10   2   29.02   34.34
   6 -10  -2  -28.31   70.63
  10  -6  -2   84.42   32.81
  10  -6   2   -3.58   16.75
  10  -6  -2    0.47    6.91
  -6  10   2   33.95   21.84
  -6  10  -2   17.27   27.95
  -6  10   2    3.93    8.50
 -10   6   2   -8.49   21.06
 -10   6  -2  -16.05   17.28
   6 -10   3    0.56   36.26
   6 -10  -3   14.38   34.57
  10  -6  -3   15.45   17.44
  10  -6   3   -3.99   13.19
  10  -6  -3    0.18    9.73
  -6  10  -3   28.54   32.01
  -6  10   3   23.53   14.45
 -10   6   3   16.81   25.10
 -10   6  -3   -1.08   15.25
   6 -10   4  -18.77   24.97
   6 -10  -4   35.57   59.86
  10  -6  -4   77.51   34.19
  10  -6   4   13.79   14.74
  -6  10  -4   28.43   49.51
  -6  10   4   -2.34   17.17
 -10   6   4   13.30   18.10
 -10   6  -4  -11.41   13.85
   6 -10   5   46.14   20.28
   6 -10  -5   22.69   30.20
  10  -6  -5   12.42   19.37
  10  -6   5    6.18    9.15
  -6  10  -5  -25.04   30.65
  -6  10   5   37.10   16.47
 -10   6   5   -6.53   28.06
   7 -11   0  -10.86   79.88
  11  -7   0   34.87   18.27
  -7  11   0   48.45   36.96
 -11   7   0   -8.48   18.31
   7 -11   1   28.51   40.38
   7 -11  -1   47.66   67.19
  11  -7  -1   21.51   26.17
  11  -7   1   11.70   13.43
  11  -7  -1    4.12    8.41
  -7  11   1   26.17   20.31
  -7  11  -1    7.67   38.12
  -7  11   1   17.45   15.65
 -11   7   1   -5.92   19.68
 -11   7  -1    0.90   17.15
   7 -11   2    4.70   24.08
   7 -11  -2   89.48   63.82
  11  -7  -2   22.14   28.80
  11  -7   2    0.97    7.49
  11  -7  -2    8.11    5.38
  -7  11  -2   88.06   30.94
  -7  11   2   14.46   13.77
 -11   7   2   22.08   20.12
 -11   7  -2   18.52   16.32
   7 -11   3   13.61   14.19
   7 -11  -3   76.22   44.79
  11  -7  -3   12.80   18.49
  11  -7   3    0.01   14.07
  -7  11  -3  -23.17   31.13
  -7  11   3   45.43   26.22
 -11   7   3   11.26   15.46
 -11   7  -3   37.85   23.73
   7 -11   4   -2.51   14.54
   7 -11  -4  -26.83   57.10
  11  -7  -4    4.83   17.89
  11  -7   4    9.97   14.06
  -7  11  -4  -45.78   29.67
  -7  11   4   12.04   20.29
 -11   7   4   -1.64   18.05
   8 -12   0    6.34   47.93
  12  -8   0  -13.17   12.23
  -8  12   0   13.85   19.85
 -12   8   0   -8.73   14.79
   8 -12   1  -33.07   58.96
   8 -12  -1   13.24   22.40
  12  -8   1  -11.48   12.30
  12  -8  -1   25.18   10.24
  -8  12   1   20.95   17.92
  -8  12  -1   16.77   23.20
 -12   8   1    7.03   16.64
 -12   8  -1    9.33   24.45
   8 -12   2   33.62   37.96
   8 -12  -2    3.36   40.34
  12  -8   2   -1.17    7.67
  12  -8  -2   10.62    8.00
  -8  12  -2   24.51   26.73
  -8  12   2    4.28   21.03
 -12   8   2   -9.38   20.66
 -12   8  -2    6.28   14.45
  -3  -2   0 3275.91  160.16
  -2  -3   0 3449.33  189.87
   3   2   0 3732.40  237.14
   2   3   0 4080.85  258.11
  -3  -2   0 3316.79  169.25
  -2  -3   0 3291.64  165.37
  -3  -2   1    7.28    5.69
  -3  -2  -1   20.47   12.71
  -2  -3  -1    2.79   12.47
   3   2   1   17.27   11.28
   3   2   1   12.59    9.18
   2   3   1   25.84   20.00
   3   2  -1    5.21   19.83
   2   3  -1  -11.50   24.51
  -3  -2   1   17.53   15.82
  -2  -3   1   58.08   36.62
  -3  -2  -1   32.18   31.40
  -2  -3  -1   16.61   19.48
  -2  -3   2  504.72   49.31
  -3  -2  -2  521.89   78.42
  -2  -3  -2  600.72   91.60
   3   2   2  402.86   68.89
   2   3   2  385.56   59.29
   3   2  -2  560.91   59.33
   2   3  -2  562.31   53.38
   2   3   2  517.42   45.18
  -3  -2   2  383.82   35.45
  -2  -3   2  385.17   32.82
  -3  -2  -2  456.02   48.66
  -3  -2   3    9.14    9.06
  -2  -3   3    9.97   15.36
  -3  -2  -3    4.11   14.76
  -2  -3  -3   17.91   18.16
   3   2   3   12.66    9.68
   2   3   3   -7.51   10.16
   3   2  -3   -3.92   23.61
   2   3  -3   37.19   35.21
   2   3   3   41.71   19.33
  -2  -3   3   -4.26    5.75
  -3  -2   3    8.74   10.26
  -3  -2  -3   27.50   30.48
  -3  -2   4  800.43   87.37
  -2  -3   4  736.87   85.03
  -3  -2  -4 1696.87  374.98
  -2  -3  -4 1807.52  389.39
   3   2   4  667.55   75.65
   2   3   4  662.33   85.50
   3   2  -4  934.00  210.48
   2   3  -4 1038.70  223.33
   2   3   4  939.45  201.08
  -2  -3   4  664.16   76.81
  -3  -2   4  612.44   71.60
  -3  -2   5    8.71   12.42
  -2  -3   5   -9.17   14.68
  -2  -3  -5    2.94   14.12
  -3  -2  -5   -0.49   10.89
   3   2   5   17.82    8.41
   2   3   5   -5.16    7.29
   3   2  -5   18.24   14.30
   2   3  -5    9.52   23.26
   2   3   5    5.44   24.31
  -2  -3   5   -4.71    6.45
  -3  -2   5   16.22   14.43
  -3  -2   6   21.81   14.39
  -2  -3   6   28.51   16.49
  -2  -3  -6   25.72   12.51
   3   2   6   -3.18    5.84
   3   2  -6   27.47   14.09
   2   3  -6   51.53   28.22
   2   3   6   -2.47   23.09
  -3  -2   6   12.97    8.93
  -2  -3   7   22.71   19.84
   2   3   7  -11.73   22.31
   3   2  -8   49.20   29.98
   2   3   8   41.09   28.13
  -3  -2  -8   61.61   51.80
  -4  -1   0  274.83   29.98
   4   1   0  343.66   49.54
  -1  -4   0  293.56   83.96
   4   1   0  297.57   59.08
   1   4   0  419.30   81.19
  -4  -1   0  354.79   45.71
  -1  -4   0  253.35   29.78
  -4  -1   1  239.16   30.93
  -4  -1  -1  198.96   17.10
  -1  -4   1  254.80   68.85
  -1  -4  -1  348.36   83.18
   4   1   1  231.96   54.29
   4   1  -1  236.61   61.44
   1   4   1  329.54   68.36
   1   4  -1  291.22   34.55
   1   4   1  289.01   35.78
  -4  -1   1  203.95   28.56
  -4  -1  -1  201.93   31.70
  -1  -4   1  173.92   21.47
  -4  -1   2   20.03   10.25
  -1  -4   2    8.93   10.07
  -4  -1  -2   -0.85    6.08
  -1  -4  -2   -2.63   30.30
   4   1   2   12.00    4.42
   4   1   2    0.31    9.76
   4   1  -2   22.89   16.57
   1   4   2   10.73   11.00
   1   4  -2   23.12   24.10
  -1  -4   2   26.02    7.47
   1   4   2   -1.64   15.54
  -4  -1   2   26.90   23.12
  -1  -4   2   40.93   14.46
  -4  -1  -2   38.13   23.32
  -4  -1   3   82.23   24.23
  -1  -4   3   40.83   42.88
  -4  -1  -3   87.24   29.53
  -1  -4  -3   74.26   49.11
   4   1   3   81.30   28.53
   1   4   3   76.73   22.22
   4   1  -3   52.98   28.57
   1   4  -3  168.18   46.99
   1   4   3  105.55   40.18
  -4  -1   3   59.32   18.38
  -4  -1  -3   54.51   30.40
  -4  -1   4   85.19   29.54
  -1  -4   4   58.12   20.54
  -4  -1  -4   85.19   28.63
  -1  -4  -4   43.80   46.40
   4   1   4   54.55   20.16
   1   4   4   42.56   15.58
   4   1  -4   47.43   25.94
   1   4  -4   65.54   25.53
   1   4   4   65.58   31.09
  -4  -1   4   28.84   14.65
  -4  -1  -4  111.21   57.18
  -4  -1   5    2.93   12.96
  -1  -4   5   29.53   17.79
  -1  -4  -5   35.53   24.13
  -4  -1  -5   50.69   15.60
   4   1   5   46.10   13.80
   1   4   5   14.18    8.07
   4   1  -5   21.03   13.42
   1   4  -5   16.65   23.91
   1   4   5    6.15   21.20
  -4  -1   5   18.17   17.24
  -4  -1  -5   50.60   33.40
  -1  -4   6    8.88   15.06
  -1  -4  -6   27.33   27.29
   4   1   6    8.18    6.40
   4   1  -6   20.36   12.33
   1   4  -6   -4.60   20.86
   1   4   6   -1.07   21.77
  -4  -1   6   12.26   10.92
  -4  -1  -6   -9.31   34.64
  -1  -4   7   -1.50   14.35
  -1  -4  -7    2.03   13.70
   4   1  -7    7.89   20.72
   1   4  -7   -6.36   16.23
   1   4   7   52.79   33.87
  -4  -1  -7    1.67   29.76
  -1  -4   8    0.59   13.00
   4   1  -8   10.88   18.39
   1   4   8    8.68   22.63
  -4  -1  -8   50.89   34.76
  -5   0   0   12.09    6.23
   5   0   0   21.23    8.19
   0  -5   0   24.29   25.07
   5   0   0   38.39   15.14
   0   5   0    0.90   20.25
   0   5   0   26.80   12.17
  -5   0   0   28.89   25.06
  -5   0   1  834.94   54.28
   0  -5   1  717.50  158.35
   0  -5  -1 1190.33  166.62
   5   0   1  940.63   70.59
   5   0  -1 1046.60   73.85
   0   5   1 1118.64   87.05
   0   5  -1 1138.95   82.27
   0   5   1  933.88   64.14
   0  -5   1  770.24   57.41
  -5   0   1  873.14   64.01
  -5   0   2  410.23   36.79
   0  -5   2  449.58  100.93
   0  -5  -2  736.02  238.47
   5   0   2  428.29   99.28
   5   0  -2  428.89   84.35
   0   5   2  589.16  131.10
   0   5  -2  984.30  200.79
   0   5   2  501.32   53.70
   0  -5   2  458.11   36.17
  -5   0   2  462.25   50.80
  -5   0  -2  560.48  114.29
  -5   0   3  466.58   90.66
   0  -5   3  376.81   79.41
   0  -5  -3  791.87  195.52
   5   0   3  483.09  104.83
   5   0  -3  532.61   75.98
   0   5   3  359.65   84.31
   0   5   3  503.17  114.40
  -5   0   3  368.46   72.02
  -5   0  -3  479.16  100.11
   0  -5   4    3.13   15.57
   0  -5  -4  -14.63   23.67
   5   0   4    0.26    9.34
   0   5   4   15.66   11.69
   5   0  -4    6.89    5.51
   0   5  -4   29.67   88.55
   0   5   4   11.50   16.54
  -5   0   4    8.70    6.82
  -5   0  -4    6.32   28.27
   0  -5   5   64.30   25.97
   0  -5  -5  126.50   33.86
   5   0  -5  102.19   24.28
   5   0   5  106.67   33.25
   5   0  -5   64.48   13.00
   0   5  -5  308.69   85.49
   0   5   5  112.10   40.05
  -5   0   5   54.02   22.89
  -5   0  -5  140.25   55.78
   0  -5   6   19.61   11.42
   0  -5  -6   37.44   19.56
   5   0  -6   36.27   32.40
   5   0   6   18.90   10.89
   0   5  -6   -4.36   32.44
   0   5   6   22.15   14.12
  -5   0   6    5.95   17.65
  -5   0  -6  143.47   46.79
   0  -5   7    2.88   16.73
   0  -5  -7   66.86   30.65
   5   0  -7   21.74   30.05
   0   5  -7    7.41   19.94
   0   5   7    5.71   21.98
  -5   0   7   14.13   14.21
  -5   0  -7   34.13   28.71
   6  -1   0    3.53    3.43
   1  -6   0   23.52   37.66
   6  -1   0   14.23    7.80
   6  -1   0   19.06   12.58
  -1   6   0   37.46   32.91
  -1   6   0    4.24    7.24
  -6   1   0    4.29   19.08
   1  -6   1  229.07   71.89
   6  -1   1  291.81   34.94
   1  -6  -1  448.82  150.82
   6  -1  -1  287.50   29.64
   6  -1   1  223.68   46.05
   6  -1  -1  262.66   65.02
  -1   6   1  306.25   43.42
  -1   6  -1  511.37   78.34
  -1   6  -1  321.72   30.48
  -1   6   1  316.55   67.61
  -6   1   1  279.44   41.39
  -6   1  -1  260.96   43.62
   1  -6   2  225.77   72.29
   1  -6  -2  463.33  163.00
   6  -1  -2  293.29   59.35
   6  -1   2  273.29   58.18
   6  -1  -2  289.54   58.52
  -1   6   2  329.49   91.25
  -1   6  -2  383.64   88.50
  -1   6   2  292.02   80.97
   1  -6   2  264.47   49.45
  -6   1   2  322.20   68.51
  -6   1  -2  396.03   92.07
   1  -6   3  122.03   38.79
   1  -6  -3  283.22   75.12
   6  -1  -3  121.81   27.15
   6  -1   3  131.54   40.45
   6  -1  -3  116.85   31.95
  -1   6   3   92.88   25.05
  -1   6  -3  125.10   51.71
  -1   6   3  201.77   61.38
  -6   1   3   86.89   33.58
  -6   1  -3  150.21   37.93
   1  -6   4   23.61   16.12
   1  -6  -4   59.95   40.98
   6  -1  -4  -15.83   15.93
   6  -1   4    9.37    9.61
   6  -1  -4   10.47    6.59
  -1   6   4   -2.10    5.17
  -1   6  -4    9.32   32.29
  -1   6   4   10.18   19.55
  -6   1   4   12.41   18.50
  -6   1  -4   13.78   24.46
   1  -6   5   32.74   21.83
   1  -6  -5   21.10   37.81
   6  -1  -5   28.22   27.63
   6  -1   5   34.81   16.55
   6  -1  -5   23.67   10.73
  -1   6  -5   36.98   42.68
  -1   6   5   26.28   14.43
  -6   1   5    9.06   13.02
  -6   1  -5   30.92   22.89
   1  -6   6   31.24   14.56
   1  -6  -6   45.41   37.23
   6  -1  -6    4.42   23.32
   6  -1   6   -3.87   11.66
  -1   6  -6   42.37   40.69
  -1   6   6   15.20   11.37
  -6   1   6   23.46   13.00
  -6   1  -6   18.12   32.25
   1  -6   7   12.42   15.00
   1  -6  -7    5.39   20.91
   6  -1  -7   16.60   23.38
   6  -1   7   25.79    9.72
  -1   6  -7   68.86   82.36
  -1   6   7   37.94   19.51
  -6   1   7   -4.76   12.09
  -6   1  -7   61.44   35.30
   2  -7   0   65.76   35.49
   7  -2   0    6.35    6.22
   7  -2   0   -1.87   16.77
  -2   7   0   28.32   29.22
  -2   7   0    7.96   11.70
  -7   2   0   11.80   20.75
   7  -2   1   17.64    6.72
   2  -7   1   22.46   24.31
   2  -7  -1   37.97   27.43
   7  -2   1   11.83    8.73
   7  -2  -1   17.05   15.07
   7  -2   1   42.65   20.22
   7  -2  -1   23.08   13.45
  -2   7   1  153.64   53.75
  -2   7  -1   94.46   45.63
  -2   7  -1   38.65   14.83
  -2   7   1   50.50   23.84
  -7   2   1   32.86   19.93
  -7   2  -1   43.50   33.68
   2  -7   2   58.55   23.37
   2  -7  -2  243.40   88.74
   7  -2  -2  126.53   23.77
   7  -2   2  110.40   30.42
   7  -2  -2  119.80   38.69
  -2   7   2  167.02   44.89
  -2   7  -2  183.60   47.98
  -2   7   2  145.97   35.20
  -7   2   2  124.72   44.16
  -7   2  -2  209.92   41.35
   2  -7   3   15.92   17.95
   2  -7  -3  122.29   41.73
   7  -2  -3   27.71   20.04
   7  -2   3   18.92   10.75
   7  -2  -3   10.34   10.20
  -2   7   3   32.42   18.06
  -2   7  -3  109.80   41.12
  -2   7   3   19.93   13.37
  -7   2   3   16.36   19.20
  -7   2  -3   55.97   34.36
   2  -7   4   46.40   22.00
   2  -7  -4  -39.92   38.91
   7  -2  -4    5.54   18.64
   7  -2   4   15.30    6.64
   7  -2  -4   16.52   13.81
  -2   7  -4   38.59   41.33
  -2   7   4   -8.97   18.38
  -7   2   4   -9.59   19.62
  -7   2  -4    9.25   31.04
   2  -7   5  -14.75   22.52
   2  -7  -5  -52.10   48.75
   7  -2  -5   19.98   20.37
   7  -2   5   -1.18   14.43
  -2   7  -5    1.82   30.96
  -2   7   5   39.57   29.79
  -7   2   5   17.92   10.26
  -7   2  -5  -10.30   23.51
   2  -7   6   25.27   16.77
   2  -7  -6   16.58   36.51
   7  -2  -6  -18.29   23.16
   7  -2   6   22.66   12.02
  -2   7  -6   40.11   43.75
  -2   7   6   14.53   17.00
  -7   2   6   13.83   21.93
  -7   2  -6   -5.95   22.02
   2  -7   7   15.52   24.67
   2  -7  -7   14.28   31.41
   7  -2  -7   44.75   22.86
   7  -2   7   15.64   10.12
  -2   7  -7   37.03   34.63
  -2   7   7   -5.48   24.00
  -7   2   7    8.83   16.70
  -7   2  -7   20.17   26.15
   3  -8   0   38.13   45.29
   8  -3   0   13.18   12.48
   8  -3   0   31.72   18.85
  -3   8   0   -1.47   29.36
  -3   8   0   13.00   12.60
  -8   3   0   50.90   37.51
   3  -8   1  138.63   80.36
   3  -8  -1  123.59   63.45
   8  -3  -1   87.35   29.78
   8  -3   1  122.07   41.54
   8  -3  -1  117.77   38.41
  -3   8   1  325.54   92.69
  -3   8  -1  130.27   45.44
  -3   8  -1  118.11   35.86
  -3   8   1  124.98   50.59
  -8   3   1   96.05   40.70
  -8   3  -1  128.11   49.80
   3  -8   2  133.43   36.53
   3  -8  -2  310.35  101.96
   8  -3  -2  120.67   22.15
   8  -3   2  120.69   28.28
   8  -3  -2  100.59   29.42
  -3   8   2  178.66   40.59
  -3   8  -2  208.25   46.83
  -3   8   2  170.95   40.85
  -8   3   2  137.18   37.96
  -8   3  -2  127.84   38.59
   3  -8   3   75.09   33.45
   3  -8  -3   59.77   37.35
   8  -3  -3   75.43   30.21
   8  -3   3   82.58   25.69
   8  -3  -3   64.63   19.02
  -3   8   3   56.98   21.27
  -3   8  -3   72.65   49.49
  -3   8   3   40.21   11.57
  -8   3   3   38.48   32.95
  -8   3  -3   51.90   28.52
   3  -8   4    1.39   11.31
   3  -8  -4   34.84   56.66
   8  -3  -4   17.18   25.55
   8  -3   4    9.27   16.62
   8  -3  -4  -13.34    9.75
  -3   8  -4   16.00   33.97
  -3   8   4  -28.16   25.43
  -8   3   4   14.73   15.23
  -8   3  -4   57.63   32.52
   3  -8   5   30.65   25.73
   3  -8  -5   40.85   32.61
   8  -3  -5  -11.15   19.86
   8  -3   5   25.66   16.40
  -3   8  -5   25.48   34.48
  -3   8   5   23.92   21.08
  -8   3   5   37.86   22.69
  -8   3  -5   23.32   24.67
   3  -8   6   -4.77   19.62
   3  -8  -6   13.42   35.78
   8  -3  -6   13.74   21.17
   8  -3   6    5.48   15.04
  -3   8  -6    5.85   34.97
  -3   8   6   31.13   20.12
  -8   3   6    7.87    7.33
  -8   3  -6   13.57   25.78
   4  -9   0   18.34   39.61
   9  -4   0   11.73   15.98
   9  -4   0   11.96    6.54
  -4   9   0   43.29   35.90
  -4   9   0    4.88   17.41
  -9   4   0  -15.60   19.98
   4  -9   1   31.28   33.38
   4  -9  -1   64.29   58.67
   9  -4  -1    4.68   15.19
   9  -4   1   14.64   17.58
   9  -4  -1  -12.45   16.97
  -4   9   1   28.85   21.68
  -4   9  -1   32.48   23.73
  -4   9  -1   28.93   15.37
  -4   9   1   34.43   20.68
  -9   4   1    5.53   20.09
  -9   4  -1   34.82   18.80
   4  -9   2   21.28   29.17
   4  -9  -2   67.19   46.93
   9  -4  -2    1.58   13.80
   9  -4   2   23.33   13.20
   9  -4  -2   24.43   12.38
  -4   9   2   25.35   32.48
  -4   9  -2   33.20   27.32
  -4   9   2   34.78   22.70
  -9   4   2    3.70   22.51
  -9   4  -2   48.06   25.99
   4  -9   3   46.68   29.95
   4  -9  -3   -1.41   47.55
   9  -4  -3    6.78   14.27
   9  -4   3   -6.60   19.61
   9  -4  -3   18.03   10.57
  -4   9   3   -3.66   12.86
  -4   9  -3   39.85   32.35
  -4   9   3   12.73   16.51
  -9   4   3  -16.54   25.31
  -9   4  -3   13.81   18.58
   4  -9   4   18.42   18.24
   4  -9  -4  -71.37   57.12
   9  -4  -4   35.20   27.87
   9  -4   4   10.00   12.27
  -4   9  -4  -48.73   33.48
  -4   9   4   -5.19   23.29
  -9   4   4   15.35   18.28
  -9   4  -4   23.51   24.69
   4  -9   5   31.28   26.38
   4  -9  -5   63.96   50.20
   9  -4  -5   18.15   18.81
   9  -4   5   -9.75   13.80
  -4   9  -5   15.98   33.36
  -4   9   5   14.95   22.28
  -9   4   5    1.30   17.38
  -9   4  -5   34.73   22.15
   4  -9   6   26.31   11.09
   4  -9  -6   -0.51   37.22
   9  -4  -6   -2.58   20.35
   9  -4   6   -0.94   12.05
  -4   9  -6   64.67   33.58
  -4   9   6  -12.53   26.24
  -9   4   6   16.13   21.25
  -9   4  -6    4.60   11.90
   5 -10   0  213.42   82.25
  10  -5   0   48.95   24.04
  -5  10   0    2.09   24.12
  -5  10   0   31.68   16.67
 -10   5   0   33.25   20.45
   5 -10   1   54.43   37.98
   5 -10  -1   36.47   70.18
  10  -5  -1    9.53   11.77
  10  -5   1    5.91    9.84
  10  -5  -1   -6.81   15.71
  -5  10   1   20.81   26.79
  -5  10  -1   29.98   35.92
  -5  10   1  -20.33   18.97
 -10   5   1   -1.97   21.10
 -10   5  -1    1.61   19.20
   5 -10   2   55.61   41.61
   5 -10  -2   55.49   49.04
  10  -5  -2   24.60   18.42
  10  -5   2   18.56   20.38
  10  -5  -2  -10.39   13.94
  -5  10   2   35.16   56.77
  -5  10  -2   12.68   27.71
  -5  10   2    8.98   10.62
 -10   5   2    1.98   19.98
 -10   5  -2   13.84   20.58
   5 -10   3   25.49   39.76
   5 -10  -3  117.80   59.78
  10  -5  -3   26.47   22.81
  10  -5   3  -21.57   15.05
  10  -5  -3   -5.61   10.79
  -5  10  -3    9.55   32.73
  -5  10   3   -3.76   20.92
 -10   5   3  -13.49   22.86
 -10   5  -3   44.87   26.66
   5 -10   4   15.47   20.84
   5 -10  -4  -12.45   58.66
  10  -5  -4   14.89   23.91
  10  -5   4   14.60   13.63
  -5  10  -4   92.37   52.46
  -5  10   4   24.82   17.05
 -10   5   4    8.00   13.47
 -10   5  -4   -9.51   18.50
   5 -10   5   21.27   20.61
   5 -10  -5  -14.64   55.69
  10  -5  -5    8.22   16.43
  10  -5   5   -9.49   14.50
  -5  10  -5   79.40   51.23
  -5  10   5    6.08   14.94
 -10   5   5   15.54   20.80
 -10   5  -5    8.02   18.51
   6 -11   0   -5.73   46.07
  11  -6   0   12.71   12.29
  -6  11   0  -14.00   25.82
 -11   6   0   14.07   20.80
   6 -11   1   35.34   34.51
   6 -11  -1   43.74   75.04
  11  -6   1   24.89   24.70
  11  -6  -1   15.21   10.01
  -6  11   1    7.91   22.05
  -6  11  -1   -3.02   24.57
  -6  11   1   -1.83   14.45
 -11   6   1    0.11   20.23
 -11   6  -1   10.45   20.75
   6 -11   2   45.64   33.36
   6 -11  -2   44.71   41.67
  11  -6  -2   -3.90   14.17
  11  -6   2   14.52   13.15
  11  -6  -2    9.31   10.28
  -6  11   2   24.19   34.13
  -6  11  -2   54.75   44.00
  -6  11   2   -0.23   19.93
 -11   6   2    3.29   25.03
 -11   6  -2   -7.66   17.79
   6 -11   3    7.89   47.84
   6 -11  -3   94.12   54.25
  11  -6  -3   -0.23   14.97
  11  -6   3    9.18   13.05
  -6  11  -3   -3.70   30.92
  -6  11   3   52.77   29.97
 -11   6   3   28.85   21.86
 -11   6  -3   33.00   22.62
   6 -11   4   13.70   18.62
   6 -11  -4   27.49   24.33
  11  -6  -4   38.72   29.18
  11  -6   4   29.16   18.33
  -6  11  -4  -28.71   31.03
  -6  11   4    1.68    9.14
 -11   6   4  -12.75   20.49
 -11   6  -4   -3.95   16.90
   7 -12   0  -26.51   58.97
  12  -7   0    8.53   14.19
  -7  12   0  -19.24   19.45
 -12   7   0  -10.81   17.50
   7 -12   1  -12.37   58.12
   7 -12  -1   53.67   50.69
  12  -7   1   15.85   11.62
  12  -7  -1   -3.57   12.05
  -7  12   1   -1.01   18.29
  -7  12  -1   22.77   32.27
 -12   7   1   29.40   25.00
 -12   7  -1    7.07   16.65
   7 -12   2    7.69   26.44
   7 -12  -2   32.68   31.31
  12  -7   2   14.81    9.18
  12  -7  -2   18.41   10.24
  -7  12  -2  -14.76   27.32
  -7  12   2   33.57   25.73
 -12   7   2   10.71   18.78
 -12   7  -2    9.64   17.73
   7 -12   3    8.31   27.67
   7 -12  -3  -36.58   52.65
  12  -7   3   -8.66   14.09
  -7  12  -3  -28.10   31.09
  -7  12   3   21.08   25.63
 -12   7   3   13.49   15.26
 -12   7  -3   -7.49   14.58
  -3  -3   0 1799.76  129.67
   3   3   0 2021.91  133.87
  -3  -3   0 1501.66  101.92
  -3  -3   1   12.73   10.86
  -3  -3  -1  -17.79   14.55
   3   3   1   -7.88   17.34
   3   3  -1  -12.82   22.90
  -3  -3   1   15.37   18.15
  -3  -3  -1   -3.49   20.82
  -3  -3   2  274.11   64.35
  -3  -3  -2  253.23   69.02
   3   3   2  227.55   46.51
   3   3  -2  399.54   94.83
  -3  -3   2  219.67   29.59
  -3  -3  -2  322.64   49.64
  -3  -3   3    1.20   10.07
  -3  -3  -3   22.20   23.57
   3   3   3   -4.01   11.07
   3   3  -3   -4.53   18.27
  -3  -3   3   14.63   13.62
  -3  -3  -3    8.71   28.91
  -3  -3   4  355.12  107.09
  -3  -3  -4  704.04  115.35
   3   3   4  247.45   79.62
   3   3  -4  447.90  117.96
  -3  -3   4  234.33   63.81
  -3  -3   5    5.36   14.80
  -3  -3  -5    2.36   17.45
   3   3   5    9.51    6.62
   3   3  -5   11.97   19.76
  -3  -3   5   13.08    7.41
  -3  -3   6   24.95   14.08
   3   3  -6   33.76   15.11
  -3  -3   7   -8.56   14.24
  -4  -2   0  392.13   43.42
  -2  -4   0  388.23  102.52
   4   2   0  507.30  105.04
   2   4   0  650.01  148.34
  -4  -2   0  553.42  111.48
  -2  -4   0  470.97   52.12
  -4  -2   1   16.85    7.11
  -4  -2  -1   25.97   14.22
  -2  -4   1   49.89   24.26
  -2  -4  -1   32.14   29.15
   4   2   1   -1.33   14.01
   4   2  -1   -2.82   22.23
   2   4   1   37.61   18.71
   2   4  -1    2.68   17.30
  -4  -2   1   -2.88   14.64
  -2  -4   1   13.91   20.16
  -4  -2  -1   -7.65   23.46
  -2  -4  -1   27.66   27.49
  -4  -2   2   27.01   14.51
  -2  -4   2   12.99   13.87
  -4  -2  -2   13.40    7.21
  -2  -4  -2   19.36   15.53
   4   2   2    3.61    5.04
   4   2   2   19.49   13.11
   2   4   2    9.03    5.47
   4   2  -2  -12.40   22.15
   2   4  -2   11.53   19.56
  -4  -2   2   44.09   23.15
  -2  -4   2   11.32    9.62
  -4  -2  -2   -9.12   25.97
  -4  -2   3   35.97   12.54
  -2  -4   3   20.36   22.87
  -4  -2  -3   34.63   16.22
  -2  -4  -3   34.95   27.23
   4   2   3   20.26    7.10
   4   2   3   21.17    7.17
   2   4   3   19.94   13.26
   4   2  -3   24.13   21.64
   2   4  -3   24.88   28.06
   2   4   3   44.34   25.70
  -4  -2   3   13.59   20.55
  -2  -4   3   29.66   13.02
  -4  -2  -3   25.28   30.78
  -4  -2   4  159.37   47.76
  -2  -4   4  153.70   46.27
  -4  -2  -4  171.14   54.44
  -2  -4  -4  239.62  104.07
   4   2   4  106.45   36.13
   2   4   4   80.70   33.42
   4   2  -4  184.16   51.26
   2   4  -4  227.35   66.96
   2   4   4  176.83   54.78
  -2  -4   4   60.54   23.13
  -4  -2   4   77.42   25.49
  -4  -2  -4  126.90   55.03
  -4  -2   5   16.85   22.06
  -2  -4   5   -9.08   16.41
  -2  -4  -5   57.36   22.33
   4   2   5    5.12    9.16
   2   4   5   -3.26    7.50
   4   2  -5   -1.51   19.23
   2   4  -5    1.52   24.87
   2   4   5  -10.76   21.94
  -4  -2   5    4.01    6.40
  -4  -2  -5   33.85   37.39
  -4  -2   6    8.30   19.34
  -2  -4   6    3.26   15.56
  -2  -4  -6   -2.67   33.07
   4   2   6    4.21    3.93
   4   2  -6   20.03   16.02
   2   4  -6   25.86   24.62
   2   4   6   -3.51   23.42
  -4  -2  -6    9.79   35.08
  -2  -4   7   -0.64   15.58
   2   4  -7   30.20   16.55
   2   4   7  -16.31   23.71
  -4  -2  -7   38.79   47.25
  -5  -1   0    1.97    5.83
  -1  -5   0   -5.01   35.82
   5   1   0   11.65   11.98
   1   5   0   -7.16   22.55
  -5  -1   0   40.18   22.22
  -1  -5   0   -6.39   18.23
  -5  -1   1  226.66   42.61
  -5  -1  -1  200.51   21.73
  -1  -5   1  204.24   82.35
  -1  -5  -1  327.89  112.79
   5   1   1  116.71   40.35
   5   1   1  295.92   44.56
   5   1  -1  304.12   41.68
   1   5   1  363.42   66.49
   1   5  -1  387.58   51.23
   1   5   1  329.75   43.12
  -5  -1   1  228.28   36.96
  -5  -1  -1  250.07   49.11
  -5  -1   2  251.09   51.81
  -5  -1  -2  213.87   40.53
  -1  -5   2  218.33   65.41
  -1  -5  -2  452.55  152.09
   5   1   2  264.87   56.25
   5   1  -2  288.66   58.80
   1   5   2  319.85   81.86
   1   5  -2  435.42  103.08
   1   5   2  354.29   75.37
  -1  -5   2  175.83   35.45
  -5  -1   2  214.50   47.13
  -5  -1  -2  219.11   56.23
  -5  -1   3  127.07   29.15
  -1  -5   3  129.35   33.84
  -1  -5  -3  216.13   82.12
   5   1   3  107.15   35.46
   1   5   3   88.54   26.61
   5   1  -3  133.49   33.70
   1   5  -3  230.68   59.09
   1   5   3  218.51   47.65
  -5  -1   3   97.43   24.81
  -5  -1  -3  121.37   37.76
  -5  -1   4   14.11   12.78
  -1  -5   4   -5.93   23.12
  -1  -5  -4   49.45   41.01
   5   1   4   -2.96   13.06
   1   5   4    4.07    6.61
   5   1  -4    6.07   19.35
   1   5  -4   38.00   41.88
   1   5   4    3.81   20.75
  -5  -1   4   18.01   18.51
  -5  -1  -4   14.07   35.93
  -5  -1   5    8.79   13.53
  -1  -5   5    8.98   16.44
  -1  -5  -5   50.94   37.46
   5   1   5   47.30   17.73
   5   1  -5   20.65   12.24
   1   5  -5   27.43   25.71
   1   5   5   60.39   35.80
  -5  -1   5   26.09   12.47
  -5  -1  -5   62.58   55.51
  -1  -5   6   15.88   18.33
  -1  -5  -6   42.99   38.80
   5   1  -6   10.84   21.38
   5   1   6    4.45    7.90
   1   5  -6   28.71   22.79
   1   5   6    1.25   26.40
  -5  -1   6   16.09   10.57
  -5  -1  -6   38.35   39.69
  -1  -5   7   15.95   15.77
   5   1  -7   16.70   19.15
   1   5  -7   15.70   19.39
   1   5   7   -4.57   21.42
  -5  -1  -7    5.64   36.13
   0  -6   0  -24.24   39.89
   6   0   0   24.76   21.55
   0   6   0    2.59   25.21
   0   6   0   31.22   14.27
  -6   0   0    1.53   20.79
   0  -6   1  258.91   89.82
   0  -6  -1  427.49  128.85
   6   0   1  134.57   47.64
   6   0   1  245.33   68.36
   6   0  -1  304.96   85.09
   0   6   1  362.11   92.39
   0   6  -1  415.69   89.87
   0   6   1  296.57   64.29
  -6   0   1  255.16   60.28
  -6   0  -1  231.79   57.70
   0  -6   2  197.37   59.92
   0  -6  -2  341.61   97.01
   6   0   2  222.26   78.91
   6   0  -2  236.53   65.04
   0   6   2  270.08   57.56
   0   6  -2  419.31   70.00
   0   6   2  241.93   62.99
   0  -6   2  133.97   27.50
  -6   0   2  227.85   41.21
  -6   0  -2  289.98   59.22
   0  -6   3  142.81   47.78
   0  -6  -3   95.32   51.49
   6   0   3   98.68   33.06
   6   0  -3  108.28   38.96
   0   6   3   46.03   24.92
   0   6  -3  238.00   77.54
   0   6   3  161.42   46.44
  -6   0   3   75.66   24.92
  -6   0  -3  100.01   56.97
   0  -6   4   47.12   21.63
   0  -6  -4   64.77   47.70
   6   0  -4   17.28   21.75
   6   0   4   16.24   17.09
   0   6   4   -2.75    7.17
   6   0  -4   -8.92   12.69
   0   6  -4   -3.52   41.79
   0   6   4  -24.83   21.34
  -6   0   4   36.14   21.45
  -6   0  -4   20.78   26.69
   0  -6   5   25.14   10.27
   0  -6  -5   23.45   20.49
   6   0  -5   80.95   26.74
   6   0   5   13.98   10.69
   6   0  -5   29.75   13.06
   0   6  -5   84.12   63.35
   0   6   5   72.63   27.79
  -6   0   5   -0.21   12.76
  -6   0  -5   44.40   30.34
   0  -6   6   17.41   13.03
   0  -6  -6   62.13   40.20
   6   0  -6   10.18   20.46
   6   0   6   23.83   13.81
   0   6  -6   18.51   27.87
   0   6   6    9.69   14.83
  -6   0   6    9.51    8.58
  -6   0  -6   54.20   42.01
   0  -6   7   13.11   13.84
   0  -6  -7  -29.05   31.49
   6   0  -7   46.93   37.94
   0   6  -7   56.88   24.63
   0   6   7   -0.44   23.40
  -6   0  -7   27.25   28.00
   1  -7   0    8.71   22.58
   7  -1   0   13.87    9.36
   7  -1   0   21.51   20.40
  -1   7   0   27.58   27.94
  -1   7   0   21.00   19.99
  -7   1   0    5.49   20.37
   1  -7   1  -20.58   37.26
   7  -1   1   11.83    4.76
   1  -7  -1   31.54   21.26
   7  -1   1   16.40    5.84
   7  -1  -1    9.08   10.37
   7  -1   1   48.47   23.64
   7  -1  -1   28.15   18.43
  -1   7   1    1.23   20.91
  -1   7  -1   70.92   50.21
  -1   7   1   37.75   15.34
  -7   1   1   38.88   30.00
  -7   1  -1   -5.68   24.39
   1  -7   2   76.26   37.03
   1  -7  -2   71.17   60.02
   7  -1  -2   33.57   17.99
   7  -1   2   86.47   25.96
   7  -1  -2   73.51   30.40
  -1   7   2   54.18   19.81
  -1   7  -2  234.51  139.31
  -1   7   2   32.40   30.50
  -7   1   2   48.71   29.66
  -7   1  -2   53.37   38.77
   1  -7   3   -2.00   29.63
   1  -7  -3  -43.07   51.96
   7  -1  -3   -3.40   12.91
   7  -1   3  -10.17   18.43
   7  -1  -3   -2.45   14.96
  -1   7   3    9.27   11.32
  -1   7  -3   14.62   58.13
  -1   7   3    9.80   11.45
  -7   1   3  -16.79   18.99
  -7   1  -3  147.18   66.31
   1  -7   4   -1.93   22.60
   1  -7  -4    4.75   63.95
   7  -1  -4   11.66   17.51
   7  -1   4   26.23   15.00
   7  -1  -4    3.86    7.51
  -1   7  -4   83.76   84.82
  -1   7   4    8.46   12.25
  -7   1   4    5.39   19.37
  -7   1  -4  -16.31   25.46
   1  -7   5    0.50   10.87
   1  -7  -5   33.08   23.56
   7  -1  -5    1.38   19.48
   7  -1   5    8.25   18.14
   7  -1  -5   14.83    8.45
  -1   7  -5  182.63  133.55
  -1   7   5   -5.91   21.55
  -7   1   5    6.87   11.77
  -7   1  -5   24.41   28.63
   1  -7   6   17.64   12.46
   1  -7  -6   21.08   23.42
   7  -1  -6    3.93   21.09
   7  -1   6   -0.90   13.65
  -1   7  -6   97.09   69.07
  -1   7   6   33.29   20.00
  -7   1   6    9.43    9.08
  -7   1  -6    4.34   24.83
   1  -7   7    3.59   11.32
   1  -7  -7   28.60   31.91
   7  -1  -7   16.89   21.54
   7  -1   7    8.11    6.87
  -1   7  -7   43.98   29.64
  -1   7   7   30.79   21.74
  -7   1   7    2.13    6.86
  -7   1  -7  -10.24   20.68
   2  -8   0   41.86   25.47
   8  -2   0    5.03    6.04
   8  -2   0    8.89   14.91
  -2   8   0   -0.16   48.54
  -2   8   0   14.29   13.15
  -8   2   0   32.10   25.39
   2  -8   1   52.92   45.36
   2  -8  -1   67.12   57.81
   8  -2  -1   82.49   21.47
   8  -2   1   78.94   28.52
   8  -2  -1  114.95   27.28
  -2   8   1  147.39   38.57
  -2   8  -1  175.73   79.83
  -2   8  -1   79.29   21.65
  -2   8   1  114.00   25.56
  -8   2   1   76.93   33.11
  -8   2  -1  176.96   39.80
   2  -8   2   76.33   46.58
   2  -8  -2  104.46   63.15
   8  -2  -2   40.25   17.36
   8  -2   2   53.83   23.47
   8  -2  -2   61.32   24.29
  -2   8   2   16.39   20.75
  -2   8  -2  116.87   49.83
  -2   8   2   47.56   20.39
  -8   2   2   69.53   42.83
  -8   2  -2   32.16   22.30
   2  -8   3    3.47   31.97
   2  -8  -3   98.13   51.88
   8  -2  -3   52.63   24.16
   8  -2   3   25.83    9.16
   8  -2  -3   31.94   11.47
  -2   8   3   28.72   12.08
  -2   8  -3   21.49   33.97
  -2   8   3   28.97   29.43
  -8   2   3   49.95   31.78
  -8   2  -3   93.72   37.91
   2  -8   4    2.54   21.33
   2  -8  -4   53.37   52.39
   8  -2  -4   23.75   25.21
   8  -2   4   12.40   11.35
   8  -2  -4   17.17   10.79
  -2   8  -4  -19.95   37.33
  -2   8   4   -0.90   23.41
  -8   2   4   17.34   29.45
  -8   2  -4   23.56   25.85
   2  -8   5   24.58   23.35
   2  -8  -5   79.62   34.43
   8  -2  -5   35.09   20.46
   8  -2   5   24.80   15.12
  -2   8  -5   56.87   42.30
  -2   8   5   11.83   16.45
  -8   2   5   -4.05   18.57
  -8   2  -5   67.89   58.07
   2  -8   6    8.70   21.15
   2  -8  -6   21.15   30.59
   8  -2  -6   23.08   30.18
   8  -2   6   53.21   21.24
  -2   8  -6  129.21   88.68
  -2   8   6  -25.76   26.19
  -8   2   6  -18.86   15.98
  -8   2  -6   39.92   48.53
   3  -9   0   22.80   41.99
   9  -3   0    6.27    6.97
   9  -3   0   21.38   11.07
  -3   9   0   -9.85   54.94
  -3   9   0   -4.51   12.99
  -9   3   0   -6.21   18.95
   3  -9   1   67.26   41.75
   3  -9  -1    1.66   28.41
   9  -3  -1   11.34   11.90
   9  -3   1   23.50   10.69
   9  -3  -1    6.90   13.25
  -3   9   1   78.62   43.89
  -3   9  -1   81.75   57.48
  -3   9   1   20.37   15.24
  -9   3   1   32.58   23.23
  -9   3  -1   13.28   31.66
   3  -9   2    4.46   32.00
   3  -9  -2   -3.37   60.08
   9  -3  -2   19.13   17.05
   9  -3   2    4.58    7.80
   9  -3  -2   -1.07   16.96
  -3   9   2   41.93   27.81
  -3   9  -2   44.69   42.13
  -3   9   2   -2.23   20.83
  -9   3   2   18.28   22.07
  -9   3  -2   50.67   23.30
   3  -9   3   29.84   16.17
   3  -9  -3   93.16   86.23
   9  -3  -3   -1.40   12.06
   9  -3   3    5.59   13.87
   9  -3  -3   11.69    7.36
  -3   9   3   10.02   11.07
  -3   9  -3   59.75   31.90
  -3   9   3   38.79   19.49
  -9   3   3    9.55   20.84
  -9   3  -3   17.01   22.03
   3  -9   4   33.98   19.40
   3  -9  -4  -35.57   52.20
   9  -3  -4   15.10   17.92
   9  -3   4   -7.78   18.49
   9  -3  -4   10.28    8.92
  -3   9  -4   91.75   62.73
  -3   9   4   -0.28   23.60
  -9   3   4    7.84   23.35
  -9   3  -4   25.25   19.76
   3  -9   5    4.61   11.91
   3  -9  -5   28.94   26.18
   9  -3  -5    6.76   16.02
   9  -3   5   -4.79   17.87
  -3   9  -5   90.43   55.75
  -3   9   5   18.97   19.61
  -9   3   5   24.60   13.72
  -9   3  -5   11.00   16.29
   3  -9   6    8.57   11.39
   3  -9  -6  -15.12   38.64
   9  -3  -6   -9.31   20.24
   9  -3   6   21.00   10.27
  -3   9  -6   -6.61   35.69
  -3   9   6   39.31   29.68
  -9   3   6    6.28    9.13
  -9   3  -6   12.53   23.85
   4 -10   0  108.50   65.10
  10  -4   0   15.43   10.33
  -4  10   0   41.48   30.11
  -4  10   0   29.24   12.41
 -10   4   0   49.60   30.30
   4 -10   1   49.80   33.20
   4 -10  -1  -11.18   32.70
  10  -4  -1   -1.24    8.98
  10  -4   1  -24.46   19.05
  10  -4  -1    6.44   11.78
  -4  10   1    8.29   43.06
  -4  10  -1   33.16   28.95
  -4  10   1   -0.58   11.61
 -10   4   1    2.17   22.28
 -10   4  -1  -20.41   21.14
   4 -10   2   20.92   22.23
   4 -10  -2   21.34   42.12
  10  -4  -2   20.07   16.36
  10  -4   2   27.37   16.66
  10  -4  -2   24.02   15.77
  -4  10   2   15.54   18.71
  -4  10  -2  -43.97   28.53
  -4  10   2   17.19   18.26
 -10   4   2    6.02   21.82
 -10   4  -2   18.44   20.00
   4 -10   3   18.03   23.76
   4 -10  -3   34.96   36.10
  10  -4  -3   26.11   22.01
  10  -4   3  -28.45   18.73
  10  -4  -3    5.58    4.57
  -4  10  -3   33.83   45.76
  -4  10   3  -14.22   23.01
 -10   4   3    4.04   23.38
 -10   4  -3  -34.06   18.63
   4 -10   4   30.93   21.22
   4 -10  -4   58.08   51.23
  10  -4  -4   36.42   23.77
  10  -4   4    3.69    6.21
  -4  10  -4   62.76   51.21
  -4  10   4   19.74   21.79
 -10   4   4    7.44   14.78
 -10   4  -4   15.93   18.05
   4 -10   5  -16.82   23.08
   4 -10  -5   59.45   38.76
  10  -4  -5   36.11   30.59
  10  -4   5   18.52   15.48
  -4  10  -5    0.49   33.87
  -4  10   5    8.75   10.48
 -10   4   5   56.21   24.26
 -10   4  -5  -13.97   14.43
   5 -11   0   39.87   51.93
  11  -5   0   -5.27   18.64
  -5  11   0   55.12   41.99
 -11   5   0   32.84   31.10
   5 -11   1   26.85   37.97
   5 -11  -1   38.07   47.67
  11  -5   1   -7.69   21.24
  11  -5  -1   -3.54   10.88
  -5  11   1    4.84   47.84
  -5  11  -1   37.83   27.28
  -5  11   1    5.66   12.83
 -11   5   1   39.03   33.56
 -11   5  -1   19.72   20.42
   5 -11   2   25.78   33.38
   5 -11  -2   42.89   43.88
  11  -5  -2   11.78   12.02
  11  -5   2   14.12   26.03
  11  -5  -2   12.95   16.50
  -5  11   2    0.83   19.80
  -5  11  -2   56.06   30.03
  -5  11   2   19.98   13.90
 -11   5   2   -9.06   20.60
 -11   5  -2   15.38   21.33
   5 -11   3   14.00   19.16
   5 -11  -3   58.08   29.01
  11  -5  -3   19.40   13.53
  11  -5   3   -2.48   18.39
  11  -5  -3   31.22   10.40
  -5  11  -3   19.35   44.60
  -5  11   3    3.83   14.42
 -11   5   3    1.30   23.29
 -11   5  -3   29.47   20.26
   5 -11   4   36.42   26.54
   5 -11  -4   27.21   28.52
  11  -5  -4   28.51   20.42
  11  -5   4   14.76   16.89
  -5  11  -4   23.02   31.97
  -5  11   4   24.01   20.34
 -11   5   4   24.89   20.62
 -11   5  -4   -5.24   15.30
   6 -12   0   36.12   57.20
  12  -6   0    9.48   19.61
  -6  12   0   11.04   23.71
 -12   6   0   -3.27   19.40
   6 -12   1   -0.80   36.53
   6 -12  -1   89.34   70.87
  12  -6   1    1.11    8.16
  12  -6  -1   -2.76    9.89
  -6  12   1   43.75   38.64
  -6  12  -1  -16.96   24.75
 -12   6   1   -8.74   17.61
 -12   6  -1   -6.48   19.53
   6 -12   2   49.23   29.03
   6 -12  -2   83.41   57.18
  12  -6   2   -1.61   17.67
  12  -6  -2    5.51   11.08
  -6  12  -2   79.26   39.94
  -6  12   2   14.36    8.49
 -12   6   2   45.75   27.38
 -12   6  -2   -8.16   17.85
   6 -12   3   23.68   26.95
   6 -12  -3  -12.93   62.18
  12  -6   3    4.10   12.99
  -6  12  -3   33.87   30.62
  -6  12   3    1.09    5.63
 -12   6   3   18.04   11.31
 -12   6  -3    0.14   17.29
  -4  -3   0   25.19   10.75
  -3  -4   0   39.03   27.22
   4   3   0   58.35   21.58
   3   4   0   34.46   37.07
  -4  -3   0   52.31   37.90
  -3  -4   0   34.77   26.80
  -4  -3   1   26.20   14.78
  -3  -4   1   -6.23   17.85
  -4  -3  -1   16.90   10.20
  -3  -4  -1   27.60   12.74
   4   3   1   17.35   12.77
   3   4   1   46.85   28.11
   4   3  -1   43.55   32.99
   3   4  -1   46.51   24.23
  -4  -3   1   19.06   18.52
  -3  -4   1   11.04   30.39
  -4  -3  -1   58.51   28.58
  -3  -4  -1   58.32   50.03
  -4  -3   2   36.70   17.93
  -3  -4   2   44.90   22.45
  -4  -3  -2   47.81   21.12
  -3  -4  -2   47.48   32.06
   4   3   2   31.65   14.42
   3   4   2   24.26   14.59
   4   3  -2   75.63   23.64
   3   4  -2   38.33   21.40
  -4  -3   2   20.64   15.76
  -3  -4   2   25.91   19.52
  -4  -3  -2   91.48   43.49
  -3  -4  -2   22.89   27.22
  -4  -3   3   18.00   14.11
  -3  -4   3   -8.21   19.04
  -4  -3  -3   19.52   15.04
  -3  -4  -3   33.00   26.86
   4   3   3   13.33   13.10
   3   4   3   -3.35   11.66
   4   3  -3   33.07   23.98
   3   4  -3   32.84   38.55
  -4  -3   3   16.24   14.87
  -3  -4   3   -2.75    9.50
  -4  -3  -3   45.29   35.56
  -3  -4  -3   -7.49   29.37
  -4  -3   4   -0.65   13.68
  -3  -4   4  -17.50   16.73
  -3  -4  -4   11.57   30.94
   4   3   4   10.17    7.98
   3   4   4   -8.52   12.67
   4   3  -4   -6.45   25.10
   3   4  -4   45.22   13.91
  -3  -4   4   13.81    9.28
  -4  -3   4   15.86   12.07
  -4  -3  -4   66.85   46.41
  -3  -4  -4  -59.54   34.54
  -4  -3   5   10.39   19.79
  -3  -4   5   -1.23   17.42
   4   3   5   19.87    9.87
   3   4   5   -7.26    9.55
   4   3  -5    6.68   11.15
   3   4  -5  -14.34   27.18
  -4  -3  -5  -28.43   39.40
  -4  -3   6   26.39   25.65
  -3  -4   6    4.59   16.76
   4   3  -6   40.09   20.05
   3   4  -6   20.10   16.60
  -4  -3  -6   51.14   44.14
  -4  -3   7  -10.46   14.88
  -3  -4   7   10.02   14.83
  -4  -3  -7   43.45   46.15
  -5  -2   0    7.20    7.97
  -2  -5   0  -16.78   27.96
   5   2   0   -6.38   19.43
   2   5   0   26.76   16.30
  -5  -2   0   52.86   44.47
  -2  -5   0   -5.40   21.40
  -5  -2   1   27.97   13.14
  -5  -2  -1   23.42    8.88
  -2  -5   1   33.53   16.18
  -2  -5  -1   36.47   25.33
   5   2   1   43.13   22.22
   5   2  -1   45.01   24.97
   2   5   1   42.79   24.76
   2   5  -1   24.85   26.96
  -5  -2   1   -4.34   17.88
  -5  -2  -1   23.22   30.29
  -2  -5   1    8.35   17.50
  -2  -5  -1   58.74   23.91
  -5  -2   2  127.87   27.43
  -2  -5   2   98.30   28.51
  -5  -2  -2   65.80   20.76
   5   2   2  126.42   27.83
   2   5   2  102.78   30.15
   5   2  -2  121.94   44.89
  -2  -5   2  101.99   21.62
  -5  -2  -2  143.95   48.65
  -5  -2   3   20.22   11.67
  -2  -5   3   29.67   22.29
  -2  -5  -3  -50.31   39.55
   5   2   3   19.03   20.55
   2   5   3   27.08   15.95
   5   2  -3   36.55   29.43
   2   5  -3   61.53   26.30
   2   5   3   37.29   21.87
  -5  -2   3   68.26   30.78
  -2  -5   3   13.09    9.10
  -5  -2  -3   43.43   36.49
  -5  -2   4   -5.20   11.60
  -2  -5   4   12.00   22.66
  -2  -5  -4   25.56   25.55
   5   2   4   -1.42    5.15
   2   5   4    9.62    7.52
   5   2  -4    6.60   12.30
   2   5  -4    3.14   27.39
   2   5   4   37.34   32.11
  -5  -2   4    6.17   10.96
  -5  -2  -4   50.04   52.64
  -5  -2   5  -11.40   14.65
  -2  -5   5   -5.15   16.63
  -2  -5  -5    6.07   39.37
   5   2   5    5.40    6.29
   5   2  -5   -3.09   17.11
   2   5  -5   -4.92   27.87
   2   5   5  -22.47   21.31
  -5  -2   5    2.86    5.86
  -5  -2  -5  -13.05   39.41
  -5  -2   6   11.08   14.64
  -2  -5   6   11.22    9.37
   5   2   6    5.69    7.53
   5   2  -6   22.62   19.28
   2   5  -6  -10.46   23.69
   2   5   6  -13.81   22.81
  -5  -2  -6  -26.63   43.90
  -2  -5   7   -4.97   15.20
   5   2  -7   -0.76   17.74
   2   5  -7   23.18   12.52
   2   5   7    6.40   21.39
  -5  -2  -7   27.95   35.51
  -6  -1   0    0.97    4.65
  -1  -6   0   56.71   39.82
   6   1   0   11.27   11.45
   1   6   0   13.63   15.41
  -6  -1   0    3.64   23.55
  -1  -6   0   -9.97   16.84
  -6  -1   1    3.24    7.03
  -6  -1  -1    4.58    2.65
  -1  -6   1   13.72   12.83
  -1  -6  -1   -4.39   36.58
   6   1   1   -0.91    4.52
   6   1   1    1.29   17.50
   6   1  -1   41.21   20.79
   1   6   1    6.14   26.90
   1   6  -1   70.03   32.94
  -6  -1   1   12.58   22.40
  -6  -1  -1   59.54   35.44
  -1  -6   1    8.63   14.35
  -6  -1   2   46.36   17.34
  -1  -6   2   37.55   25.32
  -1  -6  -2   95.92   66.48
   6   1   2   61.64   30.08
   6   1  -2   13.11   18.83
   1   6   2   84.67   30.75
   1   6  -2  155.45   65.87
   1   6   2   31.88   18.99
  -6  -1   2   55.68   24.79
  -1  -6   2   24.62   15.47
  -6  -1  -2  150.38   72.39
  -6  -1   3   -1.70    9.88
  -1  -6   3    6.51   26.01
  -1  -6  -3   28.12   30.19
   6   1   3   -5.05   16.70
   6   1  -3  -20.41   17.73
   1   6   3   18.62   10.99
   1   6  -3    4.95   28.50
   1   6   3   41.89   30.50
  -6  -1   3    4.07   16.91
  -6  -1  -3   21.05   27.76
  -6  -1   4   -0.42   10.90
  -1  -6   4   33.25   16.67
  -1  -6  -4   51.73   35.00
   6   1   4   -3.19   16.32
   1   6   4    1.58    6.19
   6   1  -4   12.54    8.48
   1   6  -4    1.63   29.12
   1   6   4  -16.37   24.11
  -6  -1   4   -0.88   11.54
  -6  -1  -4   30.09   32.06
  -1  -6   5   23.64   13.64
  -1  -6  -5   45.41   51.19
   6   1   5   15.56   10.45
   6   1  -5   29.19   14.68
   1   6  -5   10.43   27.89
   1   6   5  -10.94   21.23
  -6  -1   5    2.06   12.88
  -6  -1  -5   -3.68   35.00
  -1  -6   6   -9.82   17.87
  -1  -6  -6   -5.45   30.20
   6   1  -6   -1.70   19.09
   6   1   6    5.27   12.48
   1   6  -6   -1.62   23.98
   1   6   6    4.91   23.67
  -6  -1   6    3.80    7.45
  -6  -1  -6   -8.75   40.13
  -1  -6   7   16.50   16.88
   6   1  -7    7.07   20.00
   1   6  -7  -12.43   22.33
   1   6   7    8.87   24.93
  -6  -1  -7   57.27   42.00
   0  -7   0  110.91   54.93
   7   0   0   51.48   14.72
   7   0   0   42.58   16.71
   0   7   0   75.77   33.34
  -7   0   0   52.31   32.60
   0  -7   1    8.94   16.79
   0  -7  -1   48.63   48.95
   7   0   1   29.93   10.42
   7   0  -1   17.61   13.47
   7   0   1   12.19   21.85
   7   0  -1    8.34   21.40
   0   7   1   19.40   18.75
   0   7  -1   13.11   27.90
   0   7   1  -14.71   16.42
  -7   0   1   17.08   21.36
  -7   0  -1   12.74   27.27
   0  -7   1   13.12   15.23
   0  -7   2   -1.32   19.76
   0  -7  -2  -72.20   52.69
   7   0  -2    0.71   10.19
   7   0   2    5.16    7.92
   7   0  -2    5.63    8.25
   0   7   2   -9.34   16.55
   0   7  -2   12.84   30.49
   0   7   2    2.15   20.36
  -7   0   2   -2.77   18.96
  -7   0  -2  -17.71   38.96
   0  -7   2    3.40   11.12
   0  -7   3   29.40   18.12
   0  -7  -3   61.21   35.97
   7   0  -3   16.71   20.26
   7   0   3    5.87   19.33
   7   0  -3   -7.14   10.21
   0   7   3    7.01    6.35
   0   7  -3  -23.84   29.16
   0   7   3    6.15   19.92
  -7   0   3   -0.21   20.80
  -7   0  -3   35.58   32.46
   0  -7   4   34.78   17.48
   0  -7  -4   14.29   35.27
   7   0  -4   51.55   22.41
   7   0   4   19.20   12.27
   7   0  -4   35.21   14.21
   0   7   4   13.31    7.76
   0   7  -4   33.17   32.40
   0   7   4    8.13   23.30
  -7   0   4   12.15   21.59
  -7   0  -4   11.50   32.43
   0  -7   5   -6.44   16.35
   0  -7  -5  118.90   52.43
   7   0  -5   -1.23   18.21
   7   0   5   10.48   15.32
   7   0  -5    8.01    8.77
   0   7  -5   44.10   43.08
   0   7   5   13.79   26.13
  -7   0   5    9.09    6.71
  -7   0  -5   -5.77   30.02
   0  -7   6   -6.85   19.30
   0  -7  -6   65.18   32.97
   7   0  -6    8.44   20.93
   7   0   6   -3.44    9.22
   0   7  -6    3.64   28.42
   0   7   6  -14.74   26.23
  -7   0   6   16.79    9.60
  -7   0  -6   32.90   43.09
   1  -8   0   51.09   48.25
   8  -1   0   75.67   12.36
   8  -1   0   47.73   18.97
  -1   8   0  156.46   37.92
  -1   8   0  133.62   25.86
  -8   1   0   60.96   26.59
   1  -8   1   26.35   27.19
   1  -8  -1  -20.61   58.56
   8  -1  -1    4.48    8.51
   8  -1   1   24.48   14.81
   8  -1  -1   -3.61   20.00
  -1   8   1  -39.83   22.73
  -1   8  -1   41.98   31.25
  -1   8   1   28.81   25.60
  -8   1   1   13.64   22.85
  -8   1  -1   54.76   38.64
   1  -8   1    5.86   15.35
   1  -8   2  -44.78   31.14
   1  -8  -2   74.27   25.97
   8  -1  -2    1.73   11.65
   8  -1   2   -1.92   17.27
   8  -1  -2   -3.68   20.95
  -1   8   2   -5.43   14.27
  -1   8  -2    1.94   37.68
  -1   8   2    0.37   13.50
  -8   1   2   13.42   21.89
  -8   1  -2   22.46   35.18
   1  -8   3   34.76   21.10
   1  -8  -3   -5.17   51.87
   8  -1  -3   12.88   12.77
   8  -1   3   32.63   11.77
   8  -1  -3   15.15   20.06
  -1   8   3   28.52   12.20
  -1   8  -3   23.26   46.07
  -1   8   3   21.82   22.19
  -8   1   3   -0.83   20.80
  -8   1  -3   14.15   27.06
   1  -8   4   70.60   24.74
   1  -8  -4   84.15   64.00
   8  -1  -4   51.43   22.90
   8  -1   4   28.94   22.69
   8  -1  -4   32.15   14.62
  -1   8  -4  115.06   63.47
  -1   8   4   66.89   29.60
  -8   1   4   -4.52   17.99
  -8   1  -4   26.64   42.10
   1  -8   5   23.94   16.77
   1  -8  -5   11.56   32.50
   8  -1  -5   -5.49   17.18
   8  -1   5   12.63   16.81
  -1   8  -5   75.08   60.46
  -1   8   5  -22.20   23.51
  -8   1   5   11.78    9.08
  -8   1  -5    1.53   30.92
   1  -8   6   30.29   19.30
   1  -8  -6   28.19   25.52
   8  -1  -6   43.18   27.40
   8  -1   6    9.03   15.06
  -1   8  -6   -2.57   31.94
  -1   8   6  -11.61   23.53
  -8   1   6    0.31    8.51
  -8   1  -6   18.13   31.97
   2  -9   0   88.22   40.87
   9  -2   0    3.23   14.57
  -2   9   0   -0.87   25.68
  -2   9   0   41.06   23.57
  -9   2   0    3.99   23.41
   2  -9   1   26.39   26.10
   2  -9  -1  -19.14   64.04
   9  -2  -1    5.07    7.54
   9  -2   1   -1.02   21.59
   9  -2  -1   12.25   14.88
  -2   9   1   15.46   21.36
  -2   9  -1   57.33   44.46
  -2   9   1   19.24   12.96
  -9   2   1   42.76   38.10
  -9   2  -1   -0.54   23.66
   2  -9   2   39.90   33.43
   2  -9  -2   -5.91   65.87
   9  -2  -2   14.48   13.51
   9  -2   2   20.39   17.36
   9  -2  -2   -2.23   11.79
  -2   9   2   39.10   27.38
  -2   9  -2   12.31   66.29
  -2   9   2   15.81   14.35
  -9   2   2    3.63   21.84
  -9   2  -2   -2.54   23.19
   2  -9   3   31.80   25.00
   2  -9  -3  -39.90   56.81
   9  -2  -3    2.09   12.57
   9  -2   3   -5.95   19.72
   9  -2  -3    8.95    7.33
  -2   9   3   62.84   15.94
  -2   9  -3   43.22  100.24
  -2   9   3   39.72   23.97
  -9   2   3    5.36   21.05
  -9   2  -3    3.74   21.83
   2  -9   4   27.98   30.99
   2  -9  -4   72.31   35.27
   9  -2  -4   27.30   29.31
   9  -2   4    7.19    8.83
   9  -2  -4   35.97   14.44
  -2   9  -4  133.40  124.68
  -2   9   4   56.93   22.52
  -9   2   4    5.87   21.04
  -9   2  -4    6.34   22.30
   2  -9   5   52.51   20.22
   2  -9  -5    8.67   59.14
   9  -2  -5  -16.54   15.05
   9  -2   5   -6.28   17.27
  -2   9  -5  -17.13   71.38
  -2   9   5   26.56   18.46
  -9   2   5   33.18   22.45
  -9   2  -5   29.19   22.60
   2  -9   6   -0.98   10.40
   2  -9  -6  -13.53   50.69
   9  -2  -6   19.78   18.45
   9  -2   6   10.14   11.46
  -2   9  -6   15.97   56.86
  -2   9   6   16.38   15.74
  -9   2   6  -10.64   16.12
  -9   2  -6  -25.04   19.24
   3 -10   0   30.93   47.69
  10  -3   0    7.43   11.75
  -3  10   0   47.92   49.22
  -3  10   0   15.75   14.34
 -10   3   0   41.37   29.51
   3 -10   1   17.62   35.03
   3 -10  -1  -10.39   65.78
  10  -3   1   -6.93   21.44
  10  -3  -1    3.96   17.93
  -3  10   1    9.42   21.13
  -3  10  -1   76.50   89.22
  -3  10   1    4.20   10.04
 -10   3   1   37.78   32.31
 -10   3  -1   26.92   31.62
   3 -10   2   63.68   37.53
   3 -10  -2   24.29   49.25
  10  -3  -2   29.93   18.52
  10  -3   2   27.43   21.69
  10  -3  -2   18.39   13.04
  -3  10   2    9.87   21.57
  -3  10  -2 -100.79   59.36
  -3  10   2   23.16   17.60
 -10   3   2   27.26   25.37
 -10   3  -2   66.58   40.35
   3 -10   3   37.56   31.61
   3 -10  -3  -25.61   63.55
  10  -3  -3   -4.61   12.62
  10  -3   3   11.05   15.65
  10  -3  -3   13.29   17.01
  -3  10  -3   69.14   46.09
  -3  10   3   -5.70   20.89
 -10   3   3   19.07   31.62
 -10   3  -3    0.08   22.77
   3 -10   4    9.21   16.58
   3 -10  -4    2.29   62.77
  10  -3  -4   13.87   14.93
  10  -3   4    7.02   14.31
  10  -3  -4    9.22    9.10
  -3  10  -4   54.48   75.63
  -3  10   4   -5.61   12.42
 -10   3   4   16.49   22.50
 -10   3  -4   37.10   20.22
   3 -10   5   11.11   19.17
   3 -10  -5   50.22   58.04
  10  -3  -5   -3.67   14.88
  10  -3   5  -11.67   18.09
  -3  10  -5  -41.82   63.77
  -3  10   5   34.74   20.34
 -10   3   5    2.96   24.53
 -10   3  -5  -16.83   19.33
   4 -11   0   58.18   44.49
  11  -4   0    4.89    8.17
  -4  11   0  -63.16   47.49
 -11   4   0    3.60   25.25
   4 -11   1   83.83   52.76
   4 -11  -1   35.94   50.21
  11  -4   1  -12.79   22.02
  11  -4  -1    2.84   10.64
  -4  11   1   19.38   26.69
  -4  11  -1  -41.73   56.11
  -4  11   1   -1.10   14.85
 -11   4   1    8.14   22.94
 -11   4  -1   26.79   21.97
   4 -11   2   32.48   26.46
   4 -11  -2   46.56   36.87
  11  -4   2   21.34   25.49
  11  -4  -2    7.73   12.74
  -4  11   2    3.56   17.72
  -4  11  -2    8.37   37.30
  -4  11   2   60.73   18.11
 -11   4   2   49.85   36.20
 -11   4  -2   17.88   29.31
   4 -11   3   33.64   23.29
   4 -11  -3   50.01   30.62
  11  -4  -3   -4.57   12.40
  11  -4   3    3.35   11.23
  11  -4  -3    9.68   10.97
  -4  11  -3   63.64   52.99
  -4  11   3   27.37   22.75
 -11   4   3   -3.53   21.00
 -11   4  -3    3.31   20.62
   4 -11   4   10.65   26.05
   4 -11  -4   55.80   41.77
  11  -4  -4  -11.21   14.08
  11  -4   4   -7.14   19.27
  -4  11  -4  -38.48   36.78
  -4  11   4  -17.43   20.54
 -11   4   4   19.64   12.40
 -11   4  -4   15.20   20.03
   5 -12   0  -42.39   60.25
  12  -5   0   10.34   17.14
  -5  12   0  -38.28   47.36
 -12   5   0   26.69   28.08
   5 -12   1   76.48   32.98
   5 -12  -1   98.03   61.72
  12  -5   1   21.51   17.94
  12  -5  -1   21.97   26.71
  -5  12   1   53.78   23.87
  -5  12  -1   60.96   38.20
 -12   5   1   13.48   20.42
 -12   5  -1   -4.26   18.69
   5 -12   2   83.91   41.32
   5 -12  -2   89.46   74.48
  12  -5   2   15.28   16.33
  12  -5  -2   -9.96   13.57
  -5  12  -2   53.54   34.10
  -5  12   2   43.44   14.64
 -12   5   2   32.51   19.96
 -12   5  -2   -0.76   19.24
   5 -12   3    9.96   26.24
   5 -12  -3   90.20   72.66
  12  -5   3   25.03   11.51
  12  -5  -3    4.91   13.61
  -5  12  -3   59.65   50.05
  -5  12   3   15.53   11.97
 -12   5   3   10.83   21.89
 -12   5  -3   20.15   16.01
  -4  -4   0   16.26   17.23
   4   4   0   38.19   22.25
  -4  -4   0   20.92   23.91
  -4  -4   1   -2.82   16.64
  -4  -4  -1   25.65   17.69
   4   4   1   25.36   15.78
   4   4  -1   40.16   21.19
  -4  -4   1   21.88   18.12
  -4  -4  -1  -17.25   28.58
  -4  -4   2  164.79   39.27
  -4  -4  -2   74.28   24.98
   4   4   2  112.27   28.41
   4   4  -2  117.43   41.46
  -4  -4   2   97.40   31.58
  -4  -4  -2  118.92   43.13
  -4  -4   3   -3.17   16.09
  -4  -4  -3   14.52   12.85
   4   4   3   15.33   12.42
   4   4  -3   51.11   19.28
  -4  -4   3   -3.45    9.48
  -4  -4  -3   17.43   30.70
  -4  -4   4   -1.91   17.98
   4   4   4   -5.03   12.40
   4   4  -4  -13.94   25.48
  -4  -4   4    3.00    6.00
  -4  -4  -4  -16.12   38.60
  -4  -4   5   28.55   10.03
   4   4   5    8.45    7.29
   4   4  -5   16.89   20.76
  -4  -4  -5   17.61   38.90
  -4  -4   6    0.02   13.38
   4   4  -6   46.76   27.80
  -4  -4  -6  113.12   49.51
  -5  -3   0   28.23   15.89
  -3  -5   0   27.13   14.86
   5   3   0   38.40   22.96
   3   5   0   80.16   37.74
  -5  -3   0  -10.16   39.22
  -3  -5   0   22.58   18.69
  -5  -3   1  104.41   40.54
  -5  -3  -1   74.38   27.35
  -3  -5   1   64.45   29.54
  -3  -5  -1  105.43   44.10
   5   3   1  139.14   52.72
   5   3  -1  125.00   44.81
   3   5   1  155.12   47.88
   3   5  -1  191.17   61.25
  -5  -3   1   92.72   32.19
  -3  -5   1  118.01   54.24
  -5  -3  -1  128.99   51.95
  -5  -3   2   97.15   35.43
  -3  -5   2  102.90   25.19
  -5  -3  -2   85.49   33.38
  -3  -5  -2  160.00   54.67
   5   3   2   89.59   23.42
   3   5   2  124.65   32.43
   5   3  -2  181.33   42.15
   3   5  -2  182.01   79.41
  -5  -3   2   48.10   15.25
  -3  -5   2   45.44   26.36
  -5  -3  -2  131.66   43.03
  -3  -5  -2   34.63   23.69
  -5  -3   3   50.99   24.11
  -3  -5   3   55.70   27.38
  -3  -5  -3   52.74   36.34
   5   3   3   41.42   22.22
   3   5   3   23.28   12.16
   5   3  -3   83.28   35.08
   3   5  -3   31.59   19.66
  -5  -3   3   15.89   14.11
  -3  -5   3   13.48   10.68
  -5  -3  -3   33.83   45.51
  -3  -5  -3   13.48   32.52
  -5  -3   4   41.38   20.65
  -3  -5   4    6.41   10.38
  -3  -5  -4   35.46   17.76
   5   3   4   18.02    6.86
   3   5   4    4.72    8.52
   5   3  -4    2.69   10.26
   3   5  -4   40.95   20.62
  -5  -3   4    9.62   11.96
  -5  -3  -4   39.73   51.08
  -3  -5  -4    8.52   38.50
  -5  -3   5    6.52   14.51
  -3  -5   5   14.14   15.40
   5   3   5   12.29    9.44
   3   5   5   -6.47    9.65
   5   3  -5   30.09   20.10
   3   5  -5   30.14   27.45
  -5  -3  -5   16.81   45.32
  -3  -5  -5  -13.24   35.02
  -5  -3   6    9.08   13.94
  -3  -5   6    3.41   18.10
   5   3  -6   22.33   15.70
   3   5  -6   38.06   24.19
  -5  -3  -6   42.02   41.74
  -3  -5  -6   -0.15   36.93
  -6  -2   0   -1.95    5.94
  -2  -6   0   39.49   31.47
   6   2   0   11.08   16.45
   2   6   0   51.28   38.10
  -6  -2   0  -12.99   23.80
  -2  -6   0   21.49   20.84
  -6  -2   1   70.82   17.03
  -6  -2  -1   52.53   13.88
  -2  -6   1   60.88   29.34
  -2  -6  -1   89.02   39.35
   6   2   1   91.54   29.37
   6   2  -1   80.05   31.69
   2   6   1   75.47   27.49
   2   6  -1  169.12   36.66
  -6  -2   1   78.98   33.23
  -6  -2  -1  114.28   71.63
  -2  -6   1   55.02   33.59
  -2  -6  -1  109.60   37.20
  -6  -2   2   49.54   18.36
  -2  -6   2   49.88   29.42
  -2  -6  -2  -11.11   34.91
   6   2   2   30.55   16.81
   6   2  -2   47.72   23.19
   2   6   2   43.87   24.24
   2   6  -2  118.77   28.94
  -6  -2   2   21.75   23.91
  -2  -6   2   31.98   16.65
  -6  -2  -2    0.66   31.57
  -2  -6  -2   99.55   41.69
  -6  -2   3   37.69   15.83
  -2  -6   3   12.05   13.05
  -2  -6  -3   26.60   22.70
   6   2   3   15.29   17.54
   2   6   3   35.82   14.16
   6   2  -3   47.16   25.74
   2   6  -3   42.39   15.08
  -6  -2   3   51.72   31.00
  -6  -2  -3   15.48   29.20
  -6  -2   4   21.79   18.61
  -2  -6   4   33.49   17.04
  -2  -6  -4   37.58   30.30
   6   2   4    1.23    7.62
   2   6   4   -0.96    4.26
   6   2  -4   16.16   11.59
   2   6  -4   33.42   19.52
   2   6   4    5.35   21.41
  -6  -2   4   19.87   15.10
  -6  -2  -4   -3.13   35.11
  -6  -2   5   -5.14   13.17
  -2  -6   5   56.03   22.05
  -2  -6  -5   17.53   27.88
   6   2   5    0.45    7.89
   6   2  -5   15.29   14.98
   2   6  -5   40.13   14.80
   2   6   5   36.03   25.48
  -6  -2   5    8.38    9.13
  -6  -2  -5   19.11   40.59
  -2  -6   6   -4.66   17.79
   6   2   6   19.87   10.50
   6   2  -6   -5.52   13.01
   2   6  -6  -14.96   22.15
   2   6   6   -6.55   21.06
  -6  -2  -6  -13.16   33.90
  -1  -7   0  103.76   35.77
   7   1   0  133.92   24.48
   1   7   0  136.56   30.93
  -7  -1   0   59.21   35.72
  -1  -7   0   91.68   35.26
  -7  -1   1   13.43    6.81
  -1  -7   1   19.84   20.54
  -1  -7  -1   19.86   24.91
   7   1   1   34.88   19.04
   7   1  -1   33.30   21.43
   1   7   1   23.44   15.39
   1   7  -1   30.74   22.27
  -7  -1   1   25.63   18.26
  -7  -1  -1    6.13   28.41
  -1  -7   1    0.84   13.64
  -1  -7  -1   10.58   20.60
  -7  -1   2   15.85   13.52
  -1  -7   2   -0.83   28.14
  -1  -7  -2   79.65   46.69
   7   1   2   14.00    9.24
   7   1  -2   19.71   19.85
   1   7   2    5.68   18.69
   1   7  -2   12.81   27.76
   1   7   2   -7.09   20.32
  -7  -1   2   26.44   20.68
  -1  -7   2    7.61    7.82
  -7  -1  -2  -25.87   41.76
  -7  -1   3    3.64    9.73
  -1  -7   3   11.18   19.51
  -1  -7  -3   16.04   58.36
   7   1   3   15.68   11.80
   7   1  -3  -11.34   17.32
   1   7   3   23.84    8.44
   1   7  -3   30.07   31.93
   1   7   3   35.04   29.78
  -7  -1   3   15.15   18.79
  -7  -1  -3    4.44   32.49
  -1  -7   4   85.83   37.36
  -1  -7  -4   70.75   46.26
   7   1   4   61.98   29.83
   1   7   4   30.93   13.67
   7   1  -4   19.16   16.32
   1   7  -4   47.59   29.86
   1   7   4  -12.08   24.39
  -7  -1   4   18.64   12.95
  -7  -1  -4   38.97   33.01
  -1  -7   5   42.15   26.64
  -1  -7  -5    2.15   27.82
   7   1  -5    4.00   16.17
   7   1   5   16.31   15.07
   7   1  -5   -2.51   16.76
   1   7  -5    0.29   31.15
   1   7   5    3.38   26.62
  -7  -1   5  -11.45   12.01
  -7  -1  -5   -4.38   36.17
  -1  -7   6   17.66   11.46
   7   1  -6    4.47   17.01
   7   1   6   -3.44    5.14
   1   7  -6    8.01   27.91
   1   7   6   24.37   25.18
  -7  -1  -6   51.61   45.24
   0  -8   0   97.77   42.45
   8   0   0   77.78   30.35
   0   8   0  161.83   48.90
  -8   0   0   85.31   42.49
   0  -8   0   70.94   29.09
   0  -8   1   58.89   22.84
   0  -8  -1   42.28   19.74
   8   0  -1   -1.69    6.76
   8   0   1   10.87   19.80
   8   0  -1   22.10   14.59
   0   8   1    3.84   13.42
   0   8  -1   -7.68   29.65
   0   8   1   -1.91   16.24
  -8   0   1   33.75   24.18
  -8   0  -1  -21.35   25.81
   0  -8   1   20.35   11.72
   0  -8   2  -11.52   33.82
   0  -8  -2   69.74   47.41
   8   0  -2    9.29    9.19
   8   0   2   20.38   11.09
   8   0  -2   46.56   22.34
   0   8   2   27.49   21.34
   0   8  -2   38.67   41.56
   0   8   2   21.95   20.19
  -8   0   2   45.15   28.17
  -8   0  -2  -17.10   27.69
   0  -8   3   -1.74   31.69
   0  -8  -3   -0.58   57.43
   8   0  -3    7.36   11.29
   8   0   3   19.11    9.24
   8   0  -3    2.91   14.23
   0   8   3   -4.06   12.73
   0   8  -3   13.82   31.17
   0   8   3  -16.01   23.63
  -8   0   3   42.79   21.74
  -8   0  -3  -25.60   41.08
   0  -8   4   47.11   32.58
   0  -8  -4   45.23   46.30
   8   0  -4   48.13   23.92
   8   0   4   68.15   26.80
   8   0  -4   41.27   19.72
   0   8  -4   18.54   32.19
   0   8   4   32.53   33.14
  -8   0   4   15.53   26.05
  -8   0  -4   10.88   40.47
   0  -8   5   51.74   34.05
   0  -8  -5   32.95   29.73
   8   0  -5   12.53   15.24
   8   0   5   13.52   12.23
   8   0  -5   35.03   13.18
   0   8  -5    9.78   29.58
   0   8   5   10.29   24.98
  -8   0   5    5.25   13.26
  -8   0  -5  112.19   47.36
   0  -8   6   17.85    8.39
   0  -8  -6   53.43   24.81
   8   0  -6    9.31   19.67
   8   0   6   -3.03   13.31
   0   8  -6   -8.28   25.19
   0   8   6   33.57   23.09
  -8   0   6   -3.52   11.27
  -8   0  -6  108.71   45.38
   1  -9   0   36.70   36.03
   9  -1   0   21.96   13.76
  -1   9   0   27.83   25.68
  -9   1   0   26.06   28.16
   1  -9   1   52.90   38.60
   1  -9  -1   96.55   41.26
   9  -1   1   23.42   18.46
   9  -1  -1   24.03   12.20
  -1   9   1    1.44   25.60
  -1   9  -1   32.11   40.80
  -1   9   1   35.45   26.84
  -9   1   1   -9.12   19.98
  -9   1  -1    5.30   25.16
   1  -9   2   39.29   24.68
   1  -9  -2  127.83   54.18
   9  -1  -2   -2.96    9.58
   9  -1   2    8.75   15.20
   9  -1  -2   16.40   15.22
  -1   9   2   10.17   12.20
  -1   9  -2   30.11   44.64
  -1   9   2   -3.03   18.77
  -9   1   2    6.48   22.69
  -9   1  -2   17.93   26.00
   1  -9   3   25.41   18.31
   1  -9  -3  101.51   42.94
   9  -1  -3    4.49   13.27
   9  -1   3   -2.61   19.50
   9  -1  -3  -14.01   15.83
  -1   9   3    6.14    8.96
  -1   9  -3  -20.22   29.84
  -1   9   3   24.95   21.02
  -9   1   3   11.84   21.87
  -9   1  -3    8.28   27.08
   1  -9   4   -5.96   24.27
   1  -9  -4   38.37   25.88
   9  -1  -4   14.05   21.01
   9  -1   4   32.27   22.32
   9  -1  -4   25.26   14.37
  -1   9  -4   -1.15   36.86
  -1   9   4   38.24   26.22
  -9   1   4   23.50   24.65
  -9   1  -4    8.77   26.32
   1  -9   5   16.29   18.27
   1  -9  -5   65.06   47.73
   9  -1  -5   29.57   26.20
   9  -1   5  -11.59   15.73
  -1   9  -5   51.29   45.06
  -1   9   5   -3.69   22.96
  -9   1   5   -1.11   11.60
  -9   1  -5   19.25   29.96
   2 -10   0   -6.55   48.08
  10  -2   0    2.11   16.55
  -2  10   0   19.94   26.98
 -10   2   0  -21.18   21.98
   2 -10   1   42.50   29.50
   2 -10  -1   49.38   40.39
  10  -2   1    7.68   18.65
  10  -2  -1    9.39   11.56
  -2  10   1   16.29   24.37
  -2  10  -1   27.27   29.47
  -2  10   1    3.67   16.97
 -10   2   1   14.25   25.21
 -10   2  -1  -20.42   25.18
   2 -10   2  -43.58   32.99
   2 -10  -2   21.12   29.35
  10  -2   2   25.81   13.58
  10  -2  -2   -0.68   12.78
  -2  10   2   10.77   14.68
  -2  10  -2   45.16   33.79
  -2  10   2   46.83   19.40
 -10   2   2   34.56   24.77
 -10   2  -2   27.98   26.48
   2 -10   3   42.96   26.71
   2 -10  -3   41.71   40.33
  10  -2  -3   -3.92   10.79
  10  -2   3  -25.77   20.28
  10  -2  -3   11.72   12.57
  -2  10  -3   62.91   56.75
  -2  10   3   48.12   24.97
 -10   2   3    2.19   22.61
 -10   2  -3   48.85   34.57
   2 -10   4   40.53   20.37
   2 -10  -4   73.38   51.71
  10  -2  -4    0.05   11.90
  10  -2   4   52.77   18.54
  10  -2  -4    6.24   15.95
  -2  10  -4   -5.02   44.27
  -2  10   4   25.08   17.97
 -10   2   4    3.75   20.51
 -10   2  -4    3.57   21.94
   2 -10   5   23.87   25.18
   2 -10  -5   42.54   38.48
  10  -2  -5   11.47   21.29
  10  -2   5   26.46   16.82
  -2  10  -5    0.95   37.96
  -2  10   5   -3.26   21.62
 -10   2   5   25.16   21.13
 -10   2  -5    2.70   17.48
   3 -11   0   84.57   53.65
  11  -3   0   -8.45   21.93
  -3  11   0   46.89   36.53
 -11   3   0   53.73   36.05
   3 -11   1   32.30   45.14
   3 -11  -1   57.75   62.98
  11  -3   1  -21.75   21.68
  11  -3  -1   -1.53   14.08
  -3  11   1   20.42   25.62
  -3  11  -1   54.23   47.64
 -11   3   1   27.77   23.28
 -11   3  -1    6.97   22.81
   3 -11   2  -14.01   36.85
   3 -11  -2   56.19   54.69
  11  -3   2   17.40   24.25
  11  -3  -2  -11.40   16.21
  -3  11   2   10.71   15.69
  -3  11  -2   76.07   79.51
  -3  11   2   16.85    8.20
 -11   3   2   64.34   39.99
 -11   3  -2   15.99   22.90
   3 -11   3   21.10   22.30
   3 -11  -3   65.25   25.94
  11  -3   3    4.82   13.18
  11  -3  -3   21.37   11.16
  -3  11  -3   84.49   56.46
  -3  11   3   -0.08   17.54
 -11   3   3   55.88   28.98
 -11   3  -3  -28.25   18.40
   3 -11   4   36.81   26.85
   3 -11  -4   25.50   48.20
  11  -3  -4    9.51   11.96
  11  -3   4   -1.40   18.56
  -3  11  -4  -10.93   55.74
  -3  11   4   45.32   21.47
 -11   3   4    5.36   19.85
 -11   3  -4   26.65   26.98
   4 -12   0   -8.97   58.12
  12  -4   0   19.43   13.65
  -4  12   0   11.31   24.84
 -12   4   0   38.36   21.89
   4 -12   1  -18.89   41.44
   4 -12  -1  -13.83   54.39
  12  -4   1   -7.61   19.95
  12  -4  -1  -10.68   17.17
  -4  12   1   -7.12   20.73
  -4  12  -1   40.18   37.24
 -12   4   1    1.68   21.70
 -12   4  -1   14.30   20.65
   4 -12   2   10.04   28.90
   4 -12  -2   78.80   63.79
  12  -4   2   43.81   23.64
  12  -4  -2   -8.25   14.37
  -4  12  -2   77.84   73.31
  -4  12   2   18.01   13.69
 -12   4   2   14.32   22.29
 -12   4  -2   17.99   26.92
  -5  -4   0   16.87   19.70
  -4  -5   0  -28.25   18.19
   5   4   0    9.12   26.01
   4   5   0   28.06   15.76
  -5  -4   0   -1.68   43.09
  -4  -5   0   10.78   23.03
  -5  -4   1   -5.24   14.91
  -4  -5   1   17.92    8.59
  -5  -4  -1   -5.22   11.69
  -4  -5  -1   25.08   17.51
   5   4   1    6.19   14.12
   4   5   1   30.27   14.33
   5   4  -1   36.37   15.15
   4   5  -1   -2.48   26.83
  -5  -4   1   -2.05   16.08
  -4  -5   1    4.15   18.49
  -5  -4  -1   26.53   28.51
  -4  -5  -1   13.78   25.88
  -5  -4   2   19.75   13.90
  -4  -5   2   35.18   21.88
  -4  -5  -2   34.49   14.55
   5   4   2   44.47   21.24
   4   5   2  -12.11   18.42
   5   4  -2   15.17   18.92
   4   5  -2   -1.92   28.81
  -5  -4   2   10.60   22.21
  -4  -5   2   56.40   19.78
  -5  -4  -2   17.51   31.47
  -4  -5  -2   32.24   29.99
  -5  -4   3   29.42   11.88
  -4  -5   3   30.60   15.86
   5   4   3   11.41   17.51
   4   5   3   13.74   11.71
   5   4  -3  -17.75   29.19
   4   5  -3  -19.01   27.58
  -5  -4   3    7.10   11.13
  -4  -5   3    5.59   12.62
  -5  -4  -3   16.75   32.40
  -4  -5  -3   26.77   32.27
  -5  -4   4   12.52   13.71
  -4  -5   4   16.66   10.82
   5   4   4   13.22    6.64
   4   5   4   34.02   14.45
   5   4  -4   13.00   19.36
   4   5  -4   22.12   22.40
  -5  -4  -4   31.53   36.57
  -4  -5  -4   26.88   57.52
  -5  -4   5    3.63   16.16
  -4  -5   5   -0.98   18.94
   5   4   5    3.52    7.25
   5   4  -5   23.78   21.93
   4   5  -5   22.53   17.04
  -5  -4  -5  -20.92   42.48
  -4  -5  -5   23.42   59.74
  -5  -4   6   -0.08   15.15
  -4  -5   6  -12.94   15.61
   5   4  -6   35.49   24.11
   4   5  -6  -10.16   20.05
  -5  -4  -6  -31.70   39.98
  -4  -5  -6   18.81   37.10
  -6  -3   0   -0.92    8.35
  -3  -6   0  -53.54   26.05
   6   3   0   10.55   16.17
   3   6   0   40.31   27.90
  -6  -3   0   20.37   23.18
  -3  -6   0    1.03   19.58
  -6  -3   1   17.34   12.48
  -3  -6   1   21.23   22.26
  -3  -6  -1    4.48   24.90
   6   3   1   22.45   16.68
   6   3  -1   39.15   16.46
   3   6   1   41.95   18.90
   3   6  -1  -13.24   25.18
  -6  -3   1   20.85   19.78
  -3  -6   1   59.06   40.16
  -6  -3  -1   40.05   35.80
  -3  -6  -1   30.34   34.74
  -6  -3   2    8.33    6.87
  -3  -6   2   13.53   17.04
  -3  -6  -2   -1.78   29.70
   6   3   2   38.01   21.42
   3   6   2   19.08    9.27
   6   3  -2   27.28   27.98
   3   6  -2   26.04   21.33
  -6  -3   2   15.67   22.00
  -3  -6   2   -3.27    9.41
  -6  -3  -2   40.74   40.43
  -3  -6  -2  -11.16   26.24
  -6  -3   3   -0.43   12.57
  -3  -6   3   -0.21   21.95
  -3  -6  -3    0.71   13.12
   6   3   3   23.51   14.08
   3   6   3    3.28    6.34
   6   3  -3   52.96   29.37
   3   6  -3   35.55   29.72
  -6  -3   3   -0.16   14.26
  -6  -3  -3    8.38   35.51
  -3  -6  -3  -10.60   27.34
  -6  -3   4    5.02   11.66
  -3  -6   4    6.62   15.97
   6   3   4    5.77    7.52
   3   6   4   -1.77   10.33
   6   3  -4    5.23   14.13
   3   6  -4  -10.82   28.09
  -6  -3   4   17.87   14.95
  -6  -3  -4   37.14   32.85
  -3  -6  -4  -12.30   36.58
  -6  -3   5   21.14   21.93
  -3  -6   5   35.02   15.63
   6   3   5   -0.23    8.09
   6   3  -5   -4.58   11.83
   3   6  -5   35.92   21.43
  -6  -3  -5   -4.91   41.62
  -3  -6  -5   32.79   52.13
  -6  -3   6   -2.09   12.58
  -3  -6   6   27.80   14.37
   6   3  -6   42.08   17.52
   3   6  -6   18.50   16.46
  -6  -3  -6    5.08   42.15
  -3  -6  -6    4.04   34.27
  -7  -2   0    9.32    6.56
  -2  -7   0   15.49   46.42
   7   2   0   24.12   25.53
   2   7   0    8.51   22.16
  -7  -2   0    3.73   24.55
  -2  -7   0   36.05   34.12
  -7  -2   1   -4.56    6.80
  -2  -7   1   24.89   29.86
  -2  -7  -1  -13.75   33.15
   7   2   1   35.64   11.22
   7   2  -1    5.09   28.76
   2   7   1   -2.52   24.29
   2   7  -1   -4.16   24.06
  -7  -2   1   12.94   21.90
  -7  -2  -1   23.67   29.32
  -2  -7   1    6.51   13.92
  -2  -7  -1    1.56   20.79
  -7  -2   2    8.99    8.83
  -2  -7   2   18.83   23.59
  -2  -7  -2   38.97   30.44
   7   2   2   18.53   19.23
   7   2  -2    8.04   15.24
   2   7   2   17.56   22.44
   2   7  -2   13.16   14.30
  -7  -2   2   -7.42   19.61
  -7  -2  -2    3.88   36.72
  -2  -7  -2   -1.75   24.42
  -7  -2   3   -4.93    9.51
  -2  -7   3    4.06   11.72
  -2  -7  -3   -2.48   41.27
   7   2   3   -0.14   17.52
   7   2  -3   14.30   26.92
   2   7   3   20.03   12.27
   2   7  -3   -1.42   30.18
  -7  -2   3   -3.09   15.62
  -7  -2  -3  -29.97   31.87
  -2  -7  -3   37.01   41.51
  -7  -2   4    4.72   12.63
  -2  -7   4    6.77   23.35
  -2  -7  -4   76.73   59.26
   7   2   4   31.71   16.25
   2   7   4    9.45    6.97
   7   2  -4   28.81   19.04
   2   7  -4   28.82   39.07
  -7  -2   4    0.65   13.24
  -7  -2  -4   30.28   39.32
  -2  -7   5   15.00   14.15
   7   2   5   -4.65   13.29
   7   2  -5   11.22   12.93
   2   7  -5   -4.88   29.04
  -7  -2  -5   20.27   33.74
  -2  -7   6    3.33   21.40
   7   2  -6   22.08   15.64
   7   2   6   -3.80   11.37
   2   7  -6   -8.25   26.30
  -7  -2  -6   17.74   37.60
  -1  -8   0   30.69   27.18
   8   1   0   66.07   15.70
   1   8   0   -6.11   27.32
  -8  -1   0   32.70   26.10
  -1  -8   0   19.73   25.73
  -1  -8   1  -23.48   34.06
  -1  -8  -1   99.67   53.95
   8   1   1   26.69   17.37
   8   1  -1  -18.51   20.39
   1   8   1   -7.48   25.47
   1   8  -1   22.67   13.37
  -8  -1   1   -4.17   22.68
  -8  -1  -1   21.43   35.77
  -1  -8   1    3.90   11.82
  -1  -8  -1    8.41   18.89
  -1  -8   2   34.61   36.93
  -1  -8  -2  -37.28   43.22
   8   1   2   14.81   11.54
   8   1  -2   33.85   14.85
   1   8   2   45.94   13.32
   1   8  -2  -17.75   30.44
  -8  -1   2   19.47   19.85
  -8  -1  -2   -3.81   30.79
  -1  -8   3    6.58   19.19
  -1  -8  -3   39.54   29.62
   8   1  -3    5.94   10.35
   8   1   3   -8.02   17.84
   8   1  -3    9.64   21.70
   1   8   3  -17.33   14.73
   1   8  -3    1.73   31.76
   1   8   3  -16.53   20.50
  -8  -1   3    8.12   21.50
  -8  -1  -3   42.93   51.37
  -1  -8   4   -3.93   28.45
  -1  -8  -4   75.69   50.06
   8   1  -4    6.22   13.50
   8   1   4   17.15   13.45
   8   1  -4   10.48   13.62
   1   8  -4   35.65   31.81
   1   8   4   43.33   32.40
  -8  -1   4    1.13   15.92
  -8  -1  -4  -15.99   38.43
  -1  -8   5   31.09   21.16
  -1  -8  -5   48.66   46.32
   8   1  -5    4.43   14.21
   8   1   5    2.42    9.04
   8   1  -5   27.80   10.87
   1   8  -5   51.71   37.57
   1   8   5   41.70   23.20
  -8  -1   5   10.37   12.32
  -8  -1  -5   39.41   49.92
   0  -9   0   54.73   43.56
   9   0   0   -2.91   19.90
   0   9   0   47.02   24.57
  -9   0   0   -3.94   24.05
   0  -9   0   14.92   16.20
   0  -9   1   17.44   51.40
   0  -9  -1   80.60   38.82
   9   0   1   30.61   14.92
   9   0  -1   10.59   14.09
   0   9   1    6.93   16.89
   0   9  -1    5.45   27.46
  -9   0   1  -15.98   23.49
  -9   0  -1    9.57   27.08
   0  -9   2  -45.85   32.85
   0  -9  -2    3.09   20.19
   9   0  -2   13.72   15.74
   9   0   2   21.97   17.42
   9   0  -2   19.24   19.26
   0   9   2   12.43   14.54
   0   9  -2   20.55   32.49
   0   9   2    0.21   16.36
  -9   0   2   -7.67   20.35
  -9   0  -2   34.84   23.83
   0  -9   3   30.87   25.68
   0  -9  -3   52.70   32.18
   9   0  -3   12.89   10.80
   9   0   3   -1.78   19.83
   9   0  -3   12.81    8.14
   0   9   3    6.65   12.66
   0   9  -3   14.96   32.92
   0   9   3    4.70   20.92
  -9   0   3   -3.62   19.00
  -9   0  -3   32.00   32.62
   0  -9   4   27.89   15.64
   0  -9  -4    4.38   38.11
   9   0  -4    4.91   13.10
   9   0   4   20.31   22.00
   9   0  -4    5.11    9.72
   0   9  -4  -12.44   29.86
   0   9   4   -6.08   23.06
  -9   0   4    9.91   16.79
  -9   0  -4   23.63   33.95
   0  -9   5   -9.64   23.36
   0  -9  -5   39.52   36.15
   9   0  -5   17.95   18.83
   9   0   5   22.93   12.32
   0   9  -5  -16.36   33.11
   0   9   5    4.38   21.77
  -9   0   5   -4.68   14.61
  -9   0  -5  -18.37   46.44
   1 -10   0   17.99   28.83
  10  -1   0    9.67    8.08
  -1  10   0    7.48   16.38
 -10   1   0   18.75   37.03
   1 -10   1   28.64   37.52
   1 -10  -1   16.70   44.78
  10  -1   1    7.49   15.46
  10  -1  -1    8.03   10.95
  -1  10   1  -14.71   27.44
  -1  10  -1  -14.66   28.84
  -1  10   1   13.79   15.90
 -10   1   1    4.54   21.77
 -10   1  -1  -20.76   24.99
   1 -10   2   40.31   36.21
   1 -10  -2  -28.14   56.69
  10  -1   2  -12.70   20.19
  10  -1  -2   29.04   16.92
  -1  10   2   -2.77   21.69
  -1  10  -2   57.73   40.73
  -1  10   2  -21.60   20.45
 -10   1   2  -18.74   23.19
 -10   1  -2   59.62   39.57
   1 -10   3   60.45   45.97
   1 -10  -3   -1.66   30.91
  10  -1  -3    5.79   10.79
  10  -1   3   44.62   19.67
  10  -1  -3   -3.72   14.87
  -1  10  -3   96.04   55.29
  -1  10   3   15.95   19.28
 -10   1   3   41.72   29.70
 -10   1  -3   -4.17   21.24
   1 -10   4  -11.31   24.15
   1 -10  -4   27.35   33.47
  10  -1  -4   22.77   18.43
  10  -1   4  -17.93   16.87
  10  -1  -4   33.16   18.04
  -1  10  -4    2.20   33.66
  -1  10   4    8.05   21.07
 -10   1   4  -15.10   17.18
 -10   1  -4   52.13   33.43
   2 -11   0    1.91   38.01
  11  -2   0   60.52   29.91
  -2  11   0    0.38   25.59
 -11   2   0  -12.65   23.97
   2 -11   1   11.81   41.09
   2 -11  -1   28.72   22.26
  11  -2   1   -6.04   23.28
  11  -2  -1   25.70   17.54
  -2  11   1   30.06   16.53
  -2  11  -1    9.63   28.61
 -11   2   1   11.05   21.75
 -11   2  -1  -19.29   25.91
   2 -11   2   83.14   44.88
   2 -11  -2  104.73   45.97
  11  -2   2    3.92   12.77
  11  -2  -2   -9.97   19.12
  -2  11   2    2.23   22.11
  -2  11  -2   28.23   29.90
  -2  11   2   17.42   17.40
 -11   2   2  -18.45   21.75
 -11   2  -2   26.97   22.28
   2 -11   3   45.30   26.95
   2 -11  -3   78.93   62.70
  11  -2   3   -3.81   22.36
  11  -2  -3   -9.23   12.96
  -2  11  -3   12.44   31.52
  -2  11   3  -22.18   18.54
 -11   2   3   14.45   26.60
 -11   2  -3   25.99   22.47
   3 -12   0   78.23   54.05
  12  -3   0   35.98   24.38
  -3  12   0   -8.71   23.75
 -12   3   0    2.12   20.51
   3 -12   1  -26.89   40.63
   3 -12  -1   17.38   37.83
  12  -3   1  -15.99   19.81
  12  -3  -1   -7.67   18.41
  -3  12   1   38.60   23.89
  -3  12  -1   28.49   30.26
 -12   3   1   38.55   22.96
 -12   3  -1   -6.82   22.47
   3 -12   2   61.52   26.15
   3 -12  -2   63.77   60.05
  12  -3   2   16.96   17.93
  12  -3  -2   -4.62   17.82
  -3  12  -2   37.19   29.94
 -12   3   2   20.32   23.55
 -12   3  -2   -5.69   23.39
  -5  -5   0   26.72   15.51
   5   5   0   32.49   16.18
  -5  -5   0   96.45   76.42
  -5  -5   1   22.82   13.72
  -5  -5  -1   11.85    9.86
   5   5   1   26.18   27.23
   5   5  -1    3.18   15.73
  -5  -5   1    1.75   16.15
  -5  -5  -1   28.87   27.81
  -5  -5   2   18.76   11.39
   5   5   2  -30.56   18.12
   5   5  -2   18.72   18.41
  -5  -5   2    0.79   13.44
  -5  -5  -2   10.59   27.14
  -5  -5   3   22.65   14.54
   5   5   3    8.60   12.79
   5   5  -3   58.18   41.60
  -5  -5  -3    6.27   34.09
  -5  -5   4   20.97   10.10
   5   5   4    0.05   16.58
   5   5  -4   28.67   21.74
  -5  -5  -4   49.08   50.70
  -5  -5   5   23.04   15.66
   5   5  -5   17.51   28.34
  -5  -5  -5  -36.44   39.66
  -6  -4   0   11.43    9.52
  -4  -6   0   28.58    9.25
   6   4   0   37.24   23.17
   4   6   0   11.43   12.64
  -6  -4   0   40.00   33.74
  -4  -6   0   70.91   41.46
  -6  -4   1   21.18   12.14
  -4  -6   1   16.56   20.25
  -4  -6  -1   20.94   25.79
   6   4   1   -8.74   21.13
   6   4  -1   40.77   31.60
   4   6   1    6.42   18.43
   4   6  -1   20.10   28.69
  -6  -4   1    4.57   23.08
  -4  -6   1   37.50   27.38
  -6  -4  -1   37.14   45.13
  -4  -6  -1    8.41   24.72
  -6  -4   2    9.40    9.19
  -4  -6   2   14.60   16.07
  -4  -6  -2   38.14   23.32
   6   4   2   29.27   14.30
   4   6   2   21.80   11.82
   6   4  -2   17.25   15.82
   4   6  -2   29.37   15.00
  -6  -4   2   12.54   15.79
  -4  -6   2    2.63   11.41
  -6  -4  -2   17.05   29.16
  -4  -6  -2   31.41   26.96
  -6  -4   3  -13.09   11.55
  -4  -6   3   -0.76   19.49
   6   4   3   -1.87   10.44
   4   6   3   24.98   13.28
   6   4  -3    9.53   16.23
   4   6  -3   14.81   36.34
  -6  -4   3   20.46   12.64
  -6  -4  -3   15.49   32.33
  -4  -6  -3  -11.67   32.30
  -6  -4   4   21.41   18.84
  -4  -6   4  -23.64   20.26
   6   4   4   21.56   14.76
   4   6   4   -7.07   10.70
   6   4  -4   26.86   14.99
   4   6  -4   -4.50   25.99
  -6  -4  -4   -6.25   51.82
  -4  -6  -4   65.02   34.03
  -6  -4   5    2.36   12.17
  -4  -6   5   17.56   14.06
   6   4   5   16.35    6.99
   6   4  -5   -6.21   21.89
   4   6  -5   27.71   30.71
  -6  -4  -5   12.84   39.62
  -4  -6  -5   44.88   54.91
  -3  -7   0   42.48   22.95
   7   3   0    5.77   17.07
   3   7   0   20.34   20.05
  -7  -3   0   28.22   24.10
  -3  -7   0    9.30   19.87
  -7  -3   1    4.60    5.54
  -3  -7   1   -1.98   22.96
  -3  -7  -1   27.07   26.73
   7   3   1   -0.93   20.69
   7   3  -1  -17.41   23.85
   3   7   1    5.76   13.40
   3   7  -1   39.78   21.76
  -7  -3   1   12.46   21.49
  -7  -3  -1   13.48   28.56
  -3  -7   1   57.91   44.04
  -3  -7  -1   29.69   31.58
  -7  -3   2   12.82   12.21
  -3  -7   2   -0.18   23.83
  -3  -7  -2   25.00   23.38
   7   3   2   17.55   17.48
   7   3  -2   29.12   20.03
   3   7   2  -12.27   21.79
   3   7  -2   34.07   20.05
  -7  -3   2   30.84   27.70
  -7  -3  -2    2.61   36.08
  -3  -7  -2   19.84   27.15
  -7  -3   3   11.33   14.55
  -3  -7   3    4.78   30.63
  -3  -7  -3    4.79   14.74
   7   3   3   17.70    9.83
   3   7   3    5.37   12.12
   7   3  -3    6.98   17.69
   3   7  -3   35.72   16.50
  -7  -3   3   26.60   21.77
  -7  -3  -3   -0.86   34.03
  -3  -7  -3   50.67   30.13
  -7  -3   4   20.65   10.15
  -3  -7   4   23.42   11.03
   7   3   4    7.83   12.07
   3   7   4    6.46    6.31
   7   3  -4   16.83   17.85
   3   7  -4   56.74   23.58
  -7  -3   4    9.70   15.85
  -7  -3  -4  -12.66   35.08
  -3  -7  -4   35.28   45.70
  -7  -3   5    8.65   12.49
  -3  -7   5   11.25   23.20
   7   3   5   -6.89   12.65
   7   3  -5   21.05   17.05
   3   7  -5   31.66   18.15
  -7  -3  -5   77.27   61.94
  -3  -7  -5  -45.51   35.85
  -2  -8   0   60.89   41.33
   8   2   0   -2.70   21.05
   2   8   0   -6.66   25.29
  -8  -2   0    8.21   23.16
  -2  -8   0   19.13   30.94
  -2  -8   1   -6.23   29.14
  -2  -8  -1   36.50   33.69
   8   2   1   33.84   17.39
   8   2  -1   12.72   12.78
   2   8   1   25.76   17.37
   2   8  -1   28.51   19.82
  -8  -2   1  -11.67   21.93
  -8  -2  -1   51.42   38.62
  -2  -8  -1   17.02   23.57
  -8  -2   2   13.91    7.95
  -2  -8   2   16.62   14.53
  -2  -8  -2   70.26   36.51
   8   2   2    3.17    7.01
   8   2  -2   13.01   15.73
   2   8   2  -22.15   21.48
   2   8  -2    1.83   18.09
  -8  -2   2    4.68   21.68
  -8  -2  -2   -4.64   32.09
  -2  -8  -2  -17.68   26.43
  -8  -2   3    9.87    8.82
  -2  -8   3    5.11   15.13
  -2  -8  -3   59.89   37.62
   8   2   3    0.00    9.21
   8   2  -3   28.30   13.37
   2   8   3    2.85   11.60
   2   8  -3   43.83   20.63
  -8  -2   3   20.17   17.66
  -8  -2  -3   27.21   42.88
  -2  -8  -3   -0.55   27.76
  -2  -8   4   21.07   18.34
   8   2   4    5.14   10.34
   8   2  -4   12.77    9.74
   2   8  -4   42.05   16.34
  -8  -2   4    2.56   12.49
  -8  -2  -4   22.11   40.06
  -2  -8  -4   39.62   33.13
  -2  -8   5    7.68    9.33
   8   2  -5   16.99   19.46
   8   2   5    1.27   14.49
   8   2  -5    6.73   11.98
   2   8  -5   34.35   20.58
  -8  -2  -5    3.10   35.82
  -2  -8  -5    4.74   33.53
  -1  -9   0   43.61   29.04
   9   1   0   32.00   26.31
   1   9   0    4.46   12.23
  -9  -1   0   17.56   25.77
  -1  -9   0   -5.35   17.80
  -1  -9   1   10.92   17.11
  -1  -9  -1   17.74   30.81
   9   1   1   20.63   16.06
   9   1  -1   26.80   19.00
   1   9   1   -3.28   24.37
   1   9  -1   46.95   28.26
  -9  -1   1   64.33   39.45
  -9  -1  -1   13.90   26.35
  -1  -9  -1    8.33   22.89
  -1  -9   2  -46.96   27.85
  -1  -9  -2   42.89   64.75
   9   1   2   32.72   12.10
   9   1  -2   63.01   30.63
   1   9   2    8.06   14.94
   1   9  -2   54.57   33.65
  -9  -1   2   -6.61   18.86
  -9  -1  -2   33.45   26.89
  -1  -9  -2   14.32   24.70
  -1  -9   3  -14.38   24.97
  -1  -9  -3   59.85   26.33
   9   1  -3   -8.05    9.22
   9   1   3   35.05   24.56
   9   1  -3    4.18   21.68
   1   9   3   25.12   16.54
   1   9  -3    2.07   37.50
  -9  -1   3   45.11   24.96
  -9  -1  -3    3.35   30.15
  -1  -9   4  -21.33   22.41
  -1  -9  -4   32.05   33.98
   9   1  -4   -7.71   11.37
   9   1   4  -13.93   17.03
   9   1  -4    3.98    9.92
   1   9  -4   10.72   34.40
  -9  -1   4    1.63   13.43
  -9  -1  -4  -30.96   42.27
   0 -10   0  -21.58   42.59
  10   0   0   19.09   23.55
   0  10   0   22.50   20.85
 -10   0   0   19.86   23.39
   0 -10   1   52.05   32.97
   0 -10  -1  -31.91   48.28
  10   0   1   29.69   19.69
  10   0  -1   17.94   12.61
   0  10   1   20.06   30.73
   0  10  -1   25.04   17.27
 -10   0   1   10.91   23.03
 -10   0  -1   43.46   27.41
   0 -10  -1   38.92   27.05
   0 -10   2   -1.34   28.97
   0 -10  -2   24.01   51.04
  10   0   2   12.48   10.84
  10   0  -2  -12.85   19.47
   0  10   2    6.56   10.83
   0  10  -2   54.29   36.60
 -10   0   2   49.71   30.09
 -10   0  -2  -17.34   27.47
   0 -10   3   12.87   14.47
   0 -10  -3   68.66   32.57
  10   0   3   21.03   12.79
  10   0  -3   -5.23   16.40
   0  10  -3   66.67   43.56
   0  10   3    2.67   17.00
 -10   0   3   -3.72   18.98
 -10   0  -3   46.51   38.05
   1 -11   0  -29.85   35.00
  11  -1   0  -14.62   20.36
  -1  11   0   -4.11   24.16
 -11   1   0    9.41   26.01
   1 -11   1   44.69   22.84
   1 -11  -1   63.48   36.25
  11  -1   1   12.01   13.18
  11  -1  -1   -3.86   18.07
  -1  11   1   -8.35   22.22
  -1  11  -1    7.59   36.68
 -11   1   1   27.22   30.80
 -11   1  -1   60.00   45.73
   1 -11   2    7.21   15.06
   1 -11  -2   -5.14   33.38
  11  -1   2   16.24   12.27
  11  -1  -2   23.93   12.39
  -1  11   2   -0.65   19.18
  -1  11  -2   14.83   30.41
  -1  11   2   -2.97   14.76
 -11   1   2   83.84   23.66
 -11   1  -2  -26.86   26.10
  -5  -6   0   16.58   13.30
   6   5   0   19.58   34.66
   5   6   0    9.05   17.49
  -6  -5   0   -4.80   25.62
  -5  -6   0   46.08   39.86
  -6  -5   1   10.78   12.72
  -5  -6   1    1.28   18.39
   6   5   1   17.67   18.29
   5   6   1   21.58   10.63
   6   5  -1   27.81   19.82
   5   6  -1   26.83   19.95
  -6  -5   1   11.35   18.24
  -5  -6   1   -1.06   15.40
  -6  -5  -1  -24.34   29.50
  -5  -6  -1   14.95   39.83
  -6  -5   2   26.36   10.89
  -5  -6   2    8.73   21.34
   6   5   2   -5.78   19.63
   5   6   2   33.63   17.74
   6   5  -2    9.56   20.03
   5   6  -2   36.84   41.49
  -6  -5   2  -10.76   13.64
  -6  -5  -2   40.07   28.67
  -5  -6  -2    8.83   27.52
  -6  -5   3   -4.09   12.96
  -5  -6   3    7.15    9.78
   6   5   3   -8.44   15.67
   5   6   3   15.94   20.10
   6   5  -3   23.64   18.62
   5   6  -3   12.09   27.17
  -6  -5  -3   34.24   31.25
  -5  -6  -3  -13.46   31.32
  -6  -5   4   28.16   13.11
  -5  -6   4    7.02   12.05
   6   5   4  -11.57   12.17
   5   6   4   -2.29   11.92
   6   5  -4   22.06   16.23
   5   6  -4   34.92   22.15
  -6  -5  -4  -32.74   35.26
  -5  -6  -4  -10.03   32.56
  -4  -7   0   35.61   17.86
   7   4   0   19.97   11.56
   4   7   0  -51.64   27.23
  -7  -4   0   -9.04   22.04
  -4  -7   0   26.96   33.45
  -4  -7   1  -11.62   19.80
  -4  -7  -1   26.02   22.22
   7   4   1   34.69   21.00
   7   4  -1  -13.28   27.40
   4   7   1   23.96   12.97
   4   7  -1   13.08   20.09
  -7  -4   1   32.43   27.93
  -4  -7   1    0.26   12.99
  -7  -4  -1    5.88   30.38
  -4  -7  -1   -7.84   24.20
  -7  -4   2   32.51   13.85
  -4  -7   2   23.46   11.10
   7   4   2   34.05   21.92
   4   7   2   34.73   18.67
   7   4  -2   -6.40   24.10
   4   7  -2   38.55   21.09
  -7  -4   2   27.24   22.73
  -7  -4  -2   83.65   66.57
  -4  -7  -2   -9.17   25.59
  -7  -4   3    0.35   10.46
  -4  -7   3   -4.64   21.90
   7   4   3   -0.55   15.96
   4   7   3   27.85   10.50
   7   4  -3   32.26   15.05
   4   7  -3   -2.94   26.47
  -7  -4   3    8.85   17.77
  -7  -4  -3  -30.20   33.59
  -4  -7  -3   46.58   32.34
  -7  -4   4   -4.71   10.15
  -4  -7   4  -16.60   17.44
   7   4   4    3.61    6.85
   4   7   4   16.54   15.97
   7   4  -4   24.76   30.24
   4   7  -4  -18.17   27.37
  -7  -4  -4   35.81   33.90
  -4  -7  -4   22.57   35.34
  -3  -8   0   -2.71   24.84
   8   3   0   -0.54   13.58
   3   8   0   27.84   33.07
  -8  -3   0   13.47   23.11
  -3  -8   0   -2.89   17.59
  -3  -8   1   41.33   22.66
  -3  -8  -1   41.22   24.12
   8   3   1  -16.40   21.70
   8   3  -1    0.26   31.72
   3   8   1  105.76   60.87
   3   8  -1   23.74   15.24
  -8  -3   1   45.07   29.30
  -8  -3  -1   38.00   36.92
  -3  -8  -1   27.33   24.47
  -3  -8   2   -7.99   23.17
  -3  -8  -2   28.66   40.78
   8   3   2   10.92   13.00
   8   3  -2    7.15   28.87
   3   8   2    5.14   15.86
   3   8  -2   32.02   28.57
  -8  -3   2    6.63   15.94
  -8  -3  -2   37.87   32.29
  -3  -8  -2   28.47   26.52
  -8  -3   3   20.04   14.93
  -3  -8   3  -37.62   22.84
   8   3   3   27.37   19.06
   8   3  -3   24.15   14.26
   3   8   3   15.07   19.42
   3   8  -3   34.07   15.63
  -8  -3   3    4.52   13.83
  -8  -3  -3   64.84   39.85
  -3  -8  -3    9.09   29.00
  -8  -3   4   -3.26   10.49
  -3  -8   4  -10.27   15.99
   8   3   4    9.21    8.16
   8   3  -4   -9.91   19.41
   3   8  -4   25.33   24.64
  -8  -3  -4   30.85   35.05
  -3  -8  -4   -5.89   28.71
  -2  -9   0   19.44   36.36
   9   2   0   93.99   68.37
   2   9   0   46.49   16.57
  -9  -2   0   24.62   23.46
  -2  -9   1   21.57   18.92
  -2  -9  -1   33.91   26.52
   9   2   1   -2.10   21.44
   9   2  -1   27.80   24.11
   2   9   1   49.09   18.96
   2   9  -1   29.15   17.29
  -9  -2   1  -15.78   20.76
  -9  -2  -1   11.93   24.46
  -2  -9  -1   28.14   30.38
  -2  -9   2    5.21   12.97
  -2  -9  -2   52.39   21.08
   9   2   2   19.15   14.15
   9   2  -2   17.50   14.36
   2   9   2   20.41   15.47
   2   9  -2   16.38   15.03
  -9  -2   2   -6.54   17.39
  -9  -2  -2   13.84   29.13
  -2  -9  -2   -5.03   24.35
  -2  -9   3   -4.08   22.24
  -2  -9  -3   61.97   45.59
   9   2   3   21.11   14.94
   9   2  -3   36.29   24.23
   2   9   3   -3.00    9.05
   2   9  -3    8.92   30.65
  -9  -2   3   23.26   21.01
  -9  -2  -3   23.18   30.34
  -2  -9  -3    0.73   24.17
  -1 -10   0   18.07   23.54
  10   1   0   27.24   14.76
   1  10   0   58.59   39.14
 -10  -1   0    6.37   25.06
  -1 -10   1   -6.29   29.69
  -1 -10  -1   14.50   28.48
  10   1   1  -14.67   20.80
  10   1  -1   21.09   14.03
   1  10   1   37.29   15.79
   1  10  -1   75.09   29.68
 -10  -1   1  -13.99   23.64
 -10  -1  -1   -9.24   25.58
  -1 -10  -1   -6.08   21.05
  -1 -10   2   12.07   17.39
  -1 -10  -2    4.08   26.66
  10   1   2   35.10   16.10
  10   1  -2  -16.87   18.43
   1  10   2    1.86   22.89
   1  10  -2    5.28   17.73
 -10  -1   2    2.74   18.19
 -10  -1  -2   48.66   45.06
  -1 -10  -2  -14.28   23.04
   0 -11   0  -27.23   34.25
  11   0   0    4.81   14.97
   0  11   0   34.49   31.73
 -11   0   0   20.59   25.52
   0 -11   1    2.33   16.39
   0 -11  -1   -3.03   34.76
  11   0   1   14.86   14.54
  11   0  -1   25.84   17.67
   0  11   1  -16.31   22.01
   0  11  -1   19.24    9.92
 -11   0   1   -2.03   20.75
 -11   0  -1   26.76   27.43
   6   6   0   47.43   28.25
  -6  -6   0   58.14   34.46
   6   6   1    4.60   13.18
   6   6  -1   -1.97   19.14
  -6  -6   1    2.91   13.78
  -6  -6  -1    5.57   32.58
  -6  -6   2   16.73    6.85
   6   6   2   25.06   15.96
   6   6  -2   -7.58   25.87
  -6  -6  -2  -20.88   28.99
  -6  -6   3   18.72   15.45
   6   6   3   13.43   13.06
   6   6  -3    6.01   18.89
  -6  -6  -3   -4.97   27.15
   7   5   0   22.32   13.45
   5   7   0   19.66   18.70
  -7  -5   0    9.38   19.44
  -5  -7   0   56.88   43.57
  -5  -7   1   13.51   13.43
   7   5   1   20.41   10.91
   7   5  -1    6.91   27.82
   5   7   1    6.98   25.40
   5   7  -1   41.16   29.89
  -7  -5   1   -3.37   14.60
  -7  -5  -1    7.37   23.80
  -5  -7  -1  -27.36   21.16
  -5  -7   2    6.61    7.35
   7   5   2   13.27   10.74
   5   7   2  -23.07   17.42
   7   5  -2   32.95   18.47
   5   7  -2   18.26   22.25
  -7  -5   2    7.38   13.45
  -7  -5  -2  116.80   57.24
  -5  -7  -2   44.59   42.27
  -7  -5   3   14.61   10.55
  -5  -7   3   12.78   10.51
   7   5   3   16.78   12.10
   5   7   3   24.27   23.08
   7   5  -3    4.08    9.39
   5   7  -3  -13.49   26.25
  -7  -5  -3    5.80   30.75
  -5  -7  -3    5.25   29.45
  -4  -8   0   29.36   14.05
   8   4   0    7.91   10.10
   4   8   0   28.16   27.64
  -8  -4   0   20.03   19.12
  -4  -8   0   21.81   20.69
  -4  -8   1   15.82   18.38
   8   4   1   24.21   21.38
   8   4  -1    3.00    9.81
   4   8   1   16.48   17.00
   4   8  -1   37.10   20.12
  -8  -4   1   56.74   27.30
  -8  -4  -1   -1.66   25.10
  -4  -8  -1   23.03   27.35
  -4  -8   2   10.49   15.58
   8   4   2   43.34   21.70
   8   4  -2   29.89   21.25
   4   8   2    6.71   15.25
   4   8  -2   25.06   22.38
  -8  -4   2   13.89   15.04
  -8  -4  -2   -6.69   31.71
  -4  -8  -2   31.84   25.01
  -3  -9   0  -10.86   23.55
   9   3   0   12.17   28.14
   3   9   0   26.48   15.34
  -9  -3   0   26.60   24.98
  -3  -9   1   -9.86   19.17
  -3  -9  -1  -15.76   23.13
   9   3   1   30.98   20.77
   9   3  -1    3.74   13.33
   3   9   1   38.08   17.86
   3   9  -1   24.57   13.80
  -9  -3   1   10.73   27.68
  -9  -3  -1    3.80   22.18
  -3  -9  -1   15.69   18.98
  -3  -9   2   -4.73   21.76
   9   3   2   37.85   24.87
   9   3  -2    4.13   12.15
   3   9   2   -0.91   20.09
   3   9  -2   23.20   23.96
  -9  -3   2   27.06   17.07
  -9  -3  -2   13.73   27.15
  -3  -9  -2   25.94   35.58
   0   0   0    0.00    0.00
;
_shelx_hkl_checksum              96260
loop_
_space_group_symop_operation_xyz
'x, y, z'
'-y, x-y, z'
'-x+y, -x, z'
'-x, -y, z+1/2'
'y, -x+y, z+1/2'
'x-y, x, z+1/2'
'y, x, -z'
'x-y, -y, -z'
'-x, -x+y, -z'
'-y, -x, -z+1/2'
'-x+y, y, -z+1/2'
'x, x-y, -z+1/2'
'-x, -y, -z'
'y, -x+y, -z'
'x-y, x, -z'
'x, y, -z-1/2'
'-y, x-y, -z-1/2'
'-x+y, -x, -z-1/2'
'-y, -x, z'
'-x+y, y, z'
'x, x-y, z'
'y, x, z-1/2'
'x-y, -y, z-1/2'
'-x, -x+y, z-1/2'
loop_
_atom_site_label
_atom_site_type_symbol
_atom_site_fract_x
_atom_site_fract_y
_atom_site_fract_z
_atom_site_U_iso_or_equiv
_atom_site_adp_type
_atom_site_occupancy
_atom_site_site_symmetry_order
_atom_site_calc_flag
_atom_site_refinement_flags_posn
_atom_site_refinement_flags_adp
_atom_site_refinement_flags_occupancy
_atom_site_disorder_assembly
_atom_site_disorder_group
Mn1 Mn 0.0000 0.0000 0.0000 0.093(4) Uani 1 12 d S T P . .
Br1 Br 0.1232(3) -0.1232(3) 0.2500 0.116(3) Uani 1 4 d S T P . .
N1 N 0.31(2) -0.277(19) -0.24(2) 0.38(5) Uiso 0.0833 1 d D U P A -1
Br2 Br 0.359(16) -0.446(16) 0.047(11) 0.38(5) Uiso 0.0833 1 d D U P A -1
C1 C 0.32(5) -0.28(3) -0.03(2) 0.38(5) Uiso 0.0833 1 d D U P A -1
H1A H 0.2307 -0.2988 0.0273 0.457 Uiso 0.0833 1 calc R U P A -1
H1B H 0.4089 -0.1867 0.0137 0.457 Uiso 0.0833 1 calc R U P A -1
C2 C 0.39(4) -0.12(2) -0.30(4) 0.38(5) Uiso 0.0833 1 d D U P A -1
H2A H 0.3485 -0.0637 -0.2389 0.570 Uiso 0.0833 1 calc R U P A -1
H2B H 0.4998 -0.0716 -0.2637 0.570 Uiso 0.0833 1 calc R U P A -1
H2C H 0.3852 -0.1135 -0.4359 0.570 Uiso 0.0833 1 calc R U P A -1
C3 C 0.15(3) -0.35(4) -0.29(6) 0.38(5) Uiso 0.0833 1 d D U P A -1
H3A H 0.1070 -0.2931 -0.2306 0.571 Uiso 0.0833 1 calc R U P A -1
H3B H 0.1432 -0.3434 -0.4275 0.571 Uiso 0.0833 1 calc R U P A -1
H3C H 0.0981 -0.4531 -0.2496 0.571 Uiso 0.0833 1 calc R U P A -1
C4 C 0.38(4) -0.36(3) -0.329(18) 0.38(5) Uiso 0.0833 1 d D U P A -1
H4A H 0.3260 -0.4650 -0.2877 0.570 Uiso 0.0833 1 calc R U P A -1
H4B H 0.3717 -0.3550 -0.4652 0.570 Uiso 0.0833 1 calc R U P A -1
H4C H 0.4862 -0.3131 -0.2930 0.570 Uiso 0.0833 1 calc R U P A -1
loop_
_atom_site_aniso_label
_atom_site_aniso_U_11
_atom_site_aniso_U_22
_atom_site_aniso_U_33
_atom_site_aniso_U_23
_atom_site_aniso_U_13
_atom_site_aniso_U_12
Mn1 0.107(5) 0.107(5) 0.065(5) 0.000 0.000 0.053(3)
Br1 0.153(5) 0.153(5) 0.085(3) 0.000 0.000 0.107(5)
loop_
_atom_type_symbol
_atom_type_description
_atom_type_scat_dispersion_real
_atom_type_scat_dispersion_imag
_atom_type_scat_source
C C 0.0033 0.0016 'International Tables Vol C Tables 4.2.6.8 and 6.1.1.4'
H H 0.0000 0.0000 'International Tables Vol C Tables 4.2.6.8 and 6.1.1.4'
N N 0.0061 0.0033 'International Tables Vol C Tables 4.2.6.8 and 6.1.1.4'
Br Br -0.2901 2.4595 'International Tables Vol C Tables 4.2.6.8 and 6.1.1.4'
Mn Mn 0.3368 0.7283 'International Tables Vol C Tables 4.2.6.8 and 6.1.1.4'
loop_
_geom_angle_atom_site_label_1
_geom_angle_atom_site_label_2
_geom_angle_atom_site_label_3
_geom_angle
_geom_angle_site_symmetry_1
_geom_angle_site_symmetry_3
Br1 Mn1 Br1 180.00(18) 13 .
Br1 Mn1 Br1 84.35(17) 13 14
Br1 Mn1 Br1 95.65(17) . 14
Br1 Mn1 Br1 95.65(17) 13 2
Br1 Mn1 Br1 84.35(17) . 2
Br1 Mn1 Br1 180.00(6) 14 2
Br1 Mn1 Br1 84.35(17) 13 15
Br1 Mn1 Br1 95.65(17) . 15
Br1 Mn1 Br1 84.35(17) 14 15
Br1 Mn1 Br1 95.65(17) 2 15
Br1 Mn1 Br1 95.65(17) 13 3
Br1 Mn1 Br1 84.35(17) . 3
Br1 Mn1 Br1 95.65(17) 14 3
Br1 Mn1 Br1 84.35(17) 2 3
Br1 Mn1 Br1 180.0(3) 15 3
Mn1 Br1 Mn1 78.3(2) 4 .
C4 N1 C2 109.5(13) . .
C4 N1 C3 109.5(13) . .
C2 N1 C3 109.6(13) . .
C4 N1 C1 109.4(13) . .
C2 N1 C1 109.4(13) . .
C3 N1 C1 109.4(13) . .
N1 C1 Br2 113(6) . .
loop_
_geom_bond_atom_site_label_1
_geom_bond_atom_site_label_2
_geom_bond_distance
_geom_bond_site_symmetry_2
Mn1 Br1 2.762(6) 13
Mn1 Br1 2.762(6) .
Mn1 Br1 2.762(6) 14
Mn1 Br1 2.762(6) 2
Mn1 Br1 2.762(6) 15
Mn1 Br1 2.762(6) 3
Br1 Mn1 2.762(6) 4
N1 C4 1.45(12) .
N1 C2 1.45(12) .
N1 C3 1.45(12) .
N1 C1 1.45(12) .
Br2 C1 1.90(2) .
