#------------------------------------------------------------------------------
#$Date: 2019-11-25 19:26:53 +0200 (Mon, 25 Nov 2019) $
#$Revision: 241635 $
#$URL: file:///home/coder/svn-repositories/cod/cif/4/13/14/4131436.cif $
#------------------------------------------------------------------------------
#
# This file is available in the Crystallography Open Database (COD),
# http://www.crystallography.net/
#
# All data on this site have been placed in the public domain by the
# contributors.
#
data_4131436
loop_
_publ_author_name
'Haynes, Alyssa S.'
'Stoumpos, Constantinos C.'
'Chen, Haijie'
'Chica, Daniel'
'Kanatzidis, Mercouri G.'
_publ_section_title
;
 Panoramic Synthesis as an Effective Materials Discovery Tool: The System
 Cs/Sn/P/Se as a Test Case.
;
_journal_issue                   31
_journal_name_full               'Journal of the American Chemical Society'
_journal_page_first              10814
_journal_page_last               10821
_journal_paper_doi               10.1021/jacs.7b05423
_journal_volume                  139
_journal_year                    2017
_chemical_formula_sum            'Cs2 P2 Se6 Sn'
_chemical_formula_weight         920.2
_space_group_IT_number           14
_space_group_name_Hall           '-P 2ybc'
_space_group_name_H-M_alt        'P 1 21/c 1'
_symmetry_cell_setting           monoclinic
_symmetry_Int_Tables_number      14
_symmetry_space_group_name_Hall  '-P 2ybc'
_symmetry_space_group_name_H-M   'P 1 21/c 1'
_audit_creation_method           'Jana2006 Version : 15/03/2013'
_cell_angle_alpha                90
_cell_angle_beta                 94.529(11)
_cell_angle_gamma                90
_cell_formula_units_Z            4
_cell_length_a                   10.2296(14)
_cell_length_b                   12.9904(11)
_cell_length_c                   10.9495(15)
_cell_measurement_reflns_used    2625
_cell_measurement_temperature    293
_cell_measurement_theta_max      27.48
_cell_measurement_theta_min      2
_cell_volume                     1450.5(3)
_computing_cell_refinement       'STOE X-AREA'
_computing_data_collection       'STOE X-AREA'
_computing_data_reduction        'STOE X-RED'
_computing_molecular_graphics    'Diamond3.1 (Putz, 2005)'
_computing_structure_refinement  'Jana2006 (Palatinus, 2006)'
_computing_structure_solution    'SHELXT (Sheldrick, 2015)'
_diffrn_ambient_temperature      293
_diffrn_detector                 'image plate'
_diffrn_detector_area_resol_mean 6.67
_diffrn_measured_fraction_theta_full 1
_diffrn_measured_fraction_theta_max 1
_diffrn_measurement_device_type  'STOE IPDS 2'
_diffrn_measurement_method       rotation
_diffrn_measurement_specimen_support 'glass capillary'
_diffrn_radiation_monochromator  graphite
_diffrn_radiation_probe          x-ray
_diffrn_radiation_type           'Mo K\a'
_diffrn_radiation_wavelength     0.71073
_diffrn_reflns_av_R_equivalents  0.1206
_diffrn_reflns_av_sigmaI/netI    0.0304
_diffrn_reflns_limit_h_max       13
_diffrn_reflns_limit_h_min       -13
_diffrn_reflns_limit_k_max       16
_diffrn_reflns_limit_k_min       -16
_diffrn_reflns_limit_l_max       13
_diffrn_reflns_limit_l_min       -14
_diffrn_reflns_number            11524
_diffrn_reflns_theta_full        27.48
_diffrn_reflns_theta_max         27.48
_diffrn_reflns_theta_min         2
_diffrn_source                   'fine-focus sealed tube'
_diffrn_source_current           40
_diffrn_source_power             2
_diffrn_source_voltage           50
_exptl_absorpt_coefficient_mu    21.937
_exptl_absorpt_correction_T_max  0.4175
_exptl_absorpt_correction_T_min  0.0306
_exptl_absorpt_correction_type   numerical
_exptl_absorpt_process_details   'STOE X-RED'
_exptl_crystal_colour            orange
_exptl_crystal_density_diffrn    4.2126
_exptl_crystal_description       rod
_exptl_crystal_F_000             1576
_exptl_crystal_size_max          0.9405
_exptl_crystal_size_mid          0.2731
_exptl_crystal_size_min          0.1115
_refine_ls_extinction_method     none
_refine_ls_goodness_of_fit_gt    3.71
_refine_ls_goodness_of_fit_ref   3.17
_refine_ls_number_constraints    0
_refine_ls_number_parameters     101
_refine_ls_number_reflns         2625
_refine_ls_number_restraints     0
_refine_ls_R_factor_all          0.0973
_refine_ls_R_factor_gt           0.0691
_refine_ls_shift/su_max          0.0449
_refine_ls_shift/su_mean         0.0034
_refine_ls_structure_factor_coef Fsqd
_refine_ls_weighting_details     w=1/(\s^2^(I)+0.0004I^2^)
_refine_ls_weighting_scheme      sigma
_refine_ls_wR_factor_gt          0.1456
_refine_ls_wR_factor_ref         0.1488
_reflns_number_gt                1857
_reflns_number_total             2625
_reflns_threshold_expression     I>3\s(I)
_cod_data_source_file            ja7b05423_si_002.cif
_cod_data_source_block           Cs2SnP2Se6
_cod_original_sg_symbol_H-M      'P 21/c'
_cod_original_formula_sum        'Cs2 P2 Se6 Sn1'
_cod_database_code               4131436
loop_
_symmetry_equiv_pos_site_id
_symmetry_equiv_pos_as_xyz
1 x,y,z
2 -x,y+1/2,-z+1/2
3 -x,-y,-z
4 x,-y+1/2,z+1/2
loop_
_atom_site_label
_atom_site_type_symbol
_atom_site_fract_x
_atom_site_fract_y
_atom_site_fract_z
_atom_site_adp_type
_atom_site_U_iso_or_equiv
_atom_site_symmetry_multiplicity
_atom_site_occupancy
_atom_site_calc_flag
Cs01 Cs 0.38600(16) 0.16581(12) 0.40218(13) Uani 0.0716(6) 4 1 d
Sn02 Sn 0.22257(15) 0.48155(12) 0.26966(13) Uani 0.0617(5) 4 1 d
Cs03 Cs 0.15741(16) 0.84373(12) 0.15928(15) Uani 0.0759(6) 4 1 d
Se04 Se 0.5004(2) 0.42080(16) 0.26950(18) Uani 0.0588(7) 4 1 d
Se05 Se 0.2449(2) 0.57181(17) 0.04087(19) Uani 0.0596(8) 4 1 d
Se06 Se 0.0357(2) 0.09399(18) 0.28299(19) Uani 0.0625(8) 4 1 d
Se07 Se 0.2874(2) 0.10682(18) 0.06544(19) Uani 0.0602(7) 4 1 d
Se08 Se 0.6366(2) 0.15259(18) 0.11778(19) Uani 0.0627(7) 4 1 d
Se09 Se 0.0574(3) 0.30887(17) 0.0924(2) Uani 0.0687(8) 4 1 d
P010 P 0.4780(5) 0.0396(4) 0.0877(4) Uani 0.0459(16) 4 1 d
P011 P 0.0293(5) 0.5792(4) 0.0337(4) Uani 0.0517(17) 4 1 d
loop_
_atom_site_aniso_label
_atom_site_aniso_type_symbol
_atom_site_aniso_U_11
_atom_site_aniso_U_22
_atom_site_aniso_U_33
_atom_site_aniso_U_12
_atom_site_aniso_U_13
_atom_site_aniso_U_23
Cs01 Cs 0.0878(11) 0.0481(8) 0.0777(9) -0.0052(8) -0.0002(8) -0.0091(7)
Sn02 Sn 0.0638(9) 0.0575(10) 0.0593(8) -0.0033(8) -0.0235(7) 0.0020(7)
Cs03 Cs 0.0817(11) 0.0501(9) 0.0972(11) -0.0105(8) 0.0138(8) -0.0104(8)
Se04 Se 0.0757(15) 0.0428(13) 0.0551(11) -0.0022(10) -0.0120(11) -0.0068(9)
Se05 Se 0.0529(12) 0.0547(14) 0.0687(12) -0.0080(10) -0.0103(11) -0.0007(10)
Se06 Se 0.0819(16) 0.0468(13) 0.0577(11) 0.0038(11) -0.0006(11) 0.0064(10)
Se07 Se 0.0600(13) 0.0529(13) 0.0660(12) 0.0095(11) -0.0058(10) 0.0049(10)
Se08 Se 0.0731(14) 0.0482(12) 0.0633(12) -0.0139(11) -0.0168(11) -0.0028(10)
Se09 Se 0.0921(17) 0.0402(12) 0.0708(13) 0.0152(12) -0.0115(12) 0.0131(10)
P010 P 0.053(3) 0.033(3) 0.049(3) 0.003(2) -0.010(2) 0.004(2)
P011 P 0.064(3) 0.036(3) 0.053(3) 0.001(2) -0.009(2) -0.001(2)
loop_
_atom_type_symbol
_atom_type_scat_dispersion_real
_atom_type_scat_dispersion_imag
_atom_type_scat_source
Cs -0.3680 2.1192 'International Tables Vol C tables 4.2.6.8 and 6.1.1.1'
P 0.1023 0.0942 'International Tables Vol C tables 4.2.6.8 and 6.1.1.1'
Se -0.0929 2.2259 'International Tables Vol C tables 4.2.6.8 and 6.1.1.1'
Sn -0.6537 1.4246 'International Tables Vol C tables 4.2.6.8 and 6.1.1.1'
loop_
_geom_angle_atom_site_label_1
_geom_angle_atom_site_label_2
_geom_angle_atom_site_label_3
_geom_angle_site_symmetry_1
_geom_angle_site_symmetry_3
_geom_angle
Cs01 Cs01 Cs03 3_656 1_545 74.16(3)
Cs01 Cs01 Cs03 3_656 2_645 92.40(4)
Cs01 Cs01 Se04 3_656 . 136.13(5)
Cs01 Cs01 Se04 3_656 2_645 52.62(4)
Cs01 Cs01 Se05 3_656 4_555 48.67(4)
Cs01 Cs01 Se06 3_656 . 108.14(5)
Cs01 Cs01 Se07 3_656 . 107.62(5)
Cs01 Cs01 Se07 3_656 4_555 126.51(5)
Cs01 Cs01 P010 3_656 . 83.57(7)
Cs03 Cs01 Cs03 1_545 2_645 128.89(4)
Cs03 Cs01 Se04 1_545 . 128.07(5)
Cs03 Cs01 Se04 1_545 2_645 42.83(4)
Cs03 Cs01 Se05 1_545 4_555 53.09(4)
Cs03 Cs01 Se06 1_545 . 44.38(4)
Cs03 Cs01 Se07 1_545 . 45.37(4)
Cs03 Cs01 Se07 1_545 4_555 138.29(6)
Cs03 Cs01 P010 1_545 . 51.57(8)
Cs03 Cs01 Se04 2_645 . 43.73(4)
Cs03 Cs01 Se04 2_645 2_645 89.75(5)
Cs03 Cs01 Se05 2_645 4_555 140.88(5)
Cs03 Cs01 Se06 2_645 . 150.77(5)
Cs03 Cs01 Se07 2_645 . 97.65(5)
Cs03 Cs01 Se07 2_645 4_555 89.41(5)
Cs03 Cs01 P010 2_645 . 78.43(8)
Se04 Cs01 Se04 . 2_645 114.12(6)
Se04 Cs01 Se05 . 4_555 174.59(7)
Se04 Cs01 Se06 . . 112.73(6)
Se04 Cs01 Se07 . . 82.71(5)
Se04 Cs01 Se07 . 4_555 65.77(5)
Se04 Cs01 P010 . . 85.88(8)
Se04 Cs01 Se05 2_645 4_555 70.51(5)
Se04 Cs01 Se06 2_645 . 86.77(6)
Se04 Cs01 Se07 2_645 . 55.96(5)
Se04 Cs01 Se07 2_645 4_555 178.76(6)
Se04 Cs01 P010 2_645 . 32.21(7)
Se05 Cs01 Se06 4_555 . 63.97(5)
Se05 Cs01 Se07 4_555 . 98.27(6)
Se05 Cs01 Se07 4_555 4_555 109.66(6)
Se05 Cs01 P010 4_555 . 97.75(8)
Se06 Cs01 Se07 . . 56.91(5)
Se06 Cs01 Se07 . 4_555 94.41(6)
Se06 Cs01 P010 . . 83.34(8)
Se07 Cs01 Se07 . 4_555 125.07(6)
Se07 Cs01 P010 . . 31.58(8)
Se07 Cs01 P010 4_555 . 148.31(9)
Cs01 Cs03 Cs01 1_565 2_655 92.80(4)
Cs01 Cs03 Sn02 1_565 2_555 87.24(4)
Cs01 Cs03 Se04 1_565 2_655 46.63(4)
Cs01 Cs03 Se05 1_565 . 140.05(5)
Cs01 Cs03 Se06 1_565 1_565 45.28(4)
Cs01 Cs03 Se06 1_565 2_555 140.89(5)
Cs01 Cs03 Se07 1_565 1_565 45.16(4)
Cs01 Cs03 Se08 1_565 3_665 97.86(5)
Cs01 Cs03 Se09 1_565 2_555 89.55(5)
Cs01 Cs03 Se09 1_565 3_565 159.32(5)
Cs01 Cs03 P011 1_565 . 168.78(8)
Cs01 Cs03 Sn02 2_655 2_555 176.68(5)
Cs01 Cs03 Se04 2_655 2_655 46.36(4)
Cs01 Cs03 Se05 2_655 . 48.23(4)
Cs01 Cs03 Se06 2_655 1_565 137.78(6)
Cs01 Cs03 Se06 2_655 2_555 96.97(5)
Cs01 Cs03 Se07 2_655 1_565 91.55(5)
Cs01 Cs03 Se08 2_655 3_665 50.16(4)
Cs01 Cs03 Se09 2_655 2_555 128.88(6)
Cs01 Cs03 Se09 2_655 3_565 98.09(5)
Cs01 Cs03 P011 2_655 . 81.12(9)
Sn02 Cs03 Se04 2_555 2_655 133.85(6)
Sn02 Cs03 Se05 2_555 . 131.10(6)
Sn02 Cs03 Se06 2_555 1_565 42.70(5)
Sn02 Cs03 Se06 2_555 2_555 80.97(5)
Sn02 Cs03 Se07 2_555 1_565 90.83(5)
Sn02 Cs03 Se08 2_555 3_665 133.12(6)
Sn02 Cs03 Se09 2_555 2_555 47.81(5)
Sn02 Cs03 Se09 2_555 3_565 82.90(5)
Sn02 Cs03 P011 2_555 . 98.28(9)
Se04 Cs03 Se05 2_655 . 94.46(6)
Se04 Cs03 Se06 2_655 1_565 91.43(6)
Se04 Cs03 Se06 2_655 2_555 133.19(6)
Se04 Cs03 Se07 2_655 1_565 57.88(5)
Se04 Cs03 Se08 2_655 3_665 65.73(5)
Se04 Cs03 Se09 2_655 2_555 119.71(7)
Se04 Cs03 Se09 2_655 3_565 139.45(7)
Se04 Cs03 P011 2_655 . 127.30(10)
Se05 Cs03 Se06 . 1_565 173.42(7)
Se05 Cs03 Se06 . 2_555 55.13(5)
Se05 Cs03 Se07 . 1_565 128.73(7)
Se05 Cs03 Se08 . 3_665 65.91(5)
Se05 Cs03 Se09 . 2_555 107.63(6)
Se05 Cs03 Se09 . 3_565 55.82(5)
Se05 Cs03 P011 . . 32.90(9)
Se06 Cs03 Se06 1_565 2_555 118.43(7)
Se06 Cs03 Se07 1_565 1_565 57.28(5)
Se06 Cs03 Se08 1_565 3_665 119.46(6)
Se06 Cs03 Se09 1_565 2_555 66.72(6)
Se06 Cs03 Se09 1_565 3_565 120.36(6)
Se06 Cs03 P011 1_565 . 140.98(10)
Se06 Cs03 Se07 2_555 1_565 168.84(7)
Se06 Cs03 Se08 2_555 3_665 117.33(6)
Se06 Cs03 Se09 2_555 2_555 55.33(5)
Se06 Cs03 Se09 2_555 3_565 55.07(5)
Se06 Cs03 P011 2_555 . 32.49(8)
Se07 Cs03 Se08 1_565 3_665 63.42(5)
Se07 Cs03 Se09 1_565 2_555 123.42(7)
Se07 Cs03 Se09 1_565 3_565 116.65(6)
Se07 Cs03 P011 1_565 . 143.75(9)
Se08 Cs03 Se09 3_665 2_555 172.53(7)
Se08 Cs03 Se09 3_665 3_565 76.25(6)
Se08 Cs03 P011 3_665 . 85.53(9)
Se09 Cs03 Se09 2_555 3_565 97.10(6)
Se09 Cs03 P011 2_555 . 87.02(9)
Se09 Cs03 P011 3_565 . 31.90(8)
Cs01 Se04 Cs01 . 2_655 173.52(7)
Cs01 Se04 Cs03 . 2_645 89.91(6)
Cs01 Se04 P010 . 2_655 110.71(14)
Cs01 Se04 Cs03 2_655 2_645 90.54(6)
Cs01 Se04 P010 2_655 2_655 75.76(14)
Cs03 Se04 P010 2_645 2_655 89.99(15)
Cs01 Se05 Cs03 4_554 . 168.86(7)
Cs01 Se05 P011 4_554 . 115.76(15)
Cs03 Se05 P011 . . 73.51(15)
Cs01 Se06 Cs03 . 1_545 90.34(6)
Cs01 Se06 Cs03 . 2_545 102.46(6)
Cs01 Se06 P011 . 2_545 93.03(16)
Cs03 Se06 Cs03 1_545 2_545 165.27(7)
Cs03 Se06 P011 1_545 2_545 112.93(16)
Cs03 Se06 P011 2_545 2_545 74.11(15)
Cs01 Se07 Cs01 . 4_554 104.42(6)
Cs01 Se07 Cs03 . 1_545 89.48(6)
Cs01 Se07 P010 . . 78.62(14)
Cs01 Se07 Cs03 4_554 1_545 166.10(7)
Cs01 Se07 P010 4_554 . 95.85(15)
Cs03 Se07 P010 1_545 . 86.43(15)
Cs03 Se08 P010 3_665 . 109.64(14)
Cs03 Se09 Cs03 2_545 3_565 104.40(7)
Cs03 Se09 P011 2_545 3_565 98.77(17)
Cs03 Se09 P011 3_565 3_565 73.17(15)
Cs01 P010 Se04 . 2_645 72.04(13)
Cs01 P010 Se07 . . 69.79(14)
Cs01 P010 Se08 . . 79.48(14)
Cs01 P010 P010 . 3_655 176.6(2)
Se04 P010 Se07 2_645 . 114.1(2)
Se04 P010 Se08 2_645 . 109.4(2)
Se04 P010 P010 2_645 3_655 105.7(2)
Se07 P010 Se08 . . 113.7(2)
Se07 P010 P010 . 3_655 109.4(2)
Se08 P010 P010 . 3_655 103.8(2)
Cs03 P011 Se05 . . 73.59(15)
Cs03 P011 Se06 . 2_555 73.41(15)
Cs03 P011 Se09 . 3_565 74.93(15)
Cs03 P011 P011 . 3_565 175.4(3)
Se05 P011 Se06 . 2_555 110.4(2)
Se05 P011 Se09 . 3_565 114.4(3)
Se05 P011 P011 . 3_565 102.2(3)
Se06 P011 Se09 2_555 3_565 113.2(3)
Se06 P011 P011 2_555 3_565 106.9(3)
Se09 P011 P011 3_565 3_565 108.8(3)
loop_
_geom_bond_atom_site_label_1
_geom_bond_atom_site_label_2
_geom_bond_site_symmetry_2
_geom_bond_distance
Cs01 Cs01 3_656 5.272(2)
Cs01 Cs03 1_545 5.391(2)
Cs01 Cs03 2_645 5.302(3)
Cs01 Se04 . 3.837(3)
Cs01 Se04 2_645 3.919(3)
Cs01 Se05 4_555 3.777(3)
Cs01 Se06 . 3.831(3)
Cs01 Se07 . 3.823(3)
Cs01 Se07 4_555 3.636(3)
Cs01 P010 . 3.993(5)
Sn02 Cs03 2_545 4.404(2)
Cs03 Se04 2_655 3.665(3)
Cs03 Se05 . 3.892(3)
Cs03 Se06 1_565 3.771(3)
Cs03 Se06 2_555 3.876(3)
Cs03 Se07 1_565 3.837(3)
Cs03 Se08 3_665 3.828(3)
Cs03 Se09 2_555 3.656(3)
Cs03 Se09 3_565 3.924(3)
Cs03 P011 . 3.890(5)
Se04 P010 2_655 2.196(5)
Se05 P011 . 2.203(6)
Se06 P011 2_545 2.172(6)
Se07 P010 . 2.133(5)
Se08 P010 . 2.193(5)
Se09 P011 3_565 2.148(6)
P010 P010 3_655 2.254(7)
P011 P011 3_565 2.251(7)
loop_
_refln_index_h
_refln_index_k
_refln_index_l
_refln_F_squared_calc
_refln_F_squared_meas
_refln_F_squared_sigma
_refln_observed_status
_jana_refln_twin_domain
1 0 0 13.50 9.30 116.31 < 1
2 0 0 2211.49 1777.23 148.88 o 1
3 0 0 304.51 316.36 125.61 < 1
4 0 0 19802.00 19549.50 214.01 o 1
5 0 0 12560.40 11882.30 172.14 o 1
6 0 0 335.80 376.85 116.31 o 1
7 0 0 12560.40 13143.10 195.40 o 1
8 0 0 11965.90 11086.70 181.45 o 1
9 0 0 8989.92 7257.78 181.44 o 1
10 0 0 741.95 679.25 125.61 o 1
11 0 0 1231.42 1074.71 153.53 o 1
12 0 0 126.18 293.10 148.88 < 1
1 1 0 62.25 83.74 125.61 < 1
2 1 0 20790.50 13240.80 167.49 o 1
3 1 0 17850.20 15627.50 158.18 o 1
4 1 0 27186.70 26346.70 172.14 o 1
5 1 0 30092.00 30301.20 176.79 o 1
6 1 0 3965.39 4554.72 107.01 o 1
7 1 0 186.85 162.84 74.44 < 1
8 1 0 852.95 832.78 83.74 o 1
9 1 0 2028.64 1730.70 88.40 o 1
10 1 0 70.34 -27.91 88.40 < 1
11 1 0 1576.85 1558.56 111.66 o 1
12 1 0 55.99 255.88 107.01 < 1
0 -2 0 27772.30 20293.90 339.63 o -2
0 2 0 27772.30 20293.90 339.63 o 1
1 2 0 1385.73 1046.80 120.96 o 1
2 2 0 13768.00 12575.50 232.62 o 1
3 2 0 19493.30 14287.60 162.84 o 1
4 2 0 131900.00 117595.00 344.28 o 1
5 2 0 687.44 707.17 97.70 o 1
6 2 0 1120.55 1209.63 97.70 o 1
7 2 0 3308.73 2949.64 93.05 o 1
8 2 0 2183.84 2256.43 97.70 o 1
9 2 0 3482.53 3219.48 107.01 o 1
10 2 0 108.98 139.57 93.05 < 1
11 2 0 942.62 1149.15 107.01 o 1
12 2 0 8.36 195.40 97.70 < 1
1 3 0 9.31 46.52 111.66 < 1
2 3 0 2004.01 1628.35 181.45 o 1
3 3 0 327.19 339.63 148.88 < 1
4 3 0 1643.20 1958.67 120.96 o 1
5 3 0 1277.20 1014.23 102.35 o 1
6 3 0 1618.13 1791.18 97.70 o 1
7 3 0 2643.01 1907.49 107.01 o 1
8 3 0 618.57 669.95 93.05 o 1
9 3 0 1496.74 1186.37 97.70 o 1
10 3 0 119.93 241.93 97.70 < 1
11 3 0 1658.99 1749.31 107.01 o 1
12 3 0 3.61 209.36 93.05 < 1
0 -4 0 141173.00 134804.00 632.73 o -2
0 4 0 141173.00 134804.00 632.73 o 1
1 4 0 1149.14 1056.10 120.96 o 1
2 4 0 3782.07 3521.88 214.01 o 1
3 4 0 16993.30 17907.20 241.93 o 1
4 4 0 17345.70 17842.00 204.71 o 1
5 4 0 1117.95 1316.64 125.61 o 1
6 4 0 6993.74 6271.47 134.92 o 1
7 4 0 5086.30 3991.78 107.01 o 1
8 4 0 895.78 674.60 97.70 o 1
9 4 0 8056.38 7825.38 134.92 o 1
10 4 0 132.95 223.32 102.35 < 1
11 4 0 239.94 414.07 102.35 o 1
1 5 0 6166.41 6401.73 144.23 o 1
2 5 0 23895.10 24053.00 209.36 o 1
3 5 0 433.34 362.89 111.66 o 1
4 5 0 10300.30 10975.10 181.45 o 1
5 5 0 13897.40 14143.40 186.10 o 1
6 5 0 476.33 488.50 111.66 o 1
7 5 0 7598.05 6811.15 148.88 o 1
8 5 0 849.68 837.44 116.31 o 1
9 5 0 851.07 535.03 102.35 o 1
10 5 0 9.77 116.31 93.05 < 1
11 5 0 41.34 204.71 107.01 < 1
0 -6 0 24710.30 26518.80 274.49 o -2
0 6 0 24710.30 26518.80 274.49 o 1
1 6 0 1171.61 2088.94 120.96 o 1
2 6 0 17825.90 17609.40 190.75 o 1
3 6 0 1422.01 1293.37 107.01 o 1
4 6 0 109555.00 122438.00 423.37 o 1
5 6 0 30388.40 31003.70 237.27 o 1
6 6 0 15.56 9.30 111.66 < 1
7 6 0 1904.14 1823.75 130.27 o 1
8 6 0 95.39 167.49 116.31 < 1
9 6 0 27.38 88.40 111.66 < 1
10 6 0 47.94 125.61 120.96 < 1
11 6 0 129.96 279.14 125.61 < 1
1 7 0 111.03 2140.11 125.61 o 1
2 7 0 2363.24 2433.22 134.92 o 1
3 7 0 4383.52 4689.64 130.27 o 1
4 7 0 3376.63 3889.43 120.96 o 1
5 7 0 3431.98 4112.74 116.31 o 1
6 7 0 8104.92 9221.10 148.88 o 1
7 7 0 2759.48 2675.14 125.61 o 1
8 7 0 6139.90 5834.14 144.23 o 1
9 7 0 15.86 204.71 102.35 < 1
10 7 0 176.63 260.54 120.96 < 1
0 -8 0 19531.80 21610.50 246.58 o -2
0 8 0 19531.80 21610.50 246.58 o 1
1 8 0 37.42 437.33 107.01 o 1
2 8 0 18811.20 20624.20 195.40 o 1
3 8 0 6.42 -13.96 102.35 < 1
4 8 0 1048.66 995.62 93.05 o 1
5 8 0 0.98 -60.48 83.74 < 1
6 8 0 250.46 269.84 97.70 < 1
7 8 0 1722.83 1954.02 107.01 o 1
8 8 0 1134.55 1042.14 107.01 o 1
9 8 0 1603.62 1339.90 120.96 o 1
10 8 0 197.32 260.54 111.66 < 1
1 9 0 6.34 246.58 139.57 < 1
2 9 0 1122.28 1191.02 111.66 o 1
3 9 0 19312.00 20819.60 186.10 o 1
4 9 0 9617.78 10026.00 139.57 o 1
5 9 0 4557.18 4889.70 120.96 o 1
6 9 0 17.11 46.52 93.05 < 1
7 9 0 2208.77 1888.88 102.35 o 1
8 9 0 2714.17 2479.74 125.61 o 1
9 9 0 17.95 181.45 93.05 < 1
0 -10 0 128.03 214.01 144.23 < -2
0 10 0 128.03 214.01 144.23 < 1
1 10 0 11672.80 11849.70 232.62 o 1
2 10 0 2033.57 2088.94 120.96 o 1
3 10 0 4511.41 4968.79 120.96 o 1
4 10 0 22077.70 25272.00 204.71 o 1
5 10 0 1476.90 1400.38 102.35 o 1
6 10 0 1670.72 1507.39 111.66 o 1
7 10 0 51.64 144.23 102.35 < 1
8 10 0 1829.47 1414.34 125.61 o 1
9 10 0 32.38 269.84 107.01 < 1
1 11 0 25855.00 28779.90 395.46 o 1
2 11 0 8190.84 8648.85 167.49 o 1
3 11 0 4827.71 5638.74 139.57 o 1
4 11 0 66.36 -18.61 111.66 < 1
5 11 0 1626.82 1474.82 111.66 o 1
6 11 0 134.68 223.32 107.01 < 1
7 11 0 808.23 856.05 111.66 o 1
8 11 0 35.36 297.76 116.31 < 1
0 -12 0 30415.00 30371.00 395.46 o -2
0 12 0 30415.00 30371.00 395.46 o 1
1 12 0 335.76 302.41 158.18 < 1
2 12 0 137.22 344.28 125.61 < 1
3 12 0 63.05 69.79 120.96 < 1
4 12 0 403.54 437.33 125.61 o 1
5 12 0 3236.11 2861.24 144.23 o 1
6 12 0 108.34 232.62 111.66 < 1
7 12 0 371.20 195.40 116.31 < 1
1 13 0 6629.26 5136.28 260.54 o 1
2 13 0 501.34 367.54 134.92 < 1
3 13 0 2.34 162.84 125.61 < 1
4 13 0 361.86 353.58 130.27 < 1
5 13 0 934.16 646.69 130.27 o 1
6 13 0 899.47 437.33 120.96 o 1
0 -14 0 30.19 120.96 344.28 < -2
0 14 0 30.19 120.96 344.28 < 1
1 14 0 17.29 181.45 214.01 < 1
2 14 0 27.26 153.53 181.45 < 1
3 14 0 769.71 651.34 162.84 o 1
4 14 0 61.92 176.79 139.57 < 1
5 14 0 57.67 246.58 139.57 < 1
1 15 0 1103.29 781.61 209.36 o 1
2 15 0 34.53 153.53 209.36 < 1
3 15 0 767.05 707.17 181.45 o 1
-12 1 1 42.42 288.45 107.01 < 1
-11 1 1 565.00 558.29 107.01 o 1
-10 1 1 119.34 158.18 97.70 < 1
-9 1 1 44.90 97.70 93.05 < 1
-8 1 1 6434.15 5755.05 130.27 o 1
-7 1 1 11119.00 10235.30 153.53 o 1
-6 1 1 557.43 502.46 116.31 o 1
-5 1 1 29895.40 31990.10 223.32 o 1
-4 1 1 477.73 725.78 130.27 o 1
-3 1 1 8584.52 8611.64 200.05 o 1
-2 1 1 2411.71 2009.85 214.01 o 1
-1 -1 1 36301.80 27398.10 353.58 o -2
-1 1 1 36301.80 27398.10 353.58 o 1
0 1 1 181.09 130.27 88.40 < 1
1 1 1 1716.02 1051.45 74.44 o 1
2 1 1 4714.27 3010.12 88.40 o 1
3 1 1 79923.50 74955.20 251.23 o 1
4 1 1 9626.55 10151.60 111.66 o 1
5 1 1 1368.75 1293.37 79.09 o 1
6 1 1 36898.30 38759.30 172.14 o 1
7 1 1 1821.10 1581.82 74.44 o 1
8 1 1 20263.30 17246.50 144.23 o 1
9 1 1 524.47 586.21 74.44 o 1
10 1 1 3910.15 3042.68 102.35 o 1
11 1 1 87.50 195.40 88.40 < 1
12 1 1 522.58 581.55 107.01 o 1
-12 2 1 832.34 679.25 111.66 o 1
-11 2 1 115.15 167.49 102.35 < 1
-10 2 1 433.58 334.97 97.70 o 1
-9 2 1 183.01 116.31 88.40 < 1
-8 2 1 615.34 460.59 93.05 o 1
-7 2 1 16.37 55.83 93.05 < 1
-6 2 1 1900.03 1944.71 120.96 o 1
-5 2 1 8682.73 8527.89 153.53 o 1
-4 2 1 9155.16 8220.83 162.84 o 1
-3 2 1 450734.00 350420.00 795.57 o 1
-2 2 1 438.52 288.45 148.88 < 1
-1 -2 1 68.60 88.40 139.57 < -2
-1 2 1 68.60 88.40 139.57 < 1
0 2 1 1593.50 1358.51 195.40 o 1
1 2 1 11232.90 10244.60 172.14 o 1
2 2 1 2713.46 1823.75 88.40 o 1
3 2 1 2672.19 1605.09 79.09 o 1
4 2 1 173.25 167.49 65.13 < 1
5 2 1 70710.40 77369.80 237.27 o 1
6 2 1 43152.80 41415.90 190.75 o 1
7 2 1 2.72 46.52 65.13 < 1
8 2 1 103.68 158.18 74.44 < 1
9 2 1 5.73 69.79 74.44 < 1
10 2 1 400.38 432.67 88.40 o 1
11 2 1 714.83 842.09 97.70 o 1
12 2 1 368.21 376.85 102.35 o 1
-12 3 1 148.85 265.19 102.35 < 1
-11 3 1 282.13 311.71 102.35 o 1
-10 3 1 4.87 93.05 107.01 < 1
-9 3 1 109.29 162.84 93.05 < 1
-8 3 1 1128.75 776.96 97.70 o 1
-7 3 1 1928.39 1749.31 111.66 o 1
-6 3 1 13197.00 13198.90 167.49 o 1
-5 3 1 5276.29 5192.10 144.23 o 1
-4 3 1 30906.00 24564.80 218.66 o 1
-3 3 1 23975.30 22043.20 265.19 o 1
-2 3 1 4783.85 4815.26 186.10 o 1
-1 -3 1 113381.00 102116.00 437.33 o -2
-1 3 1 113381.00 102116.00 437.33 o 1
0 3 1 1578.23 1237.54 214.01 o 1
1 3 1 56839.50 53158.60 609.47 o 1
2 3 1 84425.60 75467.00 348.93 o 1
3 3 1 2098.92 2116.85 97.70 o 1
4 3 1 29912.70 28924.10 167.49 o 1
5 3 1 940.78 790.91 83.74 o 1
6 3 1 1433.48 1097.97 79.09 o 1
7 3 1 7363.49 6666.92 107.01 o 1
8 3 1 344.86 325.67 74.44 o 1
9 3 1 98.59 148.88 83.74 < 1
10 3 1 1988.70 1442.25 102.35 o 1
11 3 1 116.90 297.76 102.35 < 1
-11 4 1 51.97 302.41 111.66 < 1
-10 4 1 198.90 293.10 116.31 < 1
-9 4 1 4388.33 4075.52 134.92 o 1
-8 4 1 9100.63 6894.89 162.84 o 1
-7 4 1 16385.30 14380.60 190.75 o 1
-6 4 1 4111.64 3098.51 125.61 o 1
-5 4 1 4291.02 4926.92 148.88 o 1
-4 4 1 27.64 51.18 139.57 < 1
-3 4 1 2468.54 2191.29 241.93 o 1
-2 4 1 3701.32 3959.21 153.53 o 1
-1 -4 1 90.12 93.05 93.05 < -2
-1 4 1 90.12 93.05 93.05 < 1
0 4 1 86.43 125.61 139.57 < 1
1 4 1 420343.00 396475.00 767.65 o 1
2 4 1 1722.94 1991.24 111.66 o 1
3 4 1 8563.63 8481.37 162.84 o 1
4 4 1 1331.57 1172.41 97.70 o 1
5 4 1 1843.95 1758.62 97.70 o 1
6 4 1 7605.57 7090.29 116.31 o 1
7 4 1 3051.96 2377.39 93.05 o 1
8 4 1 1543.82 832.78 88.40 o 1
9 4 1 1480.57 1228.24 102.35 o 1
10 4 1 4458.13 3963.86 130.27 o 1
11 4 1 13.93 153.53 93.05 < 1
-11 5 1 514.27 539.68 130.27 o 1
-10 5 1 2140.78 2112.20 139.57 o 1
-9 5 1 1555.45 1353.86 120.96 o 1
-8 5 1 1024.33 949.09 116.31 o 1
-7 5 1 2018.93 1902.84 125.61 o 1
-6 5 1 2909.22 3289.26 125.61 o 1
-5 5 1 3956.79 4550.07 139.57 o 1
-4 5 1 307.55 400.11 130.27 o 1
-3 5 1 2848.97 2763.54 246.58 o 1
-2 5 1 12089.70 14096.80 190.75 o 1
-1 -5 1 5036.66 5266.54 139.57 o -2
-1 5 1 5036.66 5266.54 139.57 o 1
0 5 1 5684.37 6355.21 190.75 o 1
1 5 1 22957.00 22308.40 325.67 o 1
2 5 1 5613.87 5564.30 125.61 o 1
3 5 1 15337.60 16604.50 339.63 o 1
4 5 1 15059.70 14245.70 209.36 o 1
5 5 1 40472.60 40638.90 269.84 o 1
6 5 1 6569.96 6913.50 148.88 o 1
7 5 1 147.83 316.36 107.01 < 1
8 5 1 678.66 935.14 102.35 o 1
9 5 1 2154.49 1735.35 107.01 o 1
10 5 1 22.18 172.14 97.70 < 1
11 5 1 11.64 204.71 97.70 < 1
-11 6 1 302.85 390.80 125.61 o 1
-10 6 1 64.64 269.84 111.66 < 1
-9 6 1 2223.46 1777.23 120.96 o 1
-8 6 1 1509.39 1246.85 111.66 o 1
-7 6 1 4452.91 4498.89 134.92 o 1
-6 6 1 416.73 372.19 107.01 o 1
-5 6 1 59.35 148.88 102.35 < 1
-4 6 1 441.74 451.29 125.61 o 1
-3 6 1 5302.02 5648.04 302.41 o 1
-2 6 1 1195.70 3405.57 134.92 o 1
-1 -6 1 2787.49 2447.17 134.92 o -2
-1 6 1 2787.49 2447.17 134.92 o 1
0 6 1 18712.70 18032.80 218.66 o 1
1 6 1 56.84 162.84 209.36 < 1
2 6 1 123.15 325.67 107.01 o 1
3 6 1 5190.30 5331.68 116.31 o 1
4 6 1 23539.10 26356.00 283.80 o 1
5 6 1 3838.32 4233.71 153.53 o 1
6 6 1 1863.06 1977.28 130.27 o 1
7 6 1 1270.12 1209.63 125.61 o 1
8 6 1 498.34 414.07 116.31 o 1
9 6 1 993.69 790.91 116.31 o 1
10 6 1 0.92 227.97 120.96 < 1
11 6 1 2.70 251.23 116.31 < 1
-10 7 1 2944.56 2349.47 144.23 o 1
-9 7 1 31.94 32.57 102.35 < 1
-8 7 1 4310.88 4270.92 130.27 o 1
-7 7 1 34.66 32.57 102.35 < 1
-6 7 1 2190.74 2223.86 111.66 o 1
-5 7 1 1153.23 1521.34 107.01 o 1
-4 7 1 149.37 162.84 158.18 < 1
-3 7 1 3904.86 4103.44 358.24 o 1
-2 7 1 20.68 693.21 116.31 o 1
-1 -7 1 14486.20 14441.10 181.45 o -2
-1 7 1 14486.20 14441.10 181.45 o 1
0 7 1 30493.40 32329.70 255.88 o 1
1 7 1 12447.60 12822.10 497.81 o 1
2 7 1 11853.10 12794.20 153.53 o 1
3 7 1 1169.00 1228.24 102.35 o 1
4 7 1 4758.40 5499.16 116.31 o 1
5 7 1 4607.44 4782.69 148.88 o 1
6 7 1 4062.43 4652.42 158.18 o 1
7 7 1 182.02 404.76 130.27 o 1
8 7 1 1526.57 1530.65 125.61 o 1
9 7 1 70.40 195.40 116.31 < 1
10 7 1 648.46 497.81 130.27 o 1
-10 8 1 37.35 181.45 111.66 < 1
-9 8 1 4.09 158.18 111.66 < 1
-8 8 1 5671.43 5573.60 139.57 o 1
-7 8 1 8217.41 9742.17 148.88 o 1
-6 8 1 1029.70 1028.19 102.35 o 1
-5 8 1 11111.90 12468.50 167.49 o 1
-4 8 1 4113.05 4247.66 153.53 o 1
-3 8 1 5141.05 5815.53 511.77 o 1
-2 8 1 1775.30 2442.52 125.61 o 1
-1 -8 1 3011.26 2954.29 139.57 o -2
-1 8 1 3011.26 2954.29 139.57 o 1
0 8 1 6866.83 7723.02 172.14 o 1
1 8 1 163325.00 175992.00 1432.95 o 1
2 8 1 37887.00 40113.20 227.97 o 1
3 8 1 728.19 809.52 93.05 o 1
4 8 1 3073.13 3656.80 97.70 o 1
5 8 1 168.70 209.36 83.74 < 1
6 8 1 262.97 186.10 83.74 < 1
7 8 1 27.51 27.91 102.35 < 1
8 8 1 7.69 88.40 107.01 < 1
9 8 1 1152.29 981.66 120.96 o 1
10 8 1 1426.53 1084.01 125.61 o 1
-10 9 1 179.17 362.89 111.66 o 1
-9 9 1 86.29 209.36 97.70 < 1
-8 9 1 121.75 148.88 93.05 < 1
-7 9 1 233.46 158.18 102.35 < 1
-6 9 1 6200.62 7527.62 153.53 o 1
-5 9 1 2158.09 2037.76 111.66 o 1
-4 9 1 15387.30 15981.10 181.44 o 1
-3 9 1 5809.48 5834.14 339.63 o 1
-2 9 1 6521.29 7248.48 158.18 o 1
-1 -9 1 11795.10 11663.60 186.10 o -2
-1 9 1 11795.10 11663.60 186.10 o 1
0 9 1 5974.08 6662.27 158.18 o 1
1 9 1 264.87 321.02 488.50 < 1
2 9 1 694.64 623.42 102.35 o 1
3 9 1 5317.83 5894.62 116.31 o 1
4 9 1 6426.26 6876.28 120.96 o 1
5 9 1 2746.36 2986.86 102.35 o 1
6 9 1 3142.27 3252.04 102.35 o 1
7 9 1 45.34 55.83 93.05 < 1
8 9 1 71.13 200.05 111.66 < 1
9 9 1 172.58 227.97 102.35 < 1
-9 10 1 68.50 209.36 111.66 < 1
-8 10 1 624.64 544.33 116.31 o 1
-7 10 1 24.49 176.79 120.96 < 1
-6 10 1 2576.80 2782.15 130.27 o 1
-5 10 1 2783.13 2386.69 125.61 o 1
-4 10 1 203.57 111.66 111.66 < 1
-3 10 1 19351.40 20293.90 227.97 o 1
-2 10 1 13219.30 15576.30 223.32 o 1
-1 -10 1 4283.33 4494.24 162.84 o -2
-1 10 1 4283.33 4494.24 162.84 o 1
0 10 1 649.06 1377.12 130.27 o 1
1 10 1 94.96 227.97 581.55 < 1
2 10 1 1032.28 953.75 107.01 o 1
3 10 1 68.90 130.27 97.70 < 1
4 10 1 43.44 102.35 93.05 < 1
5 10 1 17994.70 20461.40 172.14 o 1
6 10 1 4883.90 5350.29 120.96 o 1
7 10 1 233.99 200.05 97.70 < 1
8 10 1 95.82 200.05 102.35 < 1
9 10 1 2311.79 1391.07 125.61 o 1
-8 11 1 85.22 246.58 125.61 < 1
-7 11 1 1116.41 977.01 134.92 o 1
-6 11 1 260.79 158.18 116.31 < 1
-5 11 1 358.92 321.02 130.27 < 1
-4 11 1 1838.18 1879.58 139.57 o 1
-3 11 1 23.22 130.27 130.27 < 1
-2 11 1 7450.72 7974.25 223.32 o 1
-1 -11 1 269.63 237.27 130.27 < -2
-1 11 1 269.63 237.27 130.27 < 1
0 11 1 8011.33 8807.04 176.79 o 1
1 11 1 586.87 735.08 116.31 o 1
2 11 1 58.10 83.74 102.35 < 1
3 11 1 1445.91 1870.27 102.35 o 1
4 11 1 61.48 93.05 102.35 < 1
5 11 1 60.92 60.48 107.01 < 1
6 11 1 582.53 595.51 107.01 o 1
7 11 1 535.38 293.10 102.35 < 1
8 11 1 453.89 232.62 111.66 < 1
-7 12 1 1487.80 749.04 153.53 o 1
-6 12 1 3820.21 2944.98 162.84 o 1
-5 12 1 491.54 316.36 153.53 < 1
-4 12 1 100.28 181.45 139.57 < 1
-3 12 1 41.44 214.01 144.23 < 1
-2 12 1 5445.65 4968.79 325.67 o 1
-1 -12 1 373.14 339.63 125.61 < -2
-1 12 1 373.14 339.63 125.61 < 1
0 12 1 73.35 60.48 116.31 < 1
1 12 1 1743.01 2223.86 130.27 o 1
2 12 1 8.68 18.61 107.01 < 1
3 12 1 890.46 907.22 116.31 o 1
4 12 1 819.75 763.00 116.31 o 1
5 12 1 6775.10 7011.20 158.18 o 1
6 12 1 90.35 214.01 111.66 < 1
7 12 1 2177.23 1097.97 125.61 o 1
-6 13 1 485.32 539.68 144.23 o 1
-5 13 1 124.02 237.27 153.53 < 1
-4 13 1 3250.29 2489.05 176.79 o 1
-3 13 1 180.63 190.75 167.49 < 1
-2 13 1 4239.03 3363.70 195.40 o 1
-1 -13 1 2786.45 1767.92 144.23 o -2
-1 13 1 2786.45 1767.92 144.23 o 1
0 13 1 115.05 288.45 139.57 < 1
1 13 1 601.92 507.11 134.92 o 1
2 13 1 872.75 856.05 130.27 o 1
3 13 1 1637.50 1284.07 125.61 o 1
4 13 1 1125.90 823.48 125.61 o 1
5 13 1 96.50 227.97 111.66 < 1
6 13 1 290.07 297.76 107.01 < 1
-5 14 1 588.94 562.94 167.49 o 1
-4 14 1 2339.88 1111.93 186.10 o 1
-3 14 1 9717.20 6471.52 246.58 o 1
-2 14 1 66.02 218.66 172.14 < 1
-1 -14 1 1566.24 763.00 181.45 o -2
-1 14 1 1566.24 763.00 181.45 o 1
0 14 1 46.74 204.71 200.05 < 1
1 14 1 320.00 321.02 158.18 < 1
2 14 1 6755.37 6308.69 200.05 o 1
3 14 1 4110.87 3447.45 158.18 o 1
4 14 1 9.46 200.05 120.96 < 1
5 14 1 2930.55 2009.85 134.92 o 1
-3 15 1 118.71 214.01 181.45 < 1
-2 15 1 49.31 176.79 162.84 < 1
-1 -15 1 2893.24 1428.29 209.36 o -2
-1 15 1 2893.24 1428.29 209.36 o 1
0 15 1 880.39 618.77 395.46 < 1
1 15 1 96.73 172.14 172.14 < 1
2 15 1 248.05 311.71 167.49 < 1
3 15 1 822.40 502.46 144.23 o 1
-12 0 2 147.57 400.11 176.79 < 1
-11 0 2 11.34 227.97 148.88 < 1
-10 0 2 472.03 590.86 144.23 o 1
-9 0 2 382.21 260.54 148.88 < 1
-8 0 2 3831.07 2796.11 176.79 o 1
-7 0 2 29517.80 25858.20 334.97 o 1
-6 0 2 83895.80 85739.50 544.33 o 1
-5 0 2 2269.90 1944.71 204.71 o 1
-4 0 2 2624.98 2763.54 255.88 o 1
-3 0 2 10694.10 10928.50 353.58 o 1
-2 0 2 100511.00 104656.00 735.08 o -2
-2 0 2 100511.00 104656.00 735.08 o 1
-1 0 2 86.80 130.27 134.92 < 1
0 0 2 9164.91 7043.77 158.18 o 1
1 0 2 17002.10 14320.20 181.45 o 1
2 0 2 218103.00 209387.00 548.99 o 1
3 0 2 148653.00 134520.00 414.07 o 1
4 0 2 13277.30 13668.80 153.53 o 1
5 0 2 26394.70 26579.30 186.10 o 1
6 0 2 5505.89 5801.57 125.61 o 1
7 0 2 189.61 283.80 83.74 o 1
8 0 2 3141.61 3219.48 111.66 o 1
9 0 2 583.18 493.16 97.70 o 1
10 0 2 74.61 93.05 102.35 < 1
11 0 2 3854.32 3680.07 148.88 o 1
-12 1 2 67.97 260.54 116.31 < 1
-11 1 2 111.07 288.45 111.66 < 1
-10 1 2 1098.25 1200.33 111.66 o 1
-9 1 2 1981.36 1623.70 111.66 o 1
-8 1 2 4555.98 3573.06 130.27 o 1
-7 1 2 2840.50 2991.51 125.61 o 1
-6 1 2 171.27 274.49 125.61 < 1
-5 1 2 1536.94 1637.65 148.88 o 1
-4 1 2 12051.70 12491.80 223.32 o 1
-3 1 2 10520.10 10272.60 246.58 o 1
-2 -1 2 3540.69 3908.04 209.36 o -2
-2 1 2 3540.69 3908.04 209.36 o 1
-1 1 2 1892.53 1823.75 130.27 o 1
0 1 2 11808.20 10193.50 153.53 o 1
1 1 2 6920.58 5680.61 97.70 o 1
2 1 2 175.88 158.18 65.13 < 1
3 1 2 41577.30 40387.70 172.14 o 1
4 1 2 4310.19 4689.64 83.74 o 1
5 1 2 35716.50 37414.80 158.18 o 1
6 1 2 5920.26 6834.41 88.40 o 1
7 1 2 1997.93 1991.24 69.79 o 1
8 1 2 134.39 130.27 65.13 < 1
9 1 2 184.53 214.01 65.13 o 1
10 1 2 1212.83 1060.75 79.09 o 1
11 1 2 415.73 376.85 83.74 o 1
-12 2 2 158.04 274.49 116.31 < 1
-11 2 2 1435.70 1716.74 125.61 o 1
-10 2 2 1425.83 842.09 120.96 o 1
-9 2 2 24.18 88.40 102.35 < 1
-8 2 2 167.11 204.71 102.35 < 1
-7 2 2 942.44 1032.84 116.31 o 1
-6 2 2 11.88 195.40 130.27 < 1
-5 2 2 5155.71 6713.45 200.05 o 1
-4 2 2 5563.97 6555.26 218.66 o 1
-3 2 2 2108.82 5434.03 195.40 o 1
-2 -2 2 68890.70 75369.30 409.41 o -2
-2 2 2 68890.70 75369.30 409.41 o 1
-1 2 2 691.28 744.39 158.18 o 1
0 2 2 27826.60 25081.20 195.40 o 1
1 2 2 330.10 241.93 74.44 o 1
2 2 2 41138.80 29566.10 158.18 o 1
3 2 2 1130.85 893.27 60.48 o 1
4 2 2 2308.37 2219.21 79.09 o 1
5 2 2 1096.05 1158.45 79.09 o 1
6 2 2 373.78 372.19 65.13 o 1
7 2 2 24826.10 23960.00 139.57 o 1
8 2 2 75.66 116.31 65.13 < 1
9 2 2 2099.46 1521.34 83.74 o 1
10 2 2 2.48 74.44 74.44 < 1
11 2 2 166.03 344.28 88.40 o 1
-12 3 2 159.28 330.32 120.96 < 1
-11 3 2 107.86 358.24 116.31 o 1
-10 3 2 3984.07 4131.35 153.53 o 1
-9 3 2 2173.61 1865.62 130.27 o 1
-8 3 2 340.72 344.28 116.31 < 1
-7 3 2 570.88 600.16 125.61 o 1
-6 3 2 21087.60 21629.10 251.23 o 1
-5 3 2 5201.20 5894.62 218.66 o 1
-4 3 2 371.15 581.55 190.75 o 1
-3 3 2 1191.16 1656.26 148.88 o 1
-2 -3 2 635.03 497.81 125.61 o -2
-2 3 2 635.03 497.81 125.61 o 1
-1 3 2 2444.81 2665.84 181.45 o 1
0 3 2 9357.73 8820.99 172.14 o 1
1 3 2 57434.50 52879.40 255.88 o 1
2 3 2 31268.10 29924.40 176.79 o 1
3 3 2 1538.93 1944.71 79.09 o 1
4 3 2 5158.36 5159.54 83.74 o 1
5 3 2 37358.50 28970.60 148.88 o 1
6 3 2 13149.40 10002.70 102.35 o 1
7 3 2 958.40 828.13 69.79 o 1
8 3 2 27.04 144.23 69.79 < 1
9 3 2 3351.27 3559.10 93.05 o 1
10 3 2 404.58 562.94 88.40 o 1
11 3 2 1449.57 1204.98 102.35 o 1
-11 4 2 156.56 414.07 130.27 o 1
-10 4 2 503.58 562.94 134.92 o 1
-9 4 2 166.82 83.74 116.31 < 1
-8 4 2 1702.21 1567.87 139.57 o 1
-7 4 2 16.38 41.87 120.96 < 1
-6 4 2 34453.60 34153.40 302.41 o 1
-5 4 2 2917.24 2126.16 153.53 o 1
-4 4 2 78.89 949.09 176.79 o 1
-3 4 2 13086.30 10295.80 172.14 o 1
-2 -4 2 1764.20 1386.42 120.96 o -2
-2 4 2 1764.20 1386.42 120.96 o 1
-1 4 2 536.74 693.21 153.53 o 1
0 4 2 7477.98 7085.64 195.40 o 1
1 4 2 11946.50 11989.30 241.93 o 1
2 4 2 180652.00 183715.00 460.59 o 1
3 4 2 34497.60 33785.90 186.10 o 1
4 4 2 7562.50 7313.61 107.01 o 1
5 4 2 1881.16 1893.54 74.44 o 1
6 4 2 81.41 144.23 74.44 < 1
7 4 2 2194.51 1767.92 79.09 o 1
8 4 2 669.02 367.54 74.44 o 1
9 4 2 4229.03 3531.19 107.01 o 1
10 4 2 13.67 130.27 93.05 < 1
11 4 2 3.78 241.93 97.70 < 1
-11 5 2 168.17 367.54 125.61 < 1
-10 5 2 372.62 428.02 134.92 o 1
-9 5 2 330.14 269.84 116.31 < 1
-8 5 2 368.09 237.27 111.66 < 1
-7 5 2 1372.99 1274.76 116.31 o 1
-6 5 2 9349.10 9681.69 172.14 o 1
-5 5 2 7603.42 8141.74 232.62 o 1
-4 5 2 20928.10 24295.00 307.06 o 1
-3 5 2 34346.60 39834.00 279.14 o 1
-2 -5 2 6313.65 6252.86 148.88 o -2
-2 5 2 6313.65 6252.86 148.88 o 1
-1 5 2 34518.10 25406.90 227.97 o 1
0 5 2 4512.05 4545.42 232.62 o 1
1 5 2 46560.30 42523.10 330.32 o 1
2 5 2 431.53 344.28 162.84 < 1
3 5 2 5975.76 5978.36 139.57 o 1
4 5 2 4289.27 4498.89 107.01 o 1
5 5 2 21.58 32.57 74.44 < 1
6 5 2 183.16 246.58 83.74 < 1
7 5 2 9042.86 8760.51 120.96 o 1
8 5 2 200.69 162.84 88.40 < 1
9 5 2 3507.21 3600.98 111.66 o 1
10 5 2 50.00 200.05 107.01 < 1
11 5 2 0.01 120.96 102.35 < 1
-11 6 2 593.67 279.14 116.31 < 1
-10 6 2 820.09 390.80 116.31 o 1
-9 6 2 2407.51 2172.68 130.27 o 1
-8 6 2 649.19 702.52 116.31 o 1
-7 6 2 4550.30 4419.80 148.88 o 1
-6 6 2 124.68 125.61 120.96 < 1
-5 6 2 3187.57 3349.74 204.71 o 1
-4 6 2 2989.32 3224.13 251.23 o 1
-3 6 2 3735.97 4866.43 162.84 o 1
-2 -6 2 343134.00 368202.00 646.69 o -2
-2 6 2 343134.00 368202.00 646.69 o 1
-1 6 2 37441.30 35963.20 227.97 o 1
0 6 2 1735.62 2112.20 218.66 o 1
1 6 2 155.75 274.49 120.96 < 1
2 6 2 22.04 93.05 88.40 < 1
3 6 2 1124.15 1056.10 93.05 o 1
4 6 2 2015.25 2261.08 209.36 o 1
5 6 2 4086.55 3819.64 134.92 o 1
6 6 2 19261.30 20703.30 204.71 o 1
7 6 2 17700.90 17804.80 190.75 o 1
8 6 2 425.67 400.11 102.35 o 1
9 6 2 703.51 553.64 102.35 o 1
10 6 2 148.19 358.24 116.31 o 1
-10 7 2 78.99 367.54 125.61 < 1
-9 7 2 6.59 214.01 116.31 < 1
-8 7 2 1477.39 1391.07 120.96 o 1
-7 7 2 8812.86 9900.36 172.14 o 1
-6 7 2 1823.28 1833.05 130.27 o 1
-5 7 2 923.28 925.83 186.10 o 1
-4 7 2 2016.55 2200.60 372.19 o 1
-3 7 2 17990.00 21489.50 232.62 o 1
-2 -7 2 14270.00 15320.40 167.49 o -2
-2 7 2 14270.00 15320.40 167.49 o 1
-1 7 2 13044.70 13706.00 158.18 o 1
0 7 2 3504.63 3666.11 251.23 o 1
1 7 2 764.08 860.70 125.61 o 1
2 7 2 35517.50 38149.90 209.36 o 1
3 7 2 25576.40 28086.70 176.79 o 1
4 7 2 7808.77 9337.41 116.31 o 1
5 7 2 2993.06 2730.97 241.93 o 1
6 7 2 1421.65 1367.81 158.18 o 1
7 7 2 273.61 181.45 125.61 < 1
8 7 2 374.76 455.94 116.31 o 1
9 7 2 1098.46 814.17 125.61 o 1
10 7 2 593.76 446.63 125.61 o 1
-10 8 2 260.34 283.80 125.61 < 1
-9 8 2 1022.92 916.53 125.61 o 1
-8 8 2 107.55 139.57 97.70 < 1
-7 8 2 4.04 130.27 102.35 < 1
-6 8 2 863.69 646.69 116.31 o 1
-5 8 2 16382.70 19256.40 334.97 o 1
-4 8 2 2339.20 2428.56 376.85 o 1
-3 8 2 473.30 465.24 139.57 o 1
-2 -8 2 306.84 432.67 107.01 o -2
-2 8 2 306.84 432.67 107.01 o 1
-1 8 2 8119.68 7848.64 139.57 o 1
0 8 2 5796.36 7211.26 325.67 o 1
1 8 2 3757.74 4405.84 158.18 o 1
2 8 2 20874.70 23541.30 167.49 o 1
3 8 2 325.18 400.11 83.74 o 1
4 8 2 7.72 46.52 74.44 < 1
5 8 2 32.59 102.35 83.74 < 1
6 8 2 10825.90 12096.30 134.92 o 1
7 8 2 2734.56 2670.49 144.23 o 1
8 8 2 1272.66 949.09 130.27 o 1
9 8 2 114.55 274.49 125.61 < 1
10 8 2 901.18 600.16 134.92 o 1
-9 9 2 121.37 214.01 102.35 < 1
-8 9 2 15.53 148.88 102.35 < 1
-7 9 2 2310.68 2144.77 134.92 o 1
-6 9 2 509.12 553.64 111.66 o 1
-5 9 2 58.41 74.44 144.23 < 1
-4 9 2 77.11 679.25 553.64 < 1
-3 9 2 26.58 65.13 153.53 < 1
-2 -9 2 132.43 139.57 102.35 < -2
-2 9 2 132.43 139.57 102.35 < 1
-1 9 2 6283.15 6922.81 134.92 o 1
0 9 2 40.82 130.27 214.01 < 1
1 9 2 11410.90 12147.50 209.36 o 1
2 9 2 523.41 642.03 93.05 o 1
3 9 2 6457.12 7285.69 111.66 o 1
4 9 2 2337.94 2684.45 93.05 o 1
5 9 2 25.34 237.27 79.09 < 1
6 9 2 411.54 576.90 83.74 o 1
7 9 2 114.18 190.75 88.40 < 1
8 9 2 4210.63 3531.19 125.61 o 1
9 9 2 1657.42 1358.51 134.92 o 1
-9 10 2 335.53 279.14 120.96 < 1
-8 10 2 388.99 358.24 120.96 < 1
-7 10 2 19.55 74.44 107.01 < 1
-6 10 2 2399.19 2358.78 130.27 o 1
-5 10 2 211.12 162.84 125.61 < 1
-4 10 2 1647.93 1837.71 288.45 o 1
-3 10 2 793.50 781.61 181.45 o 1
-2 -10 2 25131.00 27737.70 218.66 o -2
-2 10 2 25131.00 27737.70 218.66 o 1
-1 10 2 2475.49 2814.72 116.31 o 1
0 10 2 944.40 1246.85 255.88 o 1
1 10 2 99.15 130.27 88.40 < 1
2 10 2 5911.32 6271.47 111.66 o 1
3 10 2 1678.82 1972.63 93.05 o 1
4 10 2 10276.20 10519.10 125.61 o 1
5 10 2 1852.17 2135.46 97.70 o 1
6 10 2 1715.93 1828.40 97.70 o 1
7 10 2 3945.07 3503.27 120.96 o 1
8 10 2 271.73 437.33 97.70 o 1
9 10 2 15.85 162.84 97.70 < 1
-8 11 2 84.47 283.80 148.88 < 1
-7 11 2 885.19 697.86 153.53 o 1
-6 11 2 1066.62 814.17 148.88 o 1
-5 11 2 925.10 865.35 158.18 o 1
-4 11 2 3768.20 3647.50 246.58 o 1
-3 11 2 170.89 386.15 227.97 < 1
-2 -11 2 265.95 302.41 111.66 < -2
-2 11 2 265.95 302.41 111.66 < 1
-1 11 2 1114.40 1470.17 120.96 o 1
0 11 2 16258.50 16404.40 358.24 o 1
1 11 2 50.07 65.13 97.70 < 1
2 11 2 659.30 753.69 97.70 o 1
3 11 2 950.91 990.97 93.05 o 1
4 11 2 3459.15 3666.11 116.31 o 1
5 11 2 1098.29 1163.11 97.70 o 1
6 11 2 659.23 590.86 93.05 o 1
7 11 2 1403.05 1279.42 111.66 o 1
8 11 2 191.11 195.40 97.70 < 1
-7 12 2 499.87 451.29 153.53 < 1
-6 12 2 4754.15 3503.27 186.10 o 1
-5 12 2 515.88 721.13 172.14 o 1
-4 12 2 1910.37 1428.29 176.79 o 1
-3 12 2 119.98 232.62 311.71 < 1
-2 -12 2 1750.79 1321.29 120.96 o -2
-2 12 2 1750.79 1321.29 120.96 o 1
-1 12 2 200.08 423.37 111.66 o 1
0 12 2 1925.76 1800.49 376.85 o 1
1 12 2 394.85 428.02 107.01 o 1
2 12 2 16669.40 19810.00 186.10 o 1
3 12 2 9722.13 10668.00 158.18 o 1
4 12 2 294.70 269.84 107.01 < 1
5 12 2 1157.93 1093.32 107.01 o 1
6 12 2 138.62 107.01 102.35 < 1
7 12 2 23.51 214.01 102.35 < 1
-6 13 2 218.85 353.58 148.88 < 1
-5 13 2 140.32 102.35 148.88 < 1
-4 13 2 359.70 293.10 148.88 < 1
-3 13 2 121.24 241.93 153.53 < 1
-2 -13 2 177.74 162.84 139.57 < -2
-2 13 2 177.74 162.84 139.57 < 1
-1 13 2 349.24 530.38 120.96 o 1
0 13 2 1995.67 1842.36 418.72 o 1
1 13 2 111.03 107.01 107.01 < 1
2 13 2 1952.65 1814.45 120.96 o 1
3 13 2 120.43 260.54 107.01 < 1
4 13 2 288.59 293.10 107.01 < 1
5 13 2 3662.27 3489.32 139.57 o 1
6 13 2 2439.22 1777.23 120.96 o 1
-5 14 2 443.04 441.98 162.84 < 1
-4 14 2 238.67 237.27 148.88 < 1
-3 14 2 593.71 502.46 176.79 < 1
-2 -14 2 2.19 190.75 204.71 < -2
-2 14 2 2.19 190.75 204.71 < 1
-1 14 2 1321.54 772.30 139.57 o 1
0 14 2 120.21 209.36 241.93 < 1
1 14 2 1437.05 1228.24 144.23 o 1
2 14 2 804.58 679.25 125.61 o 1
3 14 2 456.17 348.93 116.31 < 1
4 14 2 605.37 609.47 116.31 o 1
-2 -15 2 3.00 200.05 167.49 < -2
-2 15 2 3.00 200.05 167.49 < 1
-1 15 2 6.32 144.23 148.88 < 1
0 15 2 2469.80 1209.63 186.10 o 1
1 15 2 3085.35 1874.93 186.10 o 1
2 15 2 261.75 251.23 144.23 < 1
-12 1 3 854.58 707.17 148.88 o 1
-11 1 3 1394.84 1130.54 148.88 o 1
-10 1 3 96.76 167.49 120.96 < 1
-9 1 3 1752.71 1660.92 130.27 o 1
-8 1 3 4047.85 4056.91 144.23 o 1
-7 1 3 70.10 223.32 116.31 < 1
-6 1 3 4680.13 4750.12 162.84 o 1
-5 1 3 2651.76 3177.61 172.14 o 1
-4 1 3 22582.90 25327.80 265.19 o 1
-3 -1 3 930.70 1167.76 158.18 o -2
-3 1 3 930.70 1167.76 158.18 o 1
-2 1 3 1140.51 2642.58 125.61 o 1
-1 1 3 21137.00 20768.40 162.84 o 1
0 1 3 41478.40 37638.10 181.45 o 1
1 1 3 19779.90 18353.80 144.23 o 1
2 1 3 33682.40 33795.20 153.53 o 1
3 1 3 65226.10 64743.10 190.75 o 1
4 1 3 9233.02 9221.10 88.40 o 1
5 1 3 852.39 730.43 69.79 o 1
6 1 3 517.63 725.78 60.48 o 1
7 1 3 5349.03 5880.66 79.09 o 1
8 1 3 236.57 176.79 60.48 < 1
9 1 3 644.13 669.95 69.79 o 1
10 1 3 730.99 753.69 74.44 o 1
-2 -1 -12 520.37 460.59 79.09 o -2
11 1 3 520.37 460.59 79.09 o 1
-12 2 3 0.34 227.97 130.27 < 1
-11 2 3 320.24 400.11 134.92 < 1
-10 2 3 1582.17 1237.54 144.23 o 1
-9 2 3 6311.96 7597.41 172.14 o 1
-8 2 3 716.16 600.16 125.61 o 1
-7 2 3 3415.26 3680.07 153.53 o 1
-6 2 3 1920.62 1949.37 158.18 o 1
-5 2 3 862.55 921.18 181.45 o 1
-4 2 3 106.32 758.34 148.88 o 1
-3 -2 3 1293.92 1749.31 176.79 o -2
-3 2 3 1293.92 1749.31 176.79 o 1
-2 2 3 38908.60 38940.80 260.54 o 1
-1 2 3 417016.00 392274.00 702.52 o 1
0 2 3 114272.00 101679.00 362.89 o 1
1 2 3 11174.20 11286.80 111.66 o 1
2 2 3 7163.79 5787.61 83.74 o 1
3 2 3 5898.47 6206.33 83.74 o 1
4 2 3 733.51 860.70 69.79 o 1
5 2 3 1096.80 1181.72 69.79 o 1
6 2 3 1968.57 1986.58 65.13 o 1
7 2 3 655.53 735.08 55.83 o 1
8 2 3 26505.20 26309.50 144.23 o 1
9 2 3 515.13 446.63 69.79 o 1
10 2 3 377.39 358.24 79.09 o 1
-2 -2 -12 10.52 241.93 83.74 < -2
11 2 3 10.52 241.93 83.74 < 1
-11 3 3 3.74 274.49 125.61 < 1
-10 3 3 25.59 102.35 125.61 < 1
-9 3 3 59.44 69.79 130.27 < 1
-8 3 3 6205.57 6224.94 181.45 o 1
-7 3 3 8740.53 9523.51 190.75 o 1
-6 3 3 26163.50 26914.30 283.80 o 1
-5 3 3 9008.79 11161.20 237.27 o 1
-4 3 3 10217.00 11496.10 181.45 o 1
-3 -3 3 21084.10 26007.00 237.27 o -2
-3 3 3 21084.10 26007.00 237.27 o 1
-2 3 3 14411.80 15487.90 218.66 o 1
-1 3 3 7302.00 6676.23 148.88 o 1
0 3 3 2226.36 1795.84 93.05 o 1
1 3 3 232.40 195.40 69.79 < 1
2 3 3 28190.80 26825.90 158.18 o 1
3 3 3 1457.59 1311.98 65.13 o 1
4 3 3 20816.80 16283.50 111.66 o 1
5 3 3 10883.10 8690.73 83.74 o 1
6 3 3 127.72 637.38 65.13 o 1
7 3 3 77.92 144.23 65.13 < 1
8 3 3 9159.93 8704.68 102.35 o 1
9 3 3 2007.40 2144.77 83.74 o 1
10 3 3 2048.60 2074.98 88.40 o 1
-2 -3 -12 396.69 511.77 83.74 o -2
11 3 3 396.69 511.77 83.74 o 1
-11 4 3 487.86 763.00 144.23 o 1
-10 4 3 903.01 972.36 153.53 o 1
-9 4 3 104.86 158.18 139.57 < 1
-8 4 3 9.60 0.00 130.27 < 1
-7 4 3 283.97 288.45 158.18 < 1
-6 4 3 43.20 0.00 158.18 < 1
-5 4 3 70687.50 73136.10 414.07 o 1
-4 4 3 26035.00 27635.40 232.62 o 1
-3 -4 3 8228.58 9932.92 162.84 o -2
-3 4 3 8228.58 9932.92 162.84 o 1
-2 4 3 3.86 1465.51 162.84 o 1
-1 4 3 16329.10 16953.40 209.36 o 1
0 4 3 24079.40 24899.80 204.71 o 1
1 4 3 5.02 111.66 97.70 < 1
2 4 3 515.16 893.27 79.09 o 1
3 4 3 60266.70 66273.80 214.01 o 1
4 4 3 119083.00 124094.00 269.84 o 1
5 4 3 31.26 18.61 60.48 < 1
6 4 3 514.41 502.46 69.79 o 1
7 4 3 2751.99 2177.33 74.44 o 1
8 4 3 3.31 209.36 65.13 o 1
9 4 3 174.03 181.45 74.44 < 1
10 4 3 259.99 409.41 79.09 o 1
-2 -4 -12 768.76 521.07 88.40 o -2
11 4 3 768.76 521.07 88.40 o 1
-11 5 3 1.01 232.62 130.27 < 1
-10 5 3 815.79 879.31 139.57 o 1
-9 5 3 1804.51 1679.52 153.53 o 1
-8 5 3 54.98 18.61 125.61 < 1
-7 5 3 1721.96 1916.80 181.45 o 1
-6 5 3 7633.56 7625.32 209.36 o 1
-5 5 3 134.15 418.72 130.27 o 1
-4 5 3 9993.45 8555.81 139.57 o 1
-3 -5 3 596.05 595.51 107.01 o -2
-3 5 3 596.05 595.51 107.01 o 1
-2 5 3 1175.12 4066.22 148.88 o 1
-1 5 3 224.98 353.58 172.14 < 1
0 5 3 483.77 581.55 130.27 o 1
1 5 3 17837.60 19093.50 251.23 o 1
2 5 3 2087.37 1860.97 93.05 o 1
3 5 3 726.63 879.31 79.09 o 1
4 5 3 13901.40 14445.80 116.31 o 1
5 5 3 2835.39 2935.68 79.09 o 1
6 5 3 14259.50 14604.00 125.61 o 1
7 5 3 101.34 158.18 74.44 < 1
8 5 3 6103.54 6271.47 102.35 o 1
9 5 3 1744.13 1712.09 93.05 o 1
10 5 3 2383.36 2009.85 107.01 o 1
-2 -5 -12 113.90 167.49 97.70 < -2
11 5 3 113.90 167.49 97.70 < 1
-11 6 3 101.73 307.06 116.31 < 1
-10 6 3 18.55 232.62 120.96 < 1
-9 6 3 874.78 604.82 120.96 o 1
-8 6 3 1725.13 1316.64 134.92 o 1
-7 6 3 89.12 186.10 153.53 < 1
-6 6 3 1.03 265.19 200.05 < 1
-5 6 3 34.16 83.74 134.92 < 1
-4 6 3 3797.35 4052.26 148.88 o 1
-3 -6 3 12438.80 13026.80 158.18 o -2
-3 6 3 12438.80 13026.80 158.18 o 1
-2 6 3 81.82 432.67 125.61 o 1
-1 6 3 2113.28 2363.43 190.75 o 1
0 6 3 245.17 376.85 130.27 < 1
1 6 3 7171.33 7578.80 176.79 o 1
2 6 3 1197.95 1209.63 139.57 o 1
3 6 3 19103.90 19582.00 176.79 o 1
4 6 3 7395.18 7509.01 111.66 o 1
5 6 3 5600.83 5736.44 102.35 o 1
6 6 3 4.12 0.00 79.09 < 1
7 6 3 2767.60 2777.50 102.35 o 1
8 6 3 1328.57 1446.90 93.05 o 1
9 6 3 730.18 1121.23 102.35 o 1
10 6 3 14.49 214.01 111.66 < 1
-10 7 3 997.17 842.09 130.27 o 1
-9 7 3 468.64 455.94 125.61 o 1
-8 7 3 1186.89 800.22 134.92 o 1
-7 7 3 839.12 749.04 158.18 o 1
-6 7 3 86.60 441.98 274.49 < 1
-5 7 3 3912.63 3470.71 176.79 o 1
-4 7 3 6792.99 6634.36 204.71 o 1
-3 -7 3 677.48 749.04 111.66 o -2
-3 7 3 677.48 749.04 111.66 o 1
-2 7 3 8442.13 10049.20 148.88 o 1
-1 7 3 4498.23 3568.41 214.01 o 1
0 7 3 3872.55 4215.10 148.88 o 1
1 7 3 30686.60 32292.50 237.27 o 1
2 7 3 755.24 977.01 153.53 o 1
3 7 3 1707.90 1870.27 93.05 o 1
4 7 3 11895.70 11468.20 237.27 o 1
5 7 3 18034.10 19586.70 223.32 o 1
6 7 3 13850.70 15581.00 190.75 o 1
7 7 3 1.13 37.22 107.01 < 1
8 7 3 0.17 181.45 111.66 < 1
9 7 3 50.37 158.18 120.96 < 1
10 7 3 364.54 353.58 125.61 < 1
-10 8 3 238.96 330.32 125.61 < 1
-9 8 3 7.83 153.53 116.31 < 1
-8 8 3 0.03 116.31 107.01 < 1
-7 8 3 3002.82 2917.07 158.18 o 1
-6 8 3 3.52 -69.79 237.27 < 1
-5 8 3 57217.80 61314.30 697.86 o 1
-4 8 3 30.87 125.61 130.27 < 1
-3 -8 3 517.67 488.50 102.35 o -2
-3 8 3 517.67 488.50 102.35 o 1
-2 8 3 544.64 711.82 107.01 o 1
-1 8 3 3007.11 3093.86 158.18 o 1
0 8 3 18022.70 18777.20 227.97 o 1
1 8 3 997.72 911.88 107.01 o 1
2 8 3 883.07 874.66 83.74 o 1
3 8 3 19456.20 21796.60 144.23 o 1
4 8 3 15094.40 16609.20 134.92 o 1
5 8 3 48.79 69.79 79.09 < 1
6 8 3 1433.92 1256.15 209.36 o 1
7 8 3 4012.20 3182.26 186.10 o 1
8 8 3 890.90 842.09 134.92 o 1
9 8 3 227.35 283.80 125.61 < 1
-9 9 3 834.55 609.47 116.31 o 1
-8 9 3 88.24 172.14 111.66 < 1
-7 9 3 424.49 246.58 144.23 < 1
-6 9 3 14.15 69.79 162.84 < 1
-5 9 3 749.96 786.26 446.63 < 1
-4 9 3 926.22 1070.06 158.18 o 1
-3 -9 3 18763.00 18223.50 190.75 o -2
-3 9 3 18763.00 18223.50 190.75 o 1
-2 9 3 14.20 27.91 93.05 < 1
-1 9 3 8271.25 8341.79 176.79 o 1
0 9 3 9381.94 10151.60 218.66 o 1
1 9 3 297.29 348.93 102.35 o 1
2 9 3 3652.27 3852.21 93.05 o 1
3 9 3 7818.05 8858.21 116.31 o 1
4 9 3 1048.45 1377.12 83.74 o 1
5 9 3 1058.55 1023.53 83.74 o 1
6 9 3 3040.44 3498.62 102.35 o 1
7 9 3 1152.36 1167.76 97.70 o 1
8 9 3 521.05 530.38 97.70 o 1
9 9 3 114.92 195.40 162.84 < 1
-9 10 3 1370.73 586.21 139.57 o 1
-8 10 3 1206.51 800.22 148.88 o 1
-7 10 3 0.54 125.61 116.31 < 1
-6 10 3 721.17 614.12 139.57 o 1
-5 10 3 29.69 148.88 311.71 < 1
-4 10 3 114.07 162.84 148.88 < 1
-3 -10 3 17.04 37.22 111.66 < -2
-3 10 3 17.04 37.22 111.66 < 1
-2 10 3 470.90 562.94 107.01 o 1
-1 10 3 29270.70 30264.00 260.54 o 1
0 10 3 666.96 725.78 186.10 o 1
1 10 3 247.26 348.93 116.31 < 1
2 10 3 4738.40 5285.15 102.35 o 1
3 10 3 38.79 97.70 83.74 < 1
4 10 3 2611.30 2703.06 88.40 o 1
5 10 3 1315.33 1274.76 88.40 o 1
6 10 3 3156.32 3019.42 102.35 o 1
7 10 3 90.82 162.84 83.74 < 1
8 10 3 3047.34 2758.89 107.01 o 1
-8 11 3 15.53 190.75 102.35 < 1
-7 11 3 537.33 446.63 111.66 o 1
-6 11 3 28.98 148.88 125.61 < 1
-5 11 3 2238.20 2042.41 246.58 o 1
-4 11 3 2675.22 2884.50 186.10 o 1
-3 -11 3 174.91 130.27 116.31 < -2
-3 11 3 174.91 130.27 116.31 < 1
-2 11 3 3352.98 3517.23 125.61 o 1
-1 11 3 1169.37 1158.45 130.27 o 1
0 11 3 1141.13 1158.45 172.14 o 1
1 11 3 4.61 46.52 83.74 < 1
2 11 3 5488.67 6425.00 120.96 o 1
3 11 3 6118.30 6862.32 134.92 o 1
4 11 3 8.56 97.70 83.74 < 1
5 11 3 2490.37 2744.93 107.01 o 1
6 11 3 55.20 167.49 88.40 < 1
7 11 3 1704.75 1209.63 107.01 o 1
-7 12 3 181.43 265.19 134.92 < 1
-6 12 3 0.79 134.92 130.27 < 1
-5 12 3 747.10 767.65 167.49 o 1
-4 12 3 333.86 414.07 297.76 < 1
-3 -12 3 2753.52 2307.60 148.88 o -2
-3 12 3 2753.52 2307.60 148.88 o 1
-2 12 3 3968.23 3549.80 120.96 o 1
-1 12 3 691.98 637.38 125.61 o 1
0 12 3 927.61 776.96 186.10 o 1
1 12 3 4193.98 5052.53 125.61 o 1
2 12 3 9179.90 10491.20 148.88 o 1
3 12 3 538.30 688.56 97.70 o 1
4 12 3 2565.29 2707.71 116.31 o 1
5 12 3 701.70 441.98 93.05 o 1
6 12 3 36.66 269.84 97.70 < 1
7 12 3 1236.22 795.56 111.66 o 1
-6 13 3 2.30 186.10 125.61 < 1
-5 13 3 78.12 139.57 144.23 < 1
-4 13 3 0.60 209.36 255.88 < 1
-3 -13 3 3581.86 2116.85 190.75 o -2
-3 13 3 3581.86 2116.85 190.75 o 1
-2 13 3 1591.83 1432.95 130.27 o 1
-1 13 3 1014.07 1046.80 144.23 o 1
0 13 3 7255.79 6373.82 265.19 o 1
1 13 3 13.59 176.79 107.01 < 1
2 13 3 166.73 181.45 107.01 < 1
3 13 3 518.98 632.73 107.01 o 1
4 13 3 25.88 195.40 97.70 < 1
5 13 3 4.69 144.23 88.40 < 1
-4 14 3 0.46 153.53 148.88 < 1
-3 -14 3 351.08 269.84 260.54 < -2
-3 14 3 351.08 269.84 260.54 < 1
-2 14 3 184.39 246.58 130.27 < 1
-1 14 3 3026.18 2600.70 190.75 o 1
0 14 3 5722.79 5164.19 190.75 o 1
1 14 3 5.92 237.27 125.61 < 1
2 14 3 85.80 195.40 111.66 < 1
3 14 3 850.52 814.17 111.66 o 1
4 14 3 157.66 195.40 111.66 < 1
-2 15 3 258.45 214.01 167.49 < 1
-1 15 3 1189.34 837.44 214.01 o 1
0 15 3 229.73 316.36 139.57 < 1
1 15 3 1396.20 1284.07 214.01 o 1
-11 0 4 251.06 358.24 195.40 < 1
-10 0 4 1195.01 1153.80 204.71 o 1
-9 0 4 4759.61 3331.13 223.32 o 1
-8 0 4 61.25 51.18 167.49 < 1
-7 0 4 242.87 539.68 176.79 o 1
-6 0 4 448.44 367.54 186.10 < 1
-5 0 4 55271.00 70423.70 507.11 o 1
-4 0 4 271590.00 303813.00 907.22 o -2
-4 0 4 271590.00 303813.00 907.22 o 1
-3 0 4 58318.10 71075.10 455.94 o 1
-2 0 4 1598.83 1874.93 144.23 o 1
-1 0 4 36454.00 38815.20 251.23 o 1
0 0 4 1754.93 1814.45 153.53 o 1
1 0 4 1530.24 1795.84 148.88 o 1
2 0 4 10167.20 10291.20 134.92 o 1
3 0 4 553.13 763.00 83.74 o 1
4 0 4 41892.20 46142.70 214.01 o 1
5 0 4 90859.10 101088.00 293.10 o 1
6 0 4 3091.95 3833.60 97.70 o 1
7 0 4 4664.51 5024.62 102.35 o 1
8 0 4 821.63 897.92 83.74 o 1
9 0 4 1806.55 1256.15 102.35 o 1
10 0 4 63.28 321.02 97.70 o 1
11 0 4 3521.88 2856.59 134.92 o 1
-11 1 4 93.95 418.72 134.92 o 1
-10 1 4 161.44 130.27 125.61 < 1
-9 1 4 2428.44 2321.56 144.23 o 1
-8 1 4 1719.05 2326.21 144.23 o 1
-7 1 4 162.79 246.58 130.27 < 1
-6 1 4 8044.16 8969.87 181.44 o 1
-5 1 4 110.64 465.24 125.61 o 1
-4 -1 4 5059.02 6490.13 162.84 o -2
-4 1 4 5059.02 6490.13 162.84 o 1
-3 1 4 125.51 4312.80 139.57 o 1
-2 1 4 2146.97 2763.54 116.31 o 1
-1 1 4 10939.50 10942.50 116.31 o 1
0 1 4 26892.00 26342.00 139.57 o 1
1 1 4 23512.90 22964.40 125.61 o 1
2 1 4 6372.05 7025.16 83.74 o 1
3 1 4 6362.99 6252.86 79.09 o 1
4 1 4 81.59 116.31 60.48 < 1
5 1 4 26518.10 28677.50 125.61 o 1
6 1 4 2118.00 2521.61 60.48 o 1
7 1 4 2535.13 2768.19 65.13 o 1
8 1 4 2704.57 3061.29 74.44 o 1
9 1 4 236.42 390.80 65.13 o 1
-3 -1 -11 34.12 46.52 69.79 < -2
10 1 4 34.12 46.52 69.79 < 1
11 1 4 58.82 218.66 74.44 < 1
-11 2 4 126.77 390.80 148.88 < 1
-10 2 4 36.58 74.44 130.27 < 1
-9 2 4 412.51 428.02 130.27 o 1
-8 2 4 1215.66 1535.30 144.23 o 1
-7 2 4 5743.28 6090.02 181.45 o 1
-6 2 4 9.33 -46.52 130.27 < 1
-5 2 4 10080.50 10449.30 181.44 o 1
-4 -2 4 449.99 553.64 139.57 o -2
-4 2 4 449.99 553.64 139.57 o 1
-3 2 4 4845.00 5885.32 148.88 o 1
-2 2 4 3172.93 3731.24 130.27 o 1
-1 2 4 40134.30 41685.70 241.93 o 1
0 2 4 121786.00 126164.00 288.45 o 1
1 2 4 23254.60 22140.90 125.61 o 1
2 2 4 1151.60 1070.06 74.44 o 1
3 2 4 3828.02 3977.82 79.09 o 1
4 2 4 18486.30 19796.10 111.66 o 1
5 2 4 3089.28 3084.56 69.79 o 1
6 2 4 3491.79 3875.47 69.79 o 1
7 2 4 3944.30 4317.45 74.44 o 1
8 2 4 2327.09 2158.72 69.79 o 1
9 2 4 946.10 860.70 74.44 o 1
-3 -2 -11 189.23 241.93 69.79 o -2
10 2 4 189.23 241.93 69.79 o 1
11 2 4 1255.70 1028.19 79.09 o 1
-11 3 4 1.08 358.24 158.18 < 1
-10 3 4 303.92 386.15 153.53 < 1
-9 3 4 869.40 725.78 158.18 o 1
-8 3 4 415.75 255.88 134.92 < 1
-7 3 4 23.90 232.62 139.57 < 1
-6 3 4 336.48 297.76 120.96 < 1
-5 3 4 2822.38 3331.13 130.27 o 1
-4 -3 4 48.00 46.52 139.57 < -2
-4 3 4 48.00 46.52 139.57 < 1
-3 3 4 3657.31 5187.45 158.18 o 1
-2 3 4 6.88 37.22 111.66 < 1
-1 3 4 7654.05 8058.00 130.27 o 1
0 3 4 10624.00 11277.50 116.31 o 1
1 3 4 349.18 265.19 65.13 o 1
2 3 4 5755.16 6429.65 88.40 o 1
3 3 4 1438.79 1693.48 69.79 o 1
4 3 4 3523.37 3145.04 69.79 o 1
5 3 4 7096.29 7318.26 79.09 o 1
6 3 4 14625.80 15953.20 102.35 o 1
7 3 4 1873.98 2228.51 69.79 o 1
8 3 4 139.36 297.76 65.13 o 1
9 3 4 1045.79 939.79 74.44 o 1
-3 -3 -11 1810.30 1591.13 83.74 o -2
10 3 4 1810.30 1591.13 83.74 o 1
11 3 4 20.99 218.66 79.09 < 1
-11 4 4 44.78 521.07 195.40 < 1
-10 4 4 82.68 381.50 186.10 < 1
-9 4 4 304.68 400.11 162.84 < 1
-8 4 4 56.57 83.74 158.18 < 1
-7 4 4 995.35 1163.11 148.88 o 1
-6 4 4 634.75 604.82 116.31 o 1
-5 4 4 12.67 1209.63 116.31 o 1
-4 -4 4 55059.40 71596.10 353.58 o -2
-4 4 4 55059.40 71596.10 353.58 o 1
-3 4 4 907.20 4722.21 158.18 o 1
-2 4 4 18399.10 19489.00 246.58 o 1
-1 4 4 76.98 167.49 107.01 < 1
0 4 4 24931.40 25937.30 214.01 o 1
1 4 4 5936.81 5233.98 93.05 o 1
2 4 4 37102.90 36675.10 162.84 o 1
3 4 4 3416.27 3968.52 79.09 o 1
4 4 4 860.15 809.52 60.48 o 1
5 4 4 24650.10 26518.80 130.27 o 1
6 4 4 4356.94 3968.52 74.44 o 1
7 4 4 450.99 348.93 65.13 o 1
8 4 4 3545.08 2563.49 79.09 o 1
9 4 4 91.86 316.36 74.44 o 1
-3 -4 -11 238.46 172.14 79.09 < -2
10 4 4 238.46 172.14 79.09 < 1
-11 5 4 345.55 269.84 167.49 < 1
-10 5 4 327.29 669.95 214.01 o 1
-9 5 4 1471.33 1460.86 218.66 o 1
-8 5 4 413.81 716.47 172.14 o 1
-7 5 4 183.25 255.88 162.84 < 1
-6 5 4 3321.85 3456.75 134.92 o 1
-5 5 4 2205.36 2070.33 107.01 o 1
-4 -5 4 3.39 32.57 120.96 < -2
-4 5 4 3.39 32.57 120.96 < 1
-3 5 4 656.98 1558.56 130.27 o 1
-2 5 4 17459.00 19368.00 241.93 o 1
-1 5 4 8798.09 9723.56 172.14 o 1
0 5 4 1176.55 1181.72 139.57 o 1
1 5 4 23189.10 22685.20 181.45 o 1
2 5 4 4748.55 4643.12 93.05 o 1
3 5 4 228.83 883.96 69.79 o 1
4 5 4 28.81 60.48 65.13 < 1
5 5 4 7624.38 8034.73 93.05 o 1
6 5 4 1092.98 888.61 69.79 o 1
7 5 4 5947.95 7015.85 97.70 o 1
8 5 4 48.92 46.52 69.79 < 1
9 5 4 1447.97 1284.07 88.40 o 1
-3 -5 -11 2411.81 2228.51 102.35 o -2
10 5 4 2411.81 2228.51 102.35 o 1
-10 6 4 544.77 474.55 176.79 < 1
-9 6 4 551.26 437.33 223.32 < 1
-8 6 4 11759.80 14417.90 353.58 o 1
-7 6 4 429.27 451.29 200.05 < 1
-6 6 4 3869.64 4010.39 134.92 o 1
-5 6 4 43.33 260.54 97.70 < 1
-4 -6 4 3617.40 4229.05 120.96 o -2
-4 6 4 3617.40 4229.05 120.96 o 1
-3 6 4 4463.67 5010.66 130.27 o 1
-2 6 4 10941.30 12617.40 214.01 o 1
-1 6 4 12483.50 13575.80 214.01 o 1
0 6 4 85748.00 89000.90 372.19 o 1
1 6 4 40219.20 40369.10 269.84 o 1
2 6 4 26965.60 26388.50 181.44 o 1
3 6 4 1115.83 1084.01 79.09 o 1
4 6 4 4819.92 4903.65 88.40 o 1
5 6 4 283.77 372.19 83.74 o 1
6 6 4 1481.74 1805.14 83.74 o 1
7 6 4 294.80 483.85 74.44 o 1
8 6 4 275.77 386.15 74.44 o 1
9 6 4 11111.30 10500.50 144.23 o 1
-3 -6 -11 13.01 144.23 102.35 < -2
10 6 4 13.01 144.23 102.35 < 1
-10 7 4 700.29 418.72 139.57 < 1
-9 7 4 405.31 404.76 158.18 < 1
-8 7 4 41.07 -13.96 214.01 < 1
-7 7 4 676.33 1237.54 288.45 o 1
-6 7 4 1244.68 893.27 120.96 o 1
-5 7 4 2137.42 1967.97 111.66 o 1
-4 -7 4 2703.27 2116.85 102.35 o -2
-4 7 4 2703.27 2116.85 102.35 o 1
-3 7 4 2.86 576.90 97.70 o 1
-2 7 4 1338.91 1730.70 144.23 o 1
-1 7 4 869.07 697.86 158.18 o 1
0 7 4 329.36 562.94 116.31 o 1
1 7 4 8662.15 9081.53 195.40 o 1
2 7 4 1640.07 1712.09 130.27 o 1
3 7 4 47749.60 46235.80 279.15 o 1
4 7 4 4869.52 5159.54 111.66 o 1
5 7 4 2.39 46.52 88.40 < 1
6 7 4 15.70 83.74 97.70 < 1
7 7 4 3034.62 3266.00 102.35 o 1
8 7 4 1403.81 1493.43 107.01 o 1
9 7 4 533.58 358.24 102.35 o 1
-10 8 4 1.15 274.49 130.27 < 1
-9 8 4 525.34 376.85 148.88 < 1
-8 8 4 123.81 218.66 181.45 < 1
-7 8 4 229.51 274.49 288.45 < 1
-6 8 4 1851.94 1837.71 153.53 o 1
-5 8 4 0.58 330.32 111.66 < 1
-4 -8 4 3212.45 3414.88 130.27 o -2
-4 8 4 3212.45 3414.88 130.27 o 1
-3 8 4 4.39 46.52 88.40 < 1
-2 8 4 2836.31 2135.46 120.96 o 1
-1 8 4 1992.46 1921.45 176.79 o 1
0 8 4 652.85 711.82 116.31 o 1
1 8 4 468.83 353.58 116.31 o 1
2 8 4 1119.24 1102.62 125.61 o 1
3 8 4 2064.82 2172.68 200.05 o 1
4 8 4 72.57 120.96 232.62 < 1
5 8 4 9626.88 10184.20 223.32 o 1
6 8 4 653.63 465.24 125.61 o 1
7 8 4 614.42 404.76 125.61 o 1
8 8 4 767.29 767.65 167.49 o 1
9 8 4 719.88 637.38 134.92 o 1
-9 9 4 35.31 265.19 134.92 < 1
-8 9 4 823.83 576.90 172.14 o 1
-7 9 4 292.27 618.77 321.02 < 1
-6 9 4 1029.05 921.18 172.14 o 1
-5 9 4 832.27 767.65 125.61 o 1
-4 -9 4 48.07 139.57 120.96 < -2
-4 9 4 48.07 139.57 120.96 < 1
-3 9 4 867.84 795.56 102.35 o 1
-2 9 4 11941.20 11682.20 167.49 o 1
-1 9 4 13797.80 10053.90 279.14 o 1
0 9 4 51.22 125.61 148.88 < 1
1 9 4 9763.99 10612.20 172.14 o 1
2 9 4 4476.86 4322.10 134.92 o 1
3 9 4 4209.44 4517.50 88.40 o 1
4 9 4 37.33 -9.30 69.79 < 1
5 9 4 1133.14 1232.89 74.44 o 1
6 9 4 2112.66 2451.83 93.05 o 1
7 9 4 202.15 241.93 88.40 < 1
8 9 4 5.08 176.79 167.49 < 1
-8 10 4 3303.74 1772.57 209.36 o 1
-7 10 4 36.92 251.23 190.75 < 1
-6 10 4 3075.44 3377.66 348.93 o 1
-5 10 4 1219.82 1237.54 130.27 o 1
-4 -10 4 45.62 251.23 130.27 < -2
-4 10 4 45.62 251.23 130.27 < 1
-3 10 4 541.94 372.19 102.35 o 1
-2 10 4 642.98 781.61 116.31 o 1
-1 10 4 4961.64 4940.87 321.02 o 1
0 10 4 15234.10 16111.30 255.88 o 1
1 10 4 15411.70 17651.30 186.10 o 1
2 10 4 746.32 1060.75 83.74 o 1
3 10 4 1674.13 1558.56 79.09 o 1
4 10 4 4348.30 4968.79 102.35 o 1
5 10 4 736.48 674.60 83.74 o 1
6 10 4 16.66 65.13 83.74 < 1
7 10 4 1196.82 1079.36 93.05 o 1
8 10 4 150.71 339.63 88.40 o 1
-8 11 4 301.33 260.54 120.96 < 1
-7 11 4 356.86 414.07 153.53 < 1
-6 11 4 5233.02 5824.83 376.85 o 1
-5 11 4 1153.50 790.91 148.88 o 1
-4 -11 4 3584.40 3396.27 167.49 o -2
-4 11 4 3584.40 3396.27 167.49 o 1
-3 11 4 9741.57 8969.87 158.18 o 1
-2 11 4 8.89 269.84 107.01 < 1
-1 11 4 555.98 814.17 279.14 < 1
0 11 4 6961.99 7304.30 195.40 o 1
1 11 4 304.97 330.32 111.66 < 1
2 11 4 1209.19 1307.33 102.35 o 1
3 11 4 821.17 1000.27 88.40 o 1
4 11 4 976.87 1191.02 88.40 o 1
5 11 4 3895.35 3833.60 107.01 o 1
6 11 4 679.21 688.56 88.40 o 1
7 11 4 1666.88 1372.46 102.35 o 1
-7 12 4 204.86 186.10 120.96 < 1
-6 12 4 403.69 367.54 176.79 < 1
-5 12 4 1.03 265.19 195.40 < 1
-4 -12 4 11647.20 9262.97 260.54 o -2
-4 12 4 11647.20 9262.97 260.54 o 1
-3 12 4 2461.49 1860.97 130.27 o 1
-2 12 4 3471.21 2865.89 125.61 o 1
-1 12 4 71.60 172.14 293.10 < 1
0 12 4 115.50 125.61 111.66 < 1
1 12 4 1871.01 2126.16 107.01 o 1
2 12 4 374.91 521.07 102.35 o 1
3 12 4 94.76 204.71 102.35 < 1
4 12 4 5034.19 4968.79 116.31 o 1
5 12 4 4695.70 5252.59 125.61 o 1
6 12 4 119.06 176.79 93.05 < 1
-5 13 4 1091.87 814.17 311.71 < 1
-4 -13 4 1793.27 977.01 181.45 o -2
-4 13 4 1793.27 977.01 181.45 o 1
-3 13 4 604.70 558.29 139.57 o 1
-2 13 4 2504.06 1935.41 139.57 o 1
-1 13 4 217.67 344.28 265.19 < 1
0 13 4 1656.73 1614.39 130.27 o 1
1 13 4 1069.77 1228.24 111.66 o 1
2 13 4 118.92 241.93 97.70 < 1
3 13 4 2240.87 2377.39 116.31 o 1
4 13 4 699.55 846.74 102.35 o 1
5 13 4 531.05 362.89 97.70 o 1
-4 -14 4 149.56 274.49 209.36 < -2
-4 14 4 149.56 274.49 209.36 < 1
-3 14 4 269.94 218.66 148.88 < 1
-2 14 4 364.88 246.58 130.27 < 1
-1 14 4 651.93 679.25 200.05 o 1
0 14 4 805.44 702.52 139.57 o 1
1 14 4 94.13 218.66 153.53 < 1
2 14 4 776.20 828.13 111.66 o 1
3 14 4 1.62 237.27 107.01 < 1
-11 1 5 146.53 241.93 134.92 < 1
-10 1 5 87.51 362.89 130.27 < 1
-9 1 5 569.15 530.38 120.96 o 1
-8 1 5 773.91 888.61 120.96 o 1
-7 1 5 23.80 139.57 111.66 < 1
-6 1 5 3960.48 4526.81 134.92 o 1
-5 -1 5 103.30 139.57 93.05 < -2
-5 1 5 103.30 139.57 93.05 < 1
-4 1 5 5019.29 6652.96 134.92 o 1
-3 1 5 36.79 -46.52 102.35 < 1
-2 1 5 26669.10 31459.70 172.14 o 1
-1 1 5 29362.80 33878.90 158.18 o 1
0 1 5 694.84 767.65 74.44 o 1
1 1 5 6467.64 5983.02 79.09 o 1
2 1 5 8282.27 7876.55 97.70 o 1
3 1 5 46724.80 49022.60 153.53 o 1
4 1 5 18490.40 20214.80 107.01 o 1
5 1 5 9352.43 10868.10 83.74 o 1
6 1 5 1649.31 1916.80 60.48 o 1
7 1 5 8491.39 8611.64 79.09 o 1
8 1 5 1536.03 1781.88 65.13 o 1
-4 -1 -10 1481.83 1032.84 65.13 o -2
9 1 5 1481.83 1032.84 65.13 o 1
10 1 5 4374.80 3428.84 88.40 o 1
-11 2 5 0.94 414.07 144.23 < 1
-10 2 5 194.70 311.71 130.27 < 1
-9 2 5 1049.21 1084.01 134.92 o 1
-8 2 5 283.26 562.94 116.31 o 1
-7 2 5 26053.90 35107.20 255.88 o 1
-6 2 5 7891.76 9388.59 148.88 o 1
-5 -2 5 2969.57 3480.01 120.96 o -2
-5 2 5 2969.57 3480.01 120.96 o 1
-4 2 5 856.32 2140.11 120.96 o 1
-3 2 5 6458.95 7723.02 139.57 o 1
-2 2 5 406.15 288.45 93.05 o 1
-1 2 5 3487.23 3186.91 107.01 o 1
0 2 5 25075.20 25574.40 134.92 o 1
1 2 5 52915.80 54810.20 214.01 o 1
2 2 5 58794.20 61626.00 181.45 o 1
3 2 5 12953.70 13813.00 97.70 o 1
4 2 5 489.76 474.55 55.83 o 1
5 2 5 874.72 818.83 55.83 o 1
6 2 5 7134.96 7950.99 79.09 o 1
7 2 5 880.92 1070.06 60.48 o 1
8 2 5 1755.59 1847.01 69.79 o 1
-4 -2 -10 132.93 204.71 69.79 < -2
9 2 5 132.93 204.71 69.79 < 1
10 2 5 888.74 758.34 74.44 o 1
-11 3 5 202.50 390.80 162.84 < 1
-10 3 5 237.59 562.94 148.88 o 1
-9 3 5 2097.35 2312.25 148.88 o 1
-8 3 5 1561.97 1995.89 130.27 o 1
-7 3 5 1311.40 1144.50 116.31 o 1
-6 3 5 1500.20 1786.53 107.01 o 1
-5 -3 5 9070.06 9565.38 153.53 o -2
-5 3 5 9070.06 9565.38 153.53 o 1
-4 3 5 1003.07 1507.39 120.96 o 1
-3 3 5 6757.03 7406.66 144.23 o 1
-2 3 5 7.70 55.83 97.70 < 1
-1 3 5 2862.50 3084.56 93.05 o 1
0 3 5 5619.84 5592.21 93.05 o 1
1 3 5 6027.27 6643.66 88.40 o 1
2 3 5 49312.20 51400.00 172.14 o 1
3 3 5 8678.59 9346.72 97.70 o 1
4 3 5 7686.51 8392.97 79.09 o 1
5 3 5 5514.38 5857.40 74.44 o 1
6 3 5 7000.44 7290.35 79.09 o 1
7 3 5 4952.59 5973.71 79.09 o 1
8 3 5 1667.95 1702.79 74.44 o 1
-4 -3 -10 3414.85 3293.92 88.40 o -2
9 3 5 3414.85 3293.92 88.40 o 1
10 3 5 380.11 544.33 74.44 o 1
-11 4 5 473.21 637.38 195.40 o 1
-10 4 5 1152.19 1525.99 190.75 o 1
-9 4 5 399.27 186.10 130.27 < 1
-8 4 5 570.88 502.46 116.31 o 1
-7 4 5 10.70 -46.52 107.01 < 1
-6 4 5 53.56 120.96 102.35 < 1
-5 -4 5 541.32 562.94 97.70 o -2
-5 4 5 541.32 562.94 97.70 o 1
-4 4 5 14554.00 16562.60 181.45 o 1
-3 4 5 101263.00 125848.00 376.85 o 1
-2 4 5 12471.20 13961.90 200.05 o 1
-1 4 5 12113.30 14008.40 153.53 o 1
0 4 5 576.09 679.25 83.74 o 1
1 4 5 259.29 404.76 69.79 o 1
2 4 5 6369.79 6220.29 83.74 o 1
3 4 5 86.07 176.79 55.83 o 1
4 4 5 1448.45 1619.04 74.44 o 1
5 4 5 7.10 74.44 51.18 < 1
6 4 5 18127.10 16167.20 102.35 o 1
7 4 5 170.15 344.28 55.83 o 1
8 4 5 117.54 288.45 69.79 o 1
-4 -4 -10 241.91 237.27 69.79 o -2
9 4 5 241.91 237.27 69.79 o 1
10 4 5 74.15 302.41 74.44 o 1
-10 5 5 29.69 474.55 218.66 < 1
-9 5 5 6.57 125.61 153.53 < 1
-8 5 5 877.51 818.83 134.92 o 1
-7 5 5 900.83 1037.49 111.66 o 1
-6 5 5 1613.86 1749.31 107.01 o 1
-5 -5 5 1693.15 1525.99 107.01 o -2
-5 5 5 1693.15 1525.99 107.01 o 1
-4 5 5 9.36 144.23 102.35 < 1
-3 5 5 15509.50 20382.30 260.54 o 1
-2 5 5 1074.09 1209.63 125.61 o 1
-1 5 5 1120.28 1195.67 107.01 o 1
0 5 5 43944.10 44323.60 218.66 o 1
1 5 5 49461.10 50530.00 204.71 o 1
2 5 5 21.31 88.40 65.13 < 1
3 5 5 4355.81 4768.73 79.09 o 1
4 5 5 1969.50 2209.90 69.79 o 1
5 5 5 8513.25 9351.37 107.01 o 1
6 5 5 1531.55 1819.10 74.44 o 1
7 5 5 39.43 158.18 65.13 < 1
8 5 5 246.19 325.67 69.79 o 1
-4 -5 -10 679.02 716.47 79.09 o -2
9 5 5 679.02 716.47 79.09 o 1
10 5 5 144.62 423.37 83.74 o 1
-10 6 5 208.39 665.30 241.93 < 1
-9 6 5 253.30 511.77 200.05 < 1
-8 6 5 77.48 18.61 134.92 < 1
-7 6 5 483.95 735.08 116.31 o 1
-6 6 5 935.76 1907.49 111.66 o 1
-5 -6 5 2519.59 2926.37 116.31 o -2
-5 6 5 2519.59 2926.37 116.31 o 1
-4 6 5 2935.46 3177.61 116.31 o 1
-3 6 5 1114.93 1358.51 116.31 o 1
-2 6 5 698.75 572.25 139.57 o 1
-1 6 5 7716.59 7192.65 144.23 o 1
0 6 5 9311.96 9542.12 134.92 o 1
1 6 5 233.67 334.97 107.01 o 1
2 6 5 10547.80 10314.40 116.31 o 1
3 6 5 15.66 134.92 69.79 < 1
4 6 5 482.81 446.63 69.79 o 1
5 6 5 4662.49 5313.07 88.40 o 1
6 6 5 1169.80 1409.68 83.74 o 1
7 6 5 7.99 237.27 65.13 o 1
8 6 5 1347.01 1614.39 79.09 o 1
-4 -6 -10 87.69 93.05 83.74 < -2
9 6 5 87.69 93.05 83.74 < 1
-10 7 5 0.87 497.81 265.19 < 1
-9 7 5 103.62 609.47 246.58 < 1
-8 7 5 112.62 232.62 134.92 < 1
-7 7 5 79.91 144.23 111.66 < 1
-6 7 5 38.44 97.70 88.40 < 1
-5 -7 5 9946.25 9728.22 167.49 o -2
-5 7 5 9946.25 9728.22 167.49 o 1
-4 7 5 3777.80 4494.24 116.31 o 1
-3 7 5 15.38 479.20 97.70 o 1
-2 7 5 14506.90 16595.20 218.66 o 1
-1 7 5 566.58 632.73 130.27 o 1
0 7 5 1433.95 1451.56 144.23 o 1
1 7 5 2662.71 2530.92 120.96 o 1
2 7 5 1345.53 1377.12 102.35 o 1
3 7 5 353.40 367.54 83.74 o 1
4 7 5 1534.43 1591.13 83.74 o 1
5 7 5 924.16 1302.68 79.09 o 1
6 7 5 3151.64 3545.15 88.40 o 1
7 7 5 2111.02 2358.78 97.70 o 1
8 7 5 42.04 265.19 88.40 < 1
-4 -7 -10 36.31 209.36 93.05 < -2
9 7 5 36.31 209.36 93.05 < 1
-9 8 5 642.87 1084.01 316.36 o 1
-8 8 5 123.11 334.97 167.49 < 1
-7 8 5 2189.66 1805.14 120.96 o 1
-6 8 5 26.04 -27.91 120.96 < 1
-5 -8 5 521.45 418.72 102.35 o -2
-5 8 5 521.45 418.72 102.35 o 1
-4 8 5 7296.89 5843.44 125.61 o 1
-3 8 5 21743.20 24620.60 214.01 o 1
-2 8 5 20712.60 21312.80 251.23 o 1
-1 8 5 11016.80 11645.00 186.10 o 1
0 8 5 1293.12 1418.99 148.88 o 1
1 8 5 4726.62 4712.90 167.49 o 1
2 8 5 139.61 227.97 125.61 < 1
3 8 5 4351.90 4303.49 148.88 o 1
4 8 5 1577.17 1870.27 120.96 o 1
5 8 5 2345.12 2302.95 102.35 o 1
6 8 5 17215.60 17800.20 167.49 o 1
7 8 5 290.55 469.89 102.35 o 1
8 8 5 27.09 167.49 102.35 < 1
-4 -8 -10 544.12 535.03 144.23 o -2
9 8 5 544.12 535.03 144.23 o 1
-9 9 5 817.82 758.34 241.93 o 1
-8 9 5 1493.33 1828.40 302.41 o 1
-7 9 5 3.99 158.18 181.45 < 1
-6 9 5 714.88 590.86 111.66 o 1
-5 -9 5 280.40 190.75 111.66 < -2
-5 9 5 280.40 190.75 111.66 < 1
-4 9 5 2015.07 1967.97 116.31 o 1
-3 9 5 3132.32 2186.64 107.01 o 1
-2 9 5 249.77 223.32 153.53 < 1
-1 9 5 2224.18 2340.17 162.84 o 1
0 9 5 4365.67 4517.50 130.27 o 1
1 9 5 3478.50 3633.54 139.57 o 1
2 9 5 2789.39 3266.00 144.23 o 1
3 9 5 52.57 37.22 148.88 < 1
4 9 5 487.12 697.86 74.44 o 1
5 9 5 89.88 753.69 83.74 o 1
6 9 5 2550.38 2503.00 93.05 o 1
7 9 5 1060.24 1111.93 186.10 o 1
8 9 5 755.91 572.25 167.49 o 1
-8 10 5 17.17 376.85 269.84 < 1
-7 10 5 272.99 232.62 167.49 < 1
-6 10 5 1202.45 949.09 125.61 o 1
-5 -10 5 2870.99 2596.05 139.57 o -2
-5 10 5 2870.99 2596.05 139.57 o 1
-4 10 5 1.33 111.66 111.66 < 1
-3 10 5 2137.49 2372.74 111.66 o 1
-2 10 5 112.69 93.05 148.88 < 1
-1 10 5 2222.53 2279.69 190.75 o 1
0 10 5 2555.87 2870.55 125.61 o 1
1 10 5 9261.79 10347.00 153.53 o 1
2 10 5 14783.40 15957.80 204.71 o 1
3 10 5 4567.77 4754.78 102.35 o 1
4 10 5 2678.77 2865.89 93.05 o 1
5 10 5 4563.84 5434.03 102.35 o 1
6 10 5 680.66 1000.27 88.40 o 1
7 10 5 475.33 446.63 88.40 o 1
-7 11 5 632.59 642.03 288.45 < 1
-6 11 5 135.43 321.02 139.57 < 1
-5 -11 5 172.40 451.29 130.27 o -2
-5 11 5 172.40 451.29 130.27 o 1
-4 11 5 38.60 283.80 116.31 < 1
-3 11 5 360.58 414.07 107.01 o 1
-2 11 5 564.68 535.03 130.27 o 1
-1 11 5 2445.89 1735.35 172.14 o 1
0 11 5 3045.79 3047.34 120.96 o 1
1 11 5 1783.99 1684.18 107.01 o 1
2 11 5 0.39 116.31 88.40 < 1
3 11 5 602.72 535.03 88.40 o 1
4 11 5 824.17 837.44 88.40 o 1
5 11 5 228.04 353.58 83.74 o 1
6 11 5 750.65 753.69 93.05 o 1
-6 12 5 31.15 274.49 172.14 < 1
-5 -12 5 1372.12 921.18 144.23 o -2
-5 12 5 1372.12 921.18 144.23 o 1
-4 12 5 179.42 307.06 134.92 < 1
-3 12 5 1553.73 1228.24 116.31 o 1
-2 12 5 20.41 148.88 134.92 < 1
-1 12 5 810.61 832.78 167.49 o 1
0 12 5 754.08 818.83 111.66 o 1
1 12 5 1417.78 1284.07 167.49 o 1
2 12 5 5430.09 5945.80 130.27 o 1
3 12 5 1313.74 1451.56 102.35 o 1
4 12 5 152.46 223.32 88.40 < 1
5 12 5 279.07 321.02 88.40 o 1
-5 -13 5 122.55 246.58 144.23 < -2
-5 13 5 122.55 246.58 144.23 < 1
-4 13 5 312.65 302.41 144.23 < 1
-3 13 5 176.55 274.49 120.96 < 1
-2 13 5 944.55 758.34 148.88 o 1
-1 13 5 6582.23 5503.82 209.36 o 1
0 13 5 30.05 60.48 97.70 < 1
1 13 5 178.66 307.06 148.88 < 1
2 13 5 774.97 744.39 97.70 o 1
3 13 5 4569.02 5150.23 130.27 o 1
4 13 5 15.55 102.35 88.40 < 1
-3 14 5 32.46 246.58 134.92 < 1
-2 14 5 3163.59 2168.03 172.14 o 1
-1 14 5 269.89 251.23 144.23 < 1
0 14 5 163.71 209.36 125.61 < 1
1 14 5 3204.19 2610.01 120.96 o 1
2 14 5 1168.17 1181.72 111.66 o 1
-11 0 6 65.48 214.01 139.57 < 1
-10 0 6 2369.30 2144.77 176.79 o 1
-9 0 6 850.85 772.30 144.23 o 1
-8 0 6 477.43 441.98 153.53 < 1
-7 0 6 279.91 186.10 153.53 < 1
-6 0 6 2081.21 2354.13 167.49 o -2
-6 0 6 2081.21 2354.13 167.49 o 1
-5 0 6 518.34 455.94 139.57 o 1
-4 0 6 4847.21 4959.48 186.10 o 1
-3 0 6 11687.40 11998.60 209.36 o 1
-2 0 6 56735.90 66487.80 348.93 o 1
-1 0 6 39841.60 41183.20 246.58 o 1
0 0 6 79346.00 85469.70 297.76 o 1
1 0 6 1915.45 2363.43 93.05 o 1
2 0 6 18155.30 19498.30 218.66 o 1
3 0 6 4039.70 4024.35 88.40 o 1
4 0 6 20191.00 22648.00 148.88 o 1
5 0 6 3470.80 4084.83 88.40 o 1
6 0 6 4227.84 4750.12 93.05 o 1
7 0 6 28002.00 32190.10 176.79 o 1
8 0 6 2519.69 3312.53 102.35 o 1
9 0 6 107.46 158.18 88.40 < 1
10 0 6 65.12 93.05 93.05 < 1
-11 1 6 33.13 316.36 97.70 o 1
-10 1 6 2.80 241.93 93.05 < 1
-9 1 6 1.74 69.79 97.70 < 1
-8 1 6 1333.17 1302.68 111.66 o 1
-7 1 6 3278.60 4191.83 130.27 o 1
-6 -1 6 262.30 158.18 107.01 < -2
-6 1 6 262.30 158.18 107.01 < 1
-5 1 6 163.95 548.99 93.05 o 1
-4 1 6 3673.66 3405.57 116.31 o 1
-3 1 6 1714.12 1735.35 97.70 o 1
-2 1 6 495.69 735.08 88.40 o 1
-1 1 6 12910.00 13552.50 130.27 o 1
0 1 6 7502.92 7806.77 88.40 o 1
1 1 6 33225.70 34842.00 139.57 o 1
2 1 6 7578.67 8076.61 97.70 o 1
3 1 6 10173.70 10533.10 83.74 o 1
4 1 6 4678.55 4787.34 65.13 o 1
5 1 6 661.92 753.69 55.83 o 1
6 1 6 1322.64 2140.11 55.83 o 1
7 1 6 2232.29 1991.24 60.48 o 1
-5 -1 -9 4524.44 5461.94 79.09 o -2
8 1 6 4524.44 5461.94 79.09 o 1
9 1 6 90.42 269.84 60.48 o 1
10 1 6 1256.63 1125.89 74.44 o 1
-11 2 6 23.68 274.49 107.01 < 1
-10 2 6 28.83 288.45 107.01 < 1
-9 2 6 16.43 134.92 97.70 < 1
-8 2 6 50.28 102.35 93.05 < 1
-7 2 6 29.04 1028.19 102.35 o 1
-6 -2 6 6706.46 6532.00 148.88 o -2
-6 2 6 6706.46 6532.00 148.88 o 1
-5 2 6 1005.17 1330.59 111.66 o 1
-4 2 6 2619.74 3163.65 102.35 o 1
-3 2 6 9296.98 9583.99 139.57 o 1
-2 2 6 7670.83 8867.52 116.31 o 1
-1 2 6 169.94 162.84 65.13 < 1
0 2 6 5613.76 5969.06 97.70 o 1
1 2 6 4489.11 4661.73 79.09 o 1
2 2 6 1343.75 1339.90 65.13 o 1
3 2 6 19861.60 21601.20 120.96 o 1
4 2 6 20439.40 22043.20 107.01 o 1
5 2 6 91.37 167.49 51.18 o 1
6 2 6 879.00 846.74 55.83 o 1
7 2 6 362.26 958.40 65.13 o 1
-5 -2 -9 2705.00 3340.44 74.44 o -2
8 2 6 2705.00 3340.44 74.44 o 1
9 2 6 831.63 897.92 69.79 o 1
10 2 6 1.22 195.40 65.13 < 1
-11 3 6 549.53 362.89 120.96 o 1
-10 3 6 175.11 479.20 111.66 o 1
-9 3 6 4.33 204.71 102.35 < 1
-8 3 6 375.52 283.80 97.70 < 1
-7 3 6 2933.26 3010.12 120.96 o 1
-6 -3 6 561.40 311.71 97.70 o -2
-6 3 6 561.40 311.71 97.70 o 1
-5 3 6 210.72 297.76 102.35 < 1
-4 3 6 9330.39 11268.20 144.23 o 1
-3 3 6 1581.84 1730.70 102.35 o 1
-2 3 6 4561.78 5606.17 139.57 o 1
-1 3 6 2137.09 2349.47 83.74 o 1
0 3 6 28756.80 31134.00 148.88 o 1
1 3 6 9015.08 9002.44 116.31 o 1
2 3 6 2842.73 2721.67 65.13 o 1
3 3 6 1997.91 2214.55 65.13 o 1
4 3 6 10428.70 11016.90 97.70 o 1
5 3 6 3947.35 4587.29 69.79 o 1
6 3 6 319.83 730.43 60.48 o 1
7 3 6 3211.24 3624.24 74.44 o 1
-5 -3 -9 3793.19 4373.28 83.74 o -2
8 3 6 3793.19 4373.28 83.74 o 1
9 3 6 234.53 367.54 74.44 o 1
10 3 6 391.32 372.19 69.79 o 1
-10 4 6 458.85 446.63 120.96 o 1
-9 4 6 244.41 214.01 102.35 < 1
-8 4 6 794.50 837.44 102.35 o 1
-7 4 6 1331.35 1274.76 102.35 o 1
-6 -4 6 1430.30 1088.67 102.35 o -2
-6 4 6 1430.30 1088.67 102.35 o 1
-5 4 6 894.36 1251.50 102.35 o 1
-4 4 6 3.28 232.62 93.05 < 1
-3 4 6 25571.10 32683.30 204.71 o 1
-2 4 6 14276.50 18684.10 162.84 o 1
-1 4 6 34545.70 37903.30 195.40 o 1
0 4 6 97.51 404.76 74.44 o 1
1 4 6 952.84 1018.88 79.09 o 1
2 4 6 1353.80 1321.29 60.48 o 1
3 4 6 1997.32 2005.19 65.13 o 1
4 4 6 2105.01 2521.61 69.79 o 1
5 4 6 1737.48 1972.63 79.09 o 1
6 4 6 996.44 1125.89 60.48 o 1
7 4 6 172.13 311.71 60.48 o 1
-5 -4 -9 1020.63 986.31 74.44 o -2
8 4 6 1020.63 986.31 74.44 o 1
9 4 6 781.36 790.91 69.79 o 1
-10 5 6 182.96 381.50 120.96 o 1
-9 5 6 118.18 251.23 116.31 < 1
-8 5 6 4373.15 4540.76 134.92 o 1
-7 5 6 6.59 27.91 93.05 < 1
-6 -5 6 266.63 311.71 93.05 o -2
-6 5 6 266.63 311.71 93.05 o 1
-5 5 6 2973.18 3982.47 120.96 o 1
-4 5 6 1921.41 2126.16 107.01 o 1
-3 5 6 95.49 139.57 125.61 < 1
-2 5 6 128.92 190.75 97.70 < 1
-1 5 6 4811.00 5103.71 116.31 o 1
0 5 6 11410.10 11310.00 130.27 o 1
1 5 6 1959.96 1674.87 88.40 o 1
2 5 6 1061.90 939.79 65.13 o 1
3 5 6 14697.60 14497.00 107.01 o 1
4 5 6 10040.90 10984.40 93.05 o 1
5 5 6 6035.36 7141.47 83.74 o 1
6 5 6 266.93 1670.22 79.09 o 1
7 5 6 268.43 260.54 60.48 o 1
-5 -5 -9 792.73 1102.62 74.44 o -2
8 5 6 792.73 1102.62 74.44 o 1
9 5 6 247.25 446.63 74.44 o 1
-10 6 6 241.77 344.28 130.27 < 1
-9 6 6 288.79 362.89 116.31 o 1
-8 6 6 1.20 102.35 111.66 < 1
-7 6 6 2777.14 2642.58 130.27 o 1
-6 -6 6 11756.30 11384.50 167.49 o -2
-6 6 6 11756.30 11384.50 167.49 o 1
-5 6 6 13977.20 16851.10 181.45 o 1
-4 6 6 3493.84 3131.08 144.23 o 1
-3 6 6 629.47 790.91 107.01 o 1
-2 6 6 5381.04 5475.90 134.92 o 1
-1 6 6 580.46 642.03 88.40 o 1
0 6 6 175.93 293.10 88.40 o 1
1 6 6 5124.19 4452.37 120.96 o 1
2 6 6 11124.60 10798.30 111.66 o 1
3 6 6 42569.90 43923.50 176.79 o 1
4 6 6 366.03 353.58 65.13 o 1
5 6 6 3.16 37.22 65.13 < 1
6 6 6 2005.46 2549.53 69.79 o 1
7 6 6 1628.80 2288.99 93.05 o 1
-5 -6 -9 336.30 497.81 79.09 o -2
8 6 6 336.30 497.81 79.09 o 1
9 6 6 807.25 874.66 83.74 o 1
-9 7 6 9.57 274.49 116.31 < 1
-8 7 6 10.72 158.18 111.66 < 1
-7 7 6 12.15 93.05 102.35 < 1
-6 -7 6 3426.30 3982.47 125.61 o -2
-6 7 6 3426.30 3982.47 125.61 o 1
-5 7 6 253.39 269.84 134.92 < 1
-4 7 6 4255.92 4819.91 120.96 o 1
-3 7 6 3847.70 4368.63 148.88 o 1
-2 7 6 10470.70 11347.30 172.14 o 1
-1 7 6 4878.38 5210.71 120.96 o 1
0 7 6 0.02 27.91 79.09 < 1
1 7 6 3101.61 2893.81 102.35 o 1
2 7 6 3210.68 3117.12 93.05 o 1
3 7 6 1630.77 1800.49 83.74 o 1
4 7 6 1586.20 1944.71 79.09 o 1
5 7 6 67.67 148.88 65.13 < 1
6 7 6 602.82 767.65 74.44 o 1
7 7 6 86.44 367.54 79.09 o 1
-5 -7 -9 1017.69 949.09 83.74 o -2
8 7 6 1017.69 949.09 83.74 o 1
-9 8 6 762.03 655.99 130.27 o 1
-8 8 6 120.49 307.06 111.66 < 1
-7 8 6 4.74 130.27 97.70 < 1
-6 -8 6 458.08 353.58 125.61 < -2
-6 8 6 458.08 353.58 125.61 < 1
-5 8 6 912.90 893.27 120.96 o 1
-4 8 6 377.05 483.85 97.70 o 1
-3 8 6 440.47 502.46 107.01 o 1
-2 8 6 6380.71 7290.35 186.10 o 1
-1 8 6 3158.23 3480.01 130.27 o 1
0 8 6 1543.75 1637.65 102.35 o 1
1 8 6 1584.98 1223.59 125.61 o 1
2 8 6 10072.00 9872.44 144.23 o 1
3 8 6 1060.60 1060.75 102.35 o 1
4 8 6 2493.70 2140.11 93.05 o 1
5 8 6 36.46 130.27 79.09 < 1
6 8 6 1485.48 1605.09 88.40 o 1
7 8 6 3060.33 2991.51 107.01 o 1
-5 -8 -9 40.21 153.53 93.05 < -2
8 8 6 40.21 153.53 93.05 < 1
-8 9 6 17.44 274.49 144.23 < 1
-7 9 6 1.78 204.71 120.96 < 1
-6 -9 6 80.44 144.23 97.70 < -2
-6 9 6 80.44 144.23 97.70 < 1
-5 9 6 1110.23 628.08 111.66 o 1
-4 9 6 219.02 307.06 107.01 < 1
-3 9 6 1768.98 1665.57 116.31 o 1
-2 9 6 4364.00 5266.54 195.40 o 1
-1 9 6 5163.94 5806.22 153.53 o 1
0 9 6 2413.36 2419.26 125.61 o 1
1 9 6 402.99 381.50 153.53 < 1
2 9 6 5294.88 5485.21 144.23 o 1
3 9 6 715.69 939.79 120.96 o 1
4 9 6 15563.80 14720.30 195.40 o 1
5 9 6 3.75 111.66 120.96 < 1
6 9 6 714.22 632.73 107.01 o 1
7 9 6 677.18 735.08 116.31 o 1
-7 10 6 261.05 334.97 116.31 < 1
-6 -10 6 3204.12 2265.73 134.92 o -2
-6 10 6 3204.12 2265.73 134.92 o 1
-5 10 6 7.05 162.84 125.61 < 1
-4 10 6 1004.19 586.21 102.35 o 1
-3 10 6 105.09 251.23 111.66 < 1
-2 10 6 1517.68 1563.21 232.62 o 1
-1 10 6 8603.25 9574.69 181.45 o 1
0 10 6 2993.49 2754.23 116.31 o 1
1 10 6 2545.10 2247.12 139.57 o 1
2 10 6 5.04 74.44 97.70 < 1
3 10 6 1787.00 1735.35 144.23 o 1
4 10 6 99.35 297.76 83.74 o 1
5 10 6 355.69 525.72 88.40 o 1
6 10 6 2574.86 2791.45 93.05 o 1
7 10 6 251.36 223.32 79.09 < 1
-7 11 6 10.62 218.66 130.27 < 1
-6 -11 6 0.33 269.84 120.96 < -2
-6 11 6 0.33 269.84 120.96 < 1
-5 11 6 514.10 502.46 139.57 o 1
-4 11 6 2851.92 2181.99 134.92 o 1
-3 11 6 307.31 297.76 111.66 < 1
-2 11 6 9.74 227.97 237.27 < 1
-1 11 6 459.99 521.07 130.27 o 1
0 11 6 554.80 595.51 107.01 o 1
1 11 6 723.24 707.17 125.61 o 1
2 11 6 9.70 107.01 120.96 < 1
3 11 6 3438.06 2047.07 55.83 o 1
4 11 6 215.65 404.76 88.40 o 1
5 11 6 5540.40 5764.35 120.96 o 1
6 11 6 4.82 144.23 83.74 < 1
-5 12 6 173.52 232.62 144.23 < 1
-4 12 6 4.25 241.93 120.96 < 1
-3 12 6 215.40 330.32 111.66 < 1
-2 12 6 1818.92 1591.13 241.93 o 1
-1 12 6 3274.88 2944.98 162.84 o 1
0 12 6 98.61 232.62 116.31 < 1
1 12 6 345.23 297.76 130.27 < 1
2 12 6 264.05 269.84 93.05 < 1
3 12 6 506.78 735.08 88.40 o 1
4 12 6 438.97 404.76 83.74 o 1
5 12 6 66.72 176.79 88.40 < 1
-4 13 6 513.36 316.36 134.92 < 1
-3 13 6 75.59 246.58 125.61 < 1
-2 13 6 638.43 455.94 223.32 < 1
-1 13 6 11.04 186.10 134.92 < 1
0 13 6 262.45 381.50 111.66 o 1
1 13 6 5560.71 6262.16 139.57 o 1
2 13 6 266.69 409.41 134.92 o 1
3 13 6 296.94 372.19 88.40 o 1
-10 1 7 577.68 753.69 102.35 o 1
-9 1 7 514.52 776.96 102.35 o 1
-8 1 7 152.78 200.05 93.05 < 1
-7 -1 7 1381.24 1353.86 107.01 o -2
-7 1 7 1381.24 1353.86 107.01 o 1
-6 1 7 4.84 13.96 107.01 < 1
-5 1 7 243.18 232.62 97.70 < 1
-4 1 7 9114.85 8816.34 153.53 o 1
-3 1 7 2036.28 1944.71 93.05 o 1
-2 1 7 9154.05 9076.88 107.01 o 1
-1 1 7 15411.60 14255.00 111.66 o 1
0 1 7 921.39 935.14 60.48 o 1
1 1 7 3771.57 3642.85 69.79 o 1
2 1 7 655.02 614.12 55.83 o 1
3 1 7 11306.10 11714.80 83.74 o 1
4 1 7 9638.52 10426.10 79.09 o 1
5 1 7 6951.35 8676.77 74.44 o 1
6 1 7 256.25 381.50 51.18 o 1
-6 -1 -8 523.57 702.52 60.48 o -2
7 1 7 523.57 702.52 60.48 o 1
8 1 7 222.29 274.49 60.48 o 1
9 1 7 44.24 204.71 60.48 o 1
-10 2 7 156.63 307.06 97.70 o 1
-9 2 7 193.64 162.84 97.70 < 1
-8 2 7 10.47 9.30 88.40 < 1
-7 -2 7 198.96 339.63 93.05 o -2
-7 2 7 198.96 339.63 93.05 o 1
-6 2 7 9668.75 10216.70 172.14 o 1
-5 2 7 11014.70 11882.30 176.79 o 1
-4 2 7 12351.10 13422.20 158.18 o 1
-3 2 7 10696.40 12166.10 144.23 o 1
-2 2 7 30.21 79.09 60.48 < 1
-1 2 7 21034.50 19423.90 134.92 o 1
0 2 7 233.36 158.18 60.48 < 1
1 2 7 332.28 348.93 60.48 o 1
2 2 7 302.43 307.06 60.48 o 1
3 2 7 3048.24 3075.25 65.13 o 1
4 2 7 38651.30 45030.80 167.49 o 1
5 2 7 363.04 511.77 55.83 o 1
6 2 7 497.17 707.17 55.83 o 1
-6 -2 -8 279.62 339.63 60.48 o -2
7 2 7 279.62 339.63 60.48 o 1
8 2 7 0.41 260.54 60.48 o 1
9 2 7 113.69 334.97 65.13 o 1
-10 3 7 467.51 595.51 102.35 o 1
-9 3 7 17.30 227.97 93.05 < 1
-8 3 7 454.95 511.77 93.05 o 1
-7 -3 7 282.49 209.36 88.40 < -2
-7 3 7 282.49 209.36 88.40 < 1
-6 3 7 214.95 32.57 97.70 < 1
-5 3 7 1194.89 1446.90 111.66 o 1
-4 3 7 40.74 153.53 88.40 < 1
-3 3 7 283.04 409.41 83.74 o 1
-2 3 7 3434.94 3605.63 111.66 o 1
-1 3 7 900.46 1046.80 74.44 o 1
0 3 7 28382.70 28068.10 162.84 o 1
1 3 7 254.88 325.67 60.48 o 1
2 3 7 3299.28 3038.03 79.09 o 1
3 3 7 5943.61 5759.70 74.44 o 1
4 3 7 4696.85 4703.60 74.44 o 1
5 3 7 7217.84 8983.83 93.05 o 1
6 3 7 697.87 790.91 65.13 o 1
-6 -3 -8 10107.10 13240.80 102.35 o -2
7 3 7 10107.10 13240.80 102.35 o 1
8 3 7 3.56 153.53 65.13 < 1
9 3 7 178.19 390.80 69.79 o 1
-10 4 7 80.62 218.66 97.70 < 1
-9 4 7 486.93 521.07 102.35 o 1
-8 4 7 710.20 693.21 97.70 o 1
-7 -4 7 1266.16 1167.76 93.05 o -2
-7 4 7 1266.16 1167.76 93.05 o 1
-6 4 7 1.42 18.61 93.05 < 1
-5 4 7 7196.53 8513.93 153.53 o 1
-4 4 7 16.05 107.01 88.40 < 1
-3 4 7 1464.04 1619.04 120.96 o 1
-2 4 7 9440.60 9858.48 125.61 o 1
-1 4 7 2013.42 2358.78 79.09 o 1
0 4 7 29065.40 30143.10 167.49 o 1
1 4 7 13184.90 11970.70 107.01 o 1
2 4 7 1718.83 1800.49 60.48 o 1
3 4 7 463.32 465.24 55.83 o 1
4 4 7 20.27 237.27 60.48 o 1
5 4 7 26.69 125.61 55.83 < 1
6 4 7 2.11 107.01 69.79 < 1
-6 -4 -8 42.60 107.01 65.13 < -2
7 4 7 42.60 107.01 65.13 < 1
8 4 7 7278.08 8304.58 97.70 o 1
9 4 7 1.06 148.88 69.79 < 1
-10 5 7 494.30 428.02 97.70 o 1
-9 5 7 218.48 479.20 97.70 o 1
-8 5 7 37.61 186.10 93.05 < 1
-7 -5 7 677.27 437.33 93.05 o -2
-7 5 7 677.27 437.33 93.05 o 1
-6 5 7 1561.56 1726.05 107.01 o 1
-5 5 7 131.23 204.71 93.05 < 1
-4 5 7 102.40 214.01 97.70 < 1
-3 5 7 592.07 809.52 93.05 o 1
-2 5 7 6125.55 6648.31 111.66 o 1
-1 5 7 116.09 237.27 79.09 < 1
0 5 7 150.34 130.27 69.79 < 1
1 5 7 13232.60 11668.30 111.66 o 1
2 5 7 3440.39 3238.09 74.44 o 1
3 5 7 1032.58 874.66 60.48 o 1
4 5 7 345.83 539.68 60.48 o 1
5 5 7 20577.70 22708.50 120.96 o 1
6 5 7 1006.64 1218.93 65.13 o 1
-6 -5 -8 669.29 758.34 79.09 o -2
7 5 7 669.29 758.34 79.09 o 1
8 5 7 133.28 223.32 65.13 o 1
9 5 7 3509.37 2982.20 88.40 o 1
-9 6 7 63.71 218.66 97.70 < 1
-8 6 7 186.11 441.98 97.70 o 1
-7 -6 7 396.54 381.50 97.70 o -2
-7 6 7 396.54 381.50 97.70 o 1
-6 6 7 212.18 246.58 97.70 < 1
-5 6 7 1806.21 2247.12 102.35 o 1
-4 6 7 648.02 567.60 130.27 o 1
-3 6 7 1.51 93.05 93.05 < 1
-2 6 7 467.61 339.63 88.40 o 1
-1 6 7 82.54 167.49 74.44 < 1
0 6 7 5734.99 5559.65 107.01 o 1
1 6 7 1758.32 1693.48 79.09 o 1
2 6 7 666.91 646.69 69.79 o 1
3 6 7 468.53 479.20 65.13 o 1
4 6 7 3573.85 3945.25 79.09 o 1
5 6 7 37.57 167.49 65.13 < 1
6 6 7 1904.19 2242.47 74.44 o 1
-6 -6 -8 546.07 697.86 79.09 o -2
7 6 7 546.07 697.86 79.09 o 1
8 6 7 1617.01 1698.13 97.70 o 1
-9 7 7 12.84 209.36 97.70 < 1
-8 7 7 122.46 334.97 107.01 o 1
-7 -7 7 127.99 204.71 97.70 < -2
-7 7 7 127.99 204.71 97.70 < 1
-6 7 7 2075.07 2023.80 116.31 o 1
-5 7 7 124.47 60.48 130.27 < 1
-4 7 7 3301.54 3028.73 111.66 o 1
-3 7 7 6091.66 6220.29 144.23 o 1
-2 7 7 1638.36 1535.30 111.66 o 1
-1 7 7 30.28 88.40 79.09 < 1
0 7 7 399.88 274.49 83.74 o 1
1 7 7 21455.00 22364.20 162.84 o 1
2 7 7 11.02 139.57 79.09 < 1
3 7 7 59.58 148.88 69.79 < 1
4 7 7 1340.55 1358.51 74.44 o 1
5 7 7 1591.21 1395.73 74.44 o 1
6 7 7 284.85 358.24 74.44 o 1
-6 -7 -8 295.24 316.36 79.09 o -2
7 7 7 295.24 316.36 79.09 o 1
8 7 7 1878.34 1698.13 93.05 o 1
-8 8 7 414.52 279.14 102.35 < 1
-7 -8 7 1127.21 879.31 134.92 o -2
-7 8 7 1127.21 879.31 134.92 o 1
-6 8 7 17.50 139.57 97.70 < 1
-5 8 7 46.18 172.14 102.35 < 1
-4 8 7 428.82 288.45 97.70 < 1
-3 8 7 256.30 218.66 139.57 < 1
-2 8 7 1687.13 1949.37 139.57 o 1
-1 8 7 6730.15 6592.48 125.61 o 1
0 8 7 13295.00 13506.00 148.88 o 1
1 8 7 322.46 316.36 88.40 o 1
2 8 7 7277.88 7043.77 130.27 o 1
3 8 7 1553.25 1470.17 83.74 o 1
4 8 7 2544.63 2656.53 88.40 o 1
5 8 7 521.11 716.47 83.74 o 1
6 8 7 4883.32 5322.37 111.66 o 1
-6 -8 -8 585.34 586.21 83.74 o -2
7 8 7 585.34 586.21 83.74 o 1
-8 9 7 21.81 214.01 130.27 < 1
-7 -9 7 1203.00 763.00 111.66 o -2
-7 9 7 1203.00 763.00 111.66 o 1
-6 9 7 212.25 321.02 111.66 < 1
-5 9 7 427.62 507.11 116.31 o 1
-4 9 7 358.62 339.63 107.01 o 1
-3 9 7 51.36 107.01 148.88 < 1
-2 9 7 485.02 679.25 172.14 o 1
-1 9 7 1568.14 1498.08 125.61 o 1
0 9 7 3236.49 3224.13 125.61 o 1
1 9 7 18.37 41.87 88.40 < 1
2 9 7 11092.70 10370.30 139.57 o 1
3 9 7 337.40 297.76 93.05 o 1
4 9 7 704.67 586.21 111.66 o 1
5 9 7 1750.84 2000.54 107.01 o 1
6 9 7 8.02 190.75 88.40 < 1
-6 -9 -8 427.32 348.93 97.70 o -2
7 9 7 427.32 348.93 97.70 o 1
-7 -10 7 62.79 139.57 97.70 < -2
-7 10 7 62.79 139.57 97.70 < 1
-6 10 7 59.07 176.79 102.35 < 1
-5 10 7 2872.15 2093.59 139.57 o 1
-4 10 7 1880.38 1442.25 130.27 o 1
-3 10 7 78.65 251.23 139.57 < 1
-2 10 7 1382.67 1716.74 246.58 o 1
-1 10 7 262.56 372.19 116.31 o 1
0 10 7 3.42 41.87 102.35 < 1
1 10 7 2067.39 1786.53 116.31 o 1
2 10 7 1112.74 1093.32 120.96 o 1
3 10 7 192.63 241.93 125.61 < 1
4 10 7 3222.24 3484.67 158.18 o 1
5 10 7 765.21 693.21 162.84 o 1
6 10 7 276.20 404.76 200.05 < 1
-6 11 7 301.24 265.19 111.66 < 1
-5 11 7 577.68 548.99 120.96 o 1
-4 11 7 41.95 190.75 107.01 < 1
-3 11 7 302.91 516.42 125.61 o 1
-2 11 7 2713.73 3191.56 265.19 o 1
-1 11 7 566.94 651.34 125.61 o 1
0 11 7 13.22 158.18 116.31 < 1
1 11 7 1375.87 1465.51 120.96 o 1
2 11 7 21.65 139.57 125.61 < 1
3 11 7 734.74 735.08 130.27 o 1
4 11 7 3.54 195.40 83.74 < 1
5 11 7 123.08 269.84 83.74 o 1
-4 12 7 596.02 446.63 116.31 o 1
-3 12 7 650.11 423.37 120.96 o 1
-2 12 7 951.70 1046.80 274.49 o 1
-1 12 7 474.50 548.99 125.61 o 1
0 12 7 1098.87 1130.54 120.96 o 1
1 12 7 60.65 200.05 97.70 < 1
2 12 7 213.80 190.75 158.18 < 1
3 12 7 2456.27 2698.41 107.01 o 1
-2 13 7 722.62 660.64 232.62 < 1
-1 13 7 124.01 288.45 125.61 < 1
0 13 7 580.80 483.85 111.66 o 1
1 13 7 8.26 148.88 116.31 < 1
-10 0 8 134.27 395.46 125.61 o 1
-9 0 8 1544.21 1670.22 158.18 o 1
-8 0 8 2478.39 2358.78 186.10 o -2
-8 0 8 2478.39 2358.78 186.10 o 1
-7 0 8 4140.57 5271.20 190.75 o 1
-6 0 8 6998.16 8104.52 200.05 o 1
-5 0 8 515.76 344.28 153.53 < 1
-4 0 8 6580.09 6518.04 227.97 o 1
-3 0 8 459.40 744.39 116.31 o 1
-2 0 8 1321.28 1274.76 97.70 o 1
-1 0 8 12439.00 14380.60 214.01 o 1
0 0 8 994.72 1307.33 88.40 o 1
1 0 8 47429.30 38252.20 241.93 o 1
2 0 8 1008.21 1186.37 83.74 o 1
3 0 8 75.52 172.14 79.09 < 1
4 0 8 510.54 586.21 120.96 o 1
5 0 8 1643.46 3531.19 88.40 o 1
6 0 8 5565.49 6885.59 107.01 o 1
7 0 8 1250.29 1916.80 93.05 o 1
8 0 8 699.96 879.31 93.05 o 1
9 0 8 287.62 423.37 97.70 o 1
-10 1 8 175.03 302.41 93.05 o 1
-9 1 8 0.38 297.76 97.70 o 1
-8 -1 8 317.27 488.50 102.35 o -2
-8 1 8 317.27 488.50 102.35 o 1
-7 1 8 150.51 116.31 97.70 < 1
-6 1 8 379.33 218.66 93.05 < 1
-5 1 8 222.01 344.28 107.01 o 1
-4 1 8 968.19 930.48 111.66 o 1
-3 1 8 1289.22 1014.23 93.05 o 1
-2 1 8 22.97 41.87 69.79 < 1
-1 1 8 3015.69 3452.10 88.40 o 1
0 1 8 435.61 386.15 60.48 o 1
1 1 8 10946.90 9788.70 93.05 o 1
2 1 8 5195.69 5275.85 74.44 o 1
3 1 8 114.92 153.53 46.52 o 1
4 1 8 1491.21 1902.84 55.83 o 1
5 1 8 1196.61 1223.59 55.83 o 1
-7 -1 -7 54.21 167.49 55.83 < -2
6 1 8 54.21 167.49 55.83 < 1
7 1 8 202.98 251.23 55.83 o 1
8 1 8 199.09 688.56 69.79 o 1
9 1 8 13.00 172.14 65.13 < 1
-10 2 8 431.71 451.29 102.35 o 1
-9 2 8 65.18 186.10 88.40 < 1
-8 -2 8 190.34 116.31 93.05 < -2
-8 2 8 190.34 116.31 93.05 < 1
-7 2 8 106.34 130.27 102.35 < 1
-6 2 8 1695.50 2284.34 116.31 o 1
-5 2 8 5665.30 7025.16 144.23 o 1
-4 2 8 2582.83 2503.00 111.66 o 1
-3 2 8 6939.91 6504.09 125.61 o 1
-2 2 8 3235.69 3312.53 102.35 o 1
-1 2 8 3229.72 3368.35 74.44 o 1
0 2 8 68.67 144.23 55.83 < 1
1 2 8 1141.29 1144.50 60.48 o 1
2 2 8 5028.76 4661.73 69.79 o 1
3 2 8 151.67 144.23 60.48 < 1
4 2 8 118.47 116.31 55.83 < 1
5 2 8 6382.39 8053.34 93.05 o 1
-7 -2 -7 3182.36 3721.94 69.79 o -2
6 2 8 3182.36 3721.94 69.79 o 1
7 2 8 276.92 455.94 60.48 o 1
8 2 8 203.23 255.88 69.79 o 1
-10 3 8 1.27 209.36 88.40 < 1
-9 3 8 201.52 381.50 93.05 o 1
-8 -3 8 14.14 176.79 88.40 < -2
-8 3 8 14.14 176.79 88.40 < 1
-7 3 8 115.00 97.70 88.40 < 1
-6 3 8 24.90 107.01 97.70 < 1
-5 3 8 247.77 269.84 102.35 < 1
-4 3 8 1887.40 2512.31 107.01 o 1
-3 3 8 59.49 120.96 88.40 < 1
-2 3 8 2163.11 2288.99 88.40 o 1
-1 3 8 784.69 809.52 65.13 o 1
0 3 8 1174.70 1214.28 65.13 o 1
1 3 8 11.07 69.79 55.83 < 1
2 3 8 12453.80 11789.20 102.35 o 1
3 3 8 174.00 269.84 69.79 o 1
4 3 8 74.36 251.23 55.83 o 1
5 3 8 182.01 400.11 60.48 o 1
-7 -3 -7 3225.28 3982.47 93.05 o -2
6 3 8 3225.28 3982.47 93.05 o 1
7 3 8 1987.15 2470.44 74.44 o 1
8 3 8 794.75 953.75 69.79 o 1
-9 4 8 404.25 334.97 97.70 o 1
-8 -4 8 1610.58 1800.49 111.66 o -2
-8 4 8 1610.58 1800.49 111.66 o 1
-7 4 8 6.64 65.13 88.40 < 1
-6 4 8 850.29 865.35 102.35 o 1
-5 4 8 163.54 265.19 97.70 < 1
-4 4 8 1016.11 967.70 93.05 o 1
-3 4 8 5790.37 4796.65 153.53 o 1
-2 4 8 2866.06 2786.80 93.05 o 1
-1 4 8 20.28 37.22 65.13 < 1
0 4 8 593.90 725.78 74.44 o 1
1 4 8 2012.98 1930.76 65.13 o 1
2 4 8 5179.48 4778.04 83.74 o 1
3 4 8 5599.62 5247.93 83.74 o 1
4 4 8 5872.46 6057.45 83.74 o 1
5 4 8 546.51 553.64 65.13 o 1
-7 -4 -7 574.12 469.89 69.79 o -2
6 4 8 574.12 469.89 69.79 o 1
7 4 8 1601.93 2302.95 88.40 o 1
8 4 8 602.61 814.17 79.09 o 1
-9 5 8 79.50 195.40 93.05 < 1
-8 -5 8 58.44 190.75 93.05 < -2
-8 5 8 58.44 190.75 93.05 < 1
-7 5 8 246.59 260.54 93.05 < 1
-6 5 8 618.67 437.33 97.70 o 1
-5 5 8 296.79 190.75 93.05 < 1
-4 5 8 178.72 111.66 107.01 < 1
-3 5 8 1296.93 1079.36 102.35 o 1
-2 5 8 110.91 55.83 79.09 < 1
-1 5 8 29.39 102.35 74.44 < 1
0 5 8 519.22 441.98 79.09 o 1
1 5 8 9536.68 8109.17 102.35 o 1
2 5 8 1899.91 1744.66 83.74 o 1
3 5 8 4773.13 4712.90 79.09 o 1
4 5 8 96.26 255.88 65.13 o 1
5 5 8 277.11 148.88 69.79 < 1
-7 -5 -7 3293.56 4233.71 79.09 o -2
6 5 8 3293.56 4233.71 79.09 o 1
7 5 8 860.56 1218.93 74.44 o 1
8 5 8 905.87 1372.46 93.05 o 1
-9 6 8 31.47 246.58 88.40 < 1
-8 -6 8 74.43 190.75 88.40 < -2
-8 6 8 74.43 190.75 88.40 < 1
-7 6 8 509.36 376.85 93.05 o 1
-6 6 8 686.84 516.42 97.70 o 1
-5 6 8 3372.29 3359.05 148.88 o 1
-4 6 8 5620.82 6545.96 144.23 o 1
-3 6 8 2540.41 2414.61 107.01 o 1
-2 6 8 8544.34 8737.25 130.27 o 1
-1 6 8 2555.00 2479.74 93.05 o 1
0 6 8 3958.32 4154.61 102.35 o 1
1 6 8 2910.07 2712.36 79.09 o 1
2 6 8 246.00 237.27 79.09 < 1
3 6 8 3112.64 2940.33 79.09 o 1
4 6 8 5142.02 5541.04 88.40 o 1
5 6 8 11001.70 12114.90 111.66 o 1
-7 -6 -7 1525.40 1781.88 74.44 o -2
6 6 8 1525.40 1781.88 74.44 o 1
7 6 8 250.31 386.15 74.44 o 1
-8 -7 8 0.19 130.27 88.40 < -2
-8 7 8 0.19 130.27 88.40 < 1
-7 7 8 3.33 214.01 88.40 < 1
-6 7 8 433.66 423.37 120.96 o 1
-5 7 8 375.89 181.45 93.05 < 1
-4 7 8 926.90 944.44 111.66 o 1
-3 7 8 1796.65 1665.57 120.96 o 1
-2 7 8 4360.07 4145.31 134.92 o 1
-1 7 8 8395.11 8458.11 125.61 o 1
0 7 8 882.70 1093.32 88.40 o 1
1 7 8 22.45 69.79 74.44 < 1
2 7 8 4839.36 4303.49 116.31 o 1
3 7 8 391.81 372.19 69.79 o 1
4 7 8 129.34 265.19 69.79 o 1
5 7 8 4030.90 3889.43 93.05 o 1
-7 -7 -7 1295.76 1702.79 88.40 o -2
6 7 8 1295.76 1702.79 88.40 o 1
7 7 8 6.22 172.14 79.09 < 1
-7 8 8 59.42 204.71 111.66 < 1
-6 8 8 29.45 176.79 97.70 < 1
-5 8 8 544.12 572.25 102.35 o 1
-4 8 8 21.16 111.66 97.70 < 1
-3 8 8 12.93 116.31 139.57 < 1
-2 8 8 95.72 204.71 130.27 < 1
-1 8 8 284.78 162.84 88.40 < 1
0 8 8 32.95 46.52 88.40 < 1
1 8 8 713.45 628.08 88.40 o 1
2 8 8 3864.39 3033.38 125.61 o 1
3 8 8 460.06 423.37 79.09 o 1
4 8 8 34.35 116.31 74.44 < 1
5 8 8 86.56 293.10 83.74 o 1
-7 -8 -7 516.13 632.73 88.40 o -2
6 8 8 516.13 632.73 88.40 o 1
-7 9 8 77.08 255.88 102.35 < 1
-6 9 8 1255.28 1125.89 116.31 o 1
-5 9 8 92.09 307.06 102.35 < 1
-4 9 8 152.08 200.05 111.66 < 1
-3 9 8 1696.72 1651.61 186.10 o 1
-2 9 8 3632.93 4415.15 186.10 o 1
-1 9 8 1502.55 1349.20 116.31 o 1
0 9 8 1.53 60.48 97.70 < 1
1 9 8 1293.00 1172.41 88.40 o 1
2 9 8 574.14 483.85 116.31 o 1
3 9 8 12.41 134.92 97.70 < 1
4 9 8 65.69 214.01 97.70 < 1
5 9 8 3323.15 3107.82 111.66 o 1
-7 -9 -7 3176.15 2577.44 107.01 o -2
6 9 8 3176.15 2577.44 107.01 o 1
-6 10 8 6.28 265.19 102.35 < 1
-5 10 8 1231.14 944.44 120.96 o 1
-4 10 8 194.88 311.71 102.35 o 1
-3 10 8 1922.89 2195.94 204.71 o 1
-2 10 8 100.53 311.71 167.49 < 1
-1 10 8 451.52 446.63 111.66 o 1
0 10 8 837.03 953.75 125.61 o 1
1 10 8 1069.21 865.35 111.66 o 1
2 10 8 1.73 167.49 139.57 < 1
3 10 8 117.79 227.97 107.01 < 1
4 10 8 146.24 195.40 107.01 < 1
5 10 8 279.60 376.85 116.31 o 1
-5 11 8 519.16 404.76 116.31 o 1
-4 11 8 465.87 483.85 116.31 o 1
-3 11 8 547.45 558.29 148.88 o 1
-2 11 8 1296.20 1214.28 186.10 o 1
-1 11 8 1938.96 1753.96 148.88 o 1
0 11 8 208.69 344.28 111.66 o 1
1 11 8 1175.71 865.35 116.31 o 1
2 11 8 3597.07 2735.62 134.92 o 1
3 11 8 203.68 260.54 153.53 < 1
-2 12 8 132.66 209.36 176.79 < 1
-1 12 8 595.90 614.12 139.57 o 1
0 12 8 443.19 423.37 107.01 o 1
1 12 8 3248.94 2423.91 125.61 o 1
-9 -1 9 58.41 116.31 88.40 < -2
-9 1 9 58.41 116.31 88.40 < 1
-8 1 9 509.62 907.22 107.01 o 1
-7 1 9 1173.41 1251.50 111.66 o 1
-6 1 9 508.71 562.94 102.35 o 1
-5 1 9 1115.06 953.75 111.66 o 1
-4 1 9 1926.17 2191.29 111.66 o 1
-3 1 9 1075.07 1177.06 93.05 o 1
-2 1 9 0.71 55.83 74.44 < 1
-1 1 9 13795.40 11445.00 130.27 o 1
0 1 9 824.05 697.86 65.13 o 1
1 1 9 129.49 37.22 51.18 < 1
2 1 9 4007.19 3503.27 74.44 o 1
3 1 9 8459.73 7927.73 88.40 o 1
4 1 9 2750.24 2675.14 65.13 o 1
-8 -1 -6 3610.37 3103.17 83.74 o -2
5 1 9 3610.37 3103.17 83.74 o 1
6 1 9 240.37 367.54 74.44 o 1
7 1 9 6827.07 7685.80 88.40 o 1
8 1 9 662.75 995.62 69.79 o 1
-9 -2 9 495.20 553.64 97.70 o -2
-9 2 9 495.20 553.64 97.70 o 1
-8 2 9 19.87 162.84 88.40 < 1
-7 2 9 444.43 348.93 102.35 o 1
-6 2 9 291.45 251.23 97.70 < 1
-5 2 9 1767.23 1930.76 116.31 o 1
-4 2 9 5418.56 5792.27 134.92 o 1
-3 2 9 2245.62 2628.62 93.05 o 1
-2 2 9 4776.00 4601.25 102.35 o 1
-1 2 9 9459.43 9905.01 125.61 o 1
0 2 9 1158.38 1023.53 69.79 o 1
1 2 9 187.83 162.84 60.48 < 1
2 2 9 3837.23 3014.77 69.79 o 1
3 2 9 42.85 13.96 55.83 < 1
4 2 9 3626.50 3563.76 88.40 o 1
-8 -2 -6 372.67 479.20 65.13 o -2
5 2 9 372.67 479.20 65.13 o 1
6 2 9 2987.58 3503.27 83.74 o 1
7 2 9 3.88 186.10 69.79 < 1
8 2 9 380.89 576.90 65.13 o 1
-9 -3 9 308.92 381.50 88.40 o -2
-9 3 9 308.92 381.50 88.40 o 1
-8 3 9 51.00 190.75 88.40 < 1
-7 3 9 106.78 316.36 102.35 o 1
-6 3 9 25.06 -4.65 102.35 < 1
-5 3 9 2.40 4.65 97.70 < 1
-4 3 9 283.15 330.32 97.70 o 1
-3 3 9 259.24 265.19 107.01 < 1
-2 3 9 8597.62 8727.95 120.96 o 1
-1 3 9 472.06 488.50 79.09 o 1
0 3 9 11735.70 9649.13 116.31 o 1
1 3 9 1551.56 1172.41 65.13 o 1
2 3 9 951.41 655.99 60.48 o 1
3 3 9 3444.38 3535.84 74.44 o 1
4 3 9 796.33 781.61 74.44 o 1
-8 -3 -6 5100.67 5899.27 88.40 o -2
5 3 9 5100.67 5899.27 88.40 o 1
6 3 9 627.83 525.72 60.48 o 1
7 3 9 24.24 223.32 69.79 o 1
-9 -4 9 88.62 274.49 93.05 < -2
-9 4 9 88.62 274.49 93.05 < 1
-8 4 9 914.57 902.57 102.35 o 1
-7 4 9 1201.06 1256.15 107.01 o 1
-6 4 9 1099.79 972.36 111.66 o 1
-5 4 9 2128.35 2037.76 116.31 o 1
-4 4 9 277.05 293.10 116.31 < 1
-3 4 9 277.10 241.93 83.74 < 1
-2 4 9 237.42 148.88 79.09 < 1
-1 4 9 5.37 -18.61 69.79 < 1
0 4 9 266.51 279.14 65.13 o 1
1 4 9 30.52 18.61 60.48 < 1
2 4 9 7983.18 7578.80 93.05 o 1
3 4 9 2797.02 2316.91 93.05 o 1
4 4 9 1312.57 1232.89 69.79 o 1
-8 -4 -6 290.37 255.88 65.13 o -2
5 4 9 290.37 255.88 65.13 o 1
6 4 9 381.14 897.92 69.79 o 1
7 4 9 76.17 265.19 65.13 o 1
-8 5 9 1.53 209.36 93.05 < 1
-7 5 9 481.90 642.03 97.70 o 1
-6 5 9 42.03 139.57 93.05 < 1
-5 5 9 1212.92 1204.98 144.23 o 1
-4 5 9 3828.15 4247.66 120.96 o 1
-3 5 9 1283.79 1251.50 102.35 o 1
-2 5 9 264.01 218.66 83.74 < 1
-1 5 9 2948.81 2656.53 88.40 o 1
0 5 9 176.38 218.66 69.79 o 1
1 5 9 771.10 623.42 74.44 o 1
2 5 9 4523.31 4075.52 93.05 o 1
3 5 9 310.46 288.45 83.74 o 1
4 5 9 568.46 548.99 69.79 o 1
-8 -5 -6 117.70 232.62 65.13 o -2
5 5 9 117.70 232.62 65.13 o 1
6 5 9 445.78 758.34 74.44 o 1
7 5 9 42.48 279.14 69.79 o 1
-8 6 9 2.94 265.19 83.74 o 1
-7 6 9 89.24 279.14 88.40 o 1
-6 6 9 175.63 316.36 116.31 < 1
-5 6 9 87.32 158.18 97.70 < 1
-4 6 9 194.38 321.02 102.35 o 1
-3 6 9 1518.41 1898.19 120.96 o 1
-2 6 9 167.23 237.27 83.74 < 1
-1 6 9 120.91 227.97 88.40 < 1
0 6 9 437.79 367.54 83.74 o 1
1 6 9 5068.12 4154.61 102.35 o 1
2 6 9 314.95 251.23 74.44 o 1
3 6 9 120.10 223.32 79.09 < 1
4 6 9 18.56 181.45 69.79 < 1
-8 -6 -6 74.71 176.79 60.48 < -2
5 6 9 74.71 176.79 60.48 < 1
6 6 9 12.00 265.19 69.79 o 1
-7 7 9 26.24 316.36 102.35 o 1
-6 7 9 528.98 460.59 102.35 o 1
-5 7 9 532.36 609.47 107.01 o 1
-4 7 9 69.10 218.66 111.66 < 1
-3 7 9 580.55 623.42 116.31 o 1
-2 7 9 176.63 186.10 93.05 < 1
-1 7 9 370.68 293.10 102.35 < 1
0 7 9 95.74 37.22 93.05 < 1
1 7 9 804.04 856.05 88.40 o 1
2 7 9 1949.62 1698.13 83.74 o 1
3 7 9 4317.06 3642.85 116.31 o 1
4 7 9 48.84 195.40 74.44 < 1
-8 -7 -6 598.54 469.89 74.44 o -2
5 7 9 598.54 469.89 74.44 o 1
6 7 9 59.19 330.32 74.44 o 1
-6 8 9 108.06 307.06 97.70 o 1
-5 8 9 1932.28 1670.22 116.31 o 1
-4 8 9 36.40 274.49 120.96 < 1
-3 8 9 1713.43 2116.85 153.53 o 1
-2 8 9 3043.66 3079.90 144.23 o 1
-1 8 9 1164.19 1079.36 107.01 o 1
0 8 9 1525.58 1400.38 97.70 o 1
1 8 9 977.93 860.70 93.05 o 1
2 8 9 3443.78 3228.78 107.01 o 1
3 8 9 914.95 842.09 107.01 o 1
4 8 9 143.79 218.66 88.40 < 1
-8 -8 -6 380.04 423.37 88.40 o -2
5 8 9 380.04 423.37 88.40 o 1
-6 9 9 149.75 158.18 93.05 < 1
-5 9 9 368.41 344.28 102.35 o 1
-4 9 9 1289.43 1288.72 120.96 o 1
-3 9 9 137.65 507.11 167.49 o 1
-2 9 9 863.98 1097.97 144.23 o 1
-1 9 9 99.66 251.23 102.35 < 1
0 9 9 17.48 190.75 88.40 < 1
1 9 9 31.43 186.10 88.40 < 1
2 9 9 341.34 334.97 102.35 o 1
3 9 9 1909.07 1619.04 148.88 o 1
4 9 9 136.93 246.58 97.70 < 1
-4 10 9 411.49 483.85 111.66 o 1
-3 10 9 70.89 367.54 232.62 < 1
-2 10 9 437.58 586.21 153.53 o 1
-1 10 9 2787.29 2689.10 134.92 o 1
0 10 9 510.72 516.42 107.01 o 1
1 10 9 67.46 200.05 102.35 < 1
2 10 9 149.24 204.71 102.35 < 1
3 10 9 0.51 227.97 125.61 < 1
-2 11 9 137.34 362.89 158.18 < 1
-1 11 9 450.53 465.24 111.66 o 1
0 11 9 532.55 414.07 111.66 o 1
1 11 9 107.60 218.66 111.66 < 1
-8 0 10 40.97 297.76 144.23 < 1
-7 0 10 1481.36 1712.09 172.14 o 1
-6 0 10 407.28 721.13 139.57 o 1
-5 0 10 158.73 102.35 148.88 < 1
-4 0 10 2284.12 2698.41 162.84 o 1
-3 0 10 2586.30 2363.43 139.57 o 1
-2 0 10 3376.42 3647.50 167.49 o 1
-1 0 10 7753.05 7187.99 144.23 o 1
0 0 10 15.42 -46.52 79.09 < 1
1 0 10 4195.52 4391.89 111.66 o 1
2 0 10 6091.97 5573.60 120.96 o 1
3 0 10 2145.04 1716.74 97.70 o 1
4 0 10 2779.86 2726.32 97.70 o 1
5 0 10 984.07 907.22 88.40 o 1
6 0 10 1300.25 1372.46 148.88 o 1
7 0 10 49.11 223.32 139.57 < 1
-8 1 10 112.93 432.67 93.05 o 1
-7 1 10 2.82 218.66 97.70 < 1
-6 1 10 175.19 455.94 93.05 o 1
-5 1 10 230.06 307.06 97.70 o 1
-4 1 10 1886.09 2140.11 120.96 o 1
-3 1 10 1860.92 1539.95 116.31 o 1
-2 1 10 1377.00 1209.63 97.70 o 1
-1 1 10 2474.69 2428.56 79.09 o 1
0 1 10 1026.40 744.39 69.79 o 1
1 1 10 155.20 204.71 60.48 o 1
2 1 10 55.77 102.35 60.48 < 1
3 1 10 1501.56 1065.40 65.13 o 1
-9 -1 -5 3913.83 3480.01 74.44 o -2
4 1 10 3913.83 3480.01 74.44 o 1
5 1 10 1426.46 1391.07 65.13 o 1
6 1 10 868.37 1097.97 83.74 o 1
7 1 10 0.66 181.45 69.79 < 1
-8 2 10 1.67 241.93 93.05 < 1
-7 2 10 109.06 348.93 97.70 o 1
-6 2 10 211.03 423.37 107.01 o 1
-5 2 10 695.47 818.83 107.01 o 1
-4 2 10 31.61 65.13 93.05 < 1
-3 2 10 6.53 -32.57 97.70 < 1
-2 2 10 59.10 13.96 65.13 < 1
-1 2 10 191.62 260.54 69.79 o 1
0 2 10 2676.57 2288.99 74.44 o 1
1 2 10 581.55 483.85 60.48 o 1
2 2 10 509.10 414.07 60.48 o 1
3 2 10 2663.93 2288.99 69.79 o 1
-9 -2 -5 1544.04 1335.25 65.13 o -2
4 2 10 1544.04 1335.25 65.13 o 1
5 2 10 105.18 255.88 74.44 o 1
6 2 10 1285.12 1237.54 83.74 o 1
7 2 10 292.65 381.50 65.13 o 1
-8 3 10 81.02 311.71 93.05 o 1
-7 3 10 1.74 176.79 97.70 < 1
-6 3 10 229.13 428.02 97.70 o 1
-5 3 10 0.87 120.96 102.35 < 1
-4 3 10 2780.51 3470.71 144.23 o 1
-3 3 10 2.46 130.27 88.40 < 1
-2 3 10 894.10 828.13 83.74 o 1
-1 3 10 19.35 148.88 69.79 < 1
0 3 10 7559.56 6057.45 102.35 o 1
1 3 10 72.82 79.09 60.48 < 1
2 3 10 31.62 83.74 60.48 < 1
3 3 10 219.24 269.84 60.48 o 1
-9 -3 -5 7701.05 6811.15 97.70 o -2
4 3 10 7701.05 6811.15 97.70 o 1
5 3 10 1002.04 851.39 79.09 o 1
6 3 10 3.79 181.45 65.13 < 1
-8 4 10 172.04 455.94 97.70 o 1
-7 4 10 613.34 860.70 102.35 o 1
-6 4 10 2.86 293.10 97.70 o 1
-5 4 10 1253.24 1507.39 139.57 o 1
-4 4 10 1388.79 1814.45 111.66 o 1
-3 4 10 68.71 181.45 93.05 < 1
-2 4 10 589.30 590.86 83.74 o 1
-1 4 10 76.82 69.79 74.44 < 1
0 4 10 25.78 -27.91 65.13 < 1
1 4 10 63.82 69.79 65.13 < 1
2 4 10 184.08 172.14 60.48 < 1
3 4 10 2138.88 1837.71 79.09 o 1
-9 -4 -5 738.36 581.55 65.13 o -2
4 4 10 738.36 581.55 65.13 o 1
5 4 10 13.63 167.49 79.09 < 1
6 4 10 978.97 972.36 69.79 o 1
-7 5 10 105.47 218.66 93.05 < 1
-6 5 10 14.06 307.06 97.70 o 1
-5 5 10 1048.22 1251.50 134.92 o 1
-4 5 10 572.35 665.30 102.35 o 1
-3 5 10 1287.84 1288.72 111.66 o 1
-2 5 10 11.81 51.18 79.09 < 1
-1 5 10 977.34 716.47 93.05 o 1
0 5 10 7032.60 6285.42 107.01 o 1
1 5 10 11.59 69.79 65.13 < 1
2 5 10 133.20 218.66 69.79 o 1
3 5 10 96.96 79.09 69.79 < 1
-9 -5 -5 84.05 172.14 83.74 < -2
4 5 10 84.05 172.14 83.74 < 1
5 5 10 3.06 167.49 79.09 < 1
6 5 10 428.71 618.77 74.44 o 1
-7 6 10 50.98 251.23 102.35 < 1
-6 6 10 766.12 888.61 130.27 o 1
-5 6 10 122.96 241.93 111.66 < 1
-4 6 10 496.04 562.94 111.66 o 1
-3 6 10 1661.72 1539.95 120.96 o 1
-2 6 10 2.90 107.01 93.05 < 1
-1 6 10 4631.44 4782.69 125.61 o 1
0 6 10 2239.25 1744.66 93.05 o 1
1 6 10 22.19 125.61 79.09 < 1
2 6 10 128.58 321.02 74.44 o 1
3 6 10 156.60 376.85 74.44 o 1
-9 -6 -5 896.92 614.12 88.40 o -2
4 6 10 896.92 614.12 88.40 o 1
5 6 10 10.48 167.49 65.13 < 1
-6 7 10 237.38 297.76 97.70 o 1
-5 7 10 1.33 241.93 97.70 < 1
-4 7 10 3.70 241.93 120.96 < 1
-3 7 10 2.08 316.36 120.96 < 1
-2 7 10 527.61 623.42 102.35 o 1
-1 7 10 274.76 381.50 102.35 o 1
0 7 10 537.65 511.77 88.40 o 1
1 7 10 537.89 446.63 88.40 o 1
2 7 10 4.61 227.97 74.44 o 1
3 7 10 1935.39 1442.25 83.74 o 1
-9 -7 -5 8.67 209.36 88.40 < -2
4 7 10 8.67 209.36 88.40 < 1
-5 8 10 91.07 223.32 97.70 < 1
-4 8 10 199.15 409.41 134.92 o 1
-3 8 10 188.16 423.37 139.57 o 1
-2 8 10 2.90 227.97 111.66 < 1
-1 8 10 652.25 572.25 93.05 o 1
0 8 10 203.00 283.80 88.40 o 1
1 8 10 403.91 414.07 88.40 o 1
2 8 10 113.89 200.05 88.40 < 1
3 8 10 1514.75 1423.64 93.05 o 1
-9 -8 -5 300.03 311.71 107.01 < -2
4 8 10 300.03 311.71 107.01 < 1
-4 9 10 369.70 455.94 120.96 o 1
-3 9 10 323.63 362.89 172.14 < 1
-2 9 10 1313.54 1246.85 148.88 o 1
-1 9 10 195.06 283.80 97.70 < 1
0 9 10 1716.22 1279.42 102.35 o 1
1 9 10 141.23 232.62 83.74 < 1
2 9 10 1108.83 832.78 97.70 o 1
-1 10 10 513.27 511.77 102.35 o 1
0 10 10 3.92 144.23 93.05 < 1
-7 1 11 114.18 325.67 102.35 o 1
-6 1 11 155.15 330.32 102.35 o 1
-5 1 11 55.59 283.80 107.01 < 1
-4 1 11 29.60 316.36 97.70 o 1
-3 1 11 785.06 1060.75 102.35 o 1
-2 1 11 347.84 386.15 74.44 o 1
-1 1 11 32.06 102.35 65.13 < 1
0 1 11 789.80 683.91 69.79 o 1
1 1 11 2702.55 2330.86 79.09 o 1
2 1 11 92.79 120.96 60.48 < 1
-10 -1 -4 423.92 376.85 65.13 o -2
3 1 11 423.92 376.85 65.13 o 1
4 1 11 62.98 353.58 60.48 o 1
5 1 11 318.88 381.50 65.13 o 1
-7 2 11 509.85 669.95 102.35 o 1
-6 2 11 489.41 772.30 111.66 o 1
-5 2 11 941.35 1395.73 116.31 o 1
-4 2 11 494.19 428.02 130.27 o 1
-3 2 11 31.64 204.71 88.40 < 1
-2 2 11 92.54 162.84 88.40 < 1
-1 2 11 1424.42 1121.23 83.74 o 1
0 2 11 2249.65 2130.81 83.74 o 1
1 2 11 586.93 530.38 65.13 o 1
2 2 11 586.66 488.50 65.13 o 1
-10 -2 -4 232.75 246.58 65.13 o -2
3 2 11 232.75 246.58 65.13 o 1
4 2 11 252.84 232.62 60.48 o 1
5 2 11 203.52 321.02 65.13 o 1
-7 3 11 28.88 162.84 102.35 < 1
-6 3 11 58.48 390.80 107.01 o 1
-5 3 11 306.29 497.81 125.61 o 1
-4 3 11 594.77 893.27 107.01 o 1
-3 3 11 222.27 395.46 93.05 o 1
-2 3 11 1409.87 1753.96 102.35 o 1
-1 3 11 136.38 181.45 74.44 < 1
0 3 11 389.76 283.80 69.79 o 1
1 3 11 2099.09 1791.18 79.09 o 1
2 3 11 1332.98 1186.37 74.44 o 1
-10 -3 -4 1308.38 1218.93 74.44 o -2
3 3 11 1308.38 1218.93 74.44 o 1
4 3 11 1133.41 874.66 69.79 o 1
5 3 11 1.98 125.61 60.48 < 1
-6 4 11 157.39 358.24 125.61 < 1
-5 4 11 0.26 321.02 120.96 < 1
-4 4 11 377.30 339.63 97.70 o 1
-3 4 11 1815.24 2130.81 111.66 o 1
-2 4 11 524.78 697.86 97.70 o 1
-1 4 11 858.03 972.36 83.74 o 1
0 4 11 115.41 148.88 74.44 < 1
1 4 11 121.09 241.93 65.13 o 1
2 4 11 202.57 362.89 65.13 o 1
-10 -4 -4 2443.18 1958.67 79.09 o -2
3 4 11 2443.18 1958.67 79.09 o 1
4 4 11 2475.99 1870.27 79.09 o 1
5 4 11 65.86 195.40 65.13 < 1
-6 5 11 96.32 339.63 125.61 < 1
-5 5 11 603.00 772.30 111.66 o 1
-4 5 11 15.89 246.58 107.01 < 1
-3 5 11 1655.77 1874.93 116.31 o 1
-2 5 11 27.44 176.79 93.05 < 1
-1 5 11 586.96 688.56 88.40 o 1
0 5 11 1877.82 1856.32 88.40 o 1
1 5 11 4355.43 3689.37 97.70 o 1
2 5 11 981.21 814.17 79.09 o 1
-10 -5 -4 224.82 214.01 69.79 o -2
3 5 11 224.82 214.01 69.79 o 1
4 5 11 305.45 414.07 69.79 o 1
-5 6 11 7.05 311.71 116.31 < 1
-4 6 11 302.69 325.67 111.66 < 1
-3 6 11 6.66 144.23 116.31 < 1
-2 6 11 8.69 176.79 93.05 < 1
-1 6 11 206.95 269.84 88.40 o 1
0 6 11 10.23 162.84 83.74 < 1
1 6 11 996.84 870.00 83.74 o 1
2 6 11 925.19 735.08 79.09 o 1
-10 -6 -4 74.95 190.75 69.79 < -2
3 6 11 74.95 190.75 69.79 < 1
-4 7 11 0.94 269.84 120.96 < 1
-3 7 11 625.94 674.60 130.27 o 1
-2 7 11 524.55 497.81 97.70 o 1
-1 7 11 510.27 483.85 97.70 o 1
0 7 11 823.66 679.25 93.05 o 1
1 7 11 7.04 148.88 83.74 < 1
2 7 11 843.74 749.04 88.40 o 1
-10 -7 -4 0.48 130.27 79.09 < -2
3 7 11 0.48 130.27 79.09 < 1
-3 8 11 2.18 223.32 139.57 < 1
-2 8 11 799.34 455.94 116.31 o 1
-1 8 11 33.84 162.84 93.05 < 1
0 8 11 340.24 302.41 97.70 o 1
1 8 11 1107.72 1051.45 97.70 o 1
-5 0 12 319.99 535.03 158.18 o 1
-4 0 12 151.49 311.71 204.71 < 1
-3 0 12 1126.05 1311.98 139.57 o 1
-2 0 12 1432.04 1633.00 134.92 o 1
-1 0 12 306.32 381.50 107.01 o 1
0 0 12 14.14 134.92 83.74 < 1
1 0 12 109.78 223.32 88.40 < 1
2 0 12 1106.11 851.39 97.70 o 1
3 0 12 186.72 367.54 88.40 o 1
4 0 12 4.37 134.92 88.40 < 1
-5 1 12 99.88 376.85 107.01 o 1
-4 1 12 0.16 269.84 125.61 < 1
-3 1 12 340.05 507.11 93.05 o 1
-2 1 12 1175.46 1311.98 88.40 o 1
-1 1 12 4.69 260.54 74.44 o 1
0 1 12 117.47 279.14 69.79 o 1
1 1 12 693.87 539.68 69.79 o 1
-11 -1 -3 41.74 195.40 60.48 o -2
2 1 12 41.74 195.40 60.48 o 1
3 1 12 37.19 176.79 60.48 < 1
4 1 12 331.22 400.11 69.79 o 1
-5 2 12 20.67 316.36 139.57 < 1
-4 2 12 173.33 446.63 107.01 o 1
-3 2 12 144.70 367.54 97.70 o 1
-2 2 12 0.20 195.40 79.09 < 1
-1 2 12 2.41 125.61 69.79 < 1
0 2 12 215.29 334.97 74.44 o 1
1 2 12 2690.69 2233.16 88.40 o 1
-11 -2 -3 5.94 97.70 65.13 < -2
2 2 12 5.94 97.70 65.13 < 1
3 2 12 1.05 125.61 60.48 < 1
-5 3 12 1.14 358.24 130.27 < 1
-4 3 12 262.26 376.85 102.35 o 1
-3 3 12 18.76 241.93 93.05 < 1
-2 3 12 1085.47 986.31 93.05 o 1
-1 3 12 535.99 595.51 83.74 o 1
0 3 12 411.69 465.24 74.44 o 1
1 3 12 9.14 139.57 65.13 < 1
-11 -3 -3 132.49 302.41 69.79 o -2
2 3 12 132.49 302.41 69.79 o 1
3 3 12 1783.41 1121.23 79.09 o 1
-4 4 12 10.73 139.57 97.70 < 1
-3 4 12 5.56 176.79 97.70 < 1
-2 4 12 19.89 260.54 93.05 < 1
-1 4 12 1475.54 1167.76 93.05 o 1
0 4 12 270.33 288.45 74.44 o 1
1 4 12 1110.12 693.21 79.09 o 1
-11 -4 -3 522.92 465.24 74.44 o -2
2 4 12 522.92 465.24 74.44 o 1
-3 5 12 53.10 255.88 107.01 < 1
-2 5 12 300.29 316.36 93.05 o 1
-1 5 12 462.72 507.11 93.05 o 1
0 5 12 371.77 418.72 83.74 o 1
1 5 12 269.89 334.97 74.44 o 1
-11 -5 -3 519.45 400.11 79.09 o -2
2 5 12 519.45 400.11 79.09 o 1
-2 6 12 237.48 353.58 93.05 o 1
-1 6 12 519.70 516.42 93.05 o 1
0 6 12 855.62 595.51 88.40 o 1
-2 1 13 383.66 465.24 88.40 o 1
-1 1 13 70.23 297.76 79.09 o 1
0 1 13 1629.01 1321.29 88.40 o 1
-1 2 13 538.12 451.29 83.74 o 1
loop_
_jana_cell_twin_matrix_id
_jana_cell_twin_volume_fraction
_jana_cell_twin_matrix_1_1
_jana_cell_twin_matrix_1_2
_jana_cell_twin_matrix_1_3
_jana_cell_twin_matrix_2_1
_jana_cell_twin_matrix_2_2
_jana_cell_twin_matrix_2_3
_jana_cell_twin_matrix_3_1
_jana_cell_twin_matrix_3_2
_jana_cell_twin_matrix_3_3
1 0.931(10) 1 0 0 0 1 0 0 0 1
2 0.069(10) 0.0737 0 -1.0737 0 -1 0 -0.9263 0 -0.0737
