#------------------------------------------------------------------------------
#$Date: 2019-11-25 23:15:06 +0200 (Mon, 25 Nov 2019) $
#$Revision: 242032 $
#$URL: file:///home/coder/svn-repositories/cod/cif/4/13/19/4131971.cif $
#------------------------------------------------------------------------------
#
# This file is available in the Crystallography Open Database (COD),
# http://www.crystallography.net/
#
# All data on this site have been placed in the public domain by the
# contributors.
#
data_4131971
loop_
_publ_author_name
'Karak, Suvendu'
'Kumar, Sushil'
'Pachfule, Pradip'
'Banerjee, Rahul'
_publ_section_title
;
 Porosity Prediction through Hydrogen Bonding in Covalent Organic
 Frameworks.
;
_journal_issue                   15
_journal_name_full               'Journal of the American Chemical Society'
_journal_page_first              5138
_journal_page_last               5145
_journal_paper_doi               10.1021/jacs.7b13558
_journal_volume                  140
_journal_year                    2018
_chemical_formula_moiety         'C14 H18 N2 O2, 2(C6 H4 N O5 S)'
_chemical_formula_sum            'C26 H26 N4 O12 S2'
_chemical_formula_weight         650.63
_space_group_crystal_system      triclinic
_space_group_IT_number           2
_space_group_name_Hall           '-P 1'
_space_group_name_H-M_alt        'P -1'
_atom_sites_solution_hydrogens   mixed
_audit_creation_method           SHELXL-2016/6
_cell_angle_alpha                98.012(7)
_cell_angle_beta                 94.549(8)
_cell_angle_gamma                97.848(7)
_cell_formula_units_Z            1
_cell_length_a                   6.0303(6)
_cell_length_b                   9.7210(8)
_cell_length_c                   12.4638(12)
_cell_measurement_reflns_used    2507
_cell_measurement_temperature    293(2)
_cell_measurement_theta_max      25.00
_cell_measurement_theta_min      3.35
_cell_volume                     713.12(12)
_computing_structure_refinement  'SHELXL-2016/6 (Sheldrick, 2016)'
_diffrn_ambient_temperature      293(2)
_diffrn_measured_fraction_theta_full 0.998
_diffrn_measured_fraction_theta_max 0.998
_diffrn_measurement_device_type  'Supernova (Mo) X-ray source'
_diffrn_measurement_method       '\w scans'
_diffrn_radiation_type           MoK\a
_diffrn_radiation_wavelength     0.71073
_diffrn_reflns_av_R_equivalents  0.0501
_diffrn_reflns_av_unetI/netI     0.0621
_diffrn_reflns_Laue_measured_fraction_full 0.998
_diffrn_reflns_Laue_measured_fraction_max 0.998
_diffrn_reflns_limit_h_max       7
_diffrn_reflns_limit_h_min       -7
_diffrn_reflns_limit_k_max       11
_diffrn_reflns_limit_k_min       -10
_diffrn_reflns_limit_l_max       9
_diffrn_reflns_limit_l_min       -14
_diffrn_reflns_number            4711
_diffrn_reflns_point_group_measured_fraction_full 0.998
_diffrn_reflns_point_group_measured_fraction_max 0.998
_diffrn_reflns_theta_full        24.992
_diffrn_reflns_theta_max         24.992
_diffrn_reflns_theta_min         3.318
_diffrn_source                   'fine focus sealed tube'
_exptl_absorpt_coefficient_mu    0.259
_exptl_absorpt_correction_T_max  0.950
_exptl_absorpt_correction_T_min  0.938
_exptl_absorpt_correction_type   multi-scan
_exptl_absorpt_process_details   crysalispro
_exptl_crystal_colour            colorless
_exptl_crystal_density_diffrn    1.515
_exptl_crystal_description       block
_exptl_crystal_F_000             338
_exptl_crystal_size_max          0.250
_exptl_crystal_size_mid          0.240
_exptl_crystal_size_min          0.200
_refine_diff_density_max         0.430
_refine_diff_density_min         -0.348
_refine_diff_density_rms         0.067
_refine_ls_extinction_method     none
_refine_ls_goodness_of_fit_ref   1.072
_refine_ls_hydrogen_treatment    mixed
_refine_ls_matrix_type           full
_refine_ls_number_parameters     211
_refine_ls_number_reflns         2507
_refine_ls_number_restraints     1
_refine_ls_restrained_S_all      1.072
_refine_ls_R_factor_all          0.0604
_refine_ls_R_factor_gt           0.0528
_refine_ls_shift/su_max          0.001
_refine_ls_shift/su_mean         0.000
_refine_ls_structure_factor_coef Fsqd
_refine_ls_weighting_details
'w=1/[\s^2^(Fo^2^)+(0.0645P)^2^+0.3184P] where P=(Fo^2^+2Fc^2^)/3'
_refine_ls_weighting_scheme      calc
_refine_ls_wR_factor_gt          0.1353
_refine_ls_wR_factor_ref         0.1425
_reflns_Friedel_coverage         0.000
_reflns_number_gt                2118
_reflns_number_total             2507
_reflns_threshold_expression     'I > 2\s(I)'
_cod_data_source_file            ja7b13558_si_002.cif
_cod_data_source_block           NBSA-BD-(OMe)2
_cod_database_code               4131971
_shelx_shelxl_version_number     2016/6
_shelx_space_group_comment
;
The symmetry employed for this shelxl refinement is uniquely defined
by the following loop, which should always be used as a source of
symmetry information in preference to the above space-group names.
They are only intended as comments.
;
_shelx_estimated_absorpt_t_min   0.938
_shelx_estimated_absorpt_t_max   0.950
_shelx_res_file
;
TITL
    shelx.res
    created by SHELXL-2016/6 at 11:50:41 on 04-Apr-2017
CELL  0.71073   6.0303   9.7210  12.4638   98.012   94.549   97.848
ZERR     1.00   0.0006   0.0008   0.0012    0.007    0.008    0.007
LATT   1
SFAC  C    H    N    O    S
UNIT  26   26   4    12   2
MERG   2
OMIT     0.00  50.00
FMAP   2
PLAN   20
SIZE     0.20   0.24   0.25
DFIX 0.90 0.02 N2 H2B
ACTA
BOND   $H
CONF
L.S.   8
TEMP    20.00
WGHT    0.064500    0.318400
FVAR       6.49897
C1    1    0.186103    0.546062    0.827601    11.00000    0.04448    0.03486 =
         0.03545    0.00074    0.00517    0.01351
C2    1    0.379494    0.485269    0.831697    11.00000    0.04875    0.05777 =
         0.03512   -0.00525   -0.00825    0.02237
AFIX  43
H2    2    0.474548    0.497485    0.895886    11.00000   -1.20000
AFIX   0
C3    1    0.428694    0.406239    0.738857    11.00000    0.03771    0.05474 =
         0.04217   -0.00265   -0.00458    0.02279
AFIX  43
H3    2    0.558972    0.364895    0.739514    11.00000   -1.20000
AFIX   0
C4    1    0.284280    0.388162    0.644322    11.00000    0.03519    0.03334 =
         0.03497    0.00192    0.00160    0.00726
C5    1    0.092400    0.450853    0.641834    11.00000    0.03799    0.04349 =
         0.03595    0.00384   -0.00335    0.01365
AFIX  43
H5    2   -0.003258    0.438933    0.577865    11.00000   -1.20000
AFIX   0
C6    1    0.042813    0.531517    0.734853    11.00000    0.04018    0.03942 =
         0.04396    0.00646    0.00412    0.01714
AFIX  43
H6    2   -0.085393    0.574926    0.734244    11.00000   -1.20000
AFIX   0
C7    1    0.811526    0.000439    0.208744    11.00000    0.03601    0.04156 =
         0.03904    0.00076    0.00240    0.01491
C8    1    0.728780   -0.036590    0.101170    11.00000    0.04279    0.04278 =
         0.03531   -0.00369    0.00575    0.01775
AFIX  43
H8    2    0.795088   -0.100282    0.056113    11.00000   -1.20000
AFIX   0
C9    1    0.545619    0.020375    0.058367    11.00000    0.03811    0.03443 =
         0.03252    0.00242    0.00479    0.00807
C10   1    0.451521    0.115253    0.128196    11.00000    0.04815    0.04899 =
         0.03629   -0.00010   -0.00094    0.02435
AFIX  43
H10   2    0.332332    0.156135    0.101173    11.00000   -1.20000
AFIX   0
C11   1    0.531436    0.150282    0.237240    11.00000    0.04726    0.04136 =
         0.03694   -0.00373    0.00455    0.02020
AFIX  43
H11   2    0.464698    0.212705    0.283216    11.00000   -1.20000
AFIX   0
C12   1    0.709737    0.092149    0.276809    11.00000    0.03651    0.03393 =
         0.03081   -0.00172    0.00034    0.00738
C13   1    1.086240   -0.154564    0.201013    11.00000    0.05366    0.05415 =
         0.06097    0.00281    0.00781    0.02898
AFIX  33
H13A  2    1.210602   -0.175572    0.245699    11.00000   -1.50000
H13B  2    0.974581   -0.236744    0.182681    11.00000   -1.50000
H13C  2    1.138062   -0.125836    0.135545    11.00000   -1.50000
AFIX   0
N1    3    0.130155    0.628382    0.927519    11.00000    0.06001    0.04889 =
         0.04310   -0.00116    0.00621    0.02478
N2    3    0.796182    0.122883    0.391437    11.00000    0.04108    0.04589 =
         0.03211   -0.00496   -0.00187    0.01656
O1    4   -0.032439    0.688556    0.921562    11.00000    0.08122    0.09723 =
         0.06371   -0.01537    0.00367    0.05898
O2    4    0.247988    0.631740    1.011464    11.00000    0.10502    0.10421 =
         0.04020   -0.01012   -0.00618    0.06135
O3    4    0.578151    0.303180    0.522828    11.00000    0.03839    0.13240 =
         0.08159   -0.06404   -0.00257    0.02301
O4    4    0.256768    0.138222    0.542760    11.00000    0.17660    0.03629 =
         0.06756    0.00025    0.01798    0.01505
O5    4    0.214104    0.313405    0.435273    11.00000    0.06966    0.07384 =
         0.03664   -0.00108   -0.00371    0.03257
O6    4    0.991206   -0.044899    0.258619    11.00000    0.05614    0.08208 =
         0.04041   -0.01130   -0.00770    0.04400
S1    5    0.341484    0.277560    0.526784    11.00000    0.04188    0.03950 =
         0.03593   -0.00608   -0.00168    0.01382
H2A   2    0.708265    0.174438    0.430762    11.00000    0.03700
H2B   2    0.945664    0.163214    0.404125    11.00000    0.07592
H2C   2    0.795145    0.044816    0.425117    11.00000    0.09840
HKLF    4




REM
REM R1 =  0.0528 for    2118 Fo > 4sig(Fo)  and  0.0604 for all    2507 data
REM    211 parameters refined using      1 restraints

END

WGHT      0.0629      0.3290

REM Highest difference peak  0.430,  deepest hole -0.348,  1-sigma level  0.067
Q1    1   0.4214  0.1459  0.5724  11.00000  0.05    0.43
Q2    1   0.3708  0.3641  0.4487  11.00000  0.05    0.36
Q3    1   0.2109  0.1804  0.5313  11.00000  0.05    0.25
Q4    1   0.1596  0.2213  0.4823  11.00000  0.05    0.25
Q5    1   0.2816  0.1909  0.6195  11.00000  0.05    0.25
Q6    1   0.6679  0.4374  0.4631  11.00000  0.05    0.20
Q7    1   0.5681  0.2835  0.2569  11.00000  0.05    0.20
Q8    1   0.4488  0.2116  0.0895  11.00000  0.05    0.20
Q9    1  -0.0462  0.6105  0.9588  11.00000  0.05    0.20
Q10   1   0.3724  0.0687  0.4784  11.00000  0.05    0.20
Q11   1   0.5327  0.2320  0.5398  11.00000  0.05    0.19
Q12   1   0.9883  0.0376  0.1073  11.00000  0.05    0.19
Q13   1   0.1292  0.3618  0.6444  11.00000  0.05    0.18
Q14   1   0.9613 -0.2450  0.1346  11.00000  0.05    0.18
Q15   1   0.6272  0.3335  0.5173  11.00000  0.05    0.18
Q16   1  -0.1241  0.6360  1.0278  11.00000  0.05    0.18
Q17   1   0.5562  0.3162  0.4760  11.00000  0.05    0.17
Q18   1  -0.0897  0.3947  0.5933  11.00000  0.05    0.17
Q19   1  -0.2977  0.5686  0.6781  11.00000  0.05    0.17
Q20   1   1.2652 -0.0888  0.2375  11.00000  0.05    0.17
;
_shelx_res_checksum              28221
_shelx_hkl_file
;
   0   0  -2 11355.2 390.433   1
   0   0   3 59901.7 1922.36   3
   0   0  -3 63869.6 1936.97   3
   0   0  -3 62754.6 1960.59   1
   0   0   4 60409.6 1871.07   3
   0   0  -4 61155.6 1921.79   1
   0   0  -4 59700.4 1888.03   3
   0   0   5 6213.30 260.687   3
   0   0  -5 7288.33 316.800   1
   0   0  -5 6655.72 277.739   3
   0   0  -6 20979.3 748.326   1
   0   0  -6 20462.3 697.968   3
   0   0   7 2605.46 147.146   3
   0   0  -7 2339.60 191.949   1
   0   0  -7 2711.33 173.186   3
   0   0  -8 3061.61 234.697   1
   0   0   8 2624.08 156.420   3
   0   0  -8 3010.19 196.318   3
   0   0  -9 1432.15 176.261   1
   0   0  -9 1722.32 191.674   5
   0   0 -10 4441.06 339.155   5
   0   0 -10 4697.28 356.538   1
   0   0 -11 14991.7 817.304   2
   0   0 -11 12802.9 698.071   5
   0   0 -11 13743.0 734.932   1
   0   0 -12 667.876 161.771   2
   0   0 -12 660.787 150.485   1
   0   0 -12 553.622 132.225   5
   0   0 -13 565.574 145.360   5
   0   0 -13 648.891 150.255   1
   0   0 -13 475.604 147.533   2
   0   0 -14 396.529 119.208   5
   0   0 -14 412.128 146.553   2
   0   0 -14 299.279 115.405   1
   0   0 -15 2447.61 338.149   1
   0   0 -15 2394.21 354.486   2
   0   1 -15-8.95619 46.0932   1
   0   1 -15 104.820 64.8161   5
   0   1 -15 6.35445 51.3826   2
   0   1 -14 323.766 106.771   5
   0   1 -14 191.681 83.8506   1
   0   1 -14 495.289 153.343   2
   0   1 -13 2508.81 301.880   1
   0   1 -13 3108.28 366.980   2
   0   1 -13 2481.47 299.685   5
   0   1 -12 2642.59 287.932   5
   0   1 -12 2595.82 285.298   1
   0   1 -12 2824.62 335.558   2
   0   1 -11 25872.1 1014.98   3
   0   1 -11 24720.3 1100.44   1
   0   1 -10 13619.1 612.174   3
   0   1 -10 14049.6 680.579   1
   0   1  -9 16143.0 712.281   1
   0   1  -9 15718.5 655.344   3
   0   1  -8 21196.1 812.708   1
   0   1  -8 18927.9 754.346   3
   0   1  -7 42924.4 1480.19   1
   0   1  -7 43152.2 1455.18   3
   0  -1   6 9444.41 387.640   3
   0   1  -6 10469.9 424.746   3
   0   1  -6 9772.52 425.928   1
   0   1  -5 5003.08 234.126   3
   0   1  -5 5399.30 244.793   1
   0   1  -4 38206.4 1304.55   1
   0  -1   4 41650.5 1288.22   3
   0   1  -4 39793.9 1290.88   3
   0  -1   3 108.269 21.7349   3
   0   1  -3 60.4785 16.7552   1
   0   1  -3 110.904 21.6291   3
   0  -1   2 3229.20 175.905   6
   0   1  -2 3468.88 148.484   3
   0   1  -2 3235.43 134.037   1
   0  -1  -2 62856.0 2062.76   5
   0  -1  -2 65843.8 2065.05   1
   0   1   2 70118.5 2058.91   5
   0  -1  -3 25805.7 852.619   5
   0  -1  -3 24850.9 852.175   1
   0  -1  -4 19132.9 698.456   5
   0  -1  -4 19117.9 698.834   1
   0   1   4 19685.4 632.236   3
   0  -1  -5 665.828 84.0994   1
   0   1   5 661.729 51.5088   3
   0  -1  -5 652.839 83.8271   5
   0  -1  -6 71070.0 2403.19   5
   0  -1  -6 74220.6 2406.42   1
   0   1   6 74148.3 2273.58   3
   0  -1  -7 33956.0 1201.43   5
   0  -1  -7 34355.0 1206.66   1
   0   1   7 31355.4 1047.08   3
   0  -1  -8 12758.1 567.407   5
   0  -1  -8 12203.5 626.843   2
   0  -1  -8 12950.2 578.615   1
   0  -1  -9 35261.0 1376.24   5
   0  -1  -9 35898.7 1403.67   1
   0  -1 -10 790.746 131.735   5
   0  -1 -10 679.029 127.819   1
   0  -1 -10 588.457 138.082   2
   0  -1 -11 777.599 141.085   5
   0  -1 -11 457.256 143.561   1
   0  -1 -11 1052.23 191.366   2
   0  -1 -12 5182.88 442.730   1
   0  -1 -12 5918.52 494.873   2
   0  -1 -12 5000.82 407.464   5
   0  -1 -13 2177.52 289.017   1
   0  -1 -13 1760.17 245.950   5
   0  -1 -13 2338.17 321.406   2
   0  -1 -14 2153.35 320.630   2
   0  -1 -14 969.603 207.095   1
   0  -1 -15 2807.94 370.569   1
   0  -1 -15 2697.70 374.348   2
   0   2 -16 28.4429 17.9465   1
   0   2 -16 2.60887 35.8101   5
   0   2 -15-4.18082 45.9297   1
   0   2 -15 91.1720 64.1148   5
   0   2 -15 62.0475 53.2131   2
   0   2 -14 35.6996 23.3028   1
   0   2 -14 129.467 70.1893   5
   0   2 -14 183.598 101.242   2
   0   2 -13 1418.54 217.637   1
   0   2 -12 184.646 73.9592   1
   0   2 -12 262.713 72.5213   3
   0   2 -11 7204.08 422.586   3
   0   2 -11 7434.92 479.050   1
   0   2 -10 250.355 66.7181   3
   0   2 -10 297.848 79.6775   1
   0   2  -9 4526.82 303.321   1
   0   2  -9 4339.30 289.746   3
   0   2  -8 5677.56 326.277   1
   0   2  -8 5896.95 333.215   3
   0   2  -7 1647.30 147.959   1
   0   2  -7 1665.84 147.072   3
   0   2  -6 575.206 73.7157   1
   0   2  -6 541.359 74.6240   3
   0   2  -5 931.740 94.6295   3
   0   2  -5 1117.05 94.3602   1
   0  -2   5 1081.54 91.4602   1
   0   2  -4 4508.86 202.395   1
   0  -2   4 4456.31 205.293   1
   0  -2   4 4744.48 283.810   6
   0   2  -4 4565.33 226.990   3
   0  -2   4 4384.28 219.069   3
   0   2  -3 7882.71 319.122   3
   0  -2   3 7386.79 292.417   4
   0   2  -3 6881.14 351.832   6
   0   2  -3 7807.42 278.834   1
   0  -2   3 7257.01 348.840   6
   0  -2   2 479926. 14037.4   4
   0  -2   2 465586. 14127.5   6
   0   2  -2 441443. 14066.1   3
   0  -2   1 191550. 5923.50   6
   0   2  -1 193433. 5874.16   3
   0   2   0 14273.5 493.922   3
   0   2   0 13663.9 462.775   1
   0  -2   0 15135.8 476.107   1
   0  -2  -1 59852.1 1808.46   1
   0  -2  -1 54055.4 1817.59   5
   0   2   1 56825.5 1790.67   1
   0   2   1 61841.1 1846.94   5
   0   2   1 57540.9 1795.69   3
   0   2   2 52046.5 1705.54   2
   0   2   2 55729.4 1705.81   5
   0  -2  -2 53408.9 1701.57   1
   0  -2  -2 51930.0 1708.73   5
   0   2   2 53969.5 1686.91   1
   0   2   3 52377.9 1739.20   5
   0  -2  -3 54290.0 1782.56   2
   0  -2  -3 53413.9 1755.76   1
   0  -2  -3 57257.0 1759.80   5
   0   2   3 55872.5 1776.20   2
   0  -2  -4 21270.4 762.150   5
   0   2   4 20195.4 737.572   5
   0  -2  -4 20357.3 765.226   1
   0  -2  -4 22056.6 802.047   2
   0   2   5 33939.9 1085.43   3
   0  -2  -5 34163.6 1201.51   1
   0  -2  -5 33111.1 1246.59   2
   0  -2  -5 35284.9 1194.53   5
   0   2   6 8304.20 302.457   3
   0  -2  -6 8498.41 425.184   1
   0  -2  -6 7727.36 400.299   5
   0   2   7 5733.07 220.656   3
   0  -2  -7 6377.83 369.490   1
   0  -2  -7 5657.89 333.130   5
   0  -2  -8 142.667 51.5899   1
   0  -2  -8 148.848 49.0063   5
   0   2   8 105.974 21.1367   3
   0  -2  -8 102.108 53.4354   2
   0  -2  -9 35308.7 1361.99   5
   0  -2  -9 39444.5 1508.55   2
   0  -2  -9 35667.5 1430.07   1
   0  -2 -10 351.355 100.567   2
   0  -2 -10 258.517 77.6998   1
   0  -2 -10 333.963 86.9772   5
   0  -2 -11 1640.20 215.095   5
   0  -2 -11 1936.61 251.104   1
   0  -2 -11 2055.05 265.559   2
   0  -2 -12 2660.97 286.992   5
   0  -2 -12 2274.19 289.214   1
   0  -2 -12 2691.03 325.257   2
   0  -2 -13 4664.53 448.513   1
   0  -2 -13 5188.99 484.924   2
   0  -2 -14 1249.69 238.813   1
   0  -2 -14 1080.49 225.253   2
   0  -2 -15 1579.19 284.471   2
   0   3 -16 24.9081 47.1875   5
   0   3 -16 47.2864 48.2229   1
   0   3 -15 421.107 129.118   1
   0   3 -15 398.597 148.661   2
   0   3 -14 37.6473 40.7639   1
   0   3 -13 377.612 113.097   1
   0   3 -13 434.748 103.892   3
   0   3 -12 5858.85 402.256   3
   0   3 -12 6196.23 447.326   1
   0   3 -11 5114.72 375.319   1
   0   3 -11 4820.60 352.588   3
   0   3 -10 3452.61 278.583   1
   0   3 -10 3637.35 289.205   3
   0   3  -9 2720.66 230.878   3
   0   3  -9 2602.55 217.794   1
   0   3  -8 1438.19 141.882   1
   0   3  -8 1441.84 154.758   3
   0   3  -7 282.103 57.3221   3
   0   3  -7 393.163 64.6079   1
   0   3  -6 20893.7 799.832   3
   0   3  -6 21526.0 761.976   1
   0   3  -5 4997.26 227.292   1
   0  -3   5 4576.81 241.168   4
   0   3  -5 4987.36 271.103   3
   0  -3   4 1203.20 96.3647   4
   0   3  -4 1108.19 76.6898   1
   0   3  -4 979.799 132.359   6
   0   3  -4 1067.21 109.245   3
   0   3  -3 12370.4 440.325   1
   0  -3   3 13778.8 479.912   4
   0   3  -3 13431.0 567.604   6
   0  -3   3 14043.1 589.703   6
   0   3  -3 14805.4 533.137   3
   0   3  -2 140701. 4177.76   3
   0   3  -2 144373. 4091.83   4
   0  -3   2 136831. 4250.04   6
   0   3  -2 128702. 4253.42   6
   0  -3   1 4342.93 262.240   6
   0   3  -1 4319.63 215.184   3
   0   3   0 18028.9 701.565   5
   0   3   0 19113.5 621.305   1
   0   3   0 19176.4 672.829   3
   0  -3   0 20084.0 653.359   1
   0   3   1 6530.11 308.733   5
   0  -3  -1 6189.26 265.954   1
   0   3   1 5879.55 238.506   1
   0  -3  -1 5671.22 276.539   5
   0   3   1 5947.07 258.029   3
   0   3   2 64658.6 2082.00   2
   0  -3  -2 63417.0 2081.12   1
   0   3   2 67153.2 2109.92   5
   0  -3  -2 65227.7 2090.57   5
   0   3   2 66226.2 2057.05   1
   0   3   2 64626.2 2043.10   3
   0   3   3 91.7036 28.7090   2
   0   3   3 84.8504 21.3280   3
   0  -3  -3 71.3791 23.9752   1
   0  -3  -3 73.9478 23.3297   5
   0   3   3 33.3054 21.5571   5
   0  -3  -4 42501.1 1446.68   5
   0  -3  -4 43539.7 1468.20   1
   0   3   4 42461.2 1433.50   5
   0  -3  -5 30705.8 1111.78   1
   0  -3  -5 30698.1 1135.17   2
   0  -3  -5 31405.2 1100.35   5
   0   3   5 28217.5 1043.78   5
   0  -3  -6 1543.37 169.505   1
   0  -3  -6 2292.04 183.108   5
   0   3   7 22076.3 710.860   3
   0  -3  -7 21086.5 861.841   5
   0  -3  -7 20836.8 906.089   1
   0  -3  -8 118.627 47.6444   2
   0  -3  -8-7.54490 23.7921   1
   0  -3  -8 67.9069 35.0216   5
   0  -3  -9 205.306 81.2936   2
   0  -3  -9 116.957 56.8408   1
   0  -3  -9 177.735 61.9781   5
   0  -3 -10 7158.57 495.159   1
   0  -3 -10 6334.56 433.085   5
   0  -3 -10 7028.27 508.132   2
   0  -3 -11 3052.21 341.866   2
   0  -3 -11 3028.01 325.136   1
   0  -3 -11 2768.36 276.966   5
   0  -3 -12 9701.57 645.125   2
   0  -3 -12 4088.68 424.078   1
   0  -3 -13 116.355 71.1890   2
   0  -3 -13 207.219 96.5167   1
   0  -3 -14 4224.14 478.839   2
   0  -3 -14 4599.79 485.811   1
   0  -3 -15 288.841 121.379   2
   0   4 -15 87.9199 56.3790   1
   0   4 -14 383.595 110.073   1
   0   4 -13 4178.67 377.163   1
   0   4 -13 3544.31 339.064   3
   0   4 -12 937.122 155.120   3
   0   4 -12 921.472 152.816   1
   0   4 -11 1089.70 158.216   1
   0   4 -11 1541.82 195.348   3
   0   4 -10 627.668 119.130   3
   0   4 -10 704.901 115.911   1
   0   4  -9 7984.27 426.733   1
   0   4  -9 8212.42 459.518   3
   0   4  -8 692.418 108.579   3
   0   4  -8 730.975 98.9587   1
   0   4  -7 2801.30 221.263   3
   0   4  -7 3021.31 191.458   1
   0   4  -6 18035.4 758.464   3
   0   4  -6 19770.3 688.461   1
   0   4  -5 10863.3 581.281   6
   0  -4   5 10316.0 463.234   4
   0   4  -5 11543.9 511.744   3
   0   4  -5 12126.0 425.297   1
   0  -4   4 10272.2 411.890   4
   0   4  -4 10925.6 535.524   6
   0   4  -4 10116.0 367.186   1
   0   4  -4 11669.0 488.877   3
   0   4  -3 2224.86 174.080   3
   0   4  -3 2476.06 217.323   6
   0   4  -3 2325.41 97.6050   1
   0   4  -2 2600.87 224.886   6
   0   4  -2 2935.31 124.153   4
   0   4  -2 2372.57 173.968   3
   0   4  -1 34.3504 16.4190   3
   0   4  -1 68.5717 30.1827   6
   0   4  -1 46.6222 9.28475   1
   0   4   0 7814.58 441.514   6
   0   4   0 8000.27 289.830   1
   0  -4   0 8145.15 338.200   1
   0   4   0 8211.27 353.573   3
   0   4   0 7109.33 376.511   5
   0  -4  -1 2782.65 167.947   1
   0   4   1 2794.41 144.005   1
   0   4   1 2651.24 165.707   3
   0   4   1 3058.44 220.013   5
   0   4   2 992.612 90.8771   3
   0   4   2 1049.21 89.3915   1
   0   4   2 1020.19 119.244   5
   0  -4  -2 1069.44 106.085   1
   0  -4  -2 927.143 104.067   5
   0   4   3 58840.2 1969.65   3
   0  -4  -3 64104.3 2051.43   1
   0   4   3 63724.1 2032.40   2
   0  -4  -3 58919.8 2026.12   5
   0   4   3 67592.1 2066.65   5
   0  -4  -4-3.98136 11.7275   1
   0   4   4 10.0344 5.60705   3
   0   4   4 13.0913 11.2110   5
   0  -4  -4-3.81031 24.4621   5
   0  -4  -5 573.009 96.0180   1
   0   4   5 502.675 78.5628   5
   0  -4  -5 510.786 87.8655   5
   0   4   5 502.090 53.4312   3
   0  -4  -6 353.243 79.7740   1
   0   4   6 213.534 32.1793   3
   0  -4  -6 286.204 69.5340   5
   0  -4  -7 638.352 116.522   1
   0  -4  -7 711.602 106.646   5
   0   4   7 571.445 50.3373   3
   0  -4  -8 7263.46 465.085   1
   0  -4  -8 6468.02 399.070   5
   0  -4  -9 1790.08 204.892   5
   0  -4  -9 2216.78 252.511   1
   0  -4 -10 1799.83 239.454   1
   0  -4 -11 3875.25 383.862   1
   0  -4 -12 2013.87 289.250   1
   0  -4 -13 6162.11 556.711   1
   0   5 -14 354.743 111.159   3
   0   5 -13 887.199 167.881   1
   0   5 -13 1055.14 184.358   3
   0   5 -12 1673.58 220.455   1
   0   5 -12 1870.95 240.197   3
   0   5 -11 522.019 120.999   3
   0   5 -11 452.687 99.2968   1
   0   5 -10 396.529 97.9348   3
   0   5 -10 295.275 72.6147   1
   0   5  -9 197.498 63.1865   3
   0   5  -9 136.451 45.0929   1
   0   5  -8 3128.91 260.573   3
   0   5  -8 3562.68 227.490   1
   0   5  -7 27.4609 14.9114   1
   0   5  -7 7.57747 20.8277   3
   0   5  -6 102.404 54.6060   6
   0   5  -6 59.3963 32.3222   3
   0   5  -6 140.545 30.4957   1
   0  -5   5 2576.95 178.688   4
   0   5  -5 2673.72 280.021   6
   0   5  -5 2709.59 219.774   3
   0   5  -5 2780.97 138.268   1
   0   5  -4 953.689 141.142   6
   0   5  -4 732.747 48.7710   1
   0   5  -4 795.443 121.367   3
   0   5  -3 5009.31 300.294   3
   0   5  -3 5273.68 373.248   6
   0   5  -2 10203.8 420.142   3
   0   5  -2 9547.76 500.308   6
   0   5  -1 12090.8 524.405   3
   0   5  -1 12840.1 414.847   1
   0   5   0 19016.3 920.322   6
   0   5   0 20831.4 781.745   3
   0   5   0 20271.9 691.874   1
   0   5   1 56051.5 1736.60   1
   0   5   1 51841.4 1958.44   6
   0  -5  -1 51762.6 1791.78   1
   0   5   1 56269.5 1800.28   3
   0   5   2 19703.0 712.758   3
   0  -5  -2 18397.4 736.826   1
   0   5   3 51991.4 1676.85   3
   0  -5  -3 50253.6 1746.33   5
   0  -5  -3 51336.3 1755.34   1
   0  -5  -4 96.8740 41.5260   1
   0   5   4 76.4200 26.2568   3
   0  -5  -4 82.2219 31.9080   5
   0  -5  -5 11922.1 582.389   5
   0   5   5 13547.3 496.032   3
   0  -5  -5 12780.5 623.789   1
   0  -5  -6 3944.24 316.442   1
   0   5   6 4499.07 212.035   3
   0  -5  -7 10352.0 613.846   1
   0  -5  -7 14253.5 626.090   5
   0  -5  -8 5097.40 397.691   1
   0  -5  -8 5020.71 355.375   5
   0  -5  -9 5230.89 425.388   1
   0  -5 -10 704.664 153.501   1
   0  -5 -11 51.5666 43.9762   1
   0  -5 -12 203.545 98.4566   1
   0  -5 -13 8.15252 34.3802   1
   0   6 -14-13.5577 22.4132   3
   0   6 -13 44.8877 39.9861   3
   0   6 -12 2001.04 261.462   3
   0   6 -11 22.4311 33.6425   3
   0   6 -10 844.025 154.437   3
   0   6  -9 1957.82 220.627   3
   0   6  -9 1869.55 170.817   1
   0   6  -8 19390.3 770.599   1
   0   6  -8 22476.6 916.649   3
   0   6  -7 11729.6 581.481   3
   0   6  -7 10684.5 447.598   1
   0  -6   6 6810.44 351.717   4
   0   6  -6 7573.47 496.446   6
   0   6  -6 6035.98 371.074   3
   0   6  -5 15755.2 679.424   6
   0   6  -5 14858.1 575.206   3
   0   6  -4 2500.41 263.446   6
   0   6  -4 2389.46 213.472   3
   0   6  -3 4241.39 356.425   6
   0   6  -3 2414.62 216.465   3
   0   6  -2 366.336 97.7199   6
   0   6  -2 250.881 28.7513   4
   0   6  -2 356.293 70.2136   3
   0   6  -1 1105.12 125.855   3
   0   6  -1 836.306 58.2245   1
   0   6  -1 818.035 144.191   6
   0   6   0 4477.81 277.663   3
   0   6   0 4765.90 209.139   1
   0   6   0 4791.21 392.750   6
   0   6   1 27524.1 946.689   1
   0   6   1 27696.9 1212.32   6
   0  -6  -1 27144.6 1024.09   1
   0   6   1 29190.0 1024.84   3
   0  -6  -2 1376.30 144.360   1
   0   6   2 1691.40 145.450   3
   0   6   2 1596.96 213.382   6
   0  -6  -3 13855.7 647.279   1
   0   6   3 16124.9 615.138   3
   0   6   4 2434.12 168.074   3
   0  -6  -4 2314.30 214.254   1
   0  -6  -4 2324.33 201.621   5
   0   6   5 154.711 36.8670   3
   0  -6  -5 79.4153 48.6834   1
   0  -6  -5 90.4663 38.9826   5
   0  -6  -6 336.390 93.0752   1
   0  -6  -6 427.501 85.6295   5
   0   6   6 269.898 50.0503   3
   0  -6  -7 25721.7 1109.61   1
   0  -6  -7 24663.3 996.586   5
   0  -6  -8 1487.36 212.052   1
   0  -6  -9 280.458 102.844   1
   0  -6 -10 3891.69 396.493   1
   0  -6 -11 3022.31 364.437   1
   0  -6 -12 6341.42 566.877   1
   0   7 -15 24.0870 32.0590   3
   0   7 -14 386.150 130.474   3
   0   7 -13 425.908 133.910   3
   0   7 -12 850.094 175.115   3
   0   7 -11 1264.23 206.492   3
   0   7 -10 490.563 120.887   3
   0   7  -9 1813.88 224.995   3
   0   7  -8 64.5809 31.7690   3
   0   7  -7 1257.41 182.061   3
   0   7  -7 2998.76 341.266   6
   0   7  -6 46.1281 36.2331   3
   0   7  -6 12.1433 30.3617   6
   0   7  -5 3055.87 270.693   3
   0   7  -5 3094.93 318.261   6
   0   7  -4 599.158 110.692   3
   0   7  -4 576.007 134.764   6
   0   7  -3 10670.7 658.632   6
   0   7  -3 10041.5 533.609   3
   0   7  -2 1105.99 142.466   3
   0   7  -2 1059.30 181.052   6
   0   7  -1 12243.2 675.698   6
   0   7  -1 13469.3 575.192   3
   0   7   0 22843.3 774.835   1
   0   7   0 24431.7 927.647   3
   0   7   1 13984.3 626.737   3
   0   7   1 12577.8 798.513   6
   0   7   2 6721.19 519.638   6
   0  -7  -2 6281.14 387.515   1
   0   7   2 7560.08 383.046   3
   0   7   3 14572.5 834.672   6
   0   7   3 15571.7 618.884   3
   0  -7  -4 4725.51 344.267   1
   0   7   4 5666.61 305.171   3
   0   7   5 4020.45 244.413   3
   0  -7  -5 3799.19 315.817   1
   0  -7  -6 86.6596 51.6673   1
   0  -7  -7 11331.3 662.586   1
   0  -7  -8 380.343 110.288   1
   0  -7  -9 79.9878 63.4690   1
   0  -7 -10 8.08268 31.0884   1
   0  -7 -11 553.026 156.989   1
   0   8 -14 446.829 152.150   3
   0   8 -13 25.9306 10.9028   3
   0   8 -12 898.834 187.931   3
   0   8 -11 1552.84 240.410   3
   0   8 -10 2504.31 293.155   3
   0   8  -9 1059.55 176.374   3
   0   8  -8 1543.02 210.015   3
   0   8  -7 1862.92 221.806   3
   0   8  -7 1586.91 257.405   6
   0   8  -6 8755.68 622.948   6
   0   8  -6 8336.84 518.607   3
   0   8  -5 1606.16 243.946   6
   0   8  -5 1683.97 204.510   3
   0   8  -4 1777.15 208.413   3
   0   8  -4 2382.95 304.640   6
   0   8  -3 61.6769 59.4321   6
   0   8  -3 86.6198 46.8080   3
   0   8  -2 2131.50 219.856   3
   0   8  -2 2082.37 279.817   6
   0   8  -1 4048.39 302.570   3
   0   8  -1 3430.50 363.240   6
   0   8   0 3988.85 297.493   3
   0   8   0 3870.37 394.875   6
   0   8   1 7258.32 585.211   6
   0   8   1 6736.53 403.707   3
   0   8   2 21.3738 18.2878   3
   0   8   2 52.6243 42.2416   6
   0  -8  -2 37.4675 27.0082   1
   0  -8  -3 26.4988 24.8873   1
   0   8   3 2.58153 21.2319   3
   0   8   3-25.8818 37.3733   6
   0   8   4 1975.13 302.063   6
   0   8   4 1922.12 176.767   3
   0  -8  -4 1784.60 211.389   1
   0   8   5 5573.34 532.228   6
   0  -8  -5 4826.91 383.714   1
   0  -8  -6 5766.58 439.160   1
   0  -8  -7 55.6070 41.5153   1
   0  -8  -8 996.093 189.432   1
   0  -8  -9 1740.41 261.747   1
   0  -8 -10 3551.45 400.011   1
   0  -8 -11 925.776 208.069   1
   0   9 -12 750.296 189.218   3
   0   9 -11 531.526 149.421   3
   0   9 -10-7.53639 32.0953   3
   0   9  -9 98.5121 45.1343   3
   0   9  -8 16.8466 28.6236   6
   0   9  -8 53.8422 40.8375   3
   0   9  -7-0.16756 6.08267   6
   0   9  -7 36.2162 23.3524   3
   0   9  -6 1262.34 232.870   6
   0   9  -6 785.476 152.958   3
   0   9  -5 1759.05 224.464   3
   0   9  -5 1701.91 270.418   6
   0   9  -4 531.684 118.958   3
   0   9  -4 456.462 143.794   6
   0   9  -3 142.775 66.8526   3
   0   9  -3 205.928 101.226   6
   0   9  -2 415.271 105.779   3
   0   9  -2 518.565 154.563   6
   0   9  -1 1538.56 196.478   3
   0   9  -1 1683.89 265.438   6
   0   9   0 1105.22 160.300   3
   0   9   0 1257.84 236.597   6
   0   9   1 1393.54 179.181   3
   0   9   1 1366.59 252.840   6
   0   9   2 2478.23 231.308   3
   0   9   2 2514.35 367.318   6
   0   9   3 2226.96 212.394   3
   0   9   3 1675.46 319.167   6
   0   9   4 5270.96 546.940   6
   0   9   5 999.203 235.658   6
   0  -9  -5 988.088 181.339   1
   0  -9  -6 1763.32 248.132   1
   0   9   6 1872.72 334.224   6
   0   9   7 1620.61 318.268   6
   0  -9  -7 1286.51 215.240   1
   0  -9  -8 464.475 131.748   1
   0  -9  -9 375.835 129.694   1
   0  -9 -10 443.484 142.365   1
   0  10 -10 107.886 69.7155   3
   0  10  -9 106.587 63.5963   3
   0  10  -8 321.687 107.844   3
   0  10  -8 332.248 132.148   6
   0  10  -7 1291.54 273.028   6
   0  10  -7 1306.97 212.363   3
   0  10  -6-12.3547 41.2541   3
   0  10  -6 22.2870 31.7111   6
   0  10  -5 286.788 118.716   6
   0  10  -5 208.335 77.9555   3
   0  10  -4 545.037 159.293   6
   0  10  -4 645.949 140.801   3
   0  10  -3 2230.89 258.608   3
   0  10  -3 2434.12 353.432   6
   0  10  -2 214.169 77.2897   3
   0  10  -2 201.703 102.832   6
   0  10  -1-24.9822 51.0904   6
   0  10  -1-20.6451 40.8533   3
   0  10   0 203.677 108.204   6
   0  10   0 45.1183 33.4814   3
   0  10   1 137.121 60.4953   3
   0  10   1 92.0508 68.9884   6
   0  10   2 450.017 159.832   6
   0  10   2 530.392 108.934   3
   0  10   3 1270.03 286.186   6
   0  10   4 692.328 217.630   6
   0  10   5 79.7195 97.0712   6
   0  10   6-8.79320 18.3476   6
   0  11  -8 254.744 128.840   6
   0  11  -8 282.996 102.689   3
   0  11  -7 691.156 162.927   3
   0  11  -7 679.205 207.429   6
   0  11  -6 953.697 186.104   3
   0  11  -6 1194.02 248.928   6
   0  11  -5 24.6983 32.7153   3
   0  11  -5-62.5054 55.8094   6
   0  11  -4 971.238 236.405   6
   0  11  -4 1177.84 193.214   3
   0  11  -3 29.6395 21.5615   3
   0  11  -3-96.0396 72.6129   6
   0  11  -2 332.015 138.383   6
   0  11  -2 328.237 99.7956   3
   0  11  -1 66.7925 52.7394   3
   0  11  -1 62.6604 41.7491   6
   0  11   0 782.786 209.345   6
   0  11   0 826.298 154.621   3
   0  11   1 342.802 132.917   6
   0  11   1 245.636 81.9747   3
   0  11   2 18.6694 44.4213   6
   0  11   3 535.023 187.182   6
   0  11   4 18.4053 51.5136   6
   0  12  -8 204.641 116.647   6
   0  12  -7 81.8157 71.5068   6
   0  12  -6 48.2688 61.5725   6
   0  12  -5 23.8245 25.8700   6
   0  12  -5 0.69320 9.09761   3
   0  12  -4 769.014 167.369   3
   0  12  -4 567.234 187.007   6
   0  12  -3 17.8670 10.5954   3
   0  12  -3 80.1676 70.4768   6
   0  12  -2 162.817 70.6906   3
   0  12  -2 340.943 136.930   6
   0  12  -1 536.254 132.791   3
   0  12  -1 657.832 205.991   6
   0  12   0 1140.33 273.375   6
   0  12   0 1200.46 194.701   3
   0  12   1 5.11345 40.0785   6
   0  12   2 1054.47 275.745   6
  -1  13   0 119.710 88.0647   6
  -1  13   0 124.632 77.0618   3
  -1  13  -1 866.939 238.032   6
  -1  12   3 77.0535 72.5460   6
  -1  12   2 356.944 157.832   6
  -1  12   1-14.1808 28.6858   3
  -1  12   1 45.4435 51.1774   6
  -1  12   0 122.515 68.1212   3
  -1  12   0 159.559 76.8886   6
  -1  12  -1 1008.27 188.044   3
  -1  12  -1 750.792 210.835   6
  -1  12  -2 1036.58 241.632   6
  -1  12  -2 897.672 182.155   3
  -1  12  -3 4903.44 546.800   6
  -1  12  -3 4411.17 426.659   3
  -1  12  -4 42.7304 49.0488   3
  -1  12  -4-10.7300 30.0068   6
  -1  12  -5 44.2327 34.6999   3
  -1  11   5 424.418 177.065   6
  -1  11   4 229.765 124.987   6
  -1  11   3 207.285 110.766   6
  -1  11   2 323.690 131.493   6
  -1  11   2 347.696 96.0174   3
  -1  11   1 906.805 218.131   6
  -1  11   1 950.976 164.667   3
  -1  11   0 370.997 139.593   6
  -1  11   0 492.941 121.623   3
  -1  11  -1 2598.54 366.723   6
  -1  11  -1 2858.61 305.541   3
  -1  11  -2 1405.08 211.513   3
  -1  11  -2 1243.03 254.319   6
  -1  11  -3 535.882 137.979   3
  -1  11  -3 451.531 158.046   6
  -1  11  -4 1341.23 262.306   6
  -1  11  -4 1557.56 234.994   3
  -1  11  -5 657.966 161.727   3
  -1  11  -5 811.584 194.448   6
  -1  11  -6-50.1030 41.8050   3
  -1  11  -6-27.2160 8.18355   6
  -1  11  -7 154.968 77.3743   3
  -1  11  -8 108.423 66.9785   3
  -1  10   7 1644.00 336.184   6
  -1  10   6 5799.86 623.508   6
  -1  10   5 905.971 235.124   6
  -1  10   4 212.118 89.5940   6
  -1  10   3 4197.65 328.289   3
  -1  10   3 4502.38 518.756   6
  -1  10   2 122.135 52.3209   3
  -1  10   2 118.783 79.9651   6
  -1  10   1 4339.91 340.831   3
  -1  10   1 3930.39 458.483   6
  -1  10   0 1460.66 253.327   6
  -1  10   0 2170.09 237.337   3
  -1  10  -1 1709.14 211.748   3
  -1  10  -1 817.849 189.071   6
  -1  10  -2 453.814 141.484   6
  -1  10  -2 722.460 140.969   3
  -1  10  -3 1341.00 198.055   3
  -1  10  -3 736.057 183.133   6
  -1  10  -4 12.8015 32.3661   3
  -1  10  -4-0.15338 14.6148   6
  -1  10  -5 128.388 73.7043   3
  -1  10  -5 106.036 53.8317   6
  -1  10  -6 166.542 85.1809   6
  -1  10  -6 140.262 76.5588   3
  -1  10  -7-30.2815 31.3246   3
  -1  10  -7 16.4319 27.6820   6
  -1  10  -8 202.417 79.3589   3
  -1  10  -9 246.994 94.0062   3
  -1  10 -10 787.429 171.042   3
  -1  10 -11 10.8567 18.5995   3
   1  -9 -10 267.390 118.270   1
   1  -9  -9 2476.73 355.611   1
   1  -9  -8 2073.43 312.756   1
   1  -9  -7 64.0577 51.3056   1
   1  -9  -6 107.305 62.4834   1
   1  -9  -5 256.011 87.6123   1
  -1   9   5 338.298 125.069   6
  -1   9   4 299.216 114.791   6
  -1   9   4 395.347 84.8260   3
  -1   9   3-15.9791 41.8637   6
  -1   9   3 34.4264 28.5273   3
  -1   9   2 38.0003 19.5588   3
  -1   9   2 48.9084 34.3820   6
  -1   9   1 3497.54 402.374   6
  -1   9   1 3342.69 283.175   3
  -1   9   0 1057.10 151.788   3
  -1   9   0 937.746 191.228   6
  -1   9  -1 5236.47 380.492   3
  -1   9  -1 5594.47 472.604   6
  -1   9  -2 128.437 50.0577   3
  -1   9  -2 191.235 83.9464   6
  -1   9  -3 5845.32 504.472   6
  -1   9  -3 5602.23 405.331   3
  -1   9  -4 182.485 69.8730   3
  -1   9  -4 104.230 68.6054   6
  -1   9  -5 4137.03 400.510   6
  -1   9  -5 4505.49 370.192   3
  -1   9  -6 3563.93 325.670   3
  -1   9  -6 2265.88 306.372   6
  -1   9  -7 552.883 149.635   6
  -1   9  -7 674.515 146.167   3
  -1   9  -8 4208.00 380.909   3
  -1   9  -9 1227.10 196.565   3
  -1   9 -10 80.7728 62.1547   3
  -1   9 -11 660.636 148.307   3
  -1   9 -12 179.944 78.2430   3
  -1   9 -13-110.404 66.3627   3
   1  -8 -11-28.2813 74.1243   1
   1  -8 -10 3559.11 432.629   1
   1  -8  -9 697.533 177.915   1
   1  -8  -8 4236.63 442.791   1
   1  -8  -7 1447.61 241.537   1
   1  -8  -6 3396.43 359.931   1
   1  -8  -6 3889.35 348.350   5
   1  -8  -5 5659.47 421.201   5
  -1   8   5 5272.32 327.978   3
   1  -8  -5 4983.88 430.585   1
   1  -8  -4 9606.58 582.692   5
   1  -8  -4 9357.64 586.292   1
  -1   8   4 9264.68 482.458   3
  -1   8   3 14397.2 656.143   3
  -1   8   3 13842.6 837.762   6
  -1   8   2 16312.1 727.452   3
  -1   8   2 16146.9 903.071   6
  -1   8   1 5694.80 489.231   6
  -1   8   1 5545.14 359.729   3
  -1   8   0 2398.16 222.506   3
  -1   8   0 1756.77 256.382   6
  -1   8  -1 2722.23 297.970   6
  -1   8  -1 2817.91 250.126   3
  -1   8  -2 653.095 141.203   6
  -1   8  -2 592.906 89.9166   4
  -1   8  -2 678.719 122.179   3
  -1   8  -3 3017.68 201.374   4
  -1   8  -3 3384.17 345.479   6
  -1   8  -3 3298.10 277.610   3
  -1   8  -4 334.756 108.730   6
  -1   8  -4 328.764 85.9448   3
  -1   8  -5 596.019 118.932   3
  -1   8  -5 537.773 124.978   6
  -1   8  -6 814.540 143.414   3
  -1   8  -6 750.422 169.994   6
  -1   8  -7 431.368 110.508   3
  -1   8  -7 336.456 107.161   6
  -1   8  -8 1668.80 223.041   3
  -1   8  -9 162.363 77.0128   3
  -1   8 -10-18.8884 31.6945   3
  -1   8 -11 2766.74 299.734   3
  -1   8 -12 172.734 76.7457   3
  -1   8 -13-15.1730 14.2380   3
  -1   8 -14 300.519 110.864   3
   1  -7 -12 554.177 168.758   1
   1  -7 -11 1624.49 283.813   1
   1  -7 -10 3709.93 416.857   1
   1  -7  -9 546.017 146.850   1
   1  -7  -8-8.97258 46.5949   1
   1  -7  -7 83.5350 46.9525   1
   1  -7  -7 54.1398 53.6113   5
   1  -7  -6 534.834 114.190   5
   1  -7  -6 370.057 108.105   1
  -1   7   6 407.532 73.2361   3
  -1   7   5 1883.86 171.804   3
   1  -7  -5 2138.34 231.223   5
   1  -7  -5 2066.80 251.843   1
   1  -7  -4 506.159 114.457   1
  -1   7   4 494.991 85.4343   3
   1  -7  -4 628.665 122.099   5
   1  -7  -3 102.884 49.4673   5
  -1   7   3 122.263 42.1222   3
   1  -7  -3 151.143 60.0452   1
  -1   7   2 930.397 166.907   6
  -1   7   2 1009.64 127.659   3
   1  -7  -2 1017.54 157.070   5
  -1   7   1 2604.06 284.458   6
  -1   7   1 2401.07 212.317   3
  -1   7   0 1068.20 183.297   6
  -1   7   0 1634.52 169.718   3
  -1   7  -1 2922.07 282.058   6
  -1   7  -1 3264.57 252.426   3
  -1   7  -1 2816.49 195.925   1
  -1   7  -2 961.930 132.398   3
  -1   7  -2 1123.69 129.045   4
  -1   7  -2 690.173 89.1409   1
  -1   7  -2 1034.98 164.030   6
  -1   7  -3 10429.7 613.595   6
  -1   7  -3 9457.32 436.489   4
  -1   7  -3 10637.8 528.917   3
  -1   7  -3 9651.72 434.323   1
  -1   7  -4 29196.2 1200.04   3
  -1   7  -4 32751.2 1106.33   4
  -1   7  -4 30590.5 1294.77   6
  -1   7  -5 5107.87 239.004   1
  -1   7  -5 4876.48 381.253   6
  -1   7  -5 4911.17 346.010   3
  -1   7  -5 4824.70 266.757   4
  -1   7  -6 6173.02 285.428   1
  -1   7  -6 6995.06 483.372   6
  -1   7  -6 6929.43 432.626   3
  -1   7  -7 5249.45 387.328   3
  -1   7  -7 5861.06 288.685   1
  -1   7  -8 1970.81 228.405   3
  -1   7  -9 1467.58 198.253   3
  -1   7 -10 2117.41 239.315   3
  -1   7 -11 3050.90 300.717   3
  -1   7 -12 142.912 66.4864   3
  -1   7 -13 116.249 75.5096   3
  -1   7 -14 375.256 117.904   3
   1  -6 -12 231.919 106.241   1
   1  -6 -11 1348.21 242.878   1
   1  -6 -10 2475.31 318.964   1
   1  -6  -9 911.478 173.212   5
   1  -6  -9 1076.15 196.379   1
   1  -6  -8 108.367 55.8869   1
   1  -6  -8 106.505 53.9769   5
   1  -6  -7 3222.47 306.095   5
  -1   6   7 2441.82 183.341   3
   1  -6  -7 2655.76 296.716   1
   1  -6  -6 13973.3 774.234   1
   1  -6  -6 17149.7 811.342   5
   1  -6  -5 17868.9 820.722   5
   1  -6  -5 15097.5 788.578   1
  -1   6   4 7578.24 388.490   3
   1  -6  -4 8184.66 502.723   1
   1  -6  -4 7874.38 479.249   5
   1  -6  -3 2010.02 209.370   5
  -1   6   3 1835.74 166.174   3
   1  -6  -3 2221.86 229.222   1
  -1   6   2 49615.6 1606.88   2
   1  -6  -2 52995.6 1851.01   5
  -1   6   2 49415.1 1733.79   3
  -1   6   1 5873.67 406.996   6
   1  -6  -1 5845.00 389.056   5
  -1   6   1 6046.45 340.320   3
  -1   6   0 1043.43 161.204   6
  -1   6   0 919.678 118.174   3
  -1   6  -1 460.564 73.3088   1
  -1   6  -1 534.812 89.9786   3
  -1   6  -1 533.163 107.854   6
  -1   6  -2 8711.96 515.949   6
  -1   6  -2 9616.29 441.459   1
  -1   6  -2 9033.40 475.102   3
  -1   6  -3 295.922 56.2372   4
  -1   6  -3 362.404 89.4881   6
  -1   6  -3 421.021 80.5321   3
  -1   6  -4 2746.39 253.067   6
  -1   6  -4 3040.06 239.256   3
  -1   6  -4 2865.13 195.490   4
  -1   6  -5 9613.54 447.091   4
  -1   6  -5 11162.1 600.435   6
  -1   6  -5 10223.0 520.903   3
  -1   6  -5 10769.0 429.975   1
  -1   6  -6 1944.39 138.431   1
  -1   6  -6 1671.37 182.156   3
  -1   6  -7 1716.35 140.518   1
  -1   6  -7 1598.39 188.153   3
  -1   6  -8 232.474 54.4665   1
  -1   6  -8 235.415 82.0582   3
  -1   6  -9 3434.64 236.590   1
  -1   6  -9 3764.17 304.294   3
  -1   6 -10 13602.6 687.376   3
  -1   6 -10 13693.9 610.807   1
  -1   6 -11 32.4862 18.3862   1
  -1   6 -11 197.044 72.5672   3
  -1   6 -12 11.7171 12.4634   3
  -1   6 -13 3421.34 342.026   3
  -1   6 -14 244.323 111.100   2
  -1   6 -14 174.816 76.7559   3
   1  -5 -13 2826.45 379.872   1
   1  -5 -12 1676.43 276.829   1
   1  -5 -11 66.1064 41.5708   1
   1  -5 -10 91.9513 54.2761   5
   1  -5 -10 101.514 57.9544   1
   1  -5  -9 1377.88 218.000   1
   1  -5  -9 2007.36 244.126   5
   1  -5  -8 15504.2 815.208   1
   1  -5  -8 15285.0 796.756   5
   1  -5  -7 1514.80 198.715   5
   1  -5  -7 1314.69 191.208   1
   1  -5  -6 8137.88 509.486   1
   1  -5  -6 8263.94 507.897   5
   1  -5  -5 16.4305 19.8297   5
   1  -5  -5 20.1272 26.4012   1
   1  -5  -4 16058.3 732.963   5
   1  -5  -4 13212.2 679.188   1
   1  -5  -3 4423.98 327.045   1
   1  -5  -3 4764.90 330.847   5
   1  -5  -2 90.0728 40.3762   5
   1  -5  -2 158.198 54.1046   1
  -1   5   1 3538.57 151.449   2
   1  -5  -1 3376.22 264.931   5
   1  -5   0 15550.1 692.440   5
  -1   5   0 14965.9 623.027   3
  -1   5   0 14522.4 605.868   1
  -1   5   0 15354.1 687.803   6
  -1   5  -1 227.720 53.3281   3
  -1   5  -1 245.032 55.0396   1
  -1   5  -1 212.282 56.3604   6
  -1   5  -2 30167.7 1204.50   6
  -1   5  -2 29983.1 1161.43   3
  -1   5  -3 18072.7 759.719   6
  -1   5  -3 16628.1 662.325   4
  -1   5  -3 17807.1 721.185   3
  -1   5  -4 1589.05 137.276   4
  -1   5  -4 1535.32 152.544   3
  -1   5  -4 1233.91 147.351   6
  -1   5  -5 1727.95 167.179   3
  -1   5  -5 1736.43 187.684   6
  -1   5  -5 1671.72 142.438   4
  -1   5  -6 9913.80 427.188   1
  -1   5  -6 10693.8 507.410   3
  -1   5  -7 3400.67 266.779   3
  -1   5  -7 3818.06 226.776   1
  -1   5  -8 423.779 71.7257   1
  -1   5  -8 247.182 76.0418   3
  -1   5  -9 57.1379 32.4919   1
  -1   5  -9 4.56483 4.44851   3
  -1   5 -10 13280.8 644.692   3
  -1   5 -10 13141.6 611.281   1
  -1   5 -11 423.356 89.4805   1
  -1   5 -11 356.867 88.0500   3
  -1   5 -12 25.8728 19.8474   1
  -1   5 -12-13.0460 20.5240   3
  -1   5 -13 124.715 53.2591   3
  -1   5 -13 144.718 67.0756   1
  -1   5 -14 98.8845 53.1609   1
  -1   5 -14 112.094 75.9890   2
   1  -4 -14 601.360 162.465   2
   1  -4 -13 3809.64 433.340   1
   1  -4 -13 3572.13 390.540   2
   1  -4 -12 3334.22 384.885   1
   1  -4 -12 3114.49 344.799   2
   1  -4 -11 7814.69 546.216   5
   1  -4 -11 7917.99 546.828   2
   1  -4 -11 6928.85 560.355   1
   1  -4 -10-25.4657 36.3923   1
   1  -4 -10 51.8730 35.7690   5
   1  -4 -10 58.9635 44.1389   2
   1  -4  -9 1445.36 191.124   2
   1  -4  -9 1541.72 210.653   5
   1  -4  -9 1336.70 205.846   1
   1  -4  -8 34349.3 1370.74   2
   1  -4  -8 37017.3 1438.67   5
   1  -4  -8 35686.3 1459.33   1
   1  -4  -7 5725.96 409.880   5
   1  -4  -7 5883.32 416.315   1
   1  -4  -6 2342.49 201.219   2
   1  -4  -6 2420.15 239.683   1
   1  -4  -6 2160.33 229.308   5
   1  -4  -5 4.21718 10.1569   2
   1  -4  -5-4.31055 16.4731   5
   1  -4  -5 5.39235 6.63406   1
   1  -4  -4 19177.0 832.028   5
   1  -4  -4 19303.4 828.528   1
   1  -4  -3 39755.8 1456.89   5
   1  -4  -3 39540.5 1450.19   1
   1  -4  -2 81321.2 2676.15   1
   1  -4  -2 79293.1 2678.01   5
   1  -4  -1 162.475 48.7980   5
  -1   4   1 43.6377 25.9736   1
  -1   4   0 6488.36 360.149   6
   1  -4   0 7433.90 395.454   5
  -1   4   0 7763.65 370.424   1
  -1   4  -1 789.576 99.4875   3
  -1   4  -1 894.864 108.608   6
  -1   4  -2 262.996 53.7175   3
  -1   4  -2 218.210 51.7826   4
   1  -4   2 232.209 49.8989   6
  -1   4  -2 248.129 55.1320   6
  -1   4  -3 250.908 55.1978   3
   1  -4   3 191.588 46.3036   6
  -1   4  -3 259.169 50.1019   4
  -1   4  -3 314.517 59.9373   6
   1  -4   4 7340.90 384.581   6
  -1   4  -4 8044.32 376.382   3
  -1   4  -4 7480.64 350.944   4
  -1   4  -5 9.83066 15.3626   3
  -1   4  -5-3.46429 18.1092   1
  -1   4  -5 20.7797 18.1423   4
  -1   4  -6 4902.34 288.693   3
  -1   4  -6 4777.11 256.159   1
  -1   4  -7 41263.6 1427.42   3
  -1   4  -7 39311.8 1376.78   1
  -1   4  -8 7792.29 425.155   3
  -1   4  -8 8002.16 400.140   1
  -1   4  -9 5728.45 335.259   3
  -1   4  -9 4582.83 301.652   1
  -1   4 -10 35.6424 27.8872   1
  -1   4 -10-58.8806 31.1789   3
  -1   4 -11 5743.55 376.188   3
  -1   4 -11 6066.75 382.196   1
  -1   4 -12 316.532 83.0269   1
  -1   4 -12 201.718 61.2389   3
  -1   4 -12 366.476 118.222   2
  -1   4 -13-0.09353 18.3771   1
  -1   4 -13 0.09316 18.4319   3
  -1   4 -13 32.2190 38.5240   2
  -1   4 -14 52.6384 41.5492   1
  -1   4 -14 53.8773 67.2406   2
  -1   4 -15 100.071 70.0004   1
  -1   4 -15 726.863 202.200   2
  -1   4 -16 239.481 103.712   1
   1  -3 -15 2955.51 380.770   2
   1  -3 -14 1510.86 276.170   1
   1  -3 -14 1531.61 258.214   2
   1  -3 -13 14.2941 30.4493   1
   1  -3 -13 37.3760 45.0873   2
   1  -3 -12 1235.19 211.669   2
   1  -3 -12 1113.17 218.955   1
   1  -3 -12 758.515 173.391   5
   1  -3 -11 470.369 121.870   5
   1  -3 -11 387.524 109.119   2
   1  -3 -11 458.552 133.673   1
   1  -3 -10 1741.27 229.626   2
   1  -3 -10 1561.17 217.086   5
   1  -3 -10 1626.78 237.040   1
   1  -3  -9 21520.6 1019.10   1
   1  -3  -9 22692.6 992.336   2
   1  -3  -9 21073.4 993.595   5
   1  -3  -8 664.248 121.026   2
   1  -3  -8 687.942 135.164   1
   1  -3  -8 567.834 116.064   5
   1  -3  -7 3077.17 276.171   1
   1  -3  -7 2793.64 256.921   5
   1  -3  -6 36336.7 1413.25   1
   1  -3  -6 38766.2 1351.11   2
   1  -3  -6 36547.1 1393.91   5
   1  -3  -5 2066.05 203.924   1
   1  -3  -5 2414.91 180.905   2
   1  -3  -5 2267.53 205.759   5
   1  -3  -4 91524.8 2905.83   2
   1  -3  -4 91072.1 3014.88   1
   1  -3  -4 93352.6 3023.60   5
   1  -3  -3 37317.4 1223.21   2
   1  -3  -3 36490.0 1340.59   5
   1  -3  -3 39099.2 1361.49   1
   1  -3  -2 113326. 3507.27   1
   1  -3  -2 104464. 3498.46   5
   1  -3  -1 66508.2 2231.30   5
  -1   3   1 67407.4 2196.92   1
   1  -3   0 23012.9 890.289   5
  -1   3   0 24823.7 884.091   1
  -1   3  -1 17175.6 645.231   6
   1  -3   1 18182.1 708.614   5
   1  -3   2 140.280 33.2739   6
  -1   3  -2 175.987 36.8576   3
  -1   3  -2 174.318 37.1781   6
  -1   3  -2 165.467 41.0145   4
   1  -3   3 15512.5 603.303   6
  -1   3  -3 15327.2 600.554   6
  -1   3  -3 15951.7 607.836   3
   1  -3   3 16964.0 667.462   4
  -1   3  -3 14927.6 606.996   4
  -1   3  -4 657.829 79.2197   4
   1  -3   4 509.186 74.5893   6
  -1   3  -4 648.354 80.8502   3
  -1   3  -5 9872.33 435.016   3
  -1   3  -5 10063.0 438.431   4
  -1   3  -5 9761.00 417.764   1
  -1   3  -6 332.975 58.3122   1
  -1   3  -6 372.649 62.6706   3
  -1   3  -7 3872.18 266.277   1
  -1   3  -7 6051.06 300.470   3
  -1   3  -8 621.749 93.9449   1
  -1   3  -8 708.914 98.2448   3
  -1   3  -9 229.668 56.1237   3
  -1   3  -9 155.142 67.6526   1
  -1   3 -10 1708.63 186.890   1
  -1   3 -10 1630.89 165.560   3
  -1   3 -11 60.9260 22.1419   3
  -1   3 -11 56.7081 42.6812   1
  -1   3 -11 99.1879 61.3232   2
  -1   3 -12 493.076 100.770   3
  -1   3 -12 338.366 135.540   2
  -1   3 -12 644.162 119.499   1
  -1   3 -13 351.312 125.090   2
  -1   3 -13 377.087 98.6732   1
  -1   3 -14-13.9621 21.1053   1
  -1   3 -14-3.14465 24.9761   2
  -1   3 -15 842.812 185.660   1
  -1   3 -15 1325.28 292.331   2
  -1   3 -16 405.604 142.523   1
   1  -2 -16 30.1461 51.7318   2
   1  -2 -15 122.910 94.5052   2
   1  -2 -14 5833.83 549.979   1
   1  -2 -14 5032.95 504.384   2
   1  -2 -13 2893.82 343.805   5
   1  -2 -13 2916.37 347.108   2
   1  -2 -13 2737.73 364.779   1
   1  -2 -12 4171.89 426.453   1
   1  -2 -12 4871.13 434.080   2
   1  -2 -12 4768.80 433.992   5
   1  -2 -11 2508.53 287.617   2
   1  -2 -11 2017.98 290.158   1
   1  -2 -11 2678.36 298.039   5
   1  -2 -10 3682.98 353.363   1
   1  -2 -10 3626.08 350.615   2
   1  -2 -10 3859.09 348.436   5
   1  -2  -9 23935.6 1097.46   1
   1  -2  -9 24446.2 1063.07   5
   1  -2  -8 6.57290 29.4777   5
   1  -2  -8-0.08631 24.8603   1
   1  -2  -7 2000.12 208.956   5
   1  -2  -7 1600.17 191.175   1
   1  -2  -6 726.918 117.835   1
   1  -2  -6 794.412 122.156   5
   1  -2  -5 16726.1 729.234   5
   1  -2  -5 17739.2 745.139   1
   1  -2  -4 94294.1 3005.24   1
   1  -2  -4 90543.8 2996.14   5
  -1   2   3 22785.8 872.284   5
   1  -2  -3 24520.3 897.518   1
   1  -2  -3 22892.2 876.788   5
   1  -2  -2 44733.4 1486.58   5
   1  -2  -2 41998.5 1492.68   1
   1  -2  -1 3812.00 233.140   5
   1  -2   0 3593.14 219.708   5
  -1   2  -1 10850.2 397.320   2
  -1   2  -1 10903.7 385.555   6
   1  -2   1 11100.9 460.066   5
  -1   2  -2 2563.82 165.635   4
  -1   2  -2 2675.55 163.500   2
   1  -2   2 2881.12 142.789   6
   1  -2   3 1825.44 124.316   6
  -1   2  -3 1547.35 131.206   4
  -1   2  -3 1658.78 119.134   3
  -1   2  -4 49757.4 1689.86   4
  -1   2  -4 52989.1 1671.46   3
  -1   2  -5 83007.6 2688.35   3
  -1   2  -5 87910.4 2715.03   1
  -1   2  -6 36657.3 1361.40   3
  -1   2  -6 47891.8 1417.08   1
  -1   2  -7 465.912 76.9891   1
  -1   2  -7 355.862 61.7151   3
  -1   2  -8 23683.5 867.390   3
  -1   2  -8 23160.4 917.455   1
  -1   2  -9 2975.97 243.667   1
  -1   2  -9 3076.35 314.833   2
  -1   2  -9 3324.39 216.817   3
  -1   2 -10 3675.96 250.673   3
  -1   2 -10 3656.54 279.401   1
  -1   2 -11 15.9905 23.0419   3
  -1   2 -11 40.0234 25.0783   1
  -1   2 -11 12.9361 37.6758   2
  -1   2 -12 7483.07 476.684   1
  -1   2 -12 7549.79 595.219   2
  -1   2 -13 277.254 111.661   2
  -1   2 -13 284.557 83.5595   1
  -1   2 -14 513.149 175.919   2
  -1   2 -14 360.526 118.650   1
  -1   2 -15-4.78545 14.1672   2
  -1   2 -15-3.67845 35.2568   1
   1  -1 -16 3409.34 437.042   2
   1  -1 -15 430.757 155.115   1
   1  -1 -15 503.043 153.751   2
   1  -1 -14 982.194 211.928   1
   1  -1 -14 1331.41 244.229   2
   1  -1 -14 829.372 183.480   5
   1  -1 -13 875.566 185.847   2
   1  -1 -13 518.693 143.605   5
   1  -1 -13 862.713 190.671   1
   1  -1 -12 69.0223 61.9487   1
   1  -1 -12 47.1632 48.9225   5
   1  -1 -12 113.325 72.1069   2
   1  -1 -11 982.807 181.084   5
   1  -1 -11 1045.03 203.150   1
   1  -1 -10-3.01501 21.3456   1
   1  -1 -10-43.2621 37.3004   5
   1  -1  -9 4942.66 382.174   1
   1  -1  -9 4615.13 359.311   5
   1  -1  -8 3464.92 287.778   5
   1  -1  -8 3509.82 297.042   1
   1  -1  -7 90.0401 38.3639   1
   1  -1  -7 34.5624 24.4663   5
   1  -1  -6 24504.1 1003.18   1
  -1   1   6 26334.2 914.087   3
   1  -1  -6 24797.0 991.854   5
   1  -1  -5 129736. 4070.71   1
  -1   1   5 127420. 3981.63   3
   1  -1  -5 124527. 4047.12   5
   1  -1  -4 12672.6 531.975   1
   1  -1  -4 11090.1 502.123   5
   1  -1  -3 293170. 9367.70   5
   1  -1  -3 321520. 9400.02   1
   1  -1  -2 32982.8 1127.49   1
   1  -1  -2 31067.7 1097.98   5
   1  -1  -1 148977. 4605.89   5
   1  -1   0 1608.59 120.736   5
   1  -1   1 213220. 4426.22   2
   1  -1   1 203012. 4459.24   5
  -1   1  -2 7888.84 342.119   4
   1  -1   2 7976.23 340.305   2
  -1   1  -3 296.708 51.5620   4
  -1   1  -4 13003.5 505.055   4
  -1   1  -4 12068.1 488.281   1
  -1   1  -4 12268.1 449.702   3
  -1   1  -5 60584.4 1894.14   3
  -1   1  -5 59220.4 1952.58   1
  -1   1  -6 2645.70 148.903   3
  -1   1  -6 1957.06 166.347   1
  -1   1  -7 986.951 86.7663   3
  -1   1  -7 982.743 117.154   1
  -1   1  -8 2535.41 163.542   3
  -1   1  -8 2311.40 203.425   1
  -1   1  -9 601.495 131.799   2
  -1   1  -9 655.669 105.888   1
  -1   1  -9 785.224 92.7417   3
  -1   1 -10 6159.25 475.141   2
  -1   1 -10 6195.19 376.288   1
  -1   1 -10 5053.63 296.312   3
  -1   1 -11 8849.66 626.915   2
  -1   1 -11 9234.56 514.129   1
  -1   1 -11 8622.71 420.628   3
  -1   1 -12 1241.90 229.628   2
  -1   1 -12 1591.93 202.753   1
  -1   1 -13 389.592 105.768   1
  -1   1 -13 392.330 134.484   2
  -1   1 -13 270.696 88.1761   5
  -1   1 -14 1533.65 296.801   2
  -1   1 -14 1580.92 239.651   1
  -1   1 -15 222.943 109.350   1
  -1   1 -15 380.530 149.348   2
   1   0 -16 674.676 190.887   2
   1   0 -15 307.627 137.940   2
   1   0 -15 349.423 130.146   1
   1   0 -15 117.548 75.4717   5
   1   0 -14 3096.59 378.169   1
   1   0 -14 2458.57 325.749   5
   1   0 -14 3352.31 389.173   2
   1   0 -13 1937.88 318.295   1
   1   0 -13 2171.60 283.070   5
   1   0 -12 2293.47 345.532   1
   1   0 -12 3750.71 354.049   5
   1   0 -11 66.2962 39.3282   5
   1   0 -11 13.7568 29.0954   1
   1   0 -10 31218.4 1309.12   1
   1   0 -10 31101.6 1312.23   5
   1   0  -9 4380.77 357.616   1
   1   0  -9 4424.99 350.151   5
   1   0  -8 876.219 147.319   1
   1   0  -8 1170.78 159.621   5
   1   0  -7 3198.87 258.639   1
   1   0  -7 2946.16 247.839   5
   1   0  -6 11396.3 543.670   1
   1   0  -6 11311.6 541.195   5
   1   0  -5 7751.18 383.678   1
  -1   0   5 7060.76 333.855   3
   1   0  -5 7099.50 374.515   5
   1   0  -4 3255.36 214.736   5
   1   0  -4 3439.98 217.664   1
  -1   0   4 3372.43 195.141   3
   1   0  -3 7945.20 376.550   5
   1   0  -3 9124.98 395.284   1
   1   0  -2 14856.0 572.023   5
   1   0  -2 16475.6 602.502   1
   1   0  -1 64541.5 1700.44   5
  -1   0   1 44140.8 1675.28   6
  -1   0   0 91.3578 19.2654   6
   1   0   0 100.814 23.4441   5
  -1   0  -1 263267. 8247.97   4
   1   0   1 276534. 8222.99   5
   1   0   2 60346.5 1998.81   2
  -1   0  -2 59519.7 1981.46   4
  -1   0  -2 64690.3 1939.64   5
  -1   0  -3 77289.0 2451.70   4
   1   0   3 77433.5 2492.92   2
  -1   0  -4 18586.4 709.572   1
  -1   0  -4 20097.3 641.623   3
  -1   0  -5 17328.9 591.446   3
  -1   0  -5 19354.1 684.453   1
  -1   0  -6 15639.1 473.778   3
  -1   0  -6 9411.94 524.386   1
  -1   0  -7 64.5254 18.4485   3
  -1   0  -7 61.1093 29.6092   1
  -1   0  -8 14681.2 775.267   2
  -1   0  -8 14956.1 534.289   3
  -1   0  -8 13422.7 633.243   1
  -1   0  -9 2097.47 140.636   3
  -1   0  -9 2474.98 275.453   2
  -1   0  -9 2164.70 203.181   1
  -1   0 -10 17165.2 775.186   1
  -1   0 -10 17178.5 935.708   2
  -1   0 -11 4631.02 442.085   2
  -1   0 -11 4787.19 354.105   1
  -1   0 -11 4595.36 347.977   5
  -1   0 -12-8.75513 11.1329   1
  -1   0 -12-8.00550 28.8175   2
  -1   0 -13 207.885 81.1695   1
  -1   0 -13 141.974 78.7739   2
  -1   0 -14 18.9304 29.9498   1
  -1   0 -14 14.8019 40.4274   2
  -1   0 -15 31.4543 30.1763   1
  -1   0 -15 200.284 93.0571   2
   1   1 -16 311.347 125.037   5
   1   1 -16 523.464 173.098   1
   1   1 -15 261.837 106.551   5
   1   1 -15 236.711 105.691   1
   1   1 -14 325.138 127.313   5
   1   1 -14 506.376 156.981   1
   1   1 -13 924.282 193.323   5
   1   1 -13 1122.59 217.314   1
   1   1 -12 22.5499 43.2313   5
   1   1 -12 81.7687 56.2672   1
   1   1 -11 2121.92 299.508   1
   1   1 -11 3143.26 314.880   5
   1   1 -10 1766.55 222.664   5
   1   1 -10 1734.40 221.400   1
   1   1  -9 146.923 57.9290   5
   1   1  -9 33.6553 40.9273   1
   1   1  -9 55.1351 36.0943   3
   1   1  -8 5.96914 10.7620   1
   1   1  -8 5.58559 10.0559   3
   1   1  -7 25081.4 1003.01   1
   1   1  -7 25587.8 975.251   3
   1   1  -6 64.2060 34.2416   3
   1   1  -6 15.7431 15.7331   1
   1   1  -5 17314.2 676.467   1
   1   1  -5 16441.6 669.383   3
   1   1  -4 17675.9 671.703   3
  -1  -1   4 19917.6 660.307   1
   1   1  -4 18173.1 672.464   1
   1   1  -3 38015.7 1269.40   3
   1   1  -3 33154.8 1304.92   1
   1   1  -2 65193.8 2121.84   3
  -1  -1   2 68413.3 2156.11   6
   1   1  -1 14576.8 528.551   3
  -1  -1   1 14113.8 565.054   6
  -1  -1   0 35778.0 1102.52   4
   1   1   0 36472.2 1074.83   5
  -1  -1  -1 28074.3 934.160   4
  -1  -1  -2 72256.1 2311.21   3
  -1  -1  -2 75694.1 2364.01   4
  -1  -1  -3 3757.03 198.299   1
  -1  -1  -4 8492.89 367.715   1
  -1  -1  -5 47493.5 1591.70   1
  -1  -1  -6 5769.60 315.550   1
  -1  -1  -7 4637.36 285.079   1
  -1  -1  -7 4287.38 342.674   2
  -1  -1  -7 4694.85 261.677   5
  -1  -1  -8 14844.5 621.524   5
  -1  -1  -8 13988.7 643.643   1
  -1  -1  -8 15575.5 768.201   2
  -1  -1  -9 10451.0 615.939   2
  -1  -1  -9 9888.35 504.827   1
  -1  -1  -9 8845.25 465.846   5
  -1  -1 -10 45863.2 1705.44   2
  -1  -1 -10 42303.0 1509.11   1
  -1  -1 -11 362.669 113.334   2
  -1  -1 -11 272.154 75.8951   5
  -1  -1 -11 401.330 96.7415   1
  -1  -1 -12 4739.77 390.010   1
  -1  -1 -12 4733.75 462.817   2
  -1  -1 -13 1398.67 217.783   1
  -1  -1 -13 1309.45 248.575   2
  -1  -1 -14-19.8508 25.9278   1
  -1  -1 -14-75.5876 60.9842   2
  -1  -1 -15 90.6847 83.5861   2
   1   2 -17 25.7854 41.9631   5
   1   2 -16 831.895 211.016   5
   1   2 -16 1002.62 232.517   1
   1   2 -15 538.837 152.374   1
   1   2 -15 292.857 125.858   5
   1   2 -14 155.766 63.1480   5
   1   2 -14 127.090 76.3816   1
   1   2 -13 107.052 71.9805   5
   1   2 -13 33.9697 40.4030   1
   1   2 -12 5669.16 477.288   1
   1   2 -12 7038.23 523.771   5
   1   2 -12 6594.98 450.246   3
   1   2 -11 8973.97 524.097   3
   1   2 -11 8013.23 551.214   1
   1   2 -10 563.831 111.518   3
   1   2 -10 472.822 127.527   1
   1   2  -9 123.690 45.8412   3
   1   2  -9 148.669 58.7414   1
   1   2  -8 6802.13 438.247   1
   1   2  -8 7730.25 420.812   3
   1   2  -7 3501.53 251.785   3
   1   2  -7 3440.31 253.527   1
   1   2  -6 1954.28 172.907   3
   1   2  -6 1953.28 170.251   1
  -1  -2   5 11630.8 432.508   1
   1   2  -5 11238.3 482.050   1
  -1  -2   4 6155.14 261.570   1
   1   2  -4 6186.15 296.332   1
  -1  -2   3 5259.49 239.945   1
   1   2  -3 5714.51 262.167   1
   1   2  -3 5634.38 288.728   3
  -1  -2   2 276602. 8522.29   6
  -1  -2   2 308041. 8414.05   1
  -1  -2   1 999999. 24002.3   6
   1   2  -1 690753. 23872.9   3
  -1  -2   0 42573.7 1309.99   6
   1   2   0 41319.6 1222.06   3
   1   2   1 512.501 61.0826   4
  -1  -2  -1 523.085 48.0569   3
   1   2   1 500.675 53.5222   3
   1   2   2 2260.84 140.760   4
   1   2   2 1916.76 106.443   3
  -1  -2  -2 1994.63 124.847   1
  -1  -2  -2 1909.70 98.3378   3
  -1  -2  -3 3194.92 175.980   1
  -1  -2  -3 2768.53 113.509   3
  -1  -2  -4 15920.6 615.218   1
  -1  -2  -5 11914.4 442.496   5
  -1  -2  -5 12348.5 516.472   1
  -1  -2  -6 133.062 31.7411   5
  -1  -2  -6 114.055 39.6813   1
  -1  -2  -7 6942.92 373.329   1
  -1  -2  -7 6181.78 304.663   5
  -1  -2  -7 6660.15 449.862   2
  -1  -2  -8 13898.9 614.002   1
  -1  -2  -8 11964.1 530.656   5
  -1  -2  -8 13722.0 728.131   2
  -1  -2  -9 3715.68 282.897   1
  -1  -2  -9 3659.33 362.123   2
  -1  -2  -9 2668.27 211.095   5
  -1  -2 -10 2301.59 292.377   2
  -1  -2 -10 1973.98 192.955   5
  -1  -2 -10 2483.67 243.085   1
  -1  -2 -11 1642.99 276.720   2
  -1  -2 -11 2076.17 237.632   1
  -1  -2 -12 423.212 113.328   1
  -1  -2 -12 364.620 118.307   2
  -1  -2 -13 1011.98 229.205   2
  -1  -2 -13 1201.35 211.582   1
  -1  -2 -14 166.783 88.3348   1
  -1  -2 -14 25.9213 47.0167   2
   1   3 -16 83.0583 65.8973   5
   1   3 -16-27.7760 37.3180   1
   1   3 -15 219.781 97.6942   5
   1   3 -15 110.860 72.6958   1
   1   3 -14 1328.65 241.258   5
   1   3 -14 1271.78 225.692   1
   1   3 -14 1131.29 191.322   3
   1   3 -13 3038.56 311.273   3
   1   3 -13 2834.69 330.725   1
   1   3 -12 4800.73 382.444   3
   1   3 -12 3750.89 382.890   1
   1   3 -11 5375.67 410.318   1
   1   3 -11 5258.94 393.260   3
   1   3 -10 980.291 173.275   1
   1   3 -10 1338.21 175.197   3
   1   3  -9 3252.43 294.002   1
   1   3  -9 3468.92 282.359   3
   1   3  -8 17276.0 766.056   3
   1   3  -8 16903.9 746.513   1
   1   3  -7 2736.81 231.305   3
   1   3  -7 2304.51 211.177   1
   1   3  -6 2889.22 201.170   1
   1   3  -6 2728.85 228.000   3
   1   3  -5 281.161 66.5870   3
  -1  -3   5 189.612 34.5168   1
   1   3  -5 155.895 39.2294   1
   1   3  -4 20.7075 19.1713   3
   1   3  -4 15.3424 9.65001   1
  -1  -3   4 37.9575 13.1256   1
  -1  -3   3 5528.06 212.251   1
   1   3  -3 5002.63 285.800   3
   1   3  -2 10914.5 431.712   3
  -1  -3   2 8720.90 337.375   1
   1   3  -1 8439.14 369.216   3
  -1  -3   0 16175.5 576.801   3
   1   3   0 16886.5 550.732   4
   1   3   0 15073.8 583.630   3
  -1  -3   0 15292.2 531.925   1
   1   3   1 16933.8 615.622   3
  -1  -3  -1 17538.2 590.611   1
  -1  -3  -1 18241.7 604.254   3
   1   3   2 11216.1 423.952   4
  -1  -3  -2 10941.5 382.543   3
  -1  -3  -2 11184.8 411.945   1
   1   3   2 10963.3 400.993   3
   1   3   3 669.619 60.2468   3
  -1  -3  -3 836.294 85.0085   1
  -1  -3  -3 673.394 54.8577   3
  -1  -3  -4 12666.4 464.768   1
   1   3   4 9382.72 348.610   3
  -1  -3  -5 1187.52 98.1988   5
  -1  -3  -5 2112.31 162.608   1
  -1  -3  -6 9085.65 430.319   1
  -1  -3  -6 8164.46 344.886   5
  -1  -3  -7 3626.96 217.473   5
  -1  -3  -7 4571.29 290.954   1
  -1  -3  -8 28353.2 985.677   5
  -1  -3  -8 25573.3 1066.90   1
  -1  -3  -9 1245.73 169.349   1
  -1  -3  -9 1657.45 153.659   5
  -1  -3 -10 19.0771 11.6118   1
  -1  -3 -11 3183.87 319.637   1
  -1  -3 -12 651.180 154.991   1
  -1  -3 -13 776.705 182.934   1
   1   4 -16 87.8318 67.2742   5
   1   4 -15 22.6762 39.3635   5
   1   4 -14 2171.63 291.283   1
   1   4 -14 2333.89 291.129   3
   1   4 -13 4089.28 380.966   3
   1   4 -13 4163.70 393.752   1
   1   4 -12 65.3639 50.5080   1
   1   4 -12 29.6184 13.4584   3
   1   4 -11 125.710 50.8718   1
   1   4 -11 44.2317 44.5235   3
   1   4 -10 841.129 149.742   3
   1   4 -10 940.861 146.098   1
   1   4  -9 129.107 59.8049   3
   1   4  -9 145.978 53.6529   1
   1   4  -8 2399.78 211.454   1
   1   4  -8 2811.89 262.240   3
   1   4  -7 700.890 119.839   3
   1   4  -7 637.556 90.2756   1
   1   4  -6 29.6714 33.8144   3
   1   4  -6-4.07006 11.2035   1
  -1  -4   6 7.34982 6.65205   1
  -1  -4   5 123.068 23.1598   1
   1   4  -5 118.328 49.6907   3
   1   4  -5 93.1564 33.4775   1
   1   4  -5 177.043 61.1837   6
  -1  -4   4 2174.60 100.197   1
   1   4  -4 2472.43 199.336   3
   1   4  -3 89232.5 2885.91   3
   1   4  -2 144222. 4520.15   3
  -1  -4   1 520.510 36.6417   1
   1   4  -1 636.282 82.0350   3
   1   4   0 5093.45 275.306   3
  -1  -4   0 5951.20 224.209   1
   1   4   0 5597.39 237.587   4
   1   4   1 1824.21 121.435   4
  -1  -4  -1 1838.56 110.535   1
   1   4   1 1544.78 123.736   3
   1   4   1 1641.74 130.702   5
  -1  -4  -2 4386.09 220.695   1
   1   4   2 4800.69 239.118   4
   1   4   2 4147.55 220.767   3
  -1  -4  -2 4196.94 218.064   3
   1   4   3 9.07739 11.2815   3
  -1  -4  -3 30.9738 16.7597   1
   1   4   3 13.6788 9.20301   5
   1   4   4 15.7358 9.79083   3
  -1  -4  -4 18.3921 17.4232   1
   1   4   4 24.7039 11.4116   5
   1   4   5 53.7740 15.0603   3
  -1  -4  -5 73.1405 28.9220   1
  -1  -4  -6 2596.39 210.183   1
  -1  -4  -6 2518.88 137.928   5
  -1  -4  -7 4222.08 274.704   1
  -1  -4  -7 1473.40 122.034   5
  -1  -4  -8 21523.7 924.290   1
  -1  -4  -9 509.021 109.292   1
  -1  -4 -10 62.9134 50.5098   1
  -1  -4 -11 7.60508 14.7832   1
  -1  -4 -12 387.321 121.451   1
  -1  -4 -13 147.049 89.2899   1
   1   5 -15 17.5856 34.2819   3
   1   5 -14 64.7900 45.5261   3
   1   5 -13 2884.76 325.264   3
   1   5 -12 1404.40 229.537   3
   1   5 -11 3032.21 325.193   3
   1   5 -11 3859.41 318.926   1
   1   5 -10 4211.52 373.829   3
   1   5 -10 4971.48 344.226   1
   1   5  -9 5457.87 344.286   1
   1   5  -9 5738.25 423.550   3
   1   5  -8 386.257 101.765   3
   1   5  -8 471.184 83.2347   1
   1   5  -7 10599.2 575.144   3
   1   5  -7 10385.8 467.661   1
  -1  -5   6 1018.22 91.0407   4
   1   5  -6 1227.55 194.057   6
   1   5  -6 810.066 91.3287   1
   1   5  -6 1421.05 171.608   3
  -1  -5   5 1169.50 87.2818   4
   1   5  -5 1130.30 177.534   6
   1   5  -5 1116.61 142.991   3
   1   5  -4 11558.3 648.148   6
   1   5  -4 11974.3 565.443   3
   1   5  -3 41241.3 1549.78   6
   1   5  -3 36552.6 1355.44   3
   1   5  -2 31.8857 17.4256   3
  -1  -5   1 4648.57 174.372   1
   1   5  -1 3202.75 234.100   3
  -1  -5   0 1268.44 85.0532   1
   1   5   0 1133.21 84.1748   4
   1   5   0 1220.01 121.518   3
   1   5   1 6283.78 311.121   3
  -1  -5  -1 6157.23 269.582   1
   1   5   1 6797.43 288.777   4
   1   5   2 17.4100 16.3170   5
   1   5   2 20.9820 10.3373   3
  -1  -5  -2 32.3617 18.2814   1
  -1  -5  -3 1752.49 141.422   1
   1   5   3 1481.92 139.752   5
   1   5   3 1690.50 129.312   3
  -1  -5  -4 11561.4 517.113   1
   1   5   4 11602.7 472.106   5
   1   5   4 12043.3 466.926   3
  -1  -5  -5 1059.02 126.137   1
   1   5   5 923.301 86.9797   3
  -1  -5  -6 19478.2 823.825   1
  -1  -5  -7 417.498 93.5721   1
  -1  -5  -8 810.425 151.657   1
  -1  -5  -9 2105.62 246.939   1
  -1  -5 -10 645.102 145.909   1
  -1  -5 -11 5031.53 451.730   1
  -1  -5 -12 323.390 119.196   1
   1   6 -15 1793.64 284.740   3
   1   6 -14 77.8304 49.4507   3
   1   6 -13 21.1090 26.6092   3
   1   6 -12 12.6880 27.0962   3
   1   6 -11 188.079 93.0208   3
   1   6 -10 48.6631 43.8513   3
   1   6  -9 2069.03 252.339   3
   1   6  -8 886.263 157.342   3
   1   6  -7 436.062 105.667   3
   1   6  -7 346.202 113.492   6
   1   6  -7 101.175 47.8746   1
   1   6  -6 143.383 59.7495   3
   1   6  -6 273.937 103.664   6
  -1  -6   6 175.331 34.3434   4
   1   6  -5 8964.17 504.482   3
   1   6  -5 9667.33 604.183   6
   1   6  -4 16873.9 736.822   3
   1   6  -4 15363.0 846.425   6
   1   6  -3 3193.65 330.632   6
   1   6  -3 2980.92 239.648   3
   1   6  -2 7077.44 502.019   6
   1   6  -2 6555.28 377.205   3
   1   6  -1 3663.50 327.210   6
   1   6  -1 3370.40 221.823   3
  -1  -6   0 5435.70 256.881   1
   1   6   0 5792.00 323.156   3
   1   6   0 5315.93 233.271   4
   1   6   0 5959.98 453.514   6
   1   6   1 4836.90 426.619   6
  -1  -6  -1 4187.18 231.541   1
   1   6   1 4615.68 235.138   4
   1   6   1 4422.48 268.804   3
  -1  -6  -2 19975.9 775.597   1
   1   6   2 20893.8 791.605   3
   1   6   2 22784.9 1075.83   6
   1   6   3 3906.53 390.443   6
  -1  -6  -3 3389.11 234.592   1
   1   6   3 3831.86 229.316   3
  -1  -6  -4 2864.76 228.002   1
   1   6   4 3280.54 352.967   6
   1   6   4 3214.47 202.233   3
  -1  -6  -5 49.5255 35.6808   1
  -1  -6  -6 204.636 62.0513   1
  -1  -6  -7 943.783 167.503   1
  -1  -6  -8 101.939 64.8093   1
  -1  -6  -9 313.748 99.2676   1
  -1  -6 -10 832.680 169.619   1
  -1  -6 -11 123.529 68.7072   1
  -1  -6 -12 2629.91 348.253   1
   1   7 -15 44.8961 54.4576   3
   1   7 -14 207.650 102.670   3
   1   7 -13 127.300 102.011   3
   1   7 -12 872.570 194.821   3
   1   7 -11 702.275 165.041   3
   1   7 -10 916.412 180.443   3
   1   7  -9 2764.40 312.036   3
   1   7  -8 2674.54 291.879   3
   1   7  -7 3731.84 401.356   6
   1   7  -7 3151.34 308.980   3
   1   7  -6 2484.23 309.998   6
   1   7  -6 2052.64 239.893   3
   1   7  -5 531.041 116.598   3
   1   7  -5 283.245 100.639   6
   1   7  -4 335.308 82.3089   3
   1   7  -4 355.710 113.208   6
   1   7  -3 1919.73 199.448   3
   1   7  -3 1908.38 272.438   6
   1   7  -2 430.452 88.0448   3
   1   7  -2 551.705 140.296   6
   1   7  -1 664.961 110.155   3
   1   7  -1 825.263 170.403   6
  -1  -7   0 1501.18 121.015   1
   1   7   0 1920.70 181.887   3
   1   7   0 1795.52 255.982   6
   1   7   1 531.450 90.2738   3
   1   7   1 413.683 139.340   6
  -1  -7  -1 645.094 82.7606   1
  -1  -7  -2 10742.3 502.914   1
   1   7   2 12102.6 784.876   6
   1   7   2 10959.6 510.593   3
   1   7   3 294.785 61.7567   3
   1   7   3 162.190 79.3265   6
  -1  -7  -3 311.662 70.9404   1
   1   7   4 4833.56 479.642   6
   1   7   4 4618.07 277.530   3
  -1  -7  -4 4681.40 319.806   1
  -1  -7  -5 11072.4 582.274   1
   1   7   5 11539.8 790.024   6
  -1  -7  -6 5076.19 377.062   1
  -1  -7  -7 580.319 121.364   1
  -1  -7  -8 5019.69 416.336   1
  -1  -7  -9 2714.16 315.914   1
  -1  -7 -10 789.871 175.323   1
  -1  -7 -11 976.891 207.879   1
   1   8 -13 135.719 83.8108   3
   1   8 -12 130.116 74.2299   3
   1   8 -11 43.5281 45.3708   3
   1   8 -10 386.223 122.961   3
   1   8  -9 818.913 179.474   3
   1   8  -8 580.461 149.371   3
   1   8  -8 607.414 179.291   6
   1   8  -7 3.95257 15.8729   3
   1   8  -7-41.4913 44.0412   6
   1   8  -6 3828.53 407.164   6
   1   8  -6 2982.69 314.134   3
   1   8  -5 159.955 80.9170   6
   1   8  -5 183.819 74.3245   3
   1   8  -4 164.336 73.0897   3
   1   8  -4 279.196 113.205   6
   1   8  -3 1186.13 223.014   6
   1   8  -3 1329.17 177.162   3
   1   8  -2 1126.72 158.151   3
   1   8  -2 1325.60 235.713   6
   1   8  -1 17.8665 15.2553   3
   1   8  -1-14.5918 18.7759   6
   1   8   0 13219.7 843.397   6
   1   8   0 14092.7 661.086   3
   1   8   1 8287.70 641.062   6
   1   8   1 7822.26 441.071   3
   1   8   2 642.100 179.877   6
   1   8   2 669.744 106.806   3
  -1  -8  -2 548.419 90.3043   1
  -1  -8  -3 1073.81 138.926   1
   1   8   3 1060.59 136.375   3
   1   8   3 1192.85 258.038   6
  -1  -8  -4 1410.82 172.759   1
   1   8   4 1299.17 260.452   6
  -1  -8  -5 6148.84 424.423   1
   1   8   5 7161.68 645.635   6
   1   8   6 874.197 215.786   6
  -1  -8  -6 913.511 160.483   1
   1   8   7 278.494 115.927   6
  -1  -8  -7 202.224 83.1985   1
  -1  -8  -8 124.590 73.1954   1
  -1  -8  -9 226.966 100.274   1
  -1  -8 -10 318.798 121.850   1
   1   9 -12 74.0160 65.3433   3
   1   9 -11-0.51553 32.8897   3
   1   9 -10 672.628 178.466   3
   1   9  -9 79.1271 54.6862   3
   1   9  -8 194.550 97.9635   3
   1   9  -8 438.238 149.493   6
   1   9  -7 20.7077 36.8071   3
   1   9  -7 38.5029 50.5157   6
   1   9  -6 1411.02 217.247   3
   1   9  -6 1779.55 283.405   6
   1   9  -5 1019.68 180.118   3
   1   9  -5 1314.90 246.899   6
   1   9  -4 37.3428 28.2506   6
   1   9  -4 151.668 64.0776   3
   1   9  -3 538.724 120.491   3
   1   9  -3 474.608 153.609   6
   1   9  -2 107.493 51.5762   3
   1   9  -2 71.6148 65.7222   6
   1   9  -1 1266.21 243.731   6
   1   9  -1 1532.24 197.367   3
   1   9   0 985.582 219.112   6
   1   9   0 967.800 152.408   3
   1   9   1 174.540 65.4086   3
   1   9   1 56.9208 59.0028   6
   1   9   2 507.828 103.152   3
   1   9   2 301.989 133.586   6
   1   9   3 1722.36 320.530   6
   1   9   4 365.125 155.077   6
   1   9   5 308.186 134.790   6
   1   9   6 3433.03 474.367   6
   1   9   7 1911.03 356.739   6
   1  10 -10 627.425 178.903   3
   1  10  -9 245.399 109.694   3
   1  10  -9 144.031 114.918   6
   1  10  -8 268.773 111.476   3
   1  10  -8 156.841 97.0477   6
   1  10  -7 1085.92 256.052   6
   1  10  -7 1108.85 213.384   3
   1  10  -6 370.047 121.524   3
   1  10  -6 250.776 118.832   6
   1  10  -5 186.659 85.7367   3
   1  10  -5 185.925 81.1573   6
   1  10  -4 4.97144 17.2377   6
   1  10  -4-43.2696 40.6991   3
   1  10  -3 37.6042 36.0567   3
   1  10  -3 11.7716 48.2202   6
   1  10  -2 670.080 140.993   3
   1  10  -2 648.529 187.096   6
   1  10  -1 3288.43 317.405   3
   1  10  -1 3296.40 431.333   6
   1  10   0 65.1748 66.2655   6
   1  10   0 117.599 54.8882   3
   1  10   1 46.6608 39.3057   3
   1  10   1 80.0694 68.0610   6
   1  10   2 776.631 238.827   6
   1  10   3 314.752 150.334   6
   1  10   4 388.704 173.620   6
   1  10   5 689.008 224.962   6
   1  11  -9 147.832 98.8697   6
   1  11  -8 89.6413 56.0357   6
   1  11  -7 185.639 91.9892   3
   1  11  -7 223.372 121.936   6
   1  11  -6 197.533 90.6065   3
   1  11  -6 186.783 101.713   6
   1  11  -5 80.1572 42.9585   3
   1  11  -5 62.2282 58.2290   6
   1  11  -4 10.4365 17.4479   3
   1  11  -4 100.533 73.3821   6
   1  11  -3 183.160 99.2022   6
   1  11  -3 166.685 78.6198   3
   1  11  -2 853.822 171.678   3
   1  11  -2 946.316 239.551   6
   1  11  -1 331.214 99.9855   3
   1  11  -1 187.953 106.004   6
   1  11   0 63.4028 37.5310   3
   1  11   0 178.416 105.280   6
   1  11   1 368.221 162.153   6
   1  11   2 244.135 126.077   6
   1  11   3 331.771 179.210   6
   1  12  -6 62.3348 82.3852   6
   1  12  -5 45.5544 38.6786   6
   1  12  -4 917.749 196.545   3
   1  12  -4 791.877 226.556   6
   1  12  -3 539.652 153.358   3
   1  12  -3 289.822 132.767   6
   1  12  -2 89.2881 54.5352   3
   1  12  -2 148.441 100.926   6
   1  12  -1 123.383 72.1653   3
  -2  12   4 66.8440 36.2331   6
  -2  12   3 55.2393 67.5216   6
  -2  12   2 269.541 88.3634   3
  -2  12   2 109.811 83.1470   6
  -2  12   1 1763.42 240.690   3
  -2  12   0-12.9960 21.1080   3
  -2  12  -1 160.881 71.1694   3
  -2  12  -2-17.5068 9.33205   3
  -2  12  -3 1584.38 242.431   3
  -2  12  -4 1441.75 237.258   3
  -2  11   6 1933.62 360.691   6
  -2  11   5 1586.82 322.690   6
  -2  11   4 3947.68 509.726   6
  -2  11   3 229.381 78.6021   3
  -2  11   3 171.425 100.852   6
  -2  11   2 381.773 101.602   3
  -2  11   2 339.265 134.041   6
  -2  11   1 1212.72 187.300   3
  -2  11   1 1158.65 240.317   6
  -2  11   0 2502.23 345.159   6
  -2  11   0 2856.05 300.036   3
  -2  11  -1 1898.22 247.299   3
  -2  11  -1 1556.68 270.309   6
  -2  11  -2 2307.70 275.338   3
  -2  11  -3 633.510 138.453   3
  -2  11  -4 87.5760 44.4591   3
  -2  11  -5 79.1627 43.4349   3
  -2  11  -6 123.838 72.5780   3
  -2  11  -7 144.241 79.0052   3
  -2  11  -8 494.411 139.486   3
  -2  10   5 1686.78 308.575   6
  -2  10   4 33.4594 25.3090   3
  -2  10   4 3.91475 14.7297   6
  -2  10   3 2820.82 380.486   6
  -2  10   3 2583.48 268.487   3
  -2  10   2 756.012 192.631   6
  -2  10   2 629.996 130.608   3
  -2  10   1 694.215 131.885   3
  -2  10   1 481.820 149.774   6
  -2  10   0 1791.17 271.904   6
  -2  10   0 2098.22 244.056   3
  -2  10  -1 353.884 119.234   6
  -2  10  -1 334.944 95.5258   3
  -2  10  -2 20172.0 1065.86   6
  -2  10  -2 19077.3 934.555   3
  -2  10  -3 2459.69 318.296   6
  -2  10  -3 2163.27 257.656   3
  -2  10  -4 487.428 128.241   3
  -2  10  -5 1517.70 215.817   3
  -2  10  -6 954.757 173.939   3
  -2  10  -7 380.442 113.685   3
  -2  10  -8 1492.61 227.607   3
  -2  10  -9 1957.57 275.799   3
  -2  10 -10 853.933 183.994   3
   2  -9 -10-34.9675 44.0342   1
   2  -9  -9 1274.36 259.246   1
   2  -9  -8 3491.35 415.318   1
   2  -9  -6 5354.16 471.241   5
   2  -9  -5 6719.41 530.080   5
  -2   9   5 6417.38 419.256   3
  -2   9   4 1436.84 252.630   6
   2  -9  -4 1625.38 244.165   5
  -2   9   4 1757.31 203.223   3
  -2   9   3 269.046 75.6708   3
  -2   9   3 111.429 68.4094   6
   2  -9  -3 333.380 111.417   5
  -2   9   2 3059.51 370.803   6
  -2   9   2 4593.36 346.959   3
  -2   9   1 7558.08 606.996   6
  -2   9   1 8902.80 525.767   3
  -2   9   0 1362.87 223.713   6
  -2   9   0 1431.68 190.921   3
  -2   9  -1 5107.41 430.669   6
  -2   9  -1 5143.88 390.960   3
  -2   9  -2 1403.59 219.706   6
  -2   9  -2 1506.67 197.188   3
  -2   9  -3 1145.84 197.367   6
  -2   9  -3 1380.15 189.179   3
  -2   9  -4 3663.63 353.891   6
  -2   9  -4 3555.88 320.836   3
  -2   9  -5 15.8194 16.7939   3
  -2   9  -5 82.2571 52.5710   6
  -2   9  -6 47.0578 35.1114   3
  -2   9  -7 34.8344 41.0265   3
  -2   9  -8 18.0272 5.52191   3
  -2   9  -9 5222.63 444.840   2
  -2   9  -9 5139.75 436.492   3
  -2   9 -10 1735.83 261.948   2
  -2   9 -10 1730.08 249.028   3
  -2   9 -11 232.637 94.3229   3
  -2   9 -11 206.835 104.295   2
  -2   9 -12 91.4613 60.9144   3
  -2   9 -12 65.5239 65.1632   2
  -2   9 -13-35.3972 43.0089   2
   2  -8 -11 2761.85 406.825   1
   2  -8 -10 243.934 110.049   1
   2  -8  -9 387.514 141.483   1
   2  -8  -8 20.4757 17.7412   5
   2  -8  -8 30.3095 36.0129   1
   2  -8  -7 3139.57 371.676   1
   2  -8  -7 3608.03 373.519   5
   2  -8  -6 692.215 150.081   5
   2  -8  -6 615.865 148.468   1
  -2   8   6 667.052 114.665   3
   2  -8  -5 0.35498 11.2759   5
  -2   8   5-48.1873 42.1224   3
   2  -8  -4 4785.90 416.062   5
  -2   8   4 4778.41 342.496   3
   2  -8  -3 4848.72 417.106   5
  -2   8   3 4959.43 351.443   3
  -2   8   2 5004.39 424.786   6
   2  -8  -2 4691.29 409.947   5
  -2   8   2 4697.03 345.147   3
   2  -8  -1 5864.30 463.223   5
  -2   8   1 6130.58 478.660   6
  -2   8   1 5785.59 393.714   3
  -2   8   0 11562.5 611.310   3
  -2   8   0 11837.9 696.345   6
  -2   8  -1 13187.8 722.102   6
  -2   8  -1 14209.7 697.232   3
  -2   8  -2 1277.10 173.389   3
  -2   8  -2 1435.55 201.686   6
  -2   8  -2 1572.59 198.974   4
  -2   8  -3 4129.54 357.812   6
  -2   8  -3 3383.18 277.805   4
  -2   8  -3 4037.99 328.322   3
  -2   8  -4 2569.39 253.426   3
  -2   8  -4 1992.98 201.780   4
  -2   8  -4 2269.63 244.519   6
  -2   8  -5 2327.33 217.112   4
  -2   8  -5 2659.03 278.647   6
  -2   8  -5 2381.29 247.216   3
  -2   8  -6 795.307 116.668   4
  -2   8  -6 879.744 146.879   3
  -2   8  -6 735.983 144.765   6
  -2   8  -7 3209.25 253.914   4
  -2   8  -7 3138.18 294.657   3
  -2   8  -8 5823.53 430.630   3
  -2   8  -9 575.103 141.315   2
  -2   8  -9 933.500 167.062   3
  -2   8 -10 285.979 108.957   2
  -2   8 -10 22.7561 45.2462   3
  -2   8 -11 248.839 102.489   3
  -2   8 -11 271.131 116.041   2
  -2   8 -12 44.7018 27.2603   3
  -2   8 -12 95.4056 66.1872   2
  -2   8 -13 95.5513 47.3729   3
  -2   8 -13 293.756 126.495   2
  -2   8 -14 35.2615 32.9407   3
   2  -7 -11 72.2562 63.0022   1
   2  -7 -10 1015.58 228.535   1
   2  -7  -9 6108.21 527.727   5
   2  -7  -9 4950.68 509.286   1
   2  -7  -8 856.001 183.803   5
   2  -7  -8 611.229 162.722   1
   2  -7  -7 2104.50 295.012   1
   2  -7  -7 2122.81 292.408   5
   2  -7  -6 5483.37 478.812   1
   2  -7  -6 6434.34 515.304   5
   2  -7  -5 886.876 172.036   5
   2  -7  -5 647.399 146.243   1
   2  -7  -4 5044.51 421.476   5
   2  -7  -3 11215.6 657.195   5
   2  -7  -2 74.7257 39.4325   5
  -2   7   1 2260.87 244.879   6
   2  -7  -1 2260.38 259.901   5
  -2   7   0 3354.86 316.589   6
   2  -7   0 3742.08 342.540   5
  -2   7   0 3975.38 297.020   3
  -2   7  -1 1094.40 76.8043   2
  -2   7  -1 1187.99 161.676   6
  -2   7  -1 1249.29 160.295   3
  -2   7  -2 6811.60 441.309   4
  -2   7  -2 5780.71 382.772   3
  -2   7  -2 5556.04 275.042   2
  -2   7  -2 6138.94 404.600   6
  -2   7  -3 1474.27 171.150   4
  -2   7  -3 1580.75 143.481   2
  -2   7  -3 1686.89 196.927   6
  -2   7  -3 1640.17 185.989   3
  -2   7  -4 2985.40 251.278   4
  -2   7  -4 3486.18 279.054   6
  -2   7  -4 3713.44 256.706   2
  -2   7  -4 3564.27 289.077   3
  -2   7  -5 5422.70 360.887   4
  -2   7  -5 5670.51 387.711   6
  -2   7  -5 6016.77 396.395   3
  -2   7  -6 457.070 95.1774   3
  -2   7  -6 279.607 71.9082   4
  -2   7  -7 12706.7 601.851   4
  -2   7  -7 11720.9 673.891   2
  -2   7  -7 12956.1 562.260   1
  -2   7  -7 11739.5 635.050   3
  -2   7  -8 9517.64 587.017   2
  -2   7  -8 8964.50 453.240   1
  -2   7  -8 8576.38 518.460   3
  -2   7  -9 1286.51 146.200   1
  -2   7  -9 1080.15 190.507   2
  -2   7  -9 1570.38 200.743   3
  -2   7 -10 443.536 133.499   2
  -2   7 -10 148.931 81.6640   3
  -2   7 -11 152.549 75.8214   3
  -2   7 -11 457.155 141.561   2
  -2   7 -12 189.145 69.6927   3
  -2   7 -12 248.369 103.214   2
  -2   7 -13 100.503 54.5618   3
  -2   7 -13 121.553 75.8072   2
   2  -6 -12 858.219 224.492   1
   2  -6 -11 3289.87 425.623   1
   2  -6 -10 34.6501 22.3389   5
   2  -6 -10 124.242 75.3442   1
   2  -6  -9 2856.84 363.482   1
   2  -6  -9 2969.41 356.063   5
   2  -6  -8 411.996 122.907   5
   2  -6  -8 322.123 108.136   1
   2  -6  -7 1602.15 248.205   1
   2  -6  -7 1834.52 258.626   5
   2  -6  -6 430.330 119.184   5
   2  -6  -6 519.141 132.805   1
   2  -6  -5 112.062 63.4642   5
   2  -6  -5 70.2083 57.2471   1
   2  -6  -4 2220.36 266.417   5
   2  -6  -3 16896.0 845.669   5
   2  -6  -2 5672.50 419.259   5
   2  -6  -1 80.9321 37.0036   5
  -2   6   0 6078.43 385.741   6
   2  -6   0 6080.67 429.084   5
   2  -6   1 1813.39 218.274   5
  -2   6  -1 1644.04 101.378   2
  -2   6  -1 1729.24 182.525   6
  -2   6  -2 4894.52 364.798   4
  -2   6  -2 4061.26 226.948   2
  -2   6  -2 4670.37 311.971   6
  -2   6  -2 4591.73 313.580   3
  -2   6  -3 1680.55 181.734   4
  -2   6  -3 1600.47 144.657   2
  -2   6  -3 1519.75 167.071   6
  -2   6  -3 1639.99 174.990   3
  -2   6  -4 6440.75 371.302   6
  -2   6  -4 6084.43 376.313   3
  -2   6  -4 5062.64 341.717   4
  -2   6  -4 5650.87 337.725   2
  -2   6  -5 4579.54 323.439   4
  -2   6  -5 4768.33 327.221   2
  -2   6  -5 5334.90 347.832   3
  -2   6  -6 7135.75 411.347   4
  -2   6  -6 7368.30 453.370   2
  -2   6  -6 7824.11 448.237   3
  -2   6  -7 23.9483 43.6291   2
  -2   6  -7-9.63199 14.2825   3
  -2   6  -7 5.28187 11.6732   1
  -2   6  -7-0.80825 17.1224   4
  -2   6  -8 118.782 39.7615   3
  -2   6  -8 164.791 52.2894   1
  -2   6  -8 182.858 76.7993   2
  -2   6  -9 4892.36 354.217   3
  -2   6  -9 4419.05 409.533   2
  -2   6  -9 4822.93 308.464   1
  -2   6 -10 155.360 75.1105   2
  -2   6 -10 100.253 52.6082   3
  -2   6 -10 42.2959 30.3615   1
  -2   6 -11 494.480 120.248   3
  -2   6 -11 650.036 119.296   1
  -2   6 -11 510.015 149.236   2
  -2   6 -12-2.67417 19.3563   1
  -2   6 -12 8.95682 16.5774   3
  -2   6 -12 18.5490 37.4362   2
  -2   6 -13 466.034 109.348   3
  -2   6 -13 192.505 104.699   2
  -2   6 -14 1219.46 265.902   2
   2  -5 -13 283.993 137.080   1
   2  -5 -12 151.776 83.4647   1
   2  -5 -11 2998.34 391.672   1
   2  -5 -11 3126.95 377.589   5
   2  -5 -10 717.163 168.169   5
   2  -5 -10 923.614 204.978   1
   2  -5 -10 922.391 154.155   2
   2  -5  -9 139.799 64.8214   5
   2  -5  -9 99.4462 56.0269   1
   2  -5  -9 39.4226 32.9535   2
   2  -5  -8 323.592 102.447   5
   2  -5  -8 442.032 127.378   1
   2  -5  -7 1860.71 172.675   2
   2  -5  -7 1568.80 244.061   1
   2  -5  -7 1760.33 237.284   5
   2  -5  -6 832.097 163.808   1
   2  -5  -6 1016.95 112.394   2
   2  -5  -6 883.257 164.282   5
   2  -5  -5 347.416 96.7482   1
   2  -5  -5 227.953 76.5550   5
   2  -5  -5 318.119 52.7389   2
   2  -5  -4 280.491 85.8982   1
   2  -5  -4 224.003 78.0182   5
   2  -5  -3 66.4167 31.2338   5
   2  -5  -2 2560.89 266.408   5
   2  -5  -1 224.982 71.2416   5
   2  -5   0 69.0782 39.7151   5
  -2   5   0 10.1766 7.04557   6
  -2   5  -1 13739.6 594.776   6
   2  -5   1 14028.0 692.126   5
  -2   5  -2 154.131 41.0889   6
  -2   5  -2 124.913 32.7863   2
  -2   5  -2 84.5492 40.6572   4
  -2   5  -3 31790.1 1215.38   4
  -2   5  -3 30592.6 1132.01   2
  -2   5  -3 32964.2 1125.96   6
  -2   5  -3 32338.3 1195.96   3
   2  -5   4 4864.43 280.715   6
  -2   5  -4 4696.21 305.863   3
  -2   5  -4 4524.81 310.304   4
  -2   5  -4 4498.64 293.986   2
  -2   5  -5 6526.45 372.888   3
  -2   5  -5 6153.12 375.589   4
  -2   5  -5 5710.86 370.195   2
   2  -5   5 5732.86 323.283   6
  -2   5  -6 13167.3 621.992   4
  -2   5  -6 13547.2 677.083   2
  -2   5  -6 14145.6 637.291   3
  -2   5  -7 6142.72 354.560   1
  -2   5  -7 6012.40 431.016   2
  -2   5  -7 5814.80 364.930   4
  -2   5  -7 6343.00 371.164   3
  -2   5  -8 6831.88 504.029   2
  -2   5  -8 7525.54 432.719   3
  -2   5  -9 5829.32 377.031   1
  -2   5  -9 7239.98 522.411   2
  -2   5  -9 7155.56 414.868   3
  -2   5 -10 4334.93 307.335   1
  -2   5 -10 4037.89 402.113   2
  -2   5 -10 3424.18 295.565   3
  -2   5 -11 1487.65 252.577   2
  -2   5 -11 1396.06 177.588   3
  -2   5 -11 1419.35 175.419   1
  -2   5 -12 1926.13 217.945   1
  -2   5 -12 2604.16 348.422   2
  -2   5 -12 2533.41 240.685   3
  -2   5 -13 10.2312 58.3864   2
  -2   5 -13-71.4489 41.8543   1
  -2   5 -14-11.1834 17.8915   1
  -2   5 -14-64.1729 58.8007   2
  -2   5 -15 1072.88 191.169   1
   2  -4 -13-36.9272 60.4291   5
   2  -4 -13 0.52437 44.4500   2
   2  -4 -13-27.2230 38.6389   1
   2  -4 -12 93.1609 58.0590   5
   2  -4 -12 48.6502 57.4917   1
   2  -4 -12 100.969 61.1880   2
   2  -4 -11 1431.34 210.228   2
   2  -4 -11 1309.06 227.257   5
   2  -4 -11 1443.36 255.783   1
   2  -4 -10 2159.73 241.406   2
   2  -4 -10 2062.62 274.185   5
   2  -4 -10 1703.60 273.871   1
   2  -4  -9 39.7154 43.4962   5
   2  -4  -9 118.456 62.3719   1
   2  -4  -8 57.8147 56.4433   5
   2  -4  -8 83.3846 40.9328   1
   2  -4  -7 6472.81 370.574   2
   2  -4  -7 6268.81 470.570   5
   2  -4  -7 6339.76 493.848   1
   2  -4  -6 16716.2 855.820   5
   2  -4  -6 17631.7 698.223   2
   2  -4  -6 16863.4 878.455   1
   2  -4  -5 22509.0 821.198   2
   2  -4  -5 23488.5 1049.70   1
   2  -4  -5 21303.6 994.952   5
   2  -4  -4 30.7830 13.2854   1
   2  -4  -4 54.0782 37.0740   5
   2  -4  -4 13.9082 12.5296   2
   2  -4  -3 36754.2 1169.90   2
   2  -4  -3 37599.1 1454.00   5
   2  -4  -2 8568.94 509.555   5
   2  -4  -1 1323.69 174.344   5
   2  -4   0 33156.4 1282.82   5
  -2   4  -1 969.902 97.1266   6
   2  -4   1 956.150 136.348   5
   2  -4   2 10151.1 544.464   5
  -2   4  -2 11666.3 581.277   4
  -2   4  -2 10650.7 422.355   6
  -2   4  -2 10039.6 437.118   2
  -2   4  -3 9027.12 409.951   2
  -2   4  -3 9001.46 457.217   4
  -2   4  -4 5337.58 335.338   4
   2  -4   4 5060.46 254.854   6
  -2   4  -4 4974.83 320.496   2
  -2   4  -4 5587.97 319.971   3
   2  -4   5 1336.07 132.307   6
  -2   4  -5 1435.47 163.965   4
  -2   4  -5 1400.88 165.615   2
  -2   4  -5 1632.55 155.397   3
  -2   4  -6 1934.85 186.900   4
  -2   4  -6 2151.52 224.423   2
  -2   4  -6 2228.82 190.476   3
  -2   4  -7 4388.51 287.383   1
  -2   4  -7 4477.64 305.708   4
  -2   4  -7 4118.08 344.718   2
  -2   4  -7 4535.28 286.493   3
  -2   4  -8 2540.26 280.208   2
  -2   4  -8 2535.88 209.868   3
  -2   4  -8 2528.03 213.691   1
  -2   4  -9 10553.8 686.284   2
  -2   4  -9 12197.1 572.529   1
  -2   4  -9 12238.1 567.340   3
  -2   4 -10 37.6400 21.8210   3
  -2   4 -10 117.443 50.8553   1
  -2   4 -10 42.9425 47.4616   2
  -2   4 -11 2027.76 295.979   2
  -2   4 -11 2183.44 226.657   1
  -2   4 -12 3633.83 311.577   1
  -2   4 -12 3946.70 294.215   3
  -2   4 -13 1018.73 164.869   1
  -2   4 -13 999.539 235.280   2
  -2   4 -14 717.036 204.257   2
  -2   4 -14 857.914 156.427   1
  -2   4 -15 77.8353 56.2874   1
   2  -3 -15 350.672 125.682   2
   2  -3 -14 2477.13 357.845   5
   2  -3 -14 2956.46 356.553   2
   2  -3 -14 2539.28 390.487   1
   2  -3 -13 3479.60 436.601   1
   2  -3 -13 3638.34 377.322   2
   2  -3 -13 3060.60 385.558   5
   2  -3 -12 1005.38 215.325   5
   2  -3 -12 1583.77 229.806   2
   2  -3 -12 1605.99 273.116   1
   2  -3 -11 152.588 69.4957   5
   2  -3 -11 177.924 78.4778   1
   2  -3 -11 136.655 68.7092   2
   2  -3 -10 12681.7 796.689   1
   2  -3 -10 12859.5 780.318   5
   2  -3  -9 1967.01 258.162   5
   2  -3  -9 2145.97 278.726   1
   2  -3  -8 252.023 81.2367   5
   2  -3  -8 177.585 64.8004   1
   2  -3  -7 10027.3 626.052   1
   2  -3  -7 9236.84 568.773   5
   2  -3  -6 1319.51 194.073   1
   2  -3  -6 1141.52 167.748   5
   2  -3  -5 6898.47 468.431   1
   2  -3  -5 6123.63 412.763   5
   2  -3  -4 16043.7 768.543   1
   2  -3  -4 15366.8 749.295   5
   2  -3  -3 283.704 75.2217   5
   2  -3  -2 1266.12 159.390   5
   2  -3  -1 7266.21 432.310   5
   2  -3   0 16781.9 575.720   2
   2  -3   0 15830.5 734.962   5
   2  -3   1 31418.1 1067.22   2
  -2   3  -1 31679.0 1018.39   6
   2  -3   1 32765.0 1201.50   5
  -2   3  -2 70463.6 2320.62   4
   2  -3   2 63578.6 2247.68   5
  -2   3  -3 38.6309 22.4492   2
   2  -3   3 54.4275 14.7519   6
  -2   3  -3 60.1087 28.8201   4
  -2   3  -4 836.306 131.890   4
   2  -3   4 982.331 87.4822   6
  -2   3  -4 1106.94 132.294   2
  -2   3  -5 26326.0 1067.68   2
  -2   3  -5 28124.1 1008.35   3
   2  -3   5 29867.7 990.195   6
  -2   3  -6 6392.69 369.057   4
   2  -3   6 6100.47 352.860   6
  -2   3  -6 6296.31 432.463   2
  -2   3  -6 6626.43 341.027   3
  -2   3  -7 786.550 101.366   3
  -2   3  -7 753.220 139.490   2
  -2   3  -7 785.406 109.997   1
  -2   3  -8 1203.25 126.671   3
  -2   3  -8 959.989 166.770   2
  -2   3  -8 1289.30 145.189   1
  -2   3  -9 16131.6 874.610   2
  -2   3  -9 15482.7 715.314   1
  -2   3  -9 17223.6 685.221   3
  -2   3 -10 3860.82 261.826   3
  -2   3 -10 3992.22 397.575   2
  -2   3 -10 4128.19 308.714   1
  -2   3 -11 204.588 71.2961   1
  -2   3 -11 319.509 69.2144   3
  -2   3 -11 312.547 117.455   2
  -2   3 -12 5.59496 34.5010   2
  -2   3 -12 14.6334 15.7559   1
  -2   3 -13 9.30977 24.0327   1
  -2   3 -13 1.58524 10.1632   2
  -2   3 -14 103.196 59.0305   1
  -2   3 -14 124.980 83.8788   2
  -2   3 -15 525.875 136.533   1
   2  -2 -16 1027.02 225.419   2
   2  -2 -15 1315.23 249.540   2
   2  -2 -15 1721.19 303.321   5
   2  -2 -14 22.3279 39.1166   5
   2  -2 -14 14.9319 50.1403   1
   2  -2 -14 14.1431 21.5589   2
   2  -2 -13 28.0828 55.4805   5
   2  -2 -13-103.330 69.9679   1
   2  -2 -13 34.6913 37.5725   2
   2  -2 -12 2693.84 351.999   1
   2  -2 -12 2693.18 339.024   5
   2  -2 -11 85.4973 44.5136   5
   2  -2 -11 167.328 85.5312   1
   2  -2 -10 13267.5 799.082   1
   2  -2 -10 13317.2 782.397   5
   2  -2  -9 10473.6 665.301   1
   2  -2  -9 11152.1 669.033   5
   2  -2  -8 17948.8 907.398   1
   2  -2  -8 18076.1 892.212   5
   2  -2  -7 529.145 115.817   5
   2  -2  -7 612.844 126.672   1
   2  -2  -6 2250.55 236.712   5
   2  -2  -6 2285.58 265.481   1
   2  -2  -5 24477.8 1042.97   1
   2  -2  -5 22743.3 989.229   5
   2  -2  -4 145723. 4494.48   5
   2  -2  -4 132005. 4505.72   1
   2  -2  -3 1668.29 175.199   5
   2  -2  -2 25.9086 25.7847   5
   2  -2  -1 16454.4 708.273   5
   2  -2   0 4213.46 290.781   5
   2  -2   1 298.304 69.7281   5
   2  -2   1 410.659 59.6732   2
   2  -2   2 274.279 62.7721   5
  -2   2  -2 242.410 63.7561   4
   2  -2   2 285.739 54.5835   2
  -2   2  -3 16914.5 707.739   2
  -2   2  -3 17693.5 723.374   4
  -2   2  -4 3.52455 6.13222   4
  -2   2  -4 3.01960 13.0781   2
  -2   2  -5 23.4714 17.3613   4
  -2   2  -5 10.4330 9.28531   2
  -2   2  -6 28369.0 1078.27   4
  -2   2  -6 26149.0 1132.15   2
  -2   2  -6 29160.7 1000.71   3
  -2   2  -7 11359.6 630.734   2
  -2   2  -7 11054.7 482.249   3
  -2   2  -7 11965.2 543.022   1
  -2   2  -8 9641.29 608.312   2
  -2   2  -8 10217.1 506.617   1
  -2   2  -8 9934.44 432.511   3
  -2   2  -9 47.9908 19.8832   1
  -2   2  -9 91.3177 31.6067   3
  -2   2  -9 33.4797 34.8603   2
  -2   2 -10 6762.49 532.535   2
  -2   2 -10 7037.79 430.360   1
  -2   2 -10 6912.79 344.035   3
  -2   2 -11 1514.19 247.966   2
  -2   2 -11 1416.20 189.741   1
  -2   2 -12-10.7926 41.8640   2
  -2   2 -12 18.0935 25.9415   1
  -2   2 -13 15.9907 34.3904   1
  -2   2 -13 5.43747 36.7683   2
  -2   2 -14 588.418 132.278   1
  -2   2 -14 365.265 144.967   2
  -2   2 -15 593.250 141.718   1
   2  -1 -16 1467.99 292.924   2
   2  -1 -16 2251.06 362.094   5
   2  -1 -15 3333.99 397.355   2
   2  -1 -15 2640.92 403.385   1
   2  -1 -15 3145.01 412.281   5
   2  -1 -14 853.659 199.072   5
   2  -1 -14 916.679 219.348   1
   2  -1 -13 1705.56 280.675   1
   2  -1 -13 1572.80 258.063   5
   2  -1 -12 4877.21 446.522   5
   2  -1 -12 5629.90 507.958   1
   2  -1 -11 5471.16 479.109   1
   2  -1 -11 5111.86 432.224   5
   2  -1 -10 5519.98 451.617   1
   2  -1 -10 4033.33 380.065   5
   2  -1  -9 1361.55 207.662   1
   2  -1  -9 1130.14 181.865   5
   2  -1  -8 2852.53 289.352   1
   2  -1  -8 2302.74 250.072   5
   2  -1  -7 837.062 149.418   1
   2  -1  -7 734.355 126.650   5
   2  -1  -6 4573.76 374.545   1
   2  -1  -6 4239.77 318.620   5
   2  -1  -5 9836.60 523.356   5
   2  -1  -5 9777.12 549.606   1
   2  -1  -4 566.343 106.506   1
   2  -1  -4 729.415 116.994   5
   2  -1  -3 3063.49 240.019   5
   2  -1  -2 9612.11 468.027   5
   2  -1  -1 11991.7 550.329   5
  -2   1   1 13405.4 501.603   6
  -2   1   0 28790.7 966.179   6
   2  -1   0 30162.4 1070.25   5
  -2   1  -1 15249.6 650.863   4
   2  -1   1 13645.5 466.712   6
  -2   1  -1 14374.5 590.950   5
  -2   1  -2 6578.99 357.937   4
   2  -1   2 6302.18 263.375   6
   2  -1   2 6864.29 338.793   5
  -2   1  -2 7029.27 361.072   5
  -2   1  -3 21365.2 880.292   4
  -2   1  -3 24009.2 875.527   5
  -2   1  -4 627.045 100.259   4
  -2   1  -4 581.879 88.4257   5
  -2   1  -5 7510.67 395.878   4
  -2   1  -6 135.939 44.2496   1
  -2   1  -6 126.969 30.7517   3
  -2   1  -7 4928.15 391.118   2
  -2   1  -7 5367.81 262.082   3
  -2   1  -7 5863.35 336.194   1
  -2   1  -8 4248.82 375.266   2
  -2   1  -8 4438.65 298.153   1
  -2   1  -8 4235.77 225.651   3
  -2   1  -9 9104.76 632.381   2
  -2   1  -9 9500.58 531.046   1
  -2   1 -10 1808.28 204.366   1
  -2   1 -10 1837.74 266.991   2
  -2   1 -11 22.7636 55.7791   2
  -2   1 -11 57.5362 35.6940   1
  -2   1 -12 42.6701 32.5880   1
  -2   1 -12-4.23832 31.0417   2
  -2   1 -13 259.612 83.1614   1
  -2   1 -13 227.617 96.9775   2
  -2   1 -14 930.751 171.727   1
  -2   1 -14 945.383 225.306   2
   2   0 -16 119.688 81.7409   5
   2   0 -15 433.298 146.008   5
   2   0 -15 475.246 167.696   1
   2   0 -14 85.6036 58.0129   5
   2   0 -14 262.833 116.380   1
   2   0 -13 283.200 108.522   5
   2   0 -13 385.643 126.155   1
   2   0 -12-11.4490 33.1585   5
   2   0 -12 203.665 95.9729   1
   2   0 -11 918.706 180.554   5
   2   0 -11 869.011 175.479   1
   2   0 -10 8352.62 570.970   1
   2   0 -10 8378.71 560.482   5
   2   0  -9 237.222 81.3826   5
   2   0  -9 196.853 74.6985   1
   2   0  -8 1.30716 22.4202   5
   2   0  -8 6.66157 23.4251   1
   2   0  -7 400.184 94.9397   5
   2   0  -7 311.203 101.738   1
   2   0  -6 43631.7 1624.98   1
   2   0  -6 41455.6 1565.20   5
   2   0  -5 42.2149 21.4253   1
   2   0  -5 10.9858 23.6819   5
   2   0  -4 82.6554 35.9156   5
   2   0  -3 152.743 52.3825   5
  -2   0   2 61059.6 1951.23   6
   2   0  -2 56585.8 1966.49   5
  -2   0   1 42040.7 1492.15   6
   2   0  -1 46635.3 1499.56   6
   2   0  -1 46143.4 1535.60   5
   2   0   0 3850.90 217.098   6
  -2   0   0 4341.10 225.370   6
   2   0   0 4082.77 236.351   5
  -2   0   0 4566.43 247.133   5
  -2   0  -1 17941.1 722.274   4
   2   0   1 17123.5 634.376   6
   2   0   1 17956.1 666.544   5
  -2   0  -1 16823.3 654.855   5
  -2   0  -2 53917.9 1761.51   4
   2   0   2 54230.6 1699.79   6
   2   0   2 53696.7 1699.76   5
  -2   0  -3 947.467 117.332   4
  -2   0  -3 1096.78 105.889   5
  -2   0  -4 19017.9 662.170   4
  -2   0  -4 12460.7 562.667   5
  -2   0  -5 50698.7 1912.62   1
  -2   0  -5 56435.6 1933.84   4
  -2   0  -6 796.647 96.8740   5
  -2   0  -6 768.570 108.930   1
  -2   0  -6 977.177 75.1106   3
  -2   0  -7 15065.1 640.787   1
  -2   0  -7 14165.6 501.881   3
  -2   0  -8 5346.25 439.118   2
  -2   0  -8 5397.97 352.059   1
  -2   0  -8 6153.04 243.999   3
  -2   0  -9 7780.47 315.365   3
  -2   0  -9 8679.82 477.289   1
  -2   0  -9 7949.46 579.550   2
  -2   0 -10 149.946 58.5384   1
  -2   0 -10 115.357 57.5201   2
  -2   0 -11 2116.00 251.753   1
  -2   0 -11 2883.07 360.925   2
  -2   0 -12 1180.50 187.176   1
  -2   0 -12 1446.00 264.676   2
  -2   0 -13 1929.91 355.592   2
  -2   0 -13 2439.24 274.015   1
  -2   0 -14 135.395 66.6763   1
  -2   0 -14 43.5666 14.3045   2
   2   1 -16 73.2788 76.8058   5
   2   1 -16 36.3387 39.8049   1
   2   1 -15 1118.65 239.048   5
   2   1 -15 1577.36 294.816   1
   2   1 -14 175.844 89.0841   5
   2   1 -14 132.490 77.8695   1
   2   1 -13 1000.20 203.647   5
   2   1 -13 872.652 194.449   1
   2   1 -12 217.084 81.1321   5
   2   1 -12 211.543 90.1452   1
   2   1 -11 248.346 89.5595   5
   2   1 -11 221.686 84.8635   1
   2   1 -10 5792.77 447.300   1
   2   1 -10 4734.82 420.027   5
   2   1  -9 1446.32 202.208   1
   2   1  -9 1082.26 180.069   5
   2   1  -8 5990.25 438.027   1
   2   1  -8 5828.53 418.261   5
   2   1  -7 110.811 53.9488   5
   2   1  -7 67.2244 46.1930   1
   2   1  -6 14538.0 678.442   1
   2   1  -6 12079.4 624.516   5
   2   1  -5 7637.70 438.765   1
   2   1  -5 7225.08 418.221   5
   2   1  -4 34495.8 1271.24   5
   2   1  -3 367.632 70.8428   5
   2   1  -2 24550.4 905.802   5
  -2  -1   1 6493.87 307.325   5
  -2  -1   1 6440.44 339.272   6
   2   1  -1 5910.55 326.288   6
   2   1  -1 5641.45 298.896   5
  -2  -1   0 12601.3 598.793   4
   2   1   0 13969.4 593.911   6
  -2  -1   0 14386.1 614.597   6
   2   1   0 14318.5 558.107   5
  -2  -1   0 15909.2 572.764   5
  -2  -1  -1 3734.20 223.221   4
   2   1   1 3422.86 226.780   6
   2   1   1 3179.58 182.325   5
  -2  -1  -1 3132.39 170.931   5
  -2  -1  -2 1869.07 173.276   4
   2   1   2 2383.42 201.821   6
   2   1   2 2323.46 142.653   5
  -2  -1  -3 13519.8 521.561   4
  -2  -1  -3 10486.0 425.077   5
  -2  -1  -4 16044.9 552.728   5
  -2  -1  -4 14457.5 631.377   4
  -2  -1  -5 11.2882 10.6248   5
  -2  -1  -5 3.12768 15.0985   1
  -2  -1  -6 5324.65 239.873   5
  -2  -1  -6 5616.71 313.476   1
  -2  -1  -7 2764.10 224.111   1
  -2  -1  -7 2766.46 178.721   5
  -2  -1  -8 10163.6 482.059   1
  -2  -1  -8 6373.00 360.953   5
  -2  -1  -9 1386.63 135.181   5
  -2  -1  -9 1213.88 166.890   1
  -2  -1 -10 200.431 71.9536   1
  -2  -1 -11 24.4640 33.9001   1
  -2  -1 -12 146.035 67.7286   1
  -2  -1 -13 507.968 126.383   1
  -2  -1 -14 454.267 132.306   1
   2   2 -16 181.944 98.7363   5
   2   2 -16 97.6650 74.1136   1
   2   2 -15 669.263 179.652   5
   2   2 -15 605.406 181.859   1
   2   2 -14 688.407 183.563   5
   2   2 -14 580.219 179.365   1
   2   2 -13 897.223 206.136   5
   2   2 -13 1131.07 221.315   1
   2   2 -12 493.956 144.058   5
   2   2 -12 365.029 116.250   1
   2   2 -11 7503.11 565.863   5
   2   2 -11 8951.23 591.228   1
   2   2 -10 1426.56 215.067   5
   2   2 -10 1770.49 232.924   1
   2   2  -9 507.842 126.840   1
   2   2  -9 808.155 150.971   5
   2   2  -9 714.554 130.791   3
   2   2  -8 5533.12 403.808   5
   2   2  -8 4514.15 357.243   3
   2   2  -8 5380.13 390.272   1
   2   2  -7 949.407 148.898   5
   2   2  -7 1115.31 156.256   3
   2   2  -7 968.296 145.452   1
   2   2  -6 4845.97 342.594   5
   2   2  -6 4605.29 329.434   3
   2   2  -6 5096.21 338.988   1
   2   2  -5 378.762 81.3979   5
   2   2  -5 362.317 82.8428   3
   2   2  -4 45.4716 33.1143   5
   2   2  -4 74.1089 43.4524   3
   2   2  -3 1611.29 155.035   5
   2   2  -3 1610.49 159.936   3
  -2  -2   3 1907.64 172.480   1
   2   2  -2 35277.9 1268.89   3
   2   2  -2 35576.8 1240.59   5
   2   2  -1 45655.4 1466.38   3
   2   2  -1 46306.0 1426.76   5
  -2  -2   0 1227.02 112.377   4
   2   2   0 1104.67 97.5890   5
   2   2   1 3982.70 291.585   6
  -2  -2  -1 4374.39 247.748   4
   2   2   1 3626.98 265.686   4
  -2  -2  -1 4193.82 231.501   3
   2   2   1 4676.94 215.867   5
  -2  -2  -2 3303.83 187.264   3
  -2  -2  -2 3346.55 205.566   4
   2   2   2 2926.31 248.731   6
   2   2   2 3311.93 155.093   5
  -2  -2  -3 7.86556 5.71001   3
  -2  -2  -3 30.3198 21.6033   4
  -2  -2  -4 160.746 29.1430   3
  -2  -2  -4 179.273 47.6516   1
  -2  -2  -5 2327.54 100.595   3
  -2  -2  -5 2668.13 199.394   1
  -2  -2  -6 927.365 119.578   1
  -2  -2  -7 2489.95 136.501   5
  -2  -2  -7 3571.17 150.088   5
  -2  -2  -8 191.060 59.6969   1
  -2  -2  -8 168.326 32.0394   5
  -2  -2  -9 3026.17 269.168   1
  -2  -2 -10 6293.00 426.977   1
  -2  -2 -11 2249.14 247.592   1
  -2  -2 -12 520.813 120.569   1
  -2  -2 -13 28.4928 31.1773   1
   2   3 -15 76.3654 62.4650   5
   2   3 -15-70.7799 59.2898   1
   2   3 -14 139.370 74.8400   5
   2   3 -14 79.4862 60.6828   1
   2   3 -13 86.4491 71.1375   5
   2   3 -13-75.2820 54.7822   1
   2   3 -12 2074.82 292.003   5
   2   3 -12 2009.91 271.401   1
   2   3 -11 323.668 110.294   5
   2   3 -11 96.3492 65.2047   1
   2   3 -11 231.760 85.2154   3
   2   3 -10 553.352 127.792   3
   2   3 -10 445.779 120.002   1
   2   3  -9 1330.26 188.002   3
   2   3  -9 819.278 180.877   1
   2   3  -8 6572.32 435.409   3
   2   3  -8 5690.92 403.473   1
   2   3  -7 300.285 77.2110   1
   2   3  -7 468.428 100.330   3
   2   3  -6 8879.32 500.570   3
   2   3  -5 762.794 117.777   3
   2   3  -4 1669.59 178.121   3
  -2  -3   4 2422.95 176.685   1
   2   3  -3 26929.8 903.122   3
  -2  -3   3 17910.9 801.002   1
   2   3  -2 1733.26 166.399   3
  -2  -3   1 1316.38 109.292   4
   2   3  -1 1297.56 137.023   3
   2   3   0 431.080 60.7707   5
  -2  -3   0 392.600 58.8186   4
   2   3   0 427.804 72.9794   3
  -2  -3  -1 16984.1 615.735   4
   2   3   1 19156.4 719.343   4
   2   3   1 17456.6 660.091   3
  -2  -3  -2 493.113 70.6477   1
  -2  -3  -2 451.251 57.0410   3
   2   3   2 410.234 40.6749   5
  -2  -3  -3 17582.2 627.284   3
  -2  -3  -3 19007.0 704.760   1
  -2  -3  -4 13358.5 569.510   1
  -2  -3  -4 13622.5 475.352   3
  -2  -3  -5 570.637 88.5678   1
  -2  -3  -5 428.121 33.9339   3
  -2  -3  -6 1071.66 134.051   1
  -2  -3  -7 14.3142 24.1518   1
  -2  -3  -8 97.1307 53.4916   1
  -2  -3  -9 11202.2 598.717   1
  -2  -3 -10 1932.67 220.900   1
  -2  -3 -11 272.363 87.5242   1
  -2  -3 -12 356.971 103.672   1
  -2  -3 -13 166.361 79.9331   1
   2   4 -15 214.398 102.167   5
   2   4 -14 16.9540 62.1088   5
   2   4 -13 2425.44 332.350   5
   2   4 -13 2050.78 283.610   3
   2   4 -13 1785.88 288.334   1
   2   4 -12 6519.23 513.540   3
   2   4 -12 5967.63 491.481   1
   2   4 -11 3443.24 344.799   3
   2   4 -11 2539.66 291.591   1
   2   4 -10 6944.58 481.893   3
   2   4 -10 4181.42 377.030   1
   2   4  -9 194.868 72.4547   3
   2   4  -9 144.712 59.9055   1
   2   4  -8 305.273 89.2639   3
   2   4  -8 435.410 95.2664   1
   2   4  -7 2580.50 258.753   3
   2   4  -6 22.3352 24.7069   3
   2   4  -6-2.70347 32.6729   6
  -2  -4   5 1173.19 103.489   1
   2   4  -5 904.043 139.100   3
   2   4  -4 136.511 49.1349   3
  -2  -4   4 81.3695 38.0838   1
   2   4  -3 96293.9 2625.29   3
  -2  -4   3 67292.5 2438.79   1
  -2  -4   2 52238.4 1609.53   4
   2   4  -2 45793.8 1731.59   3
  -2  -4   1 15053.8 551.907   4
   2   4  -1 16568.3 675.768   3
  -2  -4   0 454.047 54.7781   4
   2   4   0 437.777 80.0928   3
   2   4   1 683.559 106.755   4
   2   4   1 701.996 96.6641   3
  -2  -4  -1 690.154 79.5806   1
   2   4   2 727.582 93.8314   3
   2   4   2 557.708 58.3056   5
  -2  -4  -2 688.193 80.8651   1
   2   4   2 528.667 51.7927   5
   2   4   3 6562.62 469.727   6
   2   4   3 6012.72 317.936   3
  -2  -4  -3 6686.55 286.613   3
  -2  -4  -3 6227.27 320.754   1
  -2  -4  -4 1063.63 85.4741   3
  -2  -4  -4 1152.50 125.847   1
   2   4   4 1051.54 175.747   6
  -2  -4  -5 656.992 107.243   1
  -2  -4  -6 835.290 125.898   1
  -2  -4  -7 5705.12 365.294   1
  -2  -4  -8 5756.55 380.700   1
  -2  -4  -9 57.9227 41.8947   1
  -2  -4 -10 1626.87 210.778   1
  -2  -4 -11 364.640 102.949   1
  -2  -4 -12 2453.90 300.312   1
   2   5 -15 143.393 82.5719   3
   2   5 -14 2320.77 351.700   5
   2   5 -14 2281.16 321.902   3
   2   5 -13 85.2601 65.2987   3
   2   5 -12 255.712 97.8341   3
   2   5 -11 30.6823 54.3324   3
   2   5 -10 15.1136 31.8590   3
   2   5  -9 4178.64 366.629   3
   2   5  -9 2888.52 282.687   1
   2   5  -8 258.672 86.4429   3
   2   5  -7-17.9169 22.0805   3
   2   5  -6 555.020 121.563   3
  -2  -5   6 576.650 64.1284   1
   2   5  -6 854.264 169.134   6
  -2  -5   5 3903.71 174.027   1
   2   5  -5 3371.92 339.678   6
   2   5  -5 3012.80 284.206   3
   2   5  -4 29575.1 946.043   6
   2   5  -4 26377.0 776.848   3
  -2  -5   3 2503.27 116.837   4
   2   5  -3 3127.36 259.341   3
  -2  -5   3 2741.03 158.370   1
   2   5  -2 1201.63 152.188   3
   2   5  -1 21345.3 902.096   3
  -2  -5   1 22448.3 751.806   1
   2   5   0 1295.52 151.278   3
  -2  -5   0 1501.05 105.505   1
   2   5   1 3253.87 243.010   4
   2   5   1 3058.16 241.166   3
  -2  -5  -1 3516.41 195.147   1
   2   5   2 2588.99 305.713   6
  -2  -5  -2 2647.41 168.420   1
   2   5   2 2337.03 190.209   3
   2   5   3 8996.67 665.120   6
  -2  -5  -3 10003.5 448.347   1
   2   5   3 10159.2 464.838   3
   2   5   4 2529.30 304.169   6
  -2  -5  -4 2277.35 185.341   1
   2   5   4 2484.87 180.557   3
  -2  -5  -4 2226.11 145.433   3
   2   5   5 17.0204 21.2643   6
  -2  -5  -5 31.6257 27.0573   1
  -2  -5  -6 296.405 73.1081   1
  -2  -5  -7 9012.45 493.753   1
  -2  -5  -8 928.771 141.973   1
  -2  -5  -9 132.752 56.8178   1
  -2  -5 -10 793.826 153.099   1
  -2  -5 -11-86.3889 53.6051   1
  -2  -5 -12-12.8933 47.0779   1
   2   6 -15 409.753 142.359   3
   2   6 -14 2685.62 360.835   3
   2   6 -13 401.174 130.779   3
   2   6 -12 1129.21 214.231   3
   2   6 -11 221.604 90.1248   3
   2   6 -10 78.2643 44.6005   3
   2   6  -9 3540.25 367.056   3
   2   6  -8 968.364 178.456   3
   2   6  -7 1170.83 193.041   3
   2   6  -7 944.408 201.539   6
   2   6  -6 2988.65 355.442   6
   2   6  -6 2657.10 282.445   3
   2   6  -5 11392.8 639.854   3
   2   6  -5 11213.3 704.825   6
   2   6  -4 27.1986 38.2870   3
   2   6  -4 60.0681 42.8368   6
   2   6  -3 23706.6 1035.87   3
   2   6  -3 24332.1 1182.58   6
   2   6  -2 295.030 81.3678   3
  -2  -6   2 320.850 31.6699   1
   2   6  -2 305.698 111.327   6
  -2  -6   1 1517.35 94.0077   1
   2   6  -1 1511.09 180.317   3
   2   6  -1 1245.57 213.432   6
   2   6   0 226.563 68.0982   3
   2   6   0 235.455 86.1796   6
  -2  -6   0 200.064 36.2031   1
  -2  -6  -1 989.357 95.3599   1
   2   6   1 1177.18 204.592   6
   2   6   1 888.708 134.007   3
  -2  -6  -2 1960.19 152.332   1
   2   6   2 2241.30 301.842   6
   2   6   2 1726.61 176.172   3
   2   6   3 437.582 80.8719   3
  -2  -6  -3 315.666 63.2592   1
   2   6   3 307.334 115.284   6
   2   6   4 516.863 198.356   6
  -2  -6  -4 705.779 101.986   1
   2   6   4 984.995 116.370   3
   2   6   5 4008.14 440.916   6
  -2  -6  -5 4223.30 287.065   1
  -2  -6  -6 12757.6 623.139   1
   2   6   6 14172.4 893.246   6
  -2  -6  -7 800.655 130.847   1
  -2  -6  -8 994.090 157.371   1
  -2  -6  -9 2361.11 268.988   1
  -2  -6 -10 1221.06 205.555   1
  -2  -6 -11 750.416 179.527   1
   2   7 -14 328.605 121.099   3
   2   7 -13 72.0293 59.3783   3
   2   7 -12 145.497 63.4052   3
   2   7 -11 192.495 85.5959   3
   2   7 -10 531.255 152.840   3
   2   7  -9 45.9869 47.1939   3
   2   7  -8 557.312 138.316   3
   2   7  -8 585.059 168.449   6
   2   7  -7 203.934 87.9467   3
   2   7  -7 153.840 80.7431   6
   2   7  -6 2035.58 295.324   6
   2   7  -6 1766.54 242.301   3
   2   7  -5 12211.5 715.591   3
   2   7  -5 12328.3 781.890   6
   2   7  -4 1019.12 213.585   6
   2   7  -4 1042.43 173.883   3
   2   7  -3 1594.99 264.035   6
   2   7  -3 1446.91 201.524   3
   2   7  -2 3319.61 303.917   3
   2   7  -2 2948.00 356.637   6
   2   7  -1 7812.02 566.734   6
   2   7  -1 7328.39 434.515   3
  -2  -7   0 2734.24 161.612   1
   2   7   0 3171.27 282.778   3
   2   7   0 3172.28 358.325   6
  -2  -7  -1 4759.19 253.311   1
   2   7   1 5267.55 492.341   6
   2   7   1 5501.68 369.030   3
  -2  -7  -2 6632.91 332.982   1
   2   7   2 6141.30 397.369   3
   2   7   3 438.632 92.6894   3
  -2  -7  -3 558.587 86.4658   1
   2   7   3 435.329 139.455   6
  -2  -7  -4 1430.09 155.630   1
   2   7   4 1295.06 280.195   6
  -2  -7  -5 4531.51 322.551   1
   2   7   5 4832.11 517.148   6
  -2  -7  -6 341.045 84.3974   1
   2   7   6 361.827 132.325   6
  -2  -7  -7 1275.41 183.927   1
   2   7   7 1438.29 282.223   6
  -2  -7  -8 48.9113 37.4127   1
   2   7   8 194.314 98.3515   6
  -2  -7  -9-10.6225 20.2217   1
  -2  -7 -10 940.875 186.960   1
   2   8 -12-42.2074 44.3405   3
   2   8 -11-82.4145 59.8142   3
   2   8 -10 755.141 177.577   3
   2   8  -9 778.916 184.041   3
   2   8  -8 481.517 139.834   3
   2   8  -8 377.725 149.777   6
   2   8  -7 1635.33 302.018   6
   2   8  -7 1448.66 239.925   3
   2   8  -6 86.4270 70.0091   3
   2   8  -6 68.7590 61.7762   6
   2   8  -5 1477.00 257.914   6
   2   8  -5 1257.21 211.570   3
   2   8  -4 172.321 70.4441   3
   2   8  -4 231.449 92.1702   6
   2   8  -3 20.6570 10.5632   3
   2   8  -3 98.7536 64.5213   6
   2   8  -2 210.476 79.3854   3
   2   8  -2 200.530 98.6445   6
   2   8  -1-38.1883 40.9128   3
   2   8  -1 55.4189 55.7624   6
   2   8   0 504.423 116.402   3
   2   8   0 491.145 145.284   6
   2   8   1 2446.42 348.259   6
   2   8   1 2276.50 242.672   3
   2   8   2 1365.62 269.370   6
   2   8   2 1283.13 172.178   3
   2   8   3 3925.68 477.063   6
   2   8   4 1439.97 297.303   6
  -2  -8  -5 652.981 134.439   1
   2   8   5 1259.73 274.559   6
   2   8   6 374.426 168.230   6
  -2  -8  -6 362.132 96.4141   1
  -2  -8  -7 1062.06 177.376   1
   2   8   7 1242.11 299.371   6
   2   8   8 994.837 257.453   6
  -2  -8  -8 831.206 163.837   1
  -2  -8  -9 290.855 94.5454   1
  -2  -8 -10 1079.78 211.870   1
   2   9 -10 69.4382 50.5603   3
   2   9  -9 281.418 118.557   3
   2   9  -8 830.395 197.797   3
   2   9  -8 865.595 227.397   6
   2   9  -7 810.616 194.705   3
   2   9  -7 1299.70 274.508   6
   2   9  -6-26.4218 42.8913   6
   2   9  -6 48.3314 58.9554   3
   2   9  -5-10.0280 46.8135   3
   2   9  -5-29.7364 58.2908   6
   2   9  -4 768.988 167.235   3
   2   9  -4 414.755 166.170   6
   2   9  -3 224.062 82.5287   3
   2   9  -3 185.883 100.482   6
   2   9  -2 1822.23 314.824   6
   2   9  -2 1779.44 245.946   3
   2   9  -1 442.068 118.111   3
   2   9  -1 564.765 183.300   6
   2   9   0 878.517 160.614   3
   2   9   0 688.629 193.267   6
   2   9   1-4.91098 28.5261   3
   2   9   1-14.2657 38.8879   6
   2   9   2 427.844 152.223   6
   2   9   3 12.5508 44.8590   6
   2   9   4 3503.42 490.869   6
   2   9   5 2940.16 472.054   6
   2   9   6 951.789 266.663   6
   2  10  -9 31.6725 34.7109   6
   2  10  -8 57.0813 38.7478   3
   2  10  -8 138.799 92.7947   6
   2  10  -7 1137.22 240.058   3
   2  10  -7 1356.61 293.475   6
   2  10  -6 153.661 90.8895   3
   2  10  -6 283.693 134.911   6
   2  10  -5 107.895 70.5330   3
   2  10  -5 12.6331 69.0637   6
   2  10  -4 253.732 126.207   6
   2  10  -4 213.163 97.1773   3
   2  10  -3 391.207 126.542   3
   2  10  -3 472.103 170.249   6
   2  10  -2 169.377 72.7092   3
   2  10  -2 44.4093 72.0594   6
   2  10  -1 1475.94 306.191   6
   2  10  -1 1634.86 246.639   3
   2  10   0 2359.99 381.096   6
   2  10   0 2193.08 280.343   3
   2  10   1 674.607 201.064   6
   2  10   2 397.606 160.732   6
   2  10   3 16.8518 51.5648   6
   2  10   4 2240.95 403.088   6
   2  11  -6 409.946 145.132   3
   2  11  -6 662.775 203.416   6
   2  11  -5 9.97389 22.7936   3
   2  11  -5-43.5823 51.2316   6
   2  11  -4 115.307 68.4160   3
   2  11  -4 8.30946 76.8795   6
   2  11  -3 542.790 162.453   3
   2  11  -3 441.739 175.607   6
   2  11  -2 30.3450 48.5458   3
   2  11  -2 227.425 123.804   6
   2  11  -1 138.540 91.3413   3
   2  11  -1 242.039 127.124   6
   2  11   0 165.736 96.8413   6
   2  12  -3 420.882 141.047   3
  -3  12   2 98.8871 55.2202   3
  -3  12   1 50.7843 42.6687   3
  -3  12   0 106.995 61.9344   3
  -3  12  -1-8.39528 29.8971   3
  -3  11   4 429.391 114.629   3
  -3  11   3 1624.52 232.199   3
  -3  11   2 343.326 104.923   3
  -3  11   1 1794.04 247.586   3
  -3  11   0 376.109 115.772   3
  -3  11  -1 3632.55 366.565   3
  -3  11  -2 329.011 102.794   3
  -3  11  -3 1113.78 195.935   3
  -3  11  -4 2315.82 293.265   3
  -3  11  -5 28.0731 38.9889   3
  -3  11  -6 24.3386 13.9964   3
   3 -10  -7 5366.99 534.910   5
   3 -10  -6 968.475 217.063   5
   3 -10  -5 218.214 102.974   5
  -3  10   5 437.519 107.846   3
  -3  10   5 504.443 160.191   6
   3 -10  -4 386.926 135.496   5
  -3  10   4 468.388 116.368   3
  -3  10   4 383.810 133.273   6
   3 -10  -3 279.265 103.294   5
  -3  10   3 215.982 77.8227   3
  -3  10   3 174.010 87.1614   6
  -3  10   2 1885.67 244.638   3
  -3  10   1 161.600 67.8596   3
  -3  10   0 18.7978 18.5376   3
  -3  10  -1 270.737 88.9785   3
  -3  10  -2 98.9940 68.9443   3
  -3  10  -3 925.825 173.280   3
  -3  10  -4 3728.04 363.814   3
  -3  10  -5 468.067 123.748   3
  -3  10  -6 420.762 116.773   3
  -3  10  -7 1510.03 231.343   3
  -3  10  -8 525.176 136.791   3
  -3  10  -9 197.103 79.7173   3
   3  -9  -8 383.805 127.062   5
   3  -9  -7 419.241 137.779   5
   3  -9  -6 543.581 157.895   5
   3  -9  -5 5878.59 528.724   5
   3  -9  -4 676.564 166.288   5
  -3   9   3 4325.11 422.978   6
   3  -9  -3 4095.78 425.699   5
   3  -9  -2 1748.17 270.540   5
  -3   9   2 1672.56 248.034   6
  -3   9   1 7367.59 556.448   6
   3  -9  -1 6698.22 552.803   5
  -3   9   1 6471.58 472.958   3
  -3   9   0 16128.0 831.886   3
  -3   9  -1 444.887 115.891   3
  -3   9  -2 4085.27 398.144   4
  -3   9  -2 3725.67 344.873   3
  -3   9  -3 2747.59 289.041   4
  -3   9  -3 3014.58 305.270   3
  -3   9  -4 1378.67 192.558   4
  -3   9  -4 1442.87 206.380   3
  -3   9  -5 145.893 57.1415   3
  -3   9  -6 319.570 97.4628   3
  -3   9  -7 1444.30 213.256   3
  -3   9  -8 610.360 140.932   3
  -3   9  -9 300.333 102.752   3
  -3   9 -10 665.944 154.016   3
  -3   9 -11 185.586 85.3818   3
  -3   9 -12 1575.71 248.468   3
   3  -8  -9 4833.83 522.019   5
   3  -8  -8 2306.77 341.754   5
   3  -8  -7 1129.80 234.545   5
   3  -8  -6 43.6106 45.8012   5
   3  -8  -5 1826.17 279.919   5
   3  -8  -4 67.2234 50.5787   5
   3  -8  -3 44.0867 23.3821   5
  -3   8   2 6857.64 489.140   6
   3  -8  -2 6669.70 531.169   5
   3  -8  -1 280.401 100.840   5
  -3   8   1 159.208 70.3150   6
  -3   8   0 8547.59 543.373   6
   3  -8   0 8824.72 616.601   5
  -3   8  -1 15819.4 760.407   6
  -3   8  -2 11561.9 708.244   4
  -3   8  -2 9948.60 597.676   3
  -3   8  -3 164.022 60.8549   3
  -3   8  -3 265.519 81.6585   4
  -3   8  -4 3501.90 317.133   4
  -3   8  -4 4043.00 344.370   3
  -3   8  -5 3280.00 313.773   4
  -3   8  -5 3367.97 314.395   3
  -3   8  -6 4350.17 363.742   4
  -3   8  -6 4632.40 375.471   3
  -3   8  -7 1851.90 217.772   4
  -3   8  -7 1840.95 222.290   2
  -3   8  -7 2102.06 242.215   3
  -3   8  -8 2491.52 254.071   4
  -3   8  -8 2363.08 273.429   2
  -3   8  -8 2406.31 273.478   3
  -3   8  -9 4573.05 426.184   2
  -3   8  -9 5017.66 398.552   3
  -3   8 -10 8.45905 26.4450   3
  -3   8 -10 36.9542 26.3316   2
  -3   8 -11 214.917 84.0060   3
  -3   8 -11 176.240 83.9861   2
  -3   8 -12 353.068 124.186   3
  -3   8 -12 85.5287 63.2442   2
  -3   8 -13 27.5841 28.8983   3
  -3   8 -13-0.56664 14.6534   2
   3  -7 -11 253.936 123.161   1
   3  -7 -10 164.759 93.1150   1
   3  -7 -10 32.5792 48.0873   5
   3  -7  -9 743.865 192.275   1
   3  -7  -9 626.758 181.834   5
   3  -7  -8 84.5929 69.3887   5
   3  -7  -7 1690.43 278.664   5
   3  -7  -6 5767.40 522.200   5
   3  -7  -5 2995.70 361.351   5
   3  -7  -4 4425.51 427.485   5
   3  -7  -3 1717.86 249.053   5
   3  -7  -2 25883.9 1213.77   5
   3  -7  -1 620.619 142.596   5
  -3   7   1 477.212 101.928   6
  -3   7   0 4274.17 334.107   6
   3  -7   0 4301.85 396.232   5
  -3   7  -1 6174.87 379.015   6
   3  -7   1 6725.47 502.625   5
  -3   7  -2 3833.08 375.548   4
  -3   7  -2 3504.05 268.351   6
  -3   7  -3 348.926 85.2576   3
  -3   7  -3 156.325 63.0088   4
  -3   7  -4 567.085 95.5361   2
  -3   7  -4 575.641 113.554   3
  -3   7  -4 555.047 116.845   4
  -3   7  -5 2352.46 259.322   4
  -3   7  -5 2761.71 243.804   2
  -3   7  -5 2970.15 277.025   3
  -3   7  -6 3009.43 296.465   4
  -3   7  -6 3088.11 279.054   2
  -3   7  -6 3211.14 293.100   3
  -3   7  -7 6156.56 448.364   2
  -3   7  -7 6474.26 437.617   4
  -3   7  -7 6997.70 453.223   3
  -3   7  -8 3574.24 304.893   4
  -3   7  -8 3273.54 300.565   3
  -3   7  -9 1354.21 218.661   2
  -3   7  -9 1592.22 204.644   3
  -3   7  -9 1567.35 186.812   1
  -3   7 -10 594.876 154.034   2
  -3   7 -10 727.482 124.708   1
  -3   7 -10 771.969 143.099   3
  -3   7 -11 746.277 148.351   3
  -3   7 -11 659.464 167.333   2
  -3   7 -12 119.949 64.7959   3
  -3   7 -12 199.332 103.725   2
  -3   7 -13 242.854 112.478   2
   3  -6 -12 4733.86 556.670   1
   3  -6 -12 5218.93 550.455   5
   3  -6 -11 694.414 188.879   5
   3  -6 -11 751.037 205.549   1
   3  -6 -10 22.9955 29.2031   5
   3  -6 -10-22.0704 51.5935   1
   3  -6  -9 1072.78 226.680   1
   3  -6  -9 1057.90 219.941   5
   3  -6  -8 341.510 121.829   1
   3  -6  -8 329.619 125.596   5
   3  -6  -7 70.1486 44.1508   5
   3  -6  -6 2820.42 348.943   5
   3  -6  -5 3179.57 359.857   5
   3  -6  -4 34108.7 1512.75   5
   3  -6  -3 1310.02 215.669   5
   3  -6  -2 1438.67 220.627   5
   3  -6  -1 747.165 148.968   5
  -3   6   0 9887.18 493.427   6
   3  -6   0 9559.91 604.759   5
   3  -6   1 136.039 64.3549   5
  -3   6  -1 119.372 39.9663   6
  -3   6  -2 3590.19 357.805   4
   3  -6   2 3006.72 316.581   5
  -3   6  -2 3506.23 225.199   6
  -3   6  -3 5168.36 408.819   4
  -3   6  -3 5193.28 263.621   6
  -3   6  -4 2968.04 279.174   4
  -3   6  -5 226.500 64.4685   3
  -3   6  -5 263.140 77.5042   4
  -3   6  -5 218.425 65.5673   2
  -3   6  -6 2890.42 259.409   3
  -3   6  -6 2547.91 267.407   4
  -3   6  -6 2597.95 257.790   2
  -3   6  -7 20430.3 920.865   4
  -3   6  -7 19546.6 941.263   2
  -3   6  -7 20634.9 904.297   3
  -3   6  -8 232.391 76.5081   3
  -3   6  -8 196.322 72.4835   4
  -3   6  -8 73.2691 45.8559   2
  -3   6  -9 1301.16 218.125   2
  -3   6  -9 2010.97 214.365   3
  -3   6  -9 1691.36 198.575   1
  -3   6 -10 10.2243 20.6729   1
  -3   6 -10-2.40726 9.48068   3
  -3   6 -10 8.51283 33.8466   2
  -3   6 -11 444.505 103.765   3
  -3   6 -11 338.746 89.8230   1
  -3   6 -11 322.775 117.796   2
  -3   6 -12 70.2635 58.8089   3
  -3   6 -12 187.935 69.7835   1
  -3   6 -12 248.118 107.947   2
  -3   6 -13 73.9160 42.0994   1
  -3   6 -13 152.973 88.4792   2
   3  -5 -13 112.426 62.6775   5
   3  -5 -12 523.443 161.174   5
   3  -5 -12 408.745 150.935   1
   3  -5 -11 71.1881 50.7532   5
   3  -5 -11-26.4194 64.6601   1
   3  -5 -10 2978.18 390.740   1
   3  -5 -10 2604.30 355.654   5
   3  -5  -9 875.167 190.038   5
   3  -5  -9 997.480 210.492   1
   3  -5  -8 1592.00 261.228   1
   3  -5  -8 1542.57 249.736   5
   3  -5  -7 7510.61 387.997   2
   3  -5  -7 7155.82 560.485   5
   3  -5  -6 210.282 75.5898   5
   3  -5  -6 382.492 63.7342   2
   3  -5  -5 2701.95 317.497   5
   3  -5  -4 30084.0 1358.51   5
   3  -5  -3 170.466 69.8137   5
   3  -5  -2 6049.96 465.354   5
   3  -5  -1 6869.34 494.035   5
  -3   5   0 1843.93 150.939   6
   3  -5   0 2137.24 247.363   5
  -3   5  -1 8839.25 381.113   6
   3  -5   1 9452.97 561.939   5
  -3   5  -2 6113.21 250.610   6
   3  -5   2 5770.62 432.279   5
  -3   5  -3 272.026 83.8048   4
  -3   5  -4 69.1313 46.1832   4
  -3   5  -5 6971.95 472.248   4
  -3   5  -5 7640.63 454.496   2
  -3   5  -6 2574.12 263.467   4
  -3   5  -6 2549.74 260.336   2
  -3   5  -6 2783.76 241.112   3
  -3   5  -7 5583.98 399.045   4
  -3   5  -7 6202.02 447.864   2
  -3   5  -7 6074.41 386.542   3
  -3   5  -8 1795.35 242.536   2
  -3   5  -8 2045.48 225.757   4
  -3   5  -8 2041.65 204.689   3
  -3   5  -9 219.220 72.0389   1
  -3   5  -9 210.780 62.0278   3
  -3   5  -9 116.916 56.1426   2
  -3   5 -10 15.9098 36.1232   1
  -3   5 -10-28.1085 12.9977   3
  -3   5 -10-17.8961 52.5952   2
  -3   5 -11 100.878 44.8752   3
  -3   5 -11 105.738 53.2118   1
  -3   5 -11 75.0360 52.4305   2
  -3   5 -12 59.2538 38.5243   1
  -3   5 -12-60.1837 53.1752   2
  -3   5 -13 1649.54 303.445   2
  -3   5 -13 1891.43 233.728   1
  -3   5 -14 116.157 57.5138   1
   3  -4 -14 1366.09 273.622   5
   3  -4 -13 5560.26 612.282   1
   3  -4 -13 5809.02 572.056   5
   3  -4 -12-14.6755 49.0443   5
   3  -4 -12 7.36290 42.4463   1
   3  -4 -11 305.419 119.281   5
   3  -4 -11 306.032 116.585   1
   3  -4 -11 272.003 91.2427   2
   3  -4 -10 219.235 95.2113   5
   3  -4 -10 156.186 72.7624   1
   3  -4  -9 150.892 70.5469   5
   3  -4  -9 194.596 82.7646   1
   3  -4  -8 340.490 116.686   1
   3  -4  -8 268.679 101.957   5
   3  -4  -7 171.305 85.5184   1
   3  -4  -7 181.526 78.5518   5
   3  -4  -6 7971.75 573.233   5
   3  -4  -5 6035.10 464.620   5
   3  -4  -4 3836.80 355.548   5
   3  -4  -3 3943.34 355.696   5
   3  -4  -2 620.448 131.234   5
   3  -4  -1 1432.65 108.287   2
   3  -4  -1 1632.32 214.136   5
   3  -4   0 9290.90 390.961   2
   3  -4   0 9162.15 561.963   5
   3  -4   1 1992.10 227.728   5
   3  -4   1 2163.53 159.441   2
  -3   4  -2 827.452 154.550   4
   3  -4   2 907.651 147.749   5
  -3   4  -3 1279.33 181.114   4
   3  -4   3 1156.12 168.766   5
  -3   4  -4 5412.53 382.596   4
  -3   4  -5 29201.6 1045.29   4
   3  -4   5 20333.7 712.518   6
  -3   4  -6 857.782 120.960   3
  -3   4  -6 876.522 147.549   4
   3  -4   6 995.192 98.2566   6
  -3   4  -6 847.792 146.269   2
  -3   4  -7 132.026 42.6520   3
  -3   4  -7 145.068 58.1552   4
  -3   4  -7 184.805 66.2971   2
  -3   4  -8 10224.0 557.644   4
  -3   4  -8 9870.78 497.732   3
  -3   4  -9 2883.24 332.054   2
  -3   4  -9 2544.11 230.248   3
  -3   4  -9 2679.79 251.084   1
  -3   4 -10 86.7399 43.8606   1
  -3   4 -10 89.6512 35.4401   3
  -3   4 -10 12.7972 41.6069   2
  -3   4 -11 345.026 79.0572   3
  -3   4 -11 322.913 97.2222   1
  -3   4 -11 303.509 120.092   2
  -3   4 -12 42.7104 42.0548   1
  -3   4 -12-45.2869 65.7252   2
  -3   4 -13-7.92206 20.9231   1
  -3   4 -13 83.3834 76.5110   2
  -3   4 -14 811.435 162.154   1
   3  -3 -15 351.804 154.069   5
   3  -3 -14-29.7664 40.1000   5
   3  -3 -13 372.929 135.607   5
   3  -3 -13 482.223 162.710   1
   3  -3 -12 563.055 168.435   5
   3  -3 -12 755.277 205.598   1
   3  -3 -11 1550.36 286.386   1
   3  -3 -11 1586.81 269.728   5
   3  -3 -10 37.9208 19.4605   5
   3  -3 -10-25.9715 48.6173   1
   3  -3  -9 3370.28 393.829   1
   3  -3  -9 3953.74 400.532   5
   3  -3  -8 11267.0 727.960   1
   3  -3  -8 10588.3 681.751   5
   3  -3  -7 3844.43 387.087   1
   3  -3  -7 3957.00 374.027   5
   3  -3  -6 11324.4 668.184   5
   3  -3  -5 13240.2 724.348   5
   3  -3  -4 12776.8 704.664   5
   3  -3  -3 2911.40 296.810   5
   3  -3  -2 3140.52 291.587   5
   3  -3  -1 129.295 55.2129   5
  -3   3   0 20830.3 717.006   6
   3  -3   0 20900.8 943.090   5
   3  -3   1 23585.5 1015.13   5
  -3   3  -2 13830.4 720.916   4
   3  -3   2 11318.0 604.119   5
  -3   3  -3 3685.23 317.004   4
   3  -3   3 4110.62 319.944   5
  -3   3  -4 2052.15 218.915   4
  -3   3  -5 10653.0 611.140   4
   3  -3   5 11953.9 445.468   6
  -3   3  -6 4240.17 330.031   4
   3  -3   6 3908.37 239.700   6
  -3   3  -7 20448.0 915.977   4
  -3   3  -7 18442.8 970.236   2
  -3   3  -8 10218.0 538.956   1
  -3   3  -8 9174.20 534.296   4
  -3   3  -8 9550.60 465.090   3
  -3   3  -9 145.298 54.0028   3
  -3   3  -9 114.650 48.7157   1
  -3   3  -9 241.437 97.2672   2
  -3   3 -10 375.115 92.4334   1
  -3   3 -10 417.420 77.2563   3
  -3   3 -10 311.121 105.998   2
  -3   3 -11 4343.05 466.556   2
  -3   3 -11 4815.29 371.752   1
  -3   3 -12 392.396 106.956   1
  -3   3 -12 334.262 141.557   2
  -3   3 -13-18.2033 32.0708   2
  -3   3 -13 4.84174 17.8085   1
  -3   3 -14 3314.13 337.674   1
   3  -2 -15 1241.10 272.405   5
   3  -2 -14 1059.89 270.050   1
   3  -2 -14 1641.88 306.432   5
   3  -2 -13 782.308 199.657   5
   3  -2 -13 750.957 206.221   1
   3  -2 -12 349.701 123.911   5
   3  -2 -12 328.430 128.272   1
   3  -2 -11 81.5025 69.9545   5
   3  -2 -11 67.3045 61.3966   1
   3  -2 -10 1985.58 303.697   1
   3  -2 -10 1754.11 267.142   5
   3  -2  -9 1888.75 279.683   1
   3  -2  -9 2281.74 294.274   5
   3  -2  -8 2362.36 296.613   1
   3  -2  -8 2244.14 281.671   5
   3  -2  -7-12.5709 37.8448   1
   3  -2  -7-33.2507 48.7680   5
   3  -2  -6 7820.84 525.958   5
   3  -2  -5 1264.73 182.507   5
   3  -2  -4 7626.19 485.980   5
   3  -2  -3 3611.88 304.814   5
   3  -2  -2 12841.1 660.674   5
  -3   2   1 11404.1 467.109   6
   3  -2  -1 10074.3 567.009   5
  -3   2   0 9212.06 380.299   6
   3  -2   0 9895.52 542.044   5
  -3   2  -1 7127.81 489.942   4
   3  -2   1 6122.20 404.742   5
  -3   2  -2 25990.3 1093.06   4
   3  -2   2 24452.6 1026.25   5
  -3   2  -3 12119.6 629.743   4
   3  -2   3 13493.8 623.197   5
  -3   2  -4 4908.72 353.577   4
   3  -2   4 4907.99 231.649   6
  -3   2  -5 274.751 85.5685   4
  -3   2  -6 9740.50 534.145   4
  -3   2  -7 39096.0 1523.17   4
  -3   2  -7 41545.9 1420.99   3
  -3   2  -8 263.385 58.0698   3
  -3   2  -8 365.988 88.9142   1
  -3   2  -9 101.456 34.7412   3
  -3   2  -9 113.679 49.7768   1
  -3   2 -10 6774.38 567.214   2
  -3   2 -10 6627.66 442.481   1
  -3   2 -11 789.135 142.517   1
  -3   2 -11 892.041 204.431   2
  -3   2 -12 506.708 120.514   1
  -3   2 -12 475.383 156.461   2
  -3   2 -13 2305.61 275.326   1
  -3   2 -14 83.5060 53.2416   1
   3  -1 -15 54.9194 56.2261   5
   3  -1 -14 705.240 188.540   5
   3  -1 -14 476.528 168.824   1
   3  -1 -13 503.059 154.568   5
   3  -1 -13 399.441 149.119   1
   3  -1 -12 592.855 163.953   5
   3  -1 -12 652.544 177.492   1
   3  -1 -11 8384.99 672.933   1
   3  -1 -11 8695.24 652.041   5
   3  -1 -10 898.277 190.965   1
   3  -1 -10 1209.96 219.368   5
   3  -1  -9 1482.25 235.513   1
   3  -1  -9 1143.54 205.129   5
   3  -1  -8 23.5003 6.94747   1
   3  -1  -8 11.7848 18.8860   5
   3  -1  -7 11331.4 693.276   1
   3  -1  -7 12016.7 693.964   5
   3  -1  -6 8813.36 557.800   5
   3  -1  -5 714.652 136.502   5
   3  -1  -4 16376.5 787.114   5
   3  -1  -3 33504.4 1306.31   5
  -3   1   2 16507.9 653.258   6
   3  -1  -2 14063.5 698.326   5
  -3   1   1 114039. 3558.01   6
   3  -1  -1 108756. 3671.18   5
  -3   1   0 7024.98 326.745   6
   3  -1   0 6795.40 406.812   5
   3  -1   1 11837.0 454.348   6
   3  -1   1 10806.2 587.032   5
   3  -1   2 221.432 62.9863   5
   3  -1   2 151.959 34.6218   6
  -3   1  -2 214.520 68.0159   4
   3  -1   3 344.534 71.3296   5
  -3   1  -3 367.803 86.4082   4
   3  -1   3 313.735 55.6521   6
  -3   1  -4 16485.6 827.995   4
   3  -1   4 19773.2 720.293   6
  -3   1  -5 11078.9 579.420   4
  -3   1  -6 3619.68 291.877   4
  -3   1  -7 3439.10 280.182   1
  -3   1  -7 3481.96 287.504   4
  -3   1  -7 3303.16 206.193   3
  -3   1  -8 8798.16 389.225   3
  -3   1  -8 8548.09 490.105   1
  -3   1  -9 9304.55 527.749   1
  -3   1 -10 2479.67 250.914   1
  -3   1 -11 293.133 93.1675   1
  -3   1 -12 888.582 159.817   1
  -3   1 -13 1638.25 229.494   1
   3   0 -15 459.425 159.301   5
   3   0 -15 344.041 156.089   1
   3   0 -14 648.366 178.217   5
   3   0 -14 809.539 215.191   1
   3   0 -13 46.8891 47.2854   5
   3   0 -13 112.382 71.7775   1
   3   0 -12-8.92257 19.3854   5
   3   0 -12 39.7190 40.5351   1
   3   0 -11 15123.4 895.517   1
   3   0 -11 11237.7 769.463   5
   3   0 -10 291.381 114.758   1
   3   0 -10 146.777 80.2130   5
   3   0  -9 1889.60 266.093   1
   3   0  -9 1694.19 242.643   5
   3   0  -8 15.2399 38.3790   1
   3   0  -8-3.76513 37.2957   5
   3   0  -7 17.4808 14.8276   5
   3   0  -6 146.283 64.1104   5
   3   0  -5 37788.5 1464.80   5
   3   0  -4 2710.21 256.822   5
   3   0  -3 1977.29 213.123   5
   3   0  -2 3449.99 278.342   5
  -3   0   1 8345.39 423.312   6
   3   0  -1 7618.17 410.255   6
   3   0  -1 7882.65 431.676   5
  -3   0   0 2352.49 250.436   4
  -3   0   0 2280.21 186.519   6
   3   0   0 2068.94 164.324   6
   3   0   0 1734.15 181.563   5
  -3   0  -1 15109.4 728.429   4
   3   0   1 14331.4 609.104   6
   3   0   1 15118.7 656.667   5
   3   0   2 174.286 51.6254   5
  -3   0  -2 173.661 55.3607   4
   3   0   2 141.534 41.2782   6
  -3   0  -3 8899.00 481.905   4
   3   0   3 8421.31 434.112   6
  -3   0  -4 21525.3 906.578   4
   3   0   4 21496.2 850.393   6
  -3   0  -4 20835.6 830.035   5
  -3   0  -5 4539.85 353.138   4
  -3   0  -5 9728.20 412.594   5
  -3   0  -6 4923.02 331.033   4
  -3   0  -6 3227.57 266.360   5
  -3   0  -7 159.203 55.4099   1
  -3   0  -8 7133.33 440.924   1
  -3   0  -8 7233.48 308.475   3
  -3   0  -9 380.983 96.4037   1
  -3   0 -10 341.597 88.1003   1
  -3   0 -11 16.6129 17.8642   1
  -3   0 -12 88.2516 58.9990   1
  -3   0 -13 64.6962 50.7522   1
   3   1 -15 409.485 149.222   5
   3   1 -15 601.764 190.059   1
   3   1 -14 44.4398 52.1154   5
   3   1 -14 179.565 97.7310   1
   3   1 -13 578.626 167.691   5
   3   1 -13 1103.06 233.128   1
   3   1 -12 9831.97 720.818   1
   3   1 -12 8563.83 658.886   5
   3   1 -11 608.762 153.936   1
   3   1 -11 287.315 102.700   5
   3   1 -10 32.7069 48.8443   1
   3   1 -10 94.3154 56.1563   5
   3   1  -9 832.339 192.240   1
   3   1  -9 1263.42 200.486   5
   3   1  -8 344.396 97.1761   5
   3   1  -7 4473.76 369.956   5
   3   1  -6 128.639 48.5686   5
   3   1  -5 6330.91 419.312   5
   3   1  -4 10283.3 552.279   5
   3   1  -3 11586.6 562.226   5
   3   1  -2 7059.16 409.445   6
   3   1  -2 6200.20 380.420   5
   3   1  -1 106.343 41.0502   5
   3   1  -1 125.541 42.7410   6
   3   1   0 97.8156 35.7947   5
  -3  -1   0-4.31081 18.3018   4
   3   1   0 151.693 50.5772   6
  -3  -1  -1 14961.8 675.108   4
   3   1   1 16202.0 678.389   6
   3   1   1 15478.6 641.407   5
  -3  -1  -1 13676.7 596.806   5
  -3  -1  -2 2547.98 219.517   4
   3   1   2 2681.61 221.517   6
   3   1   2 2609.70 198.587   5
  -3  -1  -2 2301.28 170.014   5
   3   1   3 3.92534 6.20759   5
  -3  -1  -3-5.19406 3.60323   5
  -3  -1  -3 2.82386 14.8056   4
   3   1   3 29.0771 28.0644   6
  -3  -1  -4 1036.64 144.375   4
   3   1   4 1215.99 164.257   6
  -3  -1  -4 1590.71 125.550   5
  -3  -1  -5 18.8095 12.5382   5
  -3  -1  -5 39.2758 32.5427   4
  -3  -1  -6 1850.19 134.714   5
  -3  -1  -6 2432.20 218.539   1
  -3  -1  -7 6329.30 357.823   1
  -3  -1  -7 2111.52 166.266   3
  -3  -1  -8 10461.2 559.927   1
  -3  -1  -9 4570.32 348.848   1
  -3  -1 -10 1742.04 216.714   1
  -3  -1 -11 1329.16 192.938   1
  -3  -1 -12 1947.43 246.516   1
  -3  -1 -13 92.0191 53.8126   1
   3   2 -16-69.5811 66.1539   1
   3   2 -15-33.1500 43.6398   1
   3   2 -15 22.6094 21.3868   5
   3   2 -14-90.1055 68.2595   1
   3   2 -14 37.6727 39.5534   5
   3   2 -13 55.7792 55.8780   1
   3   2 -13 34.9458 45.0715   5
   3   2 -12 2417.02 324.186   1
   3   2 -12 2178.74 305.913   5
   3   2 -11 1131.67 207.949   1
   3   2 -11 1470.05 243.246   5
   3   2 -10 14.3475 45.3894   1
   3   2 -10 103.157 54.9820   5
   3   2  -9 61.0115 53.3814   5
   3   2  -8 83.7536 51.4455   5
   3   2  -7 11324.4 653.300   5
   3   2  -6 8556.14 526.935   5
   3   2  -5 1155.56 163.959   5
   3   2  -4 57.4690 30.0585   5
   3   2  -3 12252.3 591.974   5
   3   2  -2 15996.1 700.268   5
  -3  -2   1 2680.50 239.789   4
   3   2  -1 2184.11 187.669   5
  -3  -2   0 4439.85 294.940   4
   3   2   0 4121.41 267.233   5
  -3  -2  -1 20153.5 773.565   4
   3   2   1 16331.7 687.803   5
  -3  -2  -2 13183.2 634.581   4
   3   2   2 14952.5 573.102   5
  -3  -2  -3 1416.97 153.573   4
   3   2   3 1165.36 91.2799   5
  -3  -2  -4 5678.68 349.226   4
  -3  -2  -5 3391.65 259.897   1
   3   2   5 3173.95 299.840   6
  -3  -2  -5 2971.42 184.428   3
  -3  -2  -6 1.95851 15.0866   1
  -3  -2  -7 21.6970 27.7054   1
  -3  -2  -8 2326.89 234.510   1
  -3  -2  -9 1891.65 216.676   1
  -3  -2 -10 166.500 64.8694   1
  -3  -2 -11-17.9689 18.0162   1
  -3  -2 -12 936.123 172.155   1
   3   3 -14 1327.27 254.100   1
   3   3 -14 1236.57 251.848   5
   3   3 -13 2493.35 338.672   1
   3   3 -13 1881.08 310.187   5
   3   3 -12 56.7731 54.3511   1
   3   3 -12 99.7551 72.1644   5
   3   3 -11 968.578 186.162   1
   3   3 -11 1133.78 220.609   5
   3   3 -10 845.442 183.915   5
   3   3  -9 4380.46 405.307   5
   3   3  -8 681.539 144.863   5
   3   3  -7 1570.24 212.673   5
   3   3  -6 4031.21 340.772   5
   3   3  -5 1120.89 188.103   6
   3   3  -5 1018.15 157.616   5
   3   3  -4 332.979 81.8909   5
   3   3  -4 495.363 118.119   6
   3   3  -3 8577.57 519.431   6
   3   3  -3 8172.04 464.467   5
   3   3  -2 33.0211 33.2109   5
  -3  -3   2 62.1541 28.0527   4
   3   3  -2 11.6012 15.2211   6
  -3  -3   1 1025.29 127.800   4
   3   3  -1 740.159 106.184   5
  -3  -3   0 476.862 85.5016   4
   3   3   0 319.017 68.0771   5
   3   3   1 5.03469 13.1587   5
  -3  -3  -1 19.0749 14.0206   4
  -3  -3  -2 8006.18 374.176   4
   3   3   2 7924.72 485.342   6
  -3  -3  -3 559.251 95.7451   4
   3   3   3 565.899 135.252   6
  -3  -3  -4 181.054 56.5347   1
   3   3   4 142.526 64.8659   6
   3   3   5 5093.67 427.028   6
  -3  -3  -5 5502.62 343.044   1
  -3  -3  -6 5665.30 359.424   1
  -3  -3  -7 9301.86 511.625   1
  -3  -3  -8 6424.70 427.295   1
  -3  -3  -9 1230.37 174.953   1
  -3  -3 -10 1719.16 220.254   1
  -3  -3 -11 1200.96 190.159   1
  -3  -3 -12 40.8978 24.0322   1
   3   4 -14-14.1772 28.3869   5
   3   4 -13 391.543 151.862   5
   3   4 -12 674.613 172.352   5
   3   4 -11 317.967 118.749   5
   3   4 -10 514.407 146.793   5
   3   4 -10 536.479 143.764   3
   3   4  -9 3723.10 375.072   5
   3   4  -9 3797.72 374.534   3
   3   4  -8 2560.47 292.793   5
   3   4  -8 2048.25 265.125   3
   3   4  -7 836.028 157.420   3
   3   4  -7 969.654 168.493   5
   3   4  -6 1452.25 197.865   5
   3   4  -6 1514.07 208.593   3
   3   4  -6 1320.64 232.632   6
   3   4  -5 6083.04 426.956   5
   3   4  -5 7005.02 524.029   6
   3   4  -5 6338.26 444.755   3
   3   4  -4 1081.29 154.529   5
   3   4  -4 943.051 165.969   6
   3   4  -4 937.922 151.700   3
   3   4  -3 11646.7 590.372   5
  -3  -4   3 12513.0 574.321   4
   3   4  -3 11987.6 694.515   6
   3   4  -3 11461.1 628.855   3
   3   4  -2 21278.8 904.833   5
  -3  -4   2 23570.9 866.336   4
   3   4  -2 23410.4 1077.95   6
   3   4  -2 21815.0 966.323   3
  -3  -4   1 12247.6 524.242   4
   3   4  -1 12970.3 716.986   6
   3   4  -1 10860.3 591.325   3
   3   4  -1 11037.0 544.856   5
  -3  -4   0 11096.0 500.202   4
   3   4   0 12465.7 689.766   6
   3   4   0 10930.3 497.091   5
   3   4   1 98.9614 33.7642   5
  -3  -4  -1 112.869 40.5647   4
   3   4   1 33.0582 20.9344   6
   3   4   2 170.987 35.3478   5
   3   4   2 87.6113 78.8551   6
  -3  -4  -3 246.288 60.7752   1
   3   4   3 219.698 92.8501   6
   3   4   4 448.935 138.660   6
  -3  -4  -4 637.542 100.746   1
   3   4   5 106.277 86.9811   6
  -3  -4  -5 192.499 58.7917   1
   3   4   6 1429.70 239.370   6
  -3  -4  -6 1547.09 178.889   1
  -3  -4  -7 103.461 57.6324   1
   3   4   7 455.006 133.127   6
  -3  -4  -8 71.7589 46.1412   1
  -3  -4  -9 1270.94 193.290   1
  -3  -4 -10 2293.09 258.901   1
  -3  -4 -11 995.795 174.071   1
   3   5 -13 538.581 158.757   5
   3   5 -12 821.233 201.269   5
   3   5 -12 939.645 209.420   3
   3   5 -11 1385.56 249.092   5
   3   5 -11 1218.97 224.080   3
   3   5 -10 2805.95 343.820   5
   3   5 -10 2865.52 347.295   3
   3   5  -9 31.6306 10.5286   3
   3   5  -9 23.1101 34.3565   5
   3   5  -8 239.110 81.4302   3
   3   5  -7 133.849 60.3228   3
   3   5  -7 126.334 66.7510   6
   3   5  -6 64.4801 45.3954   3
   3   5  -6-53.7668 57.6022   6
   3   5  -5 315.588 91.2436   3
   3   5  -5 279.417 105.466   6
  -3  -5   4 6695.97 361.868   4
   3   5  -4 7272.38 531.942   6
   3   5  -4 6849.02 475.688   3
  -3  -5   3 1722.24 135.546   4
   3   5  -3 1517.68 234.261   6
   3   5  -3 1600.36 202.992   3
   3   5  -2 1192.57 150.967   5
  -3  -5   2 1024.48 103.747   4
   3   5  -2 1198.61 212.276   6
   3   5  -2 1032.47 157.514   3
   3   5  -1 1214.35 143.657   5
  -3  -5   1 1287.77 113.518   4
   3   5  -1 1357.67 236.049   6
   3   5  -1 1327.59 178.519   3
  -3  -5   0 12324.7 466.342   4
   3   5   0 11251.1 693.955   6
   3   5   0 10099.2 567.120   3
   3   5   0 8867.53 475.194   5
   3   5   1 3514.74 357.846   6
   3   5   1 3095.72 207.276   5
  -3  -5  -1 3717.69 236.889   1
   3   5   2 896.017 184.763   6
  -3  -5  -2 1076.62 122.112   1
   3   5   3 6805.70 567.416   6
  -3  -5  -3 6762.89 364.289   1
   3   5   4 2938.47 398.969   6
  -3  -5  -4 6864.23 361.785   1
   3   5   5 5916.26 539.032   6
  -3  -5  -5 5714.28 361.726   1
   3   5   6 4704.28 487.148   6
  -3  -5  -6 5363.47 355.155   1
   3   5   7 6341.89 578.717   6
  -3  -5  -7 6175.42 404.798   1
   3   5   8 104.655 59.2977   6
  -3  -5  -8 328.952 96.1150   1
  -3  -5  -9 2066.07 238.678   1
  -3  -5 -10 483.794 117.306   1
  -3  -5 -11 36.4619 43.3131   1
   3   6 -13 573.960 177.652   5
   3   6 -13 559.128 171.260   3
   3   6 -12 199.070 94.5794   3
   3   6 -12 270.817 112.090   5
   3   6 -11 2430.38 341.205   5
   3   6 -11 1959.45 303.624   3
   3   6 -10 140.265 83.5999   3
   3   6  -9 93.3256 72.0574   3
   3   6  -8 778.663 168.845   3
   3   6  -7 887.132 175.094   3
   3   6  -7 1114.22 226.762   6
   3   6  -6 2780.68 367.238   6
   3   6  -6 1013.00 190.624   3
   3   6  -5 124.599 50.5266   3
   3   6  -5 56.8055 66.6463   6
   3   6  -4 37594.5 1600.77   6
   3   6  -4 34277.8 1461.00   3
   3   6  -3 12503.4 736.369   6
   3   6  -3 4067.94 380.973   3
   3   6  -2 558.100 120.005   3
   3   6  -2 266.522 111.990   6
   3   6  -1 1651.61 262.407   6
   3   6  -1 1371.67 190.571   3
  -3  -6   1 1436.35 122.212   1
   3   6   0 546.774 113.731   3
   3   6   0 478.453 86.2435   5
   3   6   0 684.295 163.271   6
  -3  -6   0 354.393 61.8013   1
   3   6   1 3035.92 279.313   3
   3   6   1 2838.48 346.643   6
  -3  -6  -1 3024.45 202.212   1
  -3  -6  -2 58.4235 27.6147   1
   3   6   2 5.40462 15.8712   6
  -3  -6  -3 206.407 55.2327   1
   3   6   3 203.431 105.675   6
  -3  -6  -4 139.439 50.1684   1
   3   6   4 247.011 116.525   6
   3   6   5 66.6714 66.8189   6
  -3  -6  -5 28.8259 34.8235   1
  -3  -6  -6 1113.32 156.012   1
   3   6   6 1524.77 284.218   6
  -3  -6  -7 2179.07 227.961   1
   3   6   7 2378.72 362.549   6
  -3  -6  -8 1209.66 174.942   1
   3   6   8 1370.50 282.338   6
  -3  -6  -9 1824.83 233.031   1
   3   6   9 1924.08 353.785   6
  -3  -6 -10 168.409 75.4145   1
   3   6  10 431.259 174.251   6
   3   7 -12 169.965 101.577   3
   3   7 -11 505.648 157.069   3
   3   7 -10 83.4557 34.2180   3
   3   7  -9-21.9754 50.1982   3
   3   7  -8 110.655 53.5740   3
   3   7  -8 68.2144 63.9259   6
   3   7  -7 233.623 95.5295   3
   3   7  -7 131.634 67.8233   6
   3   7  -6 128.022 68.9604   3
   3   7  -6 178.866 95.4828   6
   3   7  -5 5043.96 488.334   6
   3   7  -5 4383.30 406.774   3
   3   7  -4 668.185 145.615   3
   3   7  -4 572.553 164.841   6
   3   7  -3 94.9489 52.9868   3
   3   7  -3 282.138 115.251   6
   3   7  -2 3108.91 403.412   6
   3   7  -2 2964.11 306.553   3
   3   7  -1 1199.74 188.433   3
   3   7  -1 1157.80 230.439   6
   3   7   0 945.565 157.817   3
   3   7   0 902.668 210.256   6
   3   7   1 784.332 143.475   3
   3   7   1 502.385 148.199   6
  -3  -7  -2 4178.77 257.640   1
   3   7   2 3714.86 331.587   3
   3   7   2 4402.30 467.706   6
  -3  -7  -3 3976.40 264.693   1
   3   7   3 3803.62 456.425   6
  -3  -7  -4 4045.71 281.461   1
   3   7   4 3549.69 481.216   6
  -3  -7  -5 1999.44 201.233   1
   3   7   5 2309.98 380.865   6
  -3  -7  -6 126.638 54.1760   1
   3   7   6 169.679 119.285   6
  -3  -7  -7 32.9100 34.0108   1
   3   7   7-1.17648 51.8954   6
  -3  -7  -8 922.638 160.991   1
   3   7   8 1369.95 303.041   6
  -3  -7  -9-4.51893 28.9324   1
  -3  -7 -10 183.417 83.1621   1
   3   8 -11 80.3289 62.1568   3
   3   8 -10 213.499 99.8120   3
   3   8  -9 71.2699 34.7531   3
   3   8  -8 39.7098 33.5157   3
   3   8  -8 71.6374 57.5371   6
   3   8  -7 285.854 115.287   3
   3   8  -7 352.467 143.391   6
   3   8  -6 2466.79 364.614   6
   3   8  -6 2015.99 288.592   3
   3   8  -5 2499.12 356.492   6
   3   8  -5 2171.25 294.329   3
   3   8  -4 798.197 175.690   3
   3   8  -4 755.670 195.291   6
   3   8  -3-10.7059 31.1357   3
   3   8  -3 136.509 68.4689   6
   3   8  -2 63.5903 49.1789   3
   3   8  -2 49.5487 52.7999   6
   3   8  -1 266.193 88.3728   3
   3   8  -1 125.603 67.2593   6
   3   8   0 400.811 107.491   3
   3   8   0 540.895 173.782   6
   3   8   1 18.8780 13.8932   3
   3   8   1-15.4954 21.2361   6
   3   8   2 67.8362 45.5519   6
   3   8   3-21.9248 25.3118   6
   3   8   4 141.790 82.8368   6
   3   8   5 3547.40 505.135   6
   3   8   6-107.695 88.0662   6
   3   8   7 81.6179 83.4086   6
   3   9  -9 23.6444 31.3280   3
   3   9  -8-16.5943 52.3512   3
   3   9  -8 49.6999 56.1703   6
   3   9  -7 106.327 82.3344   3
   3   9  -7 135.015 94.7868   6
   3   9  -6 3941.33 481.173   6
   3   9  -6 3305.58 389.911   3
   3   9  -5-10.2066 39.3176   3
   3   9  -5-54.9071 53.6889   6
   3   9  -4-8.87311 32.1908   3
   3   9  -4-88.7677 69.5331   6
   3   9  -3 310.630 115.050   3
   3   9  -3 503.801 181.996   6
   3   9  -2 835.983 177.078   3
   3   9  -2 1170.80 271.341   6
   3   9  -1 564.629 138.389   3
   3   9  -1 498.257 198.541   6
   3   9   0 804.322 161.753   3
   3   9   0 1138.67 265.210   6
   3   9   1 2277.94 378.487   6
   3   9   2 1178.85 272.407   6
   3   9   3 2563.80 406.678   6
   3   9   4 851.512 238.928   6
   3  10  -7 216.895 106.411   3
   3  10  -6-18.2752 70.2445   3
   3  10  -6 127.681 95.6292   6
   3  10  -5 85.7932 60.6177   3
   3  10  -5 122.646 97.5850   6
   3  10  -4-12.0695 29.3010   3
   3  10  -4 56.8095 63.5016   6
   3  10  -3 28.9327 47.9878   3
   3  10  -3 191.905 115.998   6
   3  10  -2 98.1521 60.5625   3
   3  10  -2-102.367 82.4241   6
   3  10  -1-17.1221 25.7845   3
   3  10  -1-53.9726 60.3771   6
   3  10   0 104.481 92.9292   6
   3  10   1 104.355 75.6410   6
   3  11  -4 81.8294 69.1587   3
   3  11  -3 474.723 154.735   3
   4 -11  -4 154.514 89.4941   5
  -4  11   4 89.1276 55.1655   3
   4 -11  -3 270.867 112.129   5
  -4  11   3 140.717 58.9846   3
  -4  11   2 804.930 175.421   3
  -4  11   1 13.5738 23.5134   3
  -4  11   0 619.620 152.268   3
  -4  11  -1 664.340 155.286   3
  -4  11  -2 588.992 154.887   3
  -4  11  -3 546.465 139.496   3
   4 -10  -7 166.178 90.0370   5
   4 -10  -6 2090.62 341.283   5
   4 -10  -5 1341.94 269.993   5
   4 -10  -4 2446.17 362.071   5
   4 -10  -3 1177.96 246.573   5
   4 -10  -2 723.026 192.092   5
  -4  10   1 863.378 173.243   3
   4 -10  -1 1490.30 271.595   5
  -4  10   0 342.565 108.489   3
  -4  10  -1 576.042 143.390   3
  -4  10  -2 240.763 90.0169   3
  -4  10  -3 4092.07 399.858   3
  -4  10  -4 682.356 154.961   3
  -4  10  -5 88.9439 57.1499   3
  -4  10  -6 52.7652 40.3796   3
  -4  10  -7 46.7268 45.0283   3
   4  -9  -9 875.247 230.570   5
   4  -9  -8 3960.62 495.384   5
   4  -9  -7 1804.58 315.803   5
   4  -9  -6 409.126 146.835   5
   4  -9  -5 857.418 205.169   5
   4  -9  -4 82.6386 53.2602   5
   4  -9  -3 553.214 164.172   5
   4  -9  -2 943.076 206.706   5
   4  -9  -1 299.918 117.057   5
   4  -9   0 3493.47 406.652   5
  -4   9  -1 904.346 215.759   4
  -4   9  -2 1538.71 268.197   4
  -4   9  -2 1664.74 238.761   3
  -4   9  -3 6251.65 524.392   4
  -4   9  -3 7236.08 527.810   3
  -4   9  -4 483.477 127.998   3
  -4   9  -4 386.442 112.442   4
  -4   9  -5 1545.24 232.300   4
  -4   9  -5 1910.17 253.312   3
  -4   9  -6 8.17797 23.4415   3
  -4   9  -6-21.5474 42.8942   4
  -4   9  -7 651.331 149.138   3
  -4   9  -8 73.5884 51.4640   3
  -4   9  -9 462.972 122.915   3
  -4   9 -10 546.427 132.938   3
   4  -8 -10 78.9172 77.4633   5
   4  -8  -9 89.4176 71.4293   5
   4  -8  -8 7625.44 703.058   5
   4  -8  -7 2919.08 413.856   5
   4  -8  -6 2739.93 384.949   5
   4  -8  -5 1730.12 291.163   5
   4  -8  -4 2759.73 367.375   5
   4  -8  -3 37.6527 38.9594   5
   4  -8  -2 88.7218 52.3945   5
   4  -8  -1 75.7959 58.9567   5
   4  -8   0 2752.69 347.032   5
  -4   8  -1 6453.75 595.574   4
   4  -8   1 5139.37 489.000   5
  -4   8  -2 4395.30 462.517   4
  -4   8  -3 731.708 168.759   4
  -4   8  -4 154.604 66.0311   4
  -4   8  -4 201.006 72.6239   3
  -4   8  -5 310.519 89.0786   3
  -4   8  -5 220.983 87.3004   4
  -4   8  -6 54.2248 16.7891   3
  -4   8  -6 36.1610 26.1042   4
  -4   8  -7 1574.48 233.337   4
  -4   8  -7 1614.27 223.691   3
  -4   8  -8 147.242 70.2702   3
  -4   8  -8 139.261 67.9496   4
  -4   8  -9 871.239 164.539   3
  -4   8  -9 820.555 162.724   4
  -4   8 -10 108.239 54.4659   3
  -4   8 -11 187.839 81.2241   3
  -4   8 -12 2872.41 321.425   3
   4  -7 -11 111.143 105.196   5
   4  -7 -10-25.0285 39.0358   5
   4  -7  -9 2878.52 419.877   5
   4  -7  -8 191.275 103.322   5
   4  -7  -7 6783.25 627.140   5
   4  -7  -6 927.578 211.241   5
   4  -7  -5 406.197 134.730   5
   4  -7  -4 1964.64 298.634   5
   4  -7  -3 7303.69 596.022   5
   4  -7  -2 96.0816 43.4774   5
   4  -7  -1 22336.8 1135.57   5
   4  -7   0 24.4172 28.6114   5
   4  -7   1 2919.12 343.206   5
  -4   7  -2 5387.08 506.158   4
   4  -7   2 4714.89 446.773   5
  -4   7  -3 6319.85 525.944   4
  -4   7  -4 3984.09 379.431   4
  -4   7  -5 510.950 130.619   3
  -4   7  -5 580.130 141.882   4
  -4   7  -6 2551.25 316.666   4
  -4   7  -6 2954.60 292.757   3
  -4   7  -7 3062.26 336.471   4
  -4   7  -7 3442.08 322.684   3
  -4   7  -8 2530.33 287.357   4
  -4   7  -8 2743.00 284.352   3
  -4   7  -9 47.3402 21.4919   3
  -4   7  -9 68.8434 45.5654   4
  -4   7 -10 389.176 113.925   1
  -4   7 -10 576.300 121.686   3
  -4   7 -11 663.424 135.826   1
  -4   7 -11 603.468 133.223   3
   4  -6 -12 459.914 172.468   5
   4  -6 -11 239.077 114.937   5
   4  -6 -10 5309.98 565.663   5
   4  -6  -9 6226.32 607.517   5
   4  -6  -8 6479.78 607.853   5
   4  -6  -7 2018.55 321.501   5
   4  -6  -6 3412.07 413.909   5
   4  -6  -5 1914.08 295.942   5
   4  -6  -4 56.4556 40.8596   5
   4  -6  -3 8289.94 633.774   5
   4  -6  -2 973.597 199.075   5
   4  -6  -1 33712.8 1507.86   5
   4  -6   0 30.0590 26.6892   5
   4  -6   1 7543.86 552.693   5
  -4   6  -2 1113.55 217.724   4
   4  -6   2 977.427 187.473   5
   4  -6   3 128.665 67.2153   5
  -4   6  -3 104.951 64.6878   4
  -4   6  -4 220.917 81.9165   4
  -4   6  -5 5146.24 429.956   4
  -4   6  -6 2587.01 306.776   4
  -4   6  -6 2858.04 278.468   3
  -4   6  -7-14.6688 26.9259   3
  -4   6  -7 22.5004 16.2843   4
  -4   6  -8 3859.17 360.014   4
  -4   6  -8 4204.38 345.211   3
  -4   6  -9 142.283 56.5160   3
  -4   6  -9 129.750 64.8954   4
  -4   6 -10 716.605 144.363   1
  -4   6 -10 893.525 147.695   3
  -4   6 -11 1274.04 180.809   3
  -4   6 -11 1388.15 202.428   1
  -4   6 -12 72.3768 50.0417   1
  -4   6 -13 526.770 131.667   1
   4  -5 -13-72.9898 101.696   5
   4  -5 -12 459.705 162.371   5
   4  -5 -11 1313.31 270.471   5
   4  -5 -10 4.02419 37.4820   5
   4  -5  -9 760.317 193.756   5
   4  -5  -8 163.940 84.5520   5
   4  -5  -7 2874.24 363.813   5
   4  -5  -6 3316.73 383.585   5
   4  -5  -5 7006.86 577.449   5
   4  -5  -4 1117.48 210.604   5
   4  -5  -3 30215.3 1409.12   5
   4  -5  -2 8320.22 609.220   5
   4  -5  -1 1179.18 207.537   5
   4  -5   0 5494.10 458.163   5
   4  -5   1 14318.4 799.820   5
  -4   5  -2 2430.63 315.497   4
   4  -5   2 1981.79 257.396   5
   4  -5   3 440.818 122.827   5
  -4   5  -3 366.357 112.336   4
  -4   5  -4 4412.54 388.439   4
  -4   5  -5 6819.54 503.984   4
  -4   5  -6 24792.7 1163.42   4
  -4   5  -7 19.8382 18.6788   3
  -4   5  -7 63.1894 44.5171   4
  -4   5  -8 65.4097 32.8690   3
  -4   5  -8 105.901 62.8044   4
  -4   5  -9 24.7679 18.2183   3
  -4   5  -9 128.044 63.1881   4
  -4   5 -10 818.094 154.995   1
  -4   5 -10 1006.21 147.130   3
  -4   5 -11 167.094 66.7609   1
  -4   5 -12 35.4059 23.9506   1
  -4   5 -13 170.274 75.7784   1
   4  -4 -13 1823.33 339.020   5
   4  -4 -12 3307.77 447.577   5
   4  -4 -11 2105.86 343.017   5
   4  -4 -10 5548.12 553.843   5
   4  -4  -9 3115.02 396.593   5
   4  -4  -8 1048.68 217.477   5
   4  -4  -7 10515.4 734.358   5
   4  -4  -6 739.972 168.499   5
   4  -4  -5 32903.7 1481.39   5
   4  -4  -4 9945.14 665.942   5
   4  -4  -3 10807.4 694.564   5
   4  -4  -2 6796.87 528.869   5
   4  -4  -1 5554.20 466.762   5
   4  -4   0-4.74237 13.6718   5
   4  -4   1 844.504 162.649   5
  -4   4  -1 1131.12 220.587   4
  -4   4  -2 6159.99 510.663   4
   4  -4   2 4871.84 401.504   5
  -4   4  -3 3696.47 358.977   4
   4  -4   3 3618.40 341.754   5
  -4   4  -4 946.958 174.330   4
  -4   4  -5-21.4256 33.5217   4
  -4   4  -6 22231.7 1068.37   4
  -4   4  -7-11.4764 34.0027   4
  -4   4  -8 2947.67 319.550   4
  -4   4  -8 3559.17 277.854   3
  -4   4  -9 21.0429 21.1540   3
  -4   4  -9 12.1482 35.1193   4
  -4   4  -9-6.02993 38.7263   1
  -4   4 -10 596.587 113.896   3
  -4   4 -10 665.161 139.329   1
  -4   4 -11 738.329 144.568   1
  -4   4 -12 882.328 163.785   1
  -4   4 -13 559.920 139.991   1
   4  -3 -14-76.0116 67.8844   5
   4  -3 -13 1320.24 272.173   5
   4  -3 -12 1022.02 232.101   5
   4  -3 -11 10.3449 39.2322   5
   4  -3 -10 53.3928 49.0583   5
   4  -3  -9 302.689 106.646   5
   4  -3  -8 4342.88 435.685   5
   4  -3  -7-5.02406 18.9661   5
   4  -3  -6 45.3008 25.9802   5
   4  -3  -5 32428.3 1465.90   5
   4  -3  -4 2219.23 281.925   5
   4  -3  -3 18212.2 930.453   5
   4  -3  -2-17.4478 14.8067   5
  -4   3   1 13310.9 542.565   6
   4  -3  -1 12929.8 750.797   5
   4  -3   0-16.5387 27.6040   5
  -4   3   0 3.36882 6.87031   6
  -4   3  -1 12091.6 759.933   4
   4  -3   1 10129.8 632.805   5
  -4   3  -2 10372.9 676.614   4
   4  -3   2 9629.73 594.427   5
  -4   3  -3 5528.52 434.374   4
   4  -3   3 5637.99 417.312   5
  -4   3  -4 43104.2 1740.92   4
   4  -3   4 45896.8 1725.88   5
  -4   3  -5 3178.74 328.138   4
  -4   3  -6 229.375 92.2032   4
  -4   3  -7 102.586 54.9925   4
  -4   3  -8 9.22973 11.3080   3
  -4   3  -8 13.7434 25.0618   4
  -4   3  -9-3.46133 12.9335   3
  -4   3  -9 36.8307 35.9647   4
  -4   3  -9-22.9400 30.5898   1
  -4   3 -10 94.0220 53.2181   1
  -4   3 -11 231.951 85.8927   1
  -4   3 -12 1040.32 185.647   1
   4  -2 -14 3686.57 488.034   5
   4  -2 -13 959.144 237.561   5
   4  -2 -12 940.641 229.850   5
   4  -2 -11 329.750 126.835   5
   4  -2 -10 1564.14 283.234   5
   4  -2  -9 760.984 181.096   5
   4  -2  -8 106.531 62.3668   5
   4  -2  -7 15074.8 865.187   5
   4  -2  -6 27999.4 1285.68   5
   4  -2  -5 3568.16 351.777   5
   4  -2  -4 1916.42 245.667   5
   4  -2  -3 4073.52 368.915   5
   4  -2  -2 1073.24 181.922   5
  -4   2   1 2504.97 202.577   6
   4  -2  -1 2422.66 265.665   5
   4  -2   0 12.6889 9.18350   5
  -4   2   0 35.3966 18.1960   6
  -4   2  -1 2541.47 307.050   4
   4  -2   1 2141.43 249.411   5
   4  -2   2 520.509 116.142   5
  -4   2  -2 352.681 108.471   4
  -4   2  -3 1597.97 210.648   4
   4  -2   3 1582.56 90.1954   6
   4  -2   3 1568.18 194.081   5
  -4   2  -4 41040.8 1616.61   4
   4  -2   4 39132.0 1310.74   6
  -4   2  -5 10538.0 620.284   4
   4  -2   5 9284.83 404.714   6
  -4   2  -6 116.748 50.0950   4
   4  -2   6 114.139 40.9963   6
  -4   2  -7 5896.37 437.312   4
  -4   2  -8 7551.84 499.273   4
  -4   2  -8 6395.39 394.386   3
  -4   2  -9 1190.29 180.803   1
  -4   2 -10 1924.35 235.620   1
  -4   2 -11 551.556 129.251   1
  -4   2 -12 1742.96 241.477   1
   4  -1 -14 944.501 238.743   5
   4  -1 -13 226.957 117.504   5
   4  -1 -12 244.989 107.634   5
   4  -1 -11-8.94622 43.2407   5
   4  -1 -10 3.24373 37.0406   5
   4  -1  -9 3073.22 369.470   5
   4  -1  -8 587.796 149.213   5
   4  -1  -7 8828.89 623.268   5
   4  -1  -6 13093.1 765.050   5
   4  -1  -5 9650.68 615.934   5
   4  -1  -4 4209.07 363.552   5
   4  -1  -3 5026.05 396.143   5
   4  -1  -2 626.562 132.181   5
   4  -1  -1 6993.54 473.388   5
  -4   1   0 47634.4 1948.97   4
  -4   1   0 45062.6 1601.08   6
   4  -1   0 46149.6 1739.04   5
  -4   1  -1 2822.41 314.631   4
   4  -1   1 2353.25 175.409   6
   4  -1   1 2340.00 248.609   5
   4  -1   2 9898.38 431.575   6
   4  -1   2 9420.03 570.372   5
  -4   1  -3 5251.82 402.068   4
   4  -1   3 5509.18 299.108   6
   4  -1   3 5587.33 375.642   5
   4  -1   4 130.571 52.9757   5
  -4   1  -4 133.000 65.1866   4
   4  -1   4 174.415 46.0915   6
  -4   1  -5 2235.84 253.841   4
   4  -1   5 2001.44 187.931   6
  -4   1  -6 9861.45 574.722   4
   4  -1   6 8566.65 493.311   6
  -4   1  -7 5409.47 410.465   4
  -4   1  -8 1949.77 237.134   1
  -4   1  -8 1792.51 224.395   4
  -4   1  -9 610.443 126.267   1
  -4   1 -10 1845.24 230.724   1
  -4   1 -11 734.477 147.553   1
  -4   1 -12 50.4759 49.2259   1
   4   0 -14 631.781 198.730   5
   4   0 -13 566.825 173.225   5
   4   0 -12 176.153 102.748   5
   4   0 -11 675.167 181.444   5
   4   0 -10 482.289 150.136   5
   4   0  -9 3550.07 394.000   5
   4   0  -8 5560.74 483.774   5
   4   0  -7 373.343 110.411   5
   4   0  -6 3184.90 332.959   5
   4   0  -5-16.6348 33.2364   5
   4   0  -4 424.305 112.114   5
   4   0  -3 1102.41 173.711   5
   4   0  -2 2250.01 241.557   5
   4   0  -1 3537.91 273.011   6
   4   0  -1 3204.01 292.309   5
  -4   0   0 3480.71 341.914   4
   4   0   0 2824.61 228.660   6
   4   0   0 2924.81 273.742   5
  -4   0  -1 2016.95 245.112   4
   4   0   1 1807.52 177.661   6
   4   0   1 2370.54 236.923   5
  -4   0  -2 21376.6 925.550   4
   4   0   2 21444.2 826.580   6
  -4   0  -3 18371.7 877.856   4
   4   0   3 18524.7 783.440   6
   4   0   3 19359.7 827.469   5
   4   0   4 746.330 130.105   6
  -4   0  -4 1063.36 176.947   4
   4   0   4 1273.75 158.223   5
  -4   0  -5 1461.77 194.034   4
  -4   0  -6 44533.7 1698.93   4
  -4   0  -7 6713.37 455.225   4
   4   0   7 6370.74 437.288   6
  -4   0  -8 367.143 99.2330   1
  -4   0  -9 8990.87 556.586   1
  -4   0 -10 640.069 134.841   1
  -4   0 -11 936.596 169.895   1
  -4   0 -12 1169.59 198.840   1
   4   1 -14 115.438 76.4039   5
   4   1 -13 668.698 183.466   5
   4   1 -12 618.579 167.580   5
   4   1 -11 943.706 205.444   5
   4   1 -10 269.611 109.271   5
   4   1  -9 475.295 130.491   5
   4   1  -8 4661.74 417.232   5
   4   1  -7 6414.01 477.299   5
   4   1  -6 927.116 166.937   5
   4   1  -5 3966.82 352.950   5
   4   1  -4 8632.83 549.413   5
   4   1  -3 2443.29 258.603   5
   4   1  -2 34262.1 1372.80   5
  -4  -1   1 20731.9 958.988   4
   4   1  -1 15864.5 784.053   5
  -4  -1   0 107.689 48.3847   4
   4   1   0-7.66476 33.7504   5
   4   1   1 281.981 71.2247   5
  -4  -1  -1 401.219 94.1214   4
   4   1   2 468.189 95.3859   5
  -4  -1  -2 502.397 111.611   4
  -4  -1  -3 707.202 141.341   4
   4   1   3 828.215 117.856   5
  -4  -1  -4 2056.98 232.644   4
   4   1   4 2048.00 176.077   5
  -4  -1  -5 3473.04 299.787   4
  -4  -1  -6 6897.60 442.203   4
   4   1   6 5481.10 440.859   6
   4   1   7 60.1897 47.5623   6
  -4  -1  -7-8.13951 26.8438   1
   4   1   8 2863.97 314.842   6
  -4  -1  -8 2883.10 285.880   1
  -4  -1  -9 1778.14 223.442   1
  -4  -1 -10 10.0502 8.06223   1
  -4  -1 -11 642.085 143.758   1
   4   2 -13 151.891 90.2133   5
   4   2 -12 3137.09 408.636   5
   4   2 -11 1075.42 231.539   5
   4   2 -10 53.3406 61.1610   5
   4   2  -9 45.8277 42.3838   5
   4   2  -8 44.9615 48.5482   5
   4   2  -7 412.674 119.196   5
   4   2  -6 4916.43 418.623   5
   4   2  -5 2294.46 260.262   5
   4   2  -4 13.5479 8.62880   5
   4   2  -4 10.9356 18.9503   6
   4   2  -3 509.030 109.884   5
   4   2  -3 762.851 145.375   6
   4   2  -2 4722.28 363.694   6
   4   2  -2 4368.89 343.769   5
   4   2  -1 33.9687 34.6377   5
  -4  -2   1 27.6766 37.5724   4
   4   2  -1 85.1459 47.1858   6
  -4  -2   0 10428.9 566.322   4
   4   2   0 9505.63 519.040   5
  -4  -2  -1 4340.38 336.571   4
   4   2   1 4007.13 302.627   5
  -4  -2  -2 1576.90 194.232   4
   4   2   2 1628.17 207.355   6
   4   2   2 1664.54 189.116   5
  -4  -2  -3 8784.85 502.814   4
   4   2   3 7691.12 509.791   6
   4   2   3 7628.51 391.697   5
  -4  -2  -4 9649.01 539.486   4
   4   2   4 10251.1 622.949   6
  -4  -2  -5 15551.1 734.606   4
   4   2   5 13835.5 818.941   6
   4   2   6 574.469 175.563   6
  -4  -2  -6 935.362 149.328   1
   4   2   7 8067.29 589.823   6
  -4  -2  -7 8424.20 511.367   1
   4   2   8 1207.86 217.439   6
  -4  -2  -8 1218.52 176.875   1
   4   2   9 46.2971 47.5506   6
  -4  -2  -9 29.6512 43.8864   1
  -4  -2 -10 149.599 70.3806   1
  -4  -2 -11-57.9029 39.8237   1
   4   3 -13 3741.87 459.035   5
   4   3 -12 66.7268 55.4252   5
   4   3 -11 88.3698 66.0187   5
   4   3 -10 755.501 177.685   5
   4   3  -9 519.965 141.602   5
   4   3  -8 3468.30 363.374   5
   4   3  -7 306.461 94.9656   5
   4   3  -6 2491.80 279.135   5
   4   3  -5 4962.71 442.423   6
   4   3  -5 4435.17 373.247   5
   4   3  -4 13209.8 752.195   6
   4   3  -4 11248.2 646.276   5
   4   3  -3 8467.56 549.048   6
   4   3  -3 6597.50 455.994   5
  -4  -3   2 778.704 145.541   4
   4   3  -2 721.974 142.573   6
   4   3  -2 846.269 142.254   5
   4   3  -1 66.9592 40.7761   5
  -4  -3   1 81.6433 35.5074   4
   4   3  -1-2.44526 34.4973   6
  -4  -3   0 1294.40 175.416   4
   4   3   0 1526.29 222.973   6
   4   3   0 1468.24 176.320   5
   4   3   1 294.111 71.5726   5
  -4  -3  -1 332.619 95.3390   4
   4   3   1 422.836 118.920   6
  -4  -3  -2 1620.59 189.335   4
   4   3   2 1898.81 244.576   6
   4   3   2 1727.03 164.204   5
  -4  -3  -3 1046.64 151.017   4
   4   3   3 1151.18 188.779   6
  -4  -3  -4 796.217 127.534   4
   4   3   4 464.791 127.425   6
  -4  -3  -5 66.2443 41.7812   1
   4   3   5 61.7564 45.1042   6
   4   3   6 2210.05 306.715   6
  -4  -3  -6 1816.38 208.909   1
   4   3   7 5647.01 512.459   6
  -4  -3  -7 5184.13 379.639   1
   4   3   8 2783.83 385.005   6
  -4  -3  -8 2698.79 270.399   1
   4   3   9 1340.94 251.084   6
  -4  -3  -9 1103.52 180.290   1
  -4  -3 -10 1211.54 193.806   1
   4   3  10 1364.55 261.754   6
   4   3  11 2317.78 355.146   6
   4   4 -13 1593.10 290.005   5
   4   4 -12 203.216 98.0444   5
   4   4 -11 21.9176 49.6792   5
   4   4 -10 31.4760 52.7059   5
   4   4  -9 103.582 76.6429   5
   4   4  -8 365.004 117.891   5
   4   4  -7 2872.89 321.561   5
   4   4  -6 687.486 198.559   6
   4   4  -6 951.594 178.531   5
   4   4  -5 21.8045 5.17895   5
   4   4  -5 94.1939 73.4853   6
   4   4  -4 2423.76 303.734   6
   4   4  -4 2044.15 239.013   5
  -4  -4   3 4708.98 376.128   4
   4   4  -3 5273.18 437.101   6
   4   4  -3 4459.21 361.669   5
  -4  -4   2 1381.82 159.309   4
   4   4  -2 1524.91 233.039   6
   4   4  -2 954.532 157.071   5
  -4  -4   1 2475.83 220.952   4
   4   4  -1 2680.44 317.137   6
   4   4  -1 2426.32 232.671   5
  -4  -4   0 4799.55 337.093   4
   4   4   0 4820.33 447.964   6
   4   4   0 5319.51 346.141   5
  -4  -4  -1 7939.48 441.752   4
   4   4   1 7974.94 581.651   6
  -4  -4  -2 6163.64 379.764   4
   4   4   2 6167.90 503.877   6
  -4  -4  -3 826.245 123.926   4
   4   4   3 533.393 136.986   6
   4   4   4 4085.59 424.999   6
  -4  -4  -4 4288.13 320.624   1
   4   4   5 2008.37 317.571   6
  -4  -4  -5 2404.79 235.639   1
   4   4   6 732.502 199.900   6
  -4  -4  -6 1489.61 184.658   1
  -4  -4  -7 306.991 87.2656   1
   4   4   7 257.477 116.677   6
   4   4   8 1223.38 258.569   6
  -4  -4  -8 1118.23 173.774   1
  -4  -4  -9 845.375 156.042   1
   4   4   9 673.791 186.460   6
   4   4  10 219.189 109.414   6
  -4  -4 -10 131.211 65.9155   1
   4   4  11 0.21529 26.1957   6
   4   5 -12 96.3534 90.4388   5
   4   5 -11-42.7426 45.9832   5
   4   5 -10 1385.55 267.938   5
   4   5  -9 765.170 187.460   5
   4   5  -8 43.4034 47.6183   5
   4   5  -7 1621.67 246.954   5
   4   5  -6 1904.04 293.198   6
   4   5  -6 1213.26 210.646   5
  -4  -5   5 4025.42 333.289   4
   4   5  -5 3863.77 422.941   6
   4   5  -5 3079.82 334.171   5
   4   5  -4 30.4556 30.6993   5
  -4  -5   4-19.9825 14.6291   4
   4   5  -4-32.2384 38.8813   6
   4   5  -3 482.075 112.303   5
  -4  -5   3 485.045 85.9834   4
   4   5  -3 578.919 153.631   6
   4   5  -2 202.808 71.1268   5
  -4  -5   2 183.716 53.6616   4
   4   5  -2 37.7450 56.4732   6
   4   5  -1 90.9068 51.5330   5
  -4  -5   1 199.253 55.0121   4
   4   5  -1 277.125 110.142   6
  -4  -5   0 187.569 51.1649   4
   4   5   0 222.101 91.2959   6
  -4  -5  -1 2570.96 209.125   4
   4   5   1 2536.69 337.287   6
  -4  -5  -2 21.9247 27.5187   1
   4   5   2 43.9998 16.3722   6
   4   5   3 31.4751 36.5371   6
  -4  -5  -3 4.91318 15.0825   1
   4   5   4 1015.21 216.114   6
  -4  -5  -4 973.015 138.598   1
   4   5   5 3529.10 434.036   6
  -4  -5  -5 3130.81 273.563   1
   4   5   6 3267.67 438.327   6
  -4  -5  -6 3075.57 284.990   1
   4   5   7 4472.19 524.699   6
  -4  -5  -7 3458.05 319.205   1
   4   5   8 2361.39 379.922   6
  -4  -5  -8 1777.58 234.020   1
  -4  -5  -9 1676.53 232.152   1
   4   5   9 1059.34 293.160   6
   4   5  10 1363.33 295.625   6
   4   6 -11 53.6423 73.3547   5
   4   6 -10 66.4646 69.5673   5
   4   6  -9 101.743 74.7207   5
   4   6  -8 141.456 79.8727   5
   4   6  -8 102.098 61.5403   3
   4   6  -7 29.8466 43.2271   5
   4   6  -7-46.4395 49.1152   6
   4   6  -7 42.3916 43.5363   3
   4   6  -6 1206.03 228.296   3
   4   6  -6 1467.68 271.281   6
   4   6  -6 1150.88 198.024   5
   4   6  -5 42.0165 39.6438   5
   4   6  -5 26.2390 26.3511   6
   4   6  -5-2.68498 35.8167   3
   4   6  -4 510.293 123.554   5
   4   6  -4 586.846 164.420   6
   4   6  -3 2451.65 334.847   6
   4   6  -3 1992.24 248.305   5
   4   6  -2 3406.19 399.584   6
   4   6  -2 2047.75 230.149   5
   4   6  -1 4927.74 509.722   6
  -4  -6   0 901.594 115.820   1
   4   6   0 601.237 170.583   6
   4   6   1 1292.19 248.279   6
  -4  -6  -1 1219.01 143.532   1
   4   6   2 923.592 211.209   6
  -4  -6  -2 1025.46 130.976   1
   4   6   3 135.712 76.2007   6
  -4  -6  -3 252.904 66.9670   1
   4   6   4 663.840 211.729   6
  -4  -6  -4 890.053 134.987   1
  -4  -6  -5-3.31711 26.1628   1
   4   6   5-80.5784 66.0480   6
  -4  -6  -6 35.5028 22.5626   1
   4   6   6-23.9546 34.3168   6
  -4  -6  -7 864.843 161.189   1
   4   6   7 1021.60 264.912   6
   4   6   8-18.5463 62.2835   6
  -4  -6  -8 153.513 69.8782   1
   4   6   9 157.295 103.699   6
  -4  -6  -9 210.474 78.0206   1
   4   7 -11 622.685 184.006   5
   4   7 -10 41.8298 52.9134   5
   4   7 -10 56.2610 53.7605   3
   4   7  -9-30.0218 37.1736   5
   4   7  -9 12.5879 21.3789   3
   4   7  -8 165.511 91.2329   5
   4   7  -8 81.6967 66.7584   3
   4   7  -7 102.038 62.8968   5
   4   7  -7 72.2621 42.8761   6
   4   7  -7 98.6081 58.4568   3
   4   7  -6 786.120 170.001   5
   4   7  -6 1230.70 268.610   6
   4   7  -6 716.118 182.571   3
   4   7  -5 164.774 74.5125   5
   4   7  -5 350.297 136.445   6
   4   7  -5 214.417 97.3665   3
   4   7  -4-46.6540 43.7770   5
   4   7  -4-27.6843 49.3568   6
   4   7  -4 9.90357 11.6947   3
   4   7  -3 88.6801 57.6334   6
   4   7  -3 66.3756 62.8192   3
   4   7  -2 59.2113 60.4283   6
   4   7  -1 531.458 161.224   6
   4   7   0 434.618 154.886   6
   4   7   1 802.795 209.081   6
   4   7   2-8.24334 63.1755   6
   4   7   3 1183.40 252.844   6
   4   7   4 1008.19 242.555   6
   4   7   5 1133.32 285.880   6
   4   7   6 4372.26 564.325   6
   4   7   7 301.076 146.380   6
   4   8 -10 67.5674 48.2997   5
   4   8  -9-28.0472 47.6314   5
   4   8  -8 449.076 149.570   3
   4   8  -8 154.021 85.3135   5
   4   8  -8 715.590 220.721   6
   4   8  -7 91.4627 77.5075   3
   4   8  -7 156.598 77.1512   5
   4   8  -7 92.4536 58.3526   6
   4   8  -6 336.839 138.545   3
   4   8  -6 656.942 162.114   5
   4   8  -6 245.942 137.768   6
   4   8  -5 3091.20 347.435   5
   4   8  -5 3754.44 464.240   6
   4   8  -5 2999.30 381.052   3
   4   8  -4 4136.64 479.847   6
   4   8  -4 2140.93 315.749   3
   4   8  -3 454.307 163.188   6
   4   8  -3 488.614 144.812   3
   4   8  -2 547.255 177.461   6
   4   8  -2 583.605 152.584   3
   4   8  -1-3.79518 23.4346   6
   4   8   0 1116.86 276.442   6
   4   8   1 62.7129 61.4822   6
   4   8   2 94.8552 54.1860   6
   4   8   3-33.3767 62.9781   6
   4   8   4 41.7282 67.8964   6
   4   8   5-57.6537 23.9964   6
   4   9  -9 31.2866 57.0715   5
   4   9  -8 159.743 91.6304   5
   4   9  -7 576.856 181.388   3
   4   9  -7 507.142 153.225   5
   4   9  -6 283.600 140.111   3
   4   9  -6 602.305 200.270   6
   4   9  -5 81.1156 57.2508   3
   4   9  -5 52.5347 60.0958   6
   4   9  -4 81.2198 64.1161   3
   4   9  -4 28.0037 75.6045   6
   4   9  -3 134.853 87.1267   3
   4   9  -3 268.521 121.654   6
   4   9  -2 186.897 111.783   6
   4   9  -2 162.913 96.6614   3
   4   9  -1 14.3007 32.2646   6
   4   9   0 3.78710 40.4250   6
   4   9   1 145.048 112.759   6
   4  10  -4 164.179 104.817   3
   4  10  -3 42.7069 43.8998   3
   5 -10  -2 473.884 164.970   5
   5 -10  -1 81.2915 59.8943   5
  -5  10   0 5977.48 660.945   4
   5 -10   0 4805.50 536.177   5
  -5  10  -1 767.940 216.472   4
  -5  10  -2 165.356 81.2629   3
  -5  10  -2 142.689 73.9784   4
  -5  10  -3 1139.26 221.073   3
   5  -9  -6 1522.61 307.799   5
   5  -9  -5 157.864 96.6393   5
   5  -9  -4 328.360 129.016   5
   5  -9  -3 2095.87 333.631   5
   5  -9  -2 2709.25 382.947   5
   5  -9  -1 396.717 142.963   5
   5  -9   0 47.5352 57.5278   5
   5  -9   1 75.3093 65.8620   5
  -5   9  -1 187.921 111.442   4
  -5   9  -2-130.176 84.3373   4
  -5   9  -3 517.609 153.470   4
  -5   9  -4 1696.97 276.863   4
  -5   9  -4 2045.97 278.878   3
  -5   9  -5 441.305 130.999   3
  -5   9  -5 432.184 136.766   4
  -5   9  -6-62.4454 64.8651   3
  -5   9  -6-15.5063 16.4515   4
  -5   9  -7 60.4392 47.9413   3
  -5   9  -7 27.8440 10.6780   4
  -5   9  -8 614.230 156.426   4
   5  -8  -8 2021.40 366.599   5
   5  -8  -7 92.3306 81.0599   5
   5  -8  -6 264.467 126.585   5
   5  -8  -5 1599.05 300.567   5
   5  -8  -4 1504.24 284.977   5
   5  -8  -3 1003.01 224.755   5
   5  -8  -2 3850.08 442.473   5
   5  -8  -1 1686.86 285.977   5
   5  -8   0 1657.90 283.211   5
   5  -8   1 329.902 127.102   5
  -5   8  -1 119.724 78.0830   4
  -5   8  -2 5590.01 577.088   4
   5  -8   2 4528.17 484.941   5
  -5   8  -3 4378.91 465.357   4
  -5   8  -4 808.337 184.876   4
  -5   8  -5 628.563 143.956   3
  -5   8  -5 519.884 149.758   4
  -5   8  -6 161.687 71.3545   3
  -5   8  -6 137.502 75.7630   4
  -5   8  -7 1695.88 280.068   4
  -5   8  -7 1821.64 252.249   3
  -5   8  -8 3.70286 23.0974   3
  -5   8  -8 26.2253 26.4884   4
  -5   8  -9 673.494 149.061   3
  -5   8  -9 793.591 177.050   4
  -5   8 -10 19.6349 29.6796   3
  -5   8 -10 155.124 80.5581   4
   5  -7  -9 3043.19 458.943   5
   5  -7  -8 4369.55 539.389   5
   5  -7  -7 719.285 205.444   5
   5  -7  -6 2425.74 379.584   5
   5  -7  -5-20.4935 62.4876   5
   5  -7  -4 4646.92 514.180   5
   5  -7  -3 194.047 96.9158   5
   5  -7  -2 45.4087 37.7262   5
   5  -7  -1 357.702 128.565   5
   5  -7   0-1.09325 23.4472   5
   5  -7   1 32.9440 46.6626   5
  -5   7  -1-24.4500 67.4569   4
  -5   7  -2 6618.18 632.171   4
   5  -7   2 5476.93 518.609   5
  -5   7  -3 9.10187 30.5663   4
  -5   7  -4 1088.80 213.964   4
  -5   7  -5-18.6866 8.18955   4
  -5   7  -6 289.373 86.3723   3
  -5   7  -6 294.887 113.537   4
  -5   7  -7 490.711 131.788   3
  -5   7  -7 386.861 130.834   4
  -5   7  -8 188.002 76.8255   3
  -5   7  -8 190.634 81.3847   4
  -5   7  -9 508.057 126.086   3
  -5   7  -9 560.953 145.839   4
  -5   7 -10 2305.60 291.132   1
  -5   7 -10 2597.79 322.230   4
  -5   7 -10 2293.21 270.599   3
  -5   7 -11 454.732 125.703   1
   5  -6 -10 669.756 207.825   5
   5  -6  -9 2008.59 356.432   5
   5  -6  -8 2127.35 360.503   5
   5  -6  -7 2186.87 355.458   5
   5  -6  -6 1830.00 320.246   5
   5  -6  -5 2652.26 380.828   5
   5  -6  -4 3008.26 396.868   5
   5  -6  -3 2830.81 379.155   5
   5  -6  -2 22.0356 36.0529   5
   5  -6  -1 1117.34 221.486   5
   5  -6   0 6598.55 556.595   5
  -5   6  -1 20916.9 1205.23   4
   5  -6   1 16413.9 972.280   5
   5  -6   2 306.218 107.901   5
  -5   6  -2 535.245 174.189   4
   5  -6   3 1024.25 204.729   5
  -5   6  -3 1146.68 233.563   4
  -5   6  -4 2401.59 317.810   4
  -5   6  -5 1882.82 285.512   4
  -5   6  -6 377.289 137.990   4
  -5   6  -7 7.79029 29.2642   3
  -5   6  -7-35.7956 30.4539   4
  -5   6  -8 395.616 105.563   3
  -5   6  -8 421.071 128.350   4
  -5   6  -9-19.5998 20.0322   3
  -5   6  -9 53.0085 46.4908   4
  -5   6 -10 308.770 110.047   4
  -5   6 -10 178.625 79.4386   1
  -5   6 -11 2243.97 279.213   1
   5  -5 -11 80.9246 60.4182   5
   5  -5 -10 4629.70 546.241   5
   5  -5  -9 242.505 103.356   5
   5  -5  -8 8370.99 715.783   5
   5  -5  -7 163.519 85.8776   5
   5  -5  -6 2204.36 339.570   5
   5  -5  -5 759.446 191.331   5
   5  -5  -4 3057.50 390.167   5
   5  -5  -3 3072.21 382.348   5
   5  -5  -2 13556.9 868.867   5
   5  -5  -1 890.731 196.224   5
   5  -5   0 3304.13 374.273   5
  -5   5  -1 3959.38 473.271   4
   5  -5   1 3510.14 383.754   5
  -5   5  -2 4975.14 527.788   4
   5  -5   2 4512.55 430.848   5
  -5   5  -3 9698.56 700.570   4
   5  -5   3 9494.83 664.427   5
  -5   5  -4 815.663 180.560   4
  -5   5  -5 1191.55 217.135   4
  -5   5  -6 2170.13 308.263   4
  -5   5  -7 2746.81 339.125   4
  -5   5  -8 663.648 155.270   4
  -5   5  -8 728.804 148.707   3
  -5   5  -9 3915.41 399.754   4
  -5   5  -9 4707.19 367.387   3
  -5   5 -10 57.1309 45.9148   4
  -5   5 -10 44.1248 34.6478   1
  -5   5 -11-44.5802 44.0496   1
   5  -4 -11 716.576 222.627   5
   5  -4 -10 2590.63 404.519   5
   5  -4  -9 5242.01 561.443   5
   5  -4  -8 2874.65 394.079   5
   5  -4  -7 1980.42 319.126   5
   5  -4  -6 3534.83 419.498   5
   5  -4  -5 703.216 173.032   5
   5  -4  -4 6875.39 580.446   5
   5  -4  -3 3155.68 378.510   5
   5  -4  -2 29463.7 1427.96   5
   5  -4  -1 15404.4 911.261   5
   5  -4   0 658.498 161.781   5
  -5   4  -1 3724.01 445.346   4
   5  -4   1 2845.87 333.947   5
  -5   4  -2 2027.14 309.436   4
   5  -4   2 1865.09 256.554   5
  -5   4  -3 3470.99 383.234   4
   5  -4   3 3726.64 372.592   5
  -5   4  -4 953.920 193.894   4
   5  -4   4 1074.72 208.083   5
  -5   4  -5 964.787 198.111   4
  -5   4  -6 695.082 177.835   4
  -5   4  -7 987.972 195.645   4
  -5   4  -8-31.5871 33.9383   3
  -5   4  -8 2.93514 10.8585   4
  -5   4  -9 813.710 173.829   4
  -5   4 -10 2154.45 277.416   1
  -5   4 -11 86.6590 39.6668   1
   5  -3 -12 1469.24 301.741   5
   5  -3 -11 145.662 86.1353   5
   5  -3 -10 1093.33 241.028   5
   5  -3  -9 3561.66 434.046   5
   5  -3  -8 48.8074 50.3094   5
   5  -3  -7 880.035 204.690   5
   5  -3  -6 3825.38 432.243   5
   5  -3  -5 8277.04 638.813   5
   5  -3  -4 4000.77 414.715   5
   5  -3  -3 10913.5 728.739   5
   5  -3  -2 14.7751 26.2799   5
   5  -3  -1 1808.00 270.184   5
   5  -3   0 11750.4 746.840   5
  -5   3  -1 10920.7 765.534   4
   5  -3   1 8016.53 611.787   5
   5  -3   2 963.630 177.479   5
  -5   3  -2 973.992 202.782   4
  -5   3  -3 1287.55 219.210   4
   5  -3   3 1209.86 198.472   5
  -5   3  -4 3737.97 382.893   4
   5  -3   4 4102.11 378.191   5
  -5   3  -5 26565.5 1272.14   4
  -5   3  -6 3135.94 354.539   4
  -5   3  -7 1378.60 223.768   4
  -5   3  -8 1319.02 219.140   4
  -5   3  -9 93.1473 59.0766   4
  -5   3 -10 5.69586 39.0886   1
  -5   3 -11 6.83414 18.3013   1
   5  -2 -12 719.487 203.183   5
   5  -2 -11 2414.26 371.812   5
   5  -2 -10 3657.81 446.280   5
   5  -2  -9 195.767 95.4785   5
   5  -2  -8 4194.88 455.826   5
   5  -2  -7 360.601 120.061   5
   5  -2  -6 7258.69 581.676   5
   5  -2  -5 4568.87 443.442   5
   5  -2  -4 2712.29 335.839   5
   5  -2  -3 18513.1 988.710   5
   5  -2  -2 72.5412 55.1437   5
   5  -2  -1 220.329 90.8922   5
   5  -2   0 467.807 126.816   5
  -5   2   0 564.950 159.136   4
   5  -2   1 92.6542 46.4720   5
  -5   2  -1-28.7448 47.2522   4
   5  -2   2 8.38155 7.94633   5
  -5   2  -2 38.1772 47.9798   4
   5  -2   3 127.809 66.5806   5
  -5   2  -3 466.843 128.642   4
  -5   2  -4 2778.56 322.748   4
   5  -2   4 3128.61 313.897   5
  -5   2  -5 5954.78 512.448   4
  -5   2  -6 263.624 99.4390   4
  -5   2  -7 1573.30 235.072   4
  -5   2  -8 150.636 73.7291   4
  -5   2  -9 218.181 87.7124   4
  -5   2  -9 121.652 56.8956   1
  -5   2 -10 590.886 144.033   1
   5  -1 -12-106.807 73.5050   5
   5  -1 -11 150.767 83.1347   5
   5  -1 -10-18.5274 55.9060   5
   5  -1  -9 1076.67 229.010   5
   5  -1  -8 583.572 162.539   5
   5  -1  -7 3475.48 395.462   5
   5  -1  -6 4487.34 437.188   5
   5  -1  -5 682.683 160.455   5
   5  -1  -4 6458.27 511.228   5
   5  -1  -3-3.26968 19.7008   5
   5  -1  -2 3290.16 343.567   5
   5  -1  -1 877.068 172.864   5
  -5   1   0 2746.90 352.070   4
   5  -1   0 2625.05 301.703   5
  -5   1  -1 3433.05 374.635   4
   5  -1   1 3349.72 339.104   5
  -5   1  -2 1416.63 220.254   4
   5  -1   2 1451.74 144.712   6
   5  -1   2 1588.78 231.094   5
  -5   1  -3 35373.7 1526.59   4
   5  -1   3 36384.8 1461.67   5
  -5   1  -4 13103.0 792.813   4
   5  -1   4 15400.6 766.794   5
  -5   1  -5 1151.65 204.492   4
  -5   1  -6 493.681 128.423   4
  -5   1  -7 150.521 74.7400   4
  -5   1  -8 93.3047 54.3985   4
  -5   1  -9 2.58307 20.3870   1
  -5   1 -10 620.278 148.610   1
   5   0 -12 168.540 97.9936   5
   5   0 -11 677.827 192.709   5
   5   0 -10 131.307 79.8657   5
   5   0  -9 130.932 80.2762   5
   5   0  -8 2657.34 351.490   5
   5   0  -7 12034.5 793.384   5
   5   0  -6 2257.33 302.816   5
   5   0  -5 1773.53 255.826   5
   5   0  -4 2082.44 276.617   5
   5   0  -3 323.840 98.7932   5
   5   0  -2 126.086 72.7816   5
   5   0  -1 288.959 99.4226   5
  -5   0   1 441.025 144.235   4
   5   0   0 612.074 138.753   5
  -5   0   0 844.797 185.466   4
   5   0   1 3.94046 29.2343   5
  -5   0  -1-7.77177 31.1589   4
   5   0   2 539.137 121.603   5
  -5   0  -2 672.378 145.772   4
   5   0   2 587.631 103.724   6
  -5   0  -3 10738.0 670.654   4
   5   0   3 10949.5 628.556   5
  -5   0  -4 5848.82 487.595   4
  -5   0  -5 768.391 157.844   4
  -5   0  -6 398.433 116.041   4
  -5   0  -7 1781.28 240.955   4
  -5   0  -8 826.723 159.681   1
  -5   0  -9 1267.68 202.339   1
  -5   0 -10 387.370 113.361   1
   5   1 -12-24.4569 30.5818   5
   5   1 -11 25.9518 54.6117   5
   5   1 -10 203.060 95.5831   5
   5   1  -9 343.540 127.559   5
   5   1  -8 803.250 189.968   5
   5   1  -7 4217.03 433.445   5
   5   1  -6 2262.67 304.584   5
   5   1  -5 1774.06 256.252   5
   5   1  -4 341.564 107.793   5
   5   1  -3 159.191 72.6260   5
   5   1  -2-19.6866 5.82419   5
  -5  -1   2-55.6900 77.1448   4
  -5  -1   1 9128.07 634.108   4
   5   1  -1 8218.56 527.075   6
   5   1  -1 7435.94 532.614   5
  -5  -1   0 1766.42 246.040   4
   5   1   0 1609.39 198.539   6
   5   1   0 1628.05 217.854   5
  -5  -1  -1 10066.4 634.953   4
   5   1   1 11492.9 652.685   5
  -5  -1  -2 9556.23 604.466   4
   5   1   2 9424.02 563.464   6
   5   1   2 10336.7 591.180   5
  -5  -1  -3 24.0951 38.4569   4
   5   1   3 48.4152 26.1197   6
  -5  -1  -4 5290.72 432.656   4
   5   1   4 5379.74 409.117   6
  -5  -1  -5 1882.74 238.670   4
   5   1   5 2004.77 239.931   6
  -5  -1  -6 340.732 100.195   4
   5   1   6 227.082 85.0145   6
  -5  -1  -7 1369.63 206.145   1
  -5  -1  -7 1622.67 223.843   4
  -5  -1  -8 1260.35 199.469   1
  -5  -1  -9 0.34282 15.2780   1
  -5  -1 -10 65.0897 45.7738   1
   5   2 -12 0.59398 41.2101   5
   5   2 -11 15.4730 26.0234   5
   5   2 -10 1006.21 223.800   5
   5   2  -9 4444.71 464.773   5
   5   2  -8 144.490 83.0354   5
   5   2  -7 1966.64 290.541   5
   5   2  -6 1261.12 228.001   5
   5   2  -5 417.435 125.214   5
   5   2  -4-0.24302 24.1649   5
   5   2  -3 859.634 163.285   5
   5   2  -3 984.323 180.926   6
  -5  -2   2 1142.79 201.642   4
   5   2  -2 1025.60 190.554   6
   5   2  -2 1242.20 193.144   5
   5   2  -1 202.228 74.1277   5
  -5  -2   1 278.159 90.6099   4
   5   2  -1 188.527 80.6129   6
   5   2   0 357.179 101.758   5
  -5  -2   0 550.077 123.116   4
   5   2   0 576.860 131.720   6
  -5  -2  -1 5237.85 418.980   4
   5   2   1 5451.94 436.600   6
   5   2   1 5719.50 411.172   5
  -5  -2  -2 11559.8 678.001   4
   5   2   2 11597.7 698.432   6
  -5  -2  -3 546.061 121.380   4
   5   2   3 569.939 134.263   6
  -5  -2  -4 886.697 160.400   4
   5   2   4 873.409 166.643   6
  -5  -2  -5 9422.64 581.123   4
   5   2   5 9535.63 628.096   6
  -5  -2  -6 4965.32 404.163   1
  -5  -2  -6 5056.60 401.524   4
   5   2   6 4211.17 419.482   6
  -5  -2  -7 404.274 104.839   1
   5   2   7 201.277 93.2149   6
  -5  -2  -8 2762.40 296.926   1
  -5  -2  -9 942.426 170.539   1
   5   3 -11 11.5455 31.9412   5
   5   3 -10-31.3892 38.4741   5
   5   3  -9 753.821 187.356   5
   5   3  -8 1401.24 242.316   5
   5   3  -7 127.889 80.4844   5
   5   3  -6 271.348 97.4549   5
   5   3  -5 645.644 149.369   5
   5   3  -4 56.2847 61.1337   5
   5   3  -4 33.4960 49.7908   6
  -5  -3   3 3081.77 334.468   4
   5   3  -3 2954.81 313.367   5
  -5  -3   2 8658.96 567.766   4
   5   3  -2 9195.12 613.862   6
   5   3  -2 8606.57 566.291   5
  -5  -3   1 1143.48 173.486   4
   5   3  -1 1084.62 185.016   6
   5   3  -1 1001.23 166.251   5
  -5  -3   0 1753.70 233.886   4
   5   3   0 1789.49 250.834   6
   5   3   0 1416.47 204.246   5
  -5  -3  -1 443.935 108.466   4
   5   3   1 417.511 127.504   6
  -5  -3  -2 234.898 77.5652   4
   5   3   2 241.369 103.320   6
  -5  -3  -3 141.142 66.6249   4
   5   3   3 236.463 91.9044   6
  -5  -3  -4 1727.29 222.135   4
   5   3   4 1720.66 259.070   6
  -5  -3  -5 2294.95 259.345   1
   5   3   5 2363.95 317.694   6
   5   3   6 1880.39 283.714   6
  -5  -3  -6 2277.05 254.967   1
  -5  -3  -7 14.8212 23.9455   1
   5   3   7 0.84905 8.81150   6
  -5  -3  -8 200.581 76.2108   1
  -5  -3  -9-23.6552 24.1197   1
   5   4 -11 492.110 175.738   5
   5   4 -10 61.0121 49.3362   5
   5   4  -9 35.0235 30.2610   5
   5   4  -8 1217.83 232.908   5
   5   4  -7-1.74222 26.7826   5
   5   4  -6 0.13183 6.30361   5
   5   4  -5 319.274 112.477   5
   5   4  -5 453.554 149.123   6
   5   4  -4 179.598 77.9555   5
  -5  -4   4 430.416 111.179   4
   5   4  -4 352.890 122.570   6
   5   4  -3 150.265 68.6248   5
  -5  -4   3 199.771 73.1785   4
   5   4  -3 158.824 67.5473   6
   5   4  -2 837.216 160.374   5
  -5  -4   2 1088.67 164.327   4
   5   4  -2 1195.67 213.254   6
  -5  -4   1 634.660 128.130   4
   5   4  -1 611.848 155.082   6
  -5  -4   0 1563.44 210.029   4
   5   4   0 2003.71 291.126   6
  -5  -4  -1-26.8049 35.8408   4
   5   4   1 29.8888 38.5384   6
  -5  -4  -2 268.024 77.1954   4
   5   4   2 306.911 118.798   6
  -5  -4  -3 1009.24 156.015   4
   5   4   3 914.910 198.502   6
  -5  -4  -4 6547.96 447.684   1
   5   4   4 5922.23 542.915   6
   5   4   5 700.675 182.600   6
  -5  -4  -5 1047.87 167.189   1
   5   4   6 2917.17 402.574   6
  -5  -4  -6 3215.65 305.273   1
   5   4   7 1414.52 275.010   6
  -5  -4  -7 1189.50 188.030   1
  -5  -4  -8 377.655 107.859   1
   5   4   8 631.143 196.591   6
   5   5 -11 53.1839 66.7789   5
   5   5 -10-86.9561 65.8491   5
   5   5  -9 434.817 143.982   5
   5   5  -8 26.8655 39.7682   5
   5   5  -7 62.8496 41.6540   5
   5   5  -6 62.0242 50.5123   5
   5   5  -6 131.969 87.8352   6
   5   5  -5 2774.96 371.035   6
   5   5  -5 1484.55 243.641   5
   5   5  -4 3579.30 424.362   6
   5   5  -4 1866.92 264.690   5
   5   5  -3 1389.26 245.930   6
   5   5  -3 1121.39 193.651   5
   5   5  -2 369.950 132.862   6
   5   5  -1 453.756 154.569   6
   5   5   0 179.369 85.9185   6
  -5  -5  -1 6.69887 16.2331   4
   5   5   1 11.5788 44.1223   6
  -5  -5  -2 82.6877 44.4255   4
   5   5   2 6.23163 33.1691   6
   5   5   3 66.7334 75.8233   6
  -5  -5  -3 17.9306 16.1933   1
   5   5   4 996.833 228.111   6
  -5  -5  -4 1000.23 156.846   1
  -5  -5  -5 130.841 56.9434   1
   5   5   5 94.0970 82.8518   6
   5   5   6 197.069 112.399   6
  -5  -5  -6 96.6220 55.2436   1
  -5  -5  -7 265.865 88.0638   1
   5   5   7 229.557 114.917   6
  -5  -5  -8 82.1941 48.6916   1
   5   5   8 55.3591 59.2053   6
   5   6 -10 167.946 81.8956   5
   5   6  -9 188.898 97.7176   5
   5   6  -8 78.1480 60.9787   5
   5   6  -7 10.6780 21.5357   5
   5   6  -6 78.1576 60.3277   5
   5   6  -6 196.824 113.390   6
   5   6  -5 21.6053 23.0657   5
   5   6  -5 22.9983 44.0097   6
   5   6  -4 34.4117 33.2320   6
   5   6  -3 75.4854 69.7963   6
   5   6  -2 87.7600 45.7711   6
   5   6  -1 25.0648 35.9732   6
   5   6   0 206.497 112.212   6
   5   6   1 662.603 193.426   6
   5   6   2 494.797 167.630   6
   5   6   3 1336.86 280.650   6
   5   6   4 1274.16 269.502   6
   5   6   5 1644.18 312.445   6
  -5  -6  -5 856.561 152.233   1
  -5  -6  -6 35.3822 37.1728   1
   5   6   6 45.8282 52.4622   6
  -5  -6  -7 253.043 97.6369   1
   5   6   7 196.305 110.242   6
   5   7  -9 45.7659 47.7626   5
   5   7  -8 8.74440 33.3515   5
   5   7  -7 166.227 82.6308   5
   5   7  -7 368.828 166.342   6
   5   7  -6 1568.15 313.222   6
   5   7  -5 244.908 125.282   6
   5   7  -4 486.801 170.899   6
   5   7  -3 97.8109 63.6833   6
   5   7  -2 217.648 111.344   6
   5   7  -1 493.595 169.521   6
   5   7   0 7.88401 71.8325   6
   5   7   1 58.6054 71.7153   6
   5   7   2 88.5043 82.7450   6
   5   7   3 86.7674 59.0420   6
   5   7   4 307.923 139.834   6
   5   7   5 1.94988 32.4596   6
   5   8  -4 35.9573 53.4898   6
   5   8  -3 160.745 92.1395   6
   5   8  -2 367.491 160.890   6
   5   8  -1-3.79888 37.2484   6
   5   8   0 369.910 167.606   6
   5   8   1 266.956 161.632   6
  -6  10   0 77.5365 76.9476   4
  -6  10  -1 132.065 127.971   4
  -6  10  -2 33.9084 59.1280   4
  -6   9   0 1369.08 328.747   4
  -6   9  -1 6658.97 724.752   4
  -6   9  -2 175.688 102.757   4
  -6   9  -3 177.403 100.357   4
  -6   9  -4 306.507 134.917   4
  -6   9  -5 59.1882 44.0334   4
   6  -8  -3 360.654 146.794   5
   6  -8  -2 74.4159 57.9915   5
   6  -8  -1 1707.89 305.348   5
   6  -8   0 373.541 146.637   5
  -6   8   0 610.898 222.863   4
   6  -8   1 68.7629 51.8472   5
  -6   8  -1 137.727 94.4137   4
   6  -8   2 1128.63 249.614   5
  -6   8  -2 1461.65 304.499   4
  -6   8  -3 265.811 131.385   4
  -6   8  -4 65.1294 61.2638   4
  -6   8  -5 99.4417 61.8736   4
  -6   8  -6-150.574 87.5179   4
   6  -7  -5 941.273 243.232   5
   6  -7  -4 753.739 214.028   5
   6  -7  -3 3890.80 481.317   5
   6  -7  -2 1531.00 293.489   5
   6  -7  -1 696.005 189.697   5
  -6   7   0 3185.64 493.116   4
   6  -7   0 2294.77 343.660   5
   6  -7   1 72.6765 59.9235   5
  -6   7  -1 123.899 71.2660   4
  -6   7  -2 2700.79 410.138   4
   6  -7   2 2313.78 345.793   5
   6  -7   3 150.916 86.6954   5
  -6   7  -3 28.5596 25.5775   4
  -6   7  -4 534.012 165.150   4
  -6   7  -5 177.038 96.1575   4
  -6   7  -6-2.22531 43.2218   4
  -6   7  -7 239.085 91.6722   3
  -6   7  -7 277.790 119.348   4
  -6   7  -8 692.530 158.879   3
  -6   7  -9 6.37846 25.6671   3
   6  -6  -7-40.2029 51.1930   5
   6  -6  -6 72.4524 85.1885   5
   6  -6  -5 395.416 147.722   5
   6  -6  -4 223.229 122.568   5
   6  -6  -3 2595.20 390.636   5
   6  -6  -2 1237.03 262.962   5
   6  -6  -1 1732.23 298.313   5
   6  -6   0 218.962 100.628   5
  -6   6   0 246.080 137.932   4
   6  -6   1 1218.21 238.371   5
  -6   6  -1 1572.83 323.323   4
  -6   6  -2 3217.48 446.405   4
   6  -6   2 2716.38 371.660   5
   6  -6   3 919.334 210.333   5
  -6   6  -3 859.960 209.322   4
  -6   6  -4 538.004 158.498   4
  -6   6  -5 251.576 107.591   4
  -6   6  -6 4172.86 473.555   4
  -6   6  -7 706.841 186.349   4
  -6   6  -8-72.9668 50.3712   3
   6  -5  -8 318.475 138.983   5
   6  -5  -7 657.298 196.351   5
   6  -5  -6 168.919 96.0726   5
   6  -5  -5 3389.48 453.042   5
   6  -5  -4 1152.95 247.698   5
   6  -5  -3 313.471 126.561   5
   6  -5  -2 116.373 70.3358   5
   6  -5  -1 1256.03 257.847   5
  -6   5   0 2105.86 381.130   4
   6  -5   0 1655.74 283.128   5
   6  -5   1 1013.96 216.187   5
  -6   5  -1 1295.87 289.418   4
   6  -5   2 98.0585 49.7301   5
  -6   5  -2 74.3413 61.8135   4
   6  -5   3 6.00831 22.7892   5
  -6   5  -3 24.9884 46.8820   4
   6  -5   4 399.157 129.515   5
  -6   5  -4 330.924 123.465   4
  -6   5  -5 8.18087 16.6601   4
  -6   5  -6 282.091 134.552   4
  -6   5  -7-39.7229 38.3733   4
  -6   5  -8-14.9914 43.8116   4
   6  -4  -9 16.1978 55.9143   5
   6  -4  -8 54.8205 17.8589   5
   6  -4  -7 17.7059 31.5291   5
   6  -4  -6 125.238 72.8683   5
   6  -4  -5 903.039 220.374   5
   6  -4  -4 2893.23 397.714   5
   6  -4  -3-102.729 71.9668   5
   6  -4  -2-4.49592 24.4942   5
   6  -4  -1 1000.60 221.227   5
  -6   4   0 15123.1 1060.22   4
   6  -4   0 11488.0 822.495   5
  -6   4  -1 1289.50 315.205   4
   6  -4   1 1708.16 274.776   5
   6  -4   2 692.441 165.377   5
  -6   4  -2 472.324 157.225   4
  -6   4  -3 1942.06 307.570   4
   6  -4   3 2010.97 292.128   5
  -6   4  -4 6736.26 583.350   4
   6  -4   4 6049.93 541.703   5
  -6   4  -5 184.836 90.6507   4
  -6   4  -6 23.6345 29.4133   4
  -6   4  -7 109.614 63.3599   4
  -6   4  -8 17.9940 20.5172   4
   6  -3  -9 1489.73 304.154   5
   6  -3  -8 352.606 142.801   5
   6  -3  -7 1267.94 268.115   5
   6  -3  -6 114.407 88.0572   5
   6  -3  -5 127.026 78.1124   5
   6  -3  -4 6199.63 574.756   5
   6  -3  -3 929.123 221.278   5
   6  -3  -2-19.4099 38.9769   5
   6  -3  -1 224.623 112.769   5
   6  -3   0 380.935 130.943   5
  -6   3   0 782.270 220.587   4
   6  -3   1-4.34396 21.1267   5
  -6   3  -1 24.5543 56.4905   4
  -6   3  -2 3456.09 419.813   4
   6  -3   2 3137.62 365.291   5
  -6   3  -3 1529.52 260.536   4
   6  -3   3 1540.83 247.438   5
   6  -3   4-16.0492 24.9887   5
  -6   3  -4-27.8270 42.8894   4
  -6   3  -5 71.7183 64.0137   4
  -6   3  -6 168.747 89.4962   4
  -6   3  -7 91.7903 61.4504   4
  -6   3  -8 4654.87 465.058   4
   6  -2 -10 608.293 186.538   5
   6  -2  -9 426.114 149.575   5
   6  -2  -8-49.0416 62.6852   5
   6  -2  -7 109.034 75.4701   5
   6  -2  -6 66.5988 55.2186   5
   6  -2  -5 1822.91 309.349   5
   6  -2  -4 7347.59 613.875   5
   6  -2  -3 2676.04 353.049   5
   6  -2  -2 11463.1 790.475   5
   6  -2  -1 79.9454 66.8653   5
  -6   2   1 327.917 145.223   4
   6  -2   0 819.726 190.518   5
  -6   2   0 757.779 205.401   4
   6  -2   1 759.940 186.564   5
  -6   2  -1 1099.08 236.690   4
  -6   2  -2 5756.04 534.341   4
   6  -2   2 6759.59 540.097   5
   6  -2   3 192.660 79.5660   5
  -6   2  -3 143.053 87.9782   4
   6  -2   4 161.197 77.6659   5
  -6   2  -4 109.952 83.2452   4
  -6   2  -5 981.451 210.202   4
  -6   2  -6-6.18970 11.3157   4
  -6   2  -7 386.476 126.700   4
  -6   2  -8 52.6597 46.0531   4
   6  -1 -10 2006.02 342.520   5
   6  -1  -9 285.401 127.904   5
   6  -1  -8 24.5325 21.4916   5
   6  -1  -7 344.724 132.057   5
   6  -1  -6 4687.87 491.561   5
   6  -1  -5 509.770 154.556   5
   6  -1  -4 1887.80 297.409   5
   6  -1  -3-94.0916 77.4816   5
   6  -1  -2 56.4845 57.9666   5
   6  -1  -1 885.016 189.222   5
  -6   1   1 916.238 226.552   4
  -6   1   0 1676.33 306.688   4
   6  -1   0 2050.90 297.927   5
   6  -1   1 116.550 57.4099   5
  -6   1  -1 38.6654 59.6229   4
   6  -1   2 503.936 137.892   5
  -6   1  -2 506.291 146.397   4
  -6   1  -3 265.874 104.055   4
  -6   1  -4 3237.59 382.849   4
  -6   1  -5 1216.85 233.965   4
  -6   1  -6 1083.02 213.428   4
  -6   1  -7 1821.76 271.334   4
  -6   1  -8 52.8320 49.5507   4
   6   0 -10 9.09224 11.6566   5
   6   0  -9 94.4258 69.4774   5
   6   0  -8 408.580 141.863   5
   6   0  -7 182.088 89.0175   5
   6   0  -6 836.530 195.473   5
   6   0  -5 258.706 103.611   5
   6   0  -4 7057.94 590.324   5
   6   0  -3 488.678 168.595   5
   6   0  -2 11.0159 34.4449   5
  -6   0   2 234.095 112.574   4
   6   0  -1 515.811 142.056   5
  -6   0   1 472.418 152.837   4
   6   0   0 174.111 85.4793   5
  -6   0   0 287.208 115.965   4
   6   0   1 530.914 145.870   5
  -6   0  -1 641.262 158.844   4
  -6   0  -2 593.329 147.562   4
  -6   0  -3 2352.07 322.917   4
  -6   0  -4 282.827 106.540   4
  -6   0  -5 1264.05 221.115   4
  -6   0  -6 394.247 131.201   4
  -6   0  -7 86.7651 66.7689   4
  -6   0  -8-2.19082 20.3455   1
  -6   0  -8 121.559 64.0693   4
   6   1 -10 184.094 100.281   5
   6   1  -9 434.730 155.834   5
   6   1  -8 3541.15 440.518   5
   6   1  -7 81.6267 63.7339   5
   6   1  -6 204.204 103.464   5
   6   1  -5 709.553 174.260   5
   6   1  -4 96.4061 67.5531   5
   6   1  -3-5.06727 24.4071   5
  -6  -1   3 75.0461 57.3027   4
   6   1  -2 117.008 67.7326   5
  -6  -1   2 6.85393 13.0905   4
   6   1  -1 170.659 87.1145   5
  -6  -1   1-6.00324 65.7690   4
   6   1  -1 138.594 70.6039   6
   6   1   0-26.3480 39.7205   5
  -6  -1   0-3.80071 10.6840   4
  -6  -1  -1 854.268 176.923   4
  -6  -1  -2 5098.19 472.063   4
  -6  -1  -3 4149.47 424.063   4
  -6  -1  -4 1609.62 249.740   4
  -6  -1  -5 532.497 147.645   4
  -6  -1  -6 84.9955 56.8820   4
  -6  -1  -7-16.6479 30.2945   4
   6   2 -10 279.903 115.922   5
   6   2  -9-15.8303 27.7066   5
   6   2  -8 1978.76 324.574   5
   6   2  -7 307.667 133.619   5
   6   2  -6 337.970 128.866   5
   6   2  -5 1834.44 290.784   5
   6   2  -4 478.173 137.187   5
  -6  -2   4 496.978 159.143   4
   6   2  -3 290.177 109.151   5
  -6  -2   3 328.453 120.228   4
   6   2  -2-10.2670 24.2658   5
  -6  -2   2 45.4736 52.8955   4
   6   2  -2 57.9096 51.6382   6
   6   2  -1 63.5641 47.4075   5
  -6  -2   1 80.9817 55.8236   4
   6   2  -1 71.7964 43.9485   6
  -6  -2   0 1032.54 189.063   4
   6   2   0 897.848 171.753   6
  -6  -2  -1 2944.76 329.590   4
   6   2   1 2684.26 300.280   6
  -6  -2  -2 17.9196 34.8968   4
  -6  -2  -3 1285.41 215.609   4
  -6  -2  -4 1175.14 203.916   4
  -6  -2  -5 153.248 87.4385   4
  -6  -2  -6-8.24941 17.4014   4
  -6  -2  -7-26.7560 34.2822   1
   6   3 -10 1279.97 274.018   5
   6   3  -9 684.080 196.328   5
   6   3  -8 15.2408 54.9408   5
   6   3  -7-1.60632 53.0242   5
   6   3  -6 186.870 93.9988   5
   6   3  -5 78.3741 46.5867   5
  -6  -3   5 139.324 78.4088   4
   6   3  -4 4.46317 19.8555   5
  -6  -3   4 33.7964 38.4132   4
   6   3  -3 534.223 144.362   5
  -6  -3   3 669.621 162.713   4
   6   3  -3 770.777 187.223   6
  -6  -3   2 0.24584 16.4856   4
   6   3  -2 136.367 77.1501   6
  -6  -3   1 104.125 52.6410   4
   6   3  -1 22.7961 10.3281   6
  -6  -3   0 1760.06 255.259   4
   6   3   0 1913.24 270.777   6
  -6  -3  -1 3685.94 374.065   4
   6   3   1 4357.85 420.736   6
  -6  -3  -2 22.8229 18.1696   4
   6   3   2 11.8296 36.3306   6
  -6  -3  -3 3236.40 329.646   4
  -6  -3  -4-9.95147 17.3111   4
  -6  -3  -5 84.4912 60.1480   4
  -6  -3  -6 529.678 130.277   1
   6   4  -9 240.058 116.787   5
   6   4  -8 373.244 137.298   5
   6   4  -7 978.641 221.117   5
   6   4  -6 398.980 135.951   5
   6   4  -5 131.131 75.1566   5
   6   4  -4 766.822 179.672   5
   6   4  -4 616.598 179.019   6
   6   4  -3 95.1115 69.5828   6
   6   4  -2 521.321 161.976   6
  -6  -4   1 2278.62 274.733   4
   6   4  -1 2589.98 341.396   6
  -6  -4   0 19.8638 25.9945   4
   6   4   0-3.68429 42.2115   6
  -6  -4  -1 1137.81 183.607   4
   6   4   1 867.069 211.917   6
  -6  -4  -2 23.7769 14.8659   4
   6   4   2 120.052 84.9878   6
  -6  -4  -3 2734.57 295.270   4
   6   4   3 2936.18 395.227   6
  -6  -4  -4-27.4829 41.5236   1
  -6  -4  -5 92.6893 57.6436   1
  -6  -4  -6 49.5927 36.6385   1
   6   5  -9 45.3691 44.6186   5
   6   5  -8 78.4794 62.6213   5
   6   5  -7-3.95307 31.9194   5
   6   5  -6-1.06887 34.7789   5
   6   5  -5 220.862 118.189   6
   6   5  -4 296.228 124.217   6
   6   5  -3 484.679 165.617   6
   6   5  -2 285.931 107.459   6
   6   5  -1 1071.74 228.652   6
   6   5   0 87.2227 72.0405   6
   6   5   1 154.082 86.9121   6
   6   5   2 904.200 228.133   6
  -6  -5  -3 244.880 86.5019   1
   6   5   3 188.785 103.691   6
   6   5   4 350.468 141.984   6
  -6  -5  -4 236.274 80.8317   1
  -6  -5  -5 1064.04 180.748   1
  -6  -5  -6 389.313 115.124   1
   6   6  -8 125.715 85.5305   5
   6   6  -6 225.987 141.117   6
   6   6  -5 481.025 174.604   6
   6   6  -4-85.5326 72.0457   6
   6   6  -3 1063.92 254.829   6
   6   6  -2 137.515 81.4225   6
   6   6  -1 340.556 132.168   6
   6   6   0-103.364 102.243   6
   6   6   1 17.4741 49.4116   6
   6   6   2 276.112 131.619   6
   6   6   3 378.493 171.664   6
   6   6   4 57.2359 27.2356   6
   6   7  -1-42.4091 51.0960   6
   7  -6  -2-128.928 87.1154   5
   7  -6  -1 35.6824 67.0523   5
  -7   6   1 185.906 137.916   4
   7  -6   0 262.407 122.584   5
  -7   6   0 423.192 173.563   4
   7  -6   1 30.1216 56.2966   5
  -7   6  -1 148.614 96.0883   4
   7  -6   2 52.2285 56.3270   5
   7  -6   3 98.9158 77.7725   5
   7  -5  -4 651.813 204.078   5
   7  -5  -3 414.759 160.869   5
   7  -5  -2 481.139 171.084   5
  -7   5   1 3020.27 504.222   4
   7  -5  -1 2603.66 399.224   5
   7  -5   0 168.368 87.0363   5
  -7   5   0 378.662 182.111   4
  -7   5  -1 2897.40 461.014   4
   7  -5   1 2609.47 375.596   5
   7  -5   2 467.169 153.338   5
  -7   5  -2 519.139 181.318   4
   7  -5   3-35.5015 42.7885   5
  -7   5  -3 267.006 122.413   4
   7  -4  -5 298.652 136.730   5
   7  -4  -4 41.0887 55.6913   5
   7  -4  -3 45.7843 40.9842   5
   7  -4  -2-23.5892 39.7583   5
   7  -4  -1-112.231 78.8372   5
  -7   4   1 78.7938 93.9305   4
   7  -4   0 164.461 88.6369   5
  -7   4   0 56.2945 86.1957   4
   7  -4   1-4.05816 21.3665   5
  -7   4  -1-2.09356 29.0807   4
   7  -4   2 10.6985 39.7216   5
  -7   4  -2-84.0380 68.7424   4
   7  -4   3 75.4366 66.5798   5
  -7   4  -3 20.6561 31.5431   4
  -7   4  -4 7.70289 32.6821   4
   7  -3  -6 217.988 115.341   5
   7  -3  -5 699.164 202.383   5
   7  -3  -4 161.411 105.311   5
   7  -3  -3 165.092 96.2050   5
   7  -3  -2 1104.19 274.059   5
  -7   3   2 1936.12 394.903   4
  -7   3   1 3488.87 510.012   4
   7  -3  -1 2701.71 391.038   5
   7  -3   0 171.272 100.521   5
  -7   3   0 163.627 99.9943   4
   7  -3   1 287.088 114.345   5
  -7   3  -1 254.766 115.837   4
   7  -3   2 86.7797 62.4807   5
  -7   3  -2 348.083 135.915   4
  -7   3  -3 1198.49 254.379   4
  -7   3  -4 332.218 141.629   4
   7  -2  -7 242.059 125.761   5
   7  -2  -6 179.473 103.116   5
   7  -2  -5 397.112 145.264   5
   7  -2  -4 127.282 85.7545   5
   7  -2  -3 542.329 172.922   5
   7  -2  -2 376.390 165.068   5
  -7   2   2 784.392 237.194   4
   7  -2  -1 1270.35 260.792   5
  -7   2   1 932.525 265.228   4
   7  -2   0 437.401 151.149   5
  -7   2   0 271.786 127.116   4
   7  -2   1 203.861 109.923   5
  -7   2  -1 290.250 123.910   4
  -7   2  -2-29.2011 38.3819   4
  -7   2  -3 2894.22 396.484   4
  -7   2  -4 433.954 182.769   4
   7  -1  -7 217.185 116.868   5
   7  -1  -6-6.33399 31.1298   5
   7  -1  -5 2445.55 372.433   5
   7  -1  -4 282.508 127.889   5
   7  -1  -3 841.142 211.726   5
  -7   1   3 851.071 250.268   4
   7  -1  -2 527.745 175.464   5
  -7   1   2 504.240 188.195   4
   7  -1  -1 99.6521 90.3741   5
  -7   1   1 93.9523 63.1085   4
   7  -1   0 996.161 222.104   5
  -7   1   0 1038.55 237.947   4
  -7   1  -1 17.4076 20.1163   4
  -7   1  -2 1600.52 283.733   4
  -7   1  -3 537.689 159.001   4
  -7   1  -4 83.7786 70.0715   4
  -7   1  -5 609.830 175.471   4
   7   0  -7 300.448 135.804   5
   7   0  -6 348.544 139.394   5
   7   0  -5 3466.04 450.641   5
   7   0  -4 304.946 127.517   5
  -7   0   3 2609.07 414.541   4
   7   0  -3 2206.96 339.809   5
   7   0  -2 222.314 107.758   5
  -7   0   2 63.9163 111.701   4
  -7   0   1 38.0922 65.7899   4
  -7   0   0 64.2220 66.8875   4
  -7   0  -1 2124.74 320.745   4
  -7   0  -2 680.637 181.180   4
  -7   0  -3 64.1472 45.6806   4
  -7   0  -4 302.793 117.463   4
  -7   0  -5 182.082 95.0077   4
   7   1  -7 832.550 215.908   5
   7   1  -6 2417.36 361.067   5
   7   1  -5 79.7331 81.0494   5
   7   1  -4 260.554 125.031   5
  -7  -1   4 303.863 125.147   4
   7   1  -3 50.1687 27.3112   5
  -7  -1   3 314.994 133.837   4
  -7  -1   2 228.781 109.762   4
  -7  -1   1 17.5755 15.9672   4
  -7  -1   0 6.89262 13.6723   4
  -7  -1  -1 1422.35 252.480   4
  -7  -1  -2 1230.60 235.383   4
  -7  -1  -3 267.440 102.355   4
  -7  -1  -4 62.9688 56.2309   4
   7   2  -7 101.719 82.2073   5
   7   2  -6 1529.31 285.618   5
   7   2  -5 668.301 187.523   5
  -7  -2   5 1114.88 256.093   4
   7   2  -4 214.867 111.368   5
  -7  -2   4 197.143 103.245   4
  -7  -2   3 125.679 76.1627   4
  -7  -2   2 241.522 109.996   4
  -7  -2   1 24.8912 34.3826   4
  -7  -2   0 724.076 175.149   4
  -7  -2  -1 404.905 123.202   4
  -7  -2  -2 1404.91 246.403   4
  -7  -2  -3 66.6533 63.4299   4
  -7  -2  -4 856.387 194.759   4
   7   3  -7 752.181 216.836   5
   7   3  -6 19.3887 32.2424   5
  -7  -3   1 87.7597 57.1249   4
  -7  -3   0 1751.64 271.352   4
  -7  -3  -1 24.8024 31.7212   4
  -7  -3  -2-37.0827 41.4278   4
  -7  -3  -3 99.9115 59.7235   4
  -7  -3  -4 304.214 104.907   4
   7   4  -3 99.3723 87.9351   6
   7   5  -4 220.055 146.517   6
   7   5  -3 160.322 115.743   6
   7   5  -2 240.598 122.353   6
   8  -3  -2 1486.57 317.569   5
   8  -3  -1 5.62111 20.2579   5
   8  -2  -3 378.657 156.309   5
   8  -2  -2 430.083 155.945   5
   8  -1  -4 113.847 89.1941   5
   8  -1  -3 369.226 166.388   5
   0   0   0    0.00    0.00   0

TITL DSK-113-1 in P-1
REM P-1 (#2 in standard setting)
CELL 0.71073   6.030301   9.720981  12.463809  98.0119  94.5495  97.8476
ZERR   10.00   0.000628   0.000745   0.001167   0.0071   0.0081   0.0075
LATT  1
SFAC C H N O S
UNIT 10.00 10.00 10.00 10.00 10.00
TREF
HKLF 4
END
;
_shelx_hkl_checksum              23208
loop_
_space_group_symop_operation_xyz
'x, y, z'
'-x, -y, -z'
loop_
_atom_site_label
_atom_site_type_symbol
_atom_site_fract_x
_atom_site_fract_y
_atom_site_fract_z
_atom_site_U_iso_or_equiv
_atom_site_adp_type
_atom_site_occupancy
_atom_site_site_symmetry_order
_atom_site_calc_flag
_atom_site_refinement_flags_posn
_atom_site_refinement_flags_adp
C1 C 0.1861(4) 0.5461(3) 0.8276(2) 0.0379(6) Uani 1 1 d . .
C2 C 0.3795(5) 0.4853(3) 0.8317(2) 0.0477(7) Uani 1 1 d . .
H2 H 0.474548 0.497485 0.895886 0.057 Uiso 1 1 calc R U
C3 C 0.4287(5) 0.4062(3) 0.7389(2) 0.0448(7) Uani 1 1 d . .
H3 H 0.558972 0.364895 0.739514 0.054 Uiso 1 1 calc R U
C4 C 0.2843(4) 0.3882(2) 0.6443(2) 0.0347(6) Uani 1 1 d . .
C5 C 0.0924(4) 0.4509(3) 0.6418(2) 0.0390(6) Uani 1 1 d . .
H5 H -0.003258 0.438933 0.577865 0.047 Uiso 1 1 calc R U
C6 C 0.0428(5) 0.5315(3) 0.7349(2) 0.0401(6) Uani 1 1 d . .
H6 H -0.085393 0.574926 0.734244 0.048 Uiso 1 1 calc R U
C7 C 0.8115(4) 0.0004(3) 0.2087(2) 0.0386(6) Uani 1 1 d . .
C8 C 0.7288(4) -0.0366(3) 0.1012(2) 0.0400(6) Uani 1 1 d . .
H8 H 0.795088 -0.100282 0.056113 0.048 Uiso 1 1 calc R U
C9 C 0.5456(4) 0.0204(2) 0.05837(19) 0.0350(6) Uani 1 1 d . .
C10 C 0.4515(5) 0.1153(3) 0.1282(2) 0.0438(7) Uani 1 1 d . .
H10 H 0.332332 0.156135 0.101173 0.053 Uiso 1 1 calc R U
C11 C 0.5314(5) 0.1503(3) 0.2372(2) 0.0415(6) Uani 1 1 d . .
H11 H 0.464698 0.212705 0.283216 0.050 Uiso 1 1 calc R U
C12 C 0.7097(4) 0.0921(2) 0.27681(19) 0.0344(6) Uani 1 1 d . .
C13 C 1.0862(5) -0.1546(3) 0.2010(3) 0.0547(8) Uani 1 1 d . .
H13A H 1.210602 -0.175572 0.245699 0.082 Uiso 1 1 calc R U
H13B H 0.974581 -0.236744 0.182681 0.082 Uiso 1 1 calc R U
H13C H 1.138062 -0.125836 0.135545 0.082 Uiso 1 1 calc R U
N1 N 0.1302(4) 0.6284(2) 0.92752(19) 0.0498(6) Uani 1 1 d . .
N2 N 0.7962(4) 0.1229(3) 0.39144(18) 0.0401(5) Uani 1 1 d D .
O1 O -0.0324(4) 0.6886(3) 0.92156(19) 0.0793(8) Uani 1 1 d . .
O2 O 0.2480(5) 0.6317(3) 1.01146(17) 0.0816(8) Uani 1 1 d . .
O3 O 0.5782(4) 0.3032(3) 0.5228(2) 0.0914(10) Uani 1 1 d . .
O4 O 0.2568(6) 0.1382(2) 0.5428(2) 0.0940(10) Uani 1 1 d . .
O5 O 0.2141(4) 0.3134(2) 0.43527(16) 0.0594(6) Uani 1 1 d . .
O6 O 0.9912(4) -0.0449(2) 0.25862(15) 0.0590(6) Uani 1 1 d . .
S1 S 0.34148(11) 0.27756(6) 0.52678(5) 0.0398(2) Uani 1 1 d . .
H2A H 0.708(5) 0.174(3) 0.431(2) 0.037(7) Uiso 1 1 d . .
H2B H 0.946(4) 0.163(3) 0.404(3) 0.076(11) Uiso 1 1 d D .
H2C H 0.795(7) 0.045(4) 0.425(3) 0.098(14) Uiso 1 1 d . .
loop_
_atom_site_aniso_label
_atom_site_aniso_U_11
_atom_site_aniso_U_22
_atom_site_aniso_U_33
_atom_site_aniso_U_23
_atom_site_aniso_U_13
_atom_site_aniso_U_12
C1 0.0445(15) 0.0349(12) 0.0354(13) 0.0007(10) 0.0052(11) 0.0135(11)
C2 0.0488(17) 0.0578(17) 0.0351(14) -0.0053(12) -0.0083(12) 0.0224(13)
C3 0.0377(15) 0.0547(16) 0.0422(15) -0.0027(12) -0.0046(12) 0.0228(12)
C4 0.0352(13) 0.0333(12) 0.0350(13) 0.0019(10) 0.0016(10) 0.0073(10)
C5 0.0380(14) 0.0435(14) 0.0359(13) 0.0038(11) -0.0033(11) 0.0136(11)
C6 0.0402(14) 0.0394(13) 0.0440(14) 0.0065(11) 0.0041(11) 0.0171(11)
C7 0.0360(14) 0.0416(14) 0.0390(14) 0.0008(11) 0.0024(11) 0.0149(11)
C8 0.0428(15) 0.0428(14) 0.0353(13) -0.0037(11) 0.0058(11) 0.0177(11)
C9 0.0381(14) 0.0344(12) 0.0325(13) 0.0024(10) 0.0048(10) 0.0081(10)
C10 0.0481(16) 0.0490(15) 0.0363(13) -0.0001(11) -0.0009(12) 0.0243(12)
C11 0.0473(16) 0.0414(14) 0.0369(13) -0.0037(11) 0.0046(12) 0.0202(12)
C12 0.0365(13) 0.0339(12) 0.0308(12) -0.0017(10) 0.0003(10) 0.0074(10)
C13 0.0537(18) 0.0542(17) 0.0610(18) 0.0028(14) 0.0078(15) 0.0290(14)
N1 0.0600(16) 0.0489(13) 0.0431(13) -0.0012(10) 0.0062(12) 0.0248(12)
N2 0.0411(14) 0.0459(13) 0.0321(11) -0.0050(10) -0.0019(10) 0.0166(11)
O1 0.0812(17) 0.0972(18) 0.0637(15) -0.0154(13) 0.0037(13) 0.0590(15)
O2 0.105(2) 0.1042(19) 0.0402(12) -0.0101(12) -0.0062(13) 0.0614(16)
O3 0.0384(13) 0.132(2) 0.0816(17) -0.0640(16) -0.0026(12) 0.0230(13)
O4 0.177(3) 0.0363(12) 0.0676(16) 0.0002(10) 0.0180(17) 0.0150(14)
O5 0.0697(15) 0.0738(14) 0.0366(10) -0.0011(9) -0.0037(10) 0.0326(11)
O6 0.0561(13) 0.0821(14) 0.0404(11) -0.0113(10) -0.0077(9) 0.0440(11)
S1 0.0419(4) 0.0395(4) 0.0359(4) -0.0061(3) -0.0017(3) 0.0138(3)
loop_
_atom_type_symbol
_atom_type_description
_atom_type_scat_dispersion_real
_atom_type_scat_dispersion_imag
_atom_type_scat_source
C C 0.0033 0.0016 'International Tables Vol C Tables 4.2.6.8 and 6.1.1.4'
H H 0.0000 0.0000 'International Tables Vol C Tables 4.2.6.8 and 6.1.1.4'
N N 0.0061 0.0033 'International Tables Vol C Tables 4.2.6.8 and 6.1.1.4'
O O 0.0106 0.0060 'International Tables Vol C Tables 4.2.6.8 and 6.1.1.4'
S S 0.1246 0.1234 'International Tables Vol C Tables 4.2.6.8 and 6.1.1.4'
loop_
_geom_angle_atom_site_label_1
_geom_angle_atom_site_label_2
_geom_angle_atom_site_label_3
_geom_angle
_geom_angle_site_symmetry_3
C6 C1 C2 122.6(2) .
C6 C1 N1 118.7(2) .
C2 C1 N1 118.7(2) .
C3 C2 C1 118.5(2) .
C3 C2 H2 120.7 .
C1 C2 H2 120.7 .
C2 C3 C4 120.0(2) .
C2 C3 H3 120.0 .
C4 C3 H3 120.0 .
C5 C4 C3 120.6(2) .
C5 C4 S1 119.85(19) .
C3 C4 S1 119.54(19) .
C4 C5 C6 119.8(2) .
C4 C5 H5 120.1 .
C6 C5 H5 120.1 .
C1 C6 C5 118.6(2) .
C1 C6 H6 120.7 .
C5 C6 H6 120.7 .
O6 C7 C8 126.2(2) .
O6 C7 C12 114.0(2) .
C8 C7 C12 119.8(2) .
C7 C8 C9 120.9(2) .
C7 C8 H8 119.6 .
C9 C8 H8 119.6 .
C10 C9 C8 117.8(2) .
C10 C9 C9 121.2(3) 2_655
C8 C9 C9 121.0(3) 2_655
C11 C10 C9 121.4(2) .
C11 C10 H10 119.3 .
C9 C10 H10 119.3 .
C12 C11 C10 119.4(2) .
C12 C11 H11 120.3 .
C10 C11 H11 120.3 .
C11 C12 C7 120.7(2) .
C11 C12 N2 121.5(2) .
C7 C12 N2 117.9(2) .
O6 C13 H13A 109.5 .
O6 C13 H13B 109.5 .
H13A C13 H13B 109.5 .
O6 C13 H13C 109.5 .
H13A C13 H13C 109.5 .
H13B C13 H13C 109.5 .
O2 N1 O1 123.4(2) .
O2 N1 C1 118.4(2) .
O1 N1 C1 118.2(2) .
C12 N2 H2A 111.3(16) .
C12 N2 H2B 114(2) .
H2A N2 H2B 111(3) .
C12 N2 H2C 114(3) .
H2A N2 H2C 103(3) .
H2B N2 H2C 102(3) .
C7 O6 C13 118.5(2) .
O3 S1 O4 114.33(19) .
O3 S1 O5 113.94(17) .
O4 S1 O5 109.50(16) .
O3 S1 C4 106.20(12) .
O4 S1 C4 105.20(14) .
O5 S1 C4 106.96(12) .
loop_
_geom_bond_atom_site_label_1
_geom_bond_atom_site_label_2
_geom_bond_distance
_geom_bond_site_symmetry_2
C1 C6 1.366(3) .
C1 C2 1.378(4) .
C1 N1 1.472(3) .
C2 C3 1.373(4) .
C2 H2 0.9300 .
C3 C4 1.384(3) .
C3 H3 0.9300 .
C4 C5 1.380(4) .
C4 S1 1.779(3) .
C5 C6 1.383(4) .
C5 H5 0.9300 .
C6 H6 0.9300 .
C7 O6 1.362(3) .
C7 C8 1.374(4) .
C7 C12 1.383(3) .
C8 C9 1.403(3) .
C8 H8 0.9300 .
C9 C10 1.388(4) .
C9 C9 1.493(5) 2_655
C10 C11 1.385(3) .
C10 H10 0.9300 .
C11 C12 1.370(3) .
C11 H11 0.9300 .
C12 N2 1.457(3) .
C13 O6 1.414(3) .
C13 H13A 0.9600 .
C13 H13B 0.9600 .
C13 H13C 0.9600 .
N1 O2 1.211(3) .
N1 O1 1.211(3) .
N2 H2A 0.90(3) .
N2 H2B 0.925(19) .
N2 H2C 0.92(4) .
O3 S1 1.421(2) .
O4 S1 1.427(2) .
O5 S1 1.4343(19) .
loop_
_geom_torsion_atom_site_label_1
_geom_torsion_atom_site_label_2
_geom_torsion_atom_site_label_3
_geom_torsion_atom_site_label_4
_geom_torsion
_geom_torsion_site_symmetry_1
_geom_torsion_site_symmetry_4
C6 C1 C2 C3 -0.4(4) . .
N1 C1 C2 C3 178.7(3) . .
C1 C2 C3 C4 -0.6(4) . .
C2 C3 C4 C5 1.1(4) . .
C2 C3 C4 S1 -176.5(2) . .
C3 C4 C5 C6 -0.6(4) . .
S1 C4 C5 C6 176.98(19) . .
C2 C1 C6 C5 1.0(4) . .
N1 C1 C6 C5 -178.2(2) . .
C4 C5 C6 C1 -0.4(4) . .
O6 C7 C8 C9 -178.2(3) . .
C12 C7 C8 C9 1.8(4) . .
C7 C8 C9 C10 0.1(4) . .
C7 C8 C9 C9 -179.6(3) . 2_655
C8 C9 C10 C11 -1.6(4) . .
C9 C9 C10 C11 178.1(3) 2_655 .
C9 C10 C11 C12 1.2(4) . .
C10 C11 C12 C7 0.7(4) . .
C10 C11 C12 N2 -178.4(2) . .
O6 C7 C12 C11 177.8(2) . .
C8 C7 C12 C11 -2.2(4) . .
O6 C7 C12 N2 -3.1(3) . .
C8 C7 C12 N2 177.0(2) . .
C6 C1 N1 O2 174.2(3) . .
C2 C1 N1 O2 -5.0(4) . .
C6 C1 N1 O1 -5.3(4) . .
C2 C1 N1 O1 175.5(3) . .
C8 C7 O6 C13 -9.4(4) . .
C12 C7 O6 C13 170.7(2) . .
C5 C4 S1 O3 142.8(2) . .
C3 C4 S1 O3 -39.6(3) . .
C5 C4 S1 O4 -95.6(3) . .
C3 C4 S1 O4 82.0(3) . .
C5 C4 S1 O5 20.8(3) . .
C3 C4 S1 O5 -161.6(2) . .
