#------------------------------------------------------------------------------
#$Date: 2019-11-25 22:02:30 +0200 (Mon, 25 Nov 2019) $
#$Revision: 241927 $
#$URL: file:///home/coder/svn-repositories/cod/cif/4/13/17/4131759.cif $
#------------------------------------------------------------------------------
#
# This file is available in the Crystallography Open Database (COD),
# http://www.crystallography.net/
#
# All data on this site have been placed in the public domain by the
# contributors.
#
data_4131759
loop_
_publ_author_name
'Hernandez, Lucas W.'
'Pospech, Jola'
'Kl\"ockner, Ulrich'
'Bingham, Tanner W.'
'Sarlah, David'
_publ_section_title
;
 Synthesis of (+)-Pancratistatins via Catalytic Desymmetrization of
 Benzene.
;
_journal_issue                   44
_journal_name_full               'Journal of the American Chemical Society'
_journal_page_first              15656
_journal_page_last               15659
_journal_paper_doi               10.1021/jacs.7b10351
_journal_volume                  139
_journal_year                    2017
_chemical_formula_moiety         'C16 H15 N3 O4'
_chemical_formula_sum            'C16 H15 N3 O4'
_chemical_formula_weight         313.31
_space_group_crystal_system      triclinic
_space_group_IT_number           2
_space_group_name_Hall           '-P 1'
_space_group_name_H-M_alt        'P -1'
_atom_sites_solution_hydrogens   mixed
_atom_sites_solution_primary     direct
_audit_creation_date             2017-04-21
_audit_creation_method
;
Olex2 1.2
(compiled 2017.03.28 svn.r3405 for OlexSys, GUI svn.r5335)
;
_cell_angle_alpha                72.6000(18)
_cell_angle_beta                 72.9177(19)
_cell_angle_gamma                86.0255(18)
_cell_formula_units_Z            2
_cell_length_a                   7.2463(5)
_cell_length_b                   9.5480(7)
_cell_length_c                   11.2269(8)
_cell_measurement_reflns_used    3404
_cell_measurement_temperature    100(2)
_cell_measurement_theta_max      25.326
_cell_measurement_theta_min      2.942
_cell_volume                     708.37(9)
_computing_cell_refinement       'SAINT v8.34A (Bruker, 2013)'
_computing_data_reduction        'SAINT v8.34A (Bruker, 2013)'
_computing_molecular_graphics    'Olex2 (Dolomanov et al., 2009)'
_computing_publication_material  'Olex2 (Dolomanov et al., 2009)'
_computing_structure_refinement  'XL (Sheldrick, 2008)'
_computing_structure_solution    'ShelXS (Sheldrick, 2008)'
_diffrn_ambient_temperature      100.15
_diffrn_detector                 'Bruker APEXII CCD area detector'
_diffrn_detector_type            'CCD area detector'
_diffrn_measured_fraction_theta_full 0.998
_diffrn_measured_fraction_theta_max 0.997
_diffrn_measurement_device       'kappa diffractometer'
_diffrn_measurement_device_type  'Bruker Kappa/ApexII CCD'
_diffrn_measurement_method       'profile data from \f and \w scans'
_diffrn_radiation_monochromator  graphite
_diffrn_radiation_probe          x-ray
_diffrn_radiation_type           MoK\a
_diffrn_radiation_wavelength     0.71073
_diffrn_reflns_av_R_equivalents  0.0230
_diffrn_reflns_av_unetI/netI     0.0184
_diffrn_reflns_Laue_measured_fraction_full 0.998
_diffrn_reflns_Laue_measured_fraction_max 0.997
_diffrn_reflns_limit_h_max       8
_diffrn_reflns_limit_h_min       -8
_diffrn_reflns_limit_k_max       11
_diffrn_reflns_limit_k_min       -11
_diffrn_reflns_limit_l_max       13
_diffrn_reflns_limit_l_min       -13
_diffrn_reflns_number            10076
_diffrn_reflns_point_group_measured_fraction_full 0.998
_diffrn_reflns_point_group_measured_fraction_max 0.997
_diffrn_reflns_theta_full        25.242
_diffrn_reflns_theta_max         25.350
_diffrn_reflns_theta_min         3.040
_diffrn_source                   'fine-focus sealed X-ray tube'
_diffrn_source_target            Mo
_diffrn_source_type              'Siemens fine-focus sealed tube'
_exptl_absorpt_coefficient_mu    0.108
_exptl_absorpt_correction_T_max  1.0000
_exptl_absorpt_correction_T_min  0.9155
_exptl_absorpt_correction_type   multi-scan
_exptl_absorpt_process_details
'SADABS-2014/4 (Bruker,2014/4) was used for absorption correction. wR2(int) was 0.0425 before and 0.0360 after correction. The Ratio of minimum to maximum transmission is 0.9155. The \l/2 correction factor is Not present.'
_exptl_crystal_colour            colourless
_exptl_crystal_colour_primary    colourless
_exptl_crystal_density_diffrn    1.469
_exptl_crystal_description       prism
_exptl_crystal_F_000             328
_exptl_crystal_size_max          0.267
_exptl_crystal_size_mid          0.252
_exptl_crystal_size_min          0.138
_refine_diff_density_max         0.252
_refine_diff_density_min         -0.165
_refine_diff_density_rms         0.035
_refine_ls_extinction_coef       0.0073(19)
_refine_ls_extinction_expression Fc^*^=kFc[1+0.001xFc^2^\l^3^/sin(2\q)]^-1/4^
_refine_ls_extinction_method     'SHELXL-2014/7 (Sheldrick 2014'
_refine_ls_goodness_of_fit_ref   1.048
_refine_ls_hydrogen_treatment    mixed
_refine_ls_matrix_type           full
_refine_ls_number_parameters     215
_refine_ls_number_reflns         2582
_refine_ls_number_restraints     0
_refine_ls_restrained_S_all      1.048
_refine_ls_R_factor_all          0.0334
_refine_ls_R_factor_gt           0.0304
_refine_ls_shift/su_max          0.001
_refine_ls_shift/su_mean         0.000
_refine_ls_structure_factor_coef Fsqd
_refine_ls_weighting_details
'w=1/[\s^2^(Fo^2^)+(0.0325P)^2^+0.2995P] where P=(Fo^2^+2Fc^2^)/3'
_refine_ls_weighting_scheme      calc
_refine_ls_wR_factor_gt          0.0747
_refine_ls_wR_factor_ref         0.0770
_reflns_Friedel_coverage         0.000
_reflns_number_gt                2360
_reflns_number_total             2582
_reflns_threshold_expression     'I > 2\s(I)'
_iucr_refine_instructions_details
;

    cm60y_0m.res created by SHELXL-2014/7

TITL 2 in P-1
CELL 0.71073 7.2463 9.548 11.2269 72.6 72.9177 86.0255
ZERR 2 0.0005 0.0007 0.0008 0.0018 0.0019 0.0018
LATT 1
SFAC C H N O
UNIT 32 30 6 8
EQIV $1 1-X,1-Y,2-Z
EQIV $2 1-X,1-Y,1-Z
 
L.S. 10
PLAN  20
SIZE 0.138 0.252 0.267
TEMP -173
HTAB N2 O1_$1
HTAB C1 O2_$2
BOND $H
htab
WPDB -2
CONF
LIST 4
fmap 2
acta
OMIT 1 0 0
REM <olex2.extras>
REM <HklSrc "%.\\cm60y_0m.hkl">
REM </olex2.extras>
 
WGHT    0.032500    0.299500
EXTI    0.007253
FVAR       0.77431   0.62515
O1    4    0.627012    0.328672    1.012279    11.00000    0.02838    0.02869 =
         0.01370   -0.00697   -0.00816    0.00586
O2    4    0.651720    0.328192    0.599471    11.00000    0.02362    0.02539 =
         0.01658   -0.01014   -0.00741    0.00296
O3    4    0.868731    0.581785    0.094140    11.00000    0.03163    0.01900 =
         0.01493   -0.00694   -0.00530    0.00002
O4    4    0.829797    0.824692   -0.011218    11.00000    0.02769    0.02154 =
         0.01546   -0.00535   -0.00736    0.00310
N1    3    0.577432    0.505934    0.708290    11.00000    0.02157    0.02069 =
         0.01130   -0.00614   -0.00577    0.00031
N2    3    0.603022    0.512546    0.826974    11.00000    0.02278    0.02225 =
         0.01179   -0.00779   -0.00627    0.00250
H2    2    0.519888    0.570272    0.868378    11.00000   -1.50000
N3    3    0.643857    0.285744    0.816571    11.00000    0.01608    0.01950 =
         0.01378   -0.00527   -0.00443    0.00137
C1    1    0.603987    0.636894    0.595034    11.00000    0.01789    0.02022 =
         0.01294   -0.00434   -0.00577    0.00150
AFIX  13
H1    2    0.539193    0.615010    0.535108    11.00000   -1.20000
AFIX   0
C2    1    0.819365    0.673341    0.516755    11.00000    0.01584    0.01797 =
         0.01711   -0.00626   -0.00523    0.00409
AFIX  13
H2A   2    0.891203    0.579535    0.533068    11.00000   -1.20000
AFIX   0
C3    1    0.910752    0.779623    0.559274    11.00000    0.01864    0.02557 =
         0.01927   -0.00667   -0.00698   -0.00052
AFIX  43
H3    2    1.047170    0.782138    0.541673    11.00000   -1.20000
AFIX   0
C4    1    0.804752    0.870138    0.620964    11.00000    0.02889    0.02414 =
         0.02241   -0.01031   -0.00898   -0.00157
AFIX  43
H4    2    0.866644    0.936093    0.646494    11.00000   -1.20000
AFIX   0
C5    1    0.594698    0.869593    0.650002    11.00000    0.02879    0.02468 =
         0.02176   -0.01162   -0.00558    0.00849
AFIX  43
H5    2    0.524568    0.947268    0.678240    11.00000   -1.20000
AFIX   0
C6    1    0.499192    0.763146    0.637912    11.00000    0.01750    0.02625 =
         0.01843   -0.00616   -0.00437    0.00632
AFIX  43
H6    2    0.362596    0.766759    0.656624    11.00000   -1.20000
AFIX   0
C7    1    0.624155    0.371081    0.898019    11.00000    0.01351    0.02418 =
         0.01441   -0.00637   -0.00321    0.00074
C8    1    0.626535    0.369179    0.695912    11.00000    0.01233    0.02164 =
         0.01463   -0.00566   -0.00386   -0.00022
C9    1    0.679675    0.129592    0.850461    11.00000    0.02211    0.01962 =
         0.01947   -0.00465   -0.00625    0.00224
AFIX 127
H9A   2    0.673856    0.093112    0.942906    21.00000   -1.50000
H9B   2    0.807897    0.111800    0.797411    21.00000   -1.50000
H9C   2    0.581493    0.078267    0.833984    21.00000   -1.50000
H9D   2    0.701641    0.095674    0.773294   -21.00000   -1.50000
H9E   2    0.567601    0.076986    0.918790   -21.00000   -1.50000
H9F   2    0.794004    0.110519    0.882217   -21.00000    0.01188
AFIX   0
C10   1    0.834836    0.725157    0.371370    11.00000    0.01152    0.02032 =
         0.01598   -0.00564   -0.00226    0.00004
C11   1    0.856583    0.618333    0.305161    11.00000    0.01643    0.01603 =
         0.01696   -0.00373   -0.00320    0.00057
AFIX  43
H11   2    0.870490    0.517595    0.347500    11.00000   -1.20000
AFIX   0
C12   1    0.856908    0.665398    0.177071    11.00000    0.01419    0.01912 =
         0.01761   -0.00877   -0.00220   -0.00079
C13   1    0.901242    0.687170   -0.032483    11.00000    0.02892    0.02221 =
         0.01533   -0.00731   -0.00591    0.00042
AFIX  23
H13A  2    0.831605    0.656416   -0.084607    11.00000   -1.20000
H13B  2    1.040724    0.696339   -0.079724    11.00000   -1.20000
AFIX   0
C14   1    0.834092    0.811424    0.113899    11.00000    0.01369    0.02178 =
         0.01389   -0.00379   -0.00307   -0.00048
C15   1    0.810196    0.917706    0.176504    11.00000    0.01773    0.01632 =
         0.02105   -0.00426   -0.00444    0.00099
AFIX  43
H15   2    0.792891    1.017643    0.133551    11.00000   -1.20000
AFIX   0
C16   1    0.812571    0.871577    0.307031    11.00000    0.01589    0.01872 =
         0.02018   -0.00920   -0.00364    0.00084
AFIX  43
H16   2    0.798540    0.942533    0.352876    11.00000   -1.20000
AFIX   0
HKLF 4
 
REM  2 in P-1
REM R1 =  0.0304 for    2360 Fo > 4sig(Fo)  and  0.0334 for all    2582 data
REM    215 parameters refined using      0 restraints
 
END  
     
WGHT      0.0325      0.2995 

REM Instructions for potential hydrogen bonds
HTAB N2 O1_$1
HTAB C1 O2_$2

REM Highest difference peak  0.252,  deepest hole -0.165,  1-sigma level  0.035
Q1    1   0.7130  0.6543  0.5556  11.00000  0.05    0.25
Q2    1   0.7528  0.7845  0.3564  11.00000  0.05    0.22
Q3    1   0.8078  0.7345  0.1562  11.00000  0.05    0.22
Q4    1   0.8279  0.7010  0.4451  11.00000  0.05    0.21
Q5    1   0.8931  0.7434  0.1392  11.00000  0.05    0.21
Q6    1   0.5665  0.8486  0.5823  11.00000  0.05    0.20
Q7    1   0.7975  0.6430  0.2417  11.00000  0.05    0.20
Q8    1   0.5568  0.6971  0.6111  11.00000  0.05    0.20
Q9    1   0.8624  0.7201  0.5381  11.00000  0.05    0.19
Q10   1   0.5437  0.5790  0.5589  11.00000  0.05    0.18
Q11   1   0.7572  0.8567  0.1554  11.00000  0.05    0.17
Q12   1   0.8922  0.8721  0.1220  11.00000  0.05    0.16
Q13   1   0.6131  0.3161  0.7597  11.00000  0.05    0.16
Q14   1   0.6755  0.2222  0.8208  11.00000  0.05    0.16
Q15   1   0.5381  0.7733  0.6982  11.00000  0.05    0.16
Q16   1   0.5952  0.5719  0.6528  11.00000  0.05    0.15
Q17   1   0.9283  0.6482  0.2254  11.00000  0.05    0.15
Q18   1   0.8995  0.8024  0.3252  11.00000  0.05    0.14
Q19   1   0.7288  0.8841  0.2625  11.00000  0.05    0.14
Q20   1   0.5898  0.5174  0.7626  11.00000  0.05    0.14

  REM The information below was added by Olex2.
  REM
  REM R1 = 0.0304 for 2360 Fo > 4sig(Fo) and 0.0334 for all 10077 data
  REM n/a parameters refined using n/a restraints
  REM Highest difference peak 0.25, deepest hole -0.17
  REM Mean Shift 0, Max Shift 0.001.

  REM +++ Tabular Listing of Refinement Information +++
  REM R1_all = 0.0334
  REM R1_gt = 0.0304
  REM wR_ref = 0.0770
  REM GOOF = 1.048
  REM Shift_max = 0.001
  REM Shift_mean = 0
  REM Reflections_all = 10077
  REM Reflections_gt = 2360
  REM Parameters = n/a
  REM Hole = -0.17
  REM Peak = 0.25
  REM Flack = n/a

  
;
_cod_data_source_file            ja7b10351_si_002.cif
_cod_data_source_block           cm60y_0m
_cod_database_code               4131759
_shelx_shelxl_version_number     2014/7
_shelx_space_group_comment
;
The symmetry employed for this shelxl refinement is uniquely defined
by the following loop, which should always be used as a source of
symmetry information in preference to the above space-group names.
They are only intended as comments.
;
_shelx_estimated_absorpt_t_max   0.985
_shelx_estimated_absorpt_t_min   0.972
_olex2_refinement_description
;
1. Fixed Uiso
 At 1.2 times of:
  All C(H) groups, All C(H,H) groups
 At 1.5 times of:
  All C(H,H,H,H,H) groups, All N(H) groups
2. Others
 Sof(H9D)=Sof(H9E)=Sof(H9F)=1-FVAR(1)
 Sof(H9A)=Sof(H9B)=Sof(H9C)=FVAR(1)
3.a Ternary CH refined with riding coordinates:
 C1(H1), C2(H2A)
3.b Secondary CH2 refined with riding coordinates:
 C13(H13A,H13B)
3.c Aromatic/amide H refined with riding coordinates:
 C3(H3), C4(H4), C5(H5), C6(H6), C11(H11), C15(H15), C16(H16)
3.d Disordered Me refined as rotating group:
 C9(H9A,H9B,H9C,H9D,H9E,H9F)
;
_olex2_submission_special_instructions 'No special instructions were received'
loop_
_space_group_symop_operation_xyz
'x, y, z'
'-x, -y, -z'
loop_
_atom_site_label
_atom_site_type_symbol
_atom_site_fract_x
_atom_site_fract_y
_atom_site_fract_z
_atom_site_U_iso_or_equiv
_atom_site_adp_type
_atom_site_occupancy
_atom_site_site_symmetry_order
_atom_site_calc_flag
_atom_site_refinement_flags_posn
_atom_site_refinement_flags_occupancy
O1 O 0.62701(13) 0.32867(10) 1.01228(8) 0.0232(2) Uani 1 1 d . .
O2 O 0.65172(12) 0.32819(10) 0.59947(8) 0.0207(2) Uani 1 1 d . .
O3 O 0.86873(13) 0.58178(9) 0.09414(8) 0.0217(2) Uani 1 1 d . .
O4 O 0.82980(12) 0.82469(9) -0.01122(8) 0.0214(2) Uani 1 1 d . .
N1 N 0.57743(14) 0.50593(11) 0.70829(9) 0.0173(2) Uani 1 1 d . .
N2 N 0.60302(15) 0.51255(12) 0.82697(10) 0.0181(2) Uani 1 1 d . .
H2 H 0.520(2) 0.5703(17) 0.8684(15) 0.027 Uiso 1 1 d R .
N3 N 0.64386(14) 0.28574(11) 0.81657(9) 0.0164(2) Uani 1 1 d . .
C1 C 0.60399(17) 0.63689(13) 0.59503(11) 0.0169(3) Uani 1 1 d . .
H1 H 0.5392 0.6150 0.5351 0.020 Uiso 1 1 calc R .
C2 C 0.81936(16) 0.67334(13) 0.51675(11) 0.0168(3) Uani 1 1 d . .
H2A H 0.8912 0.5795 0.5331 0.020 Uiso 1 1 calc R .
C3 C 0.91075(18) 0.77962(14) 0.55927(12) 0.0207(3) Uani 1 1 d . .
H3 H 1.0472 0.7821 0.5417 0.025 Uiso 1 1 calc R .
C4 C 0.80475(19) 0.87014(14) 0.62096(13) 0.0239(3) Uani 1 1 d . .
H4 H 0.8666 0.9361 0.6465 0.029 Uiso 1 1 calc R .
C5 C 0.59470(19) 0.86959(15) 0.65000(12) 0.0247(3) Uani 1 1 d . .
H5 H 0.5246 0.9473 0.6782 0.030 Uiso 1 1 calc R .
C6 C 0.49919(18) 0.76315(14) 0.63791(12) 0.0213(3) Uani 1 1 d . .
H6 H 0.3626 0.7668 0.6566 0.026 Uiso 1 1 calc R .
C7 C 0.62415(16) 0.37108(14) 0.89802(11) 0.0174(3) Uani 1 1 d . .
C8 C 0.62653(16) 0.36918(13) 0.69591(11) 0.0161(3) Uani 1 1 d . .
C9 C 0.67968(18) 0.12959(13) 0.85046(12) 0.0207(3) Uani 1 1 d . .
H9A H 0.6739 0.0931 0.9429 0.031 Uiso 0.625(16) 1 calc GR P
H9B H 0.8079 0.1118 0.7974 0.031 Uiso 0.625(16) 1 calc GR P
H9C H 0.5815 0.0783 0.8340 0.031 Uiso 0.625(16) 1 calc GR P
H9D H 0.7016 0.0957 0.7733 0.031 Uiso 0.375(16) 1 calc GR P
H9E H 0.5676 0.0770 0.9188 0.031 Uiso 0.375(16) 1 calc GR P
H9F H 0.7940 0.1105 0.8822 0.012(9) Uiso 0.375(16) 1 calc GR P
C10 C 0.83484(16) 0.72516(13) 0.37137(11) 0.0162(3) Uani 1 1 d . .
C11 C 0.85658(16) 0.61833(13) 0.30516(11) 0.0171(3) Uani 1 1 d . .
H11 H 0.8705 0.5176 0.3475 0.021 Uiso 1 1 calc R .
C12 C 0.85691(16) 0.66540(13) 0.17707(11) 0.0167(3) Uani 1 1 d . .
C13 C 0.90124(19) 0.68717(14) -0.03248(12) 0.0218(3) Uani 1 1 d . .
H13A H 0.8316 0.6564 -0.0846 0.026 Uiso 1 1 calc R .
H13B H 1.0407 0.6963 -0.0797 0.026 Uiso 1 1 calc R .
C14 C 0.83409(16) 0.81142(13) 0.11390(11) 0.0169(3) Uani 1 1 d . .
C15 C 0.81020(17) 0.91771(13) 0.17650(12) 0.0189(3) Uani 1 1 d . .
H15 H 0.7929 1.0176 0.1336 0.023 Uiso 1 1 calc R .
C16 C 0.81257(16) 0.87158(13) 0.30703(12) 0.0178(3) Uani 1 1 d . .
H16 H 0.7985 0.9425 0.3529 0.021 Uiso 1 1 calc R .
loop_
_atom_site_aniso_label
_atom_site_aniso_U_11
_atom_site_aniso_U_22
_atom_site_aniso_U_33
_atom_site_aniso_U_23
_atom_site_aniso_U_13
_atom_site_aniso_U_12
O1 0.0284(5) 0.0287(5) 0.0137(4) -0.0070(4) -0.0082(4) 0.0059(4)
O2 0.0236(5) 0.0254(5) 0.0166(4) -0.0101(4) -0.0074(3) 0.0030(4)
O3 0.0316(5) 0.0190(5) 0.0149(4) -0.0069(4) -0.0053(4) 0.0000(4)
O4 0.0277(5) 0.0215(5) 0.0155(4) -0.0053(4) -0.0074(4) 0.0031(4)
N1 0.0216(5) 0.0207(5) 0.0113(5) -0.0061(4) -0.0058(4) 0.0003(4)
N2 0.0228(5) 0.0222(5) 0.0118(5) -0.0078(4) -0.0063(4) 0.0025(4)
N3 0.0161(5) 0.0195(5) 0.0138(5) -0.0053(4) -0.0044(4) 0.0014(4)
C1 0.0179(6) 0.0202(6) 0.0129(6) -0.0043(5) -0.0058(5) 0.0015(5)
C2 0.0158(6) 0.0180(6) 0.0171(6) -0.0063(5) -0.0052(5) 0.0041(5)
C3 0.0186(6) 0.0256(7) 0.0193(6) -0.0067(5) -0.0070(5) -0.0005(5)
C4 0.0289(7) 0.0241(7) 0.0224(7) -0.0103(5) -0.0090(5) -0.0016(5)
C5 0.0288(7) 0.0247(7) 0.0218(7) -0.0116(5) -0.0056(5) 0.0085(5)
C6 0.0175(6) 0.0263(7) 0.0184(6) -0.0062(5) -0.0044(5) 0.0063(5)
C7 0.0135(6) 0.0242(6) 0.0144(6) -0.0064(5) -0.0032(4) 0.0007(5)
C8 0.0123(5) 0.0216(6) 0.0146(6) -0.0057(5) -0.0039(4) -0.0002(4)
C9 0.0221(6) 0.0196(6) 0.0195(6) -0.0047(5) -0.0063(5) 0.0022(5)
C10 0.0115(5) 0.0203(6) 0.0160(6) -0.0056(5) -0.0023(4) 0.0000(4)
C11 0.0164(6) 0.0160(6) 0.0170(6) -0.0037(5) -0.0032(5) 0.0006(4)
C12 0.0142(6) 0.0191(6) 0.0176(6) -0.0088(5) -0.0022(4) -0.0008(4)
C13 0.0289(7) 0.0222(6) 0.0153(6) -0.0073(5) -0.0059(5) 0.0004(5)
C14 0.0137(6) 0.0218(6) 0.0139(6) -0.0038(5) -0.0031(4) -0.0005(5)
C15 0.0177(6) 0.0163(6) 0.0211(6) -0.0043(5) -0.0044(5) 0.0010(5)
C16 0.0159(6) 0.0187(6) 0.0202(6) -0.0092(5) -0.0036(5) 0.0008(5)
loop_
_atom_type_symbol
_atom_type_description
_atom_type_scat_dispersion_real
_atom_type_scat_dispersion_imag
_atom_type_scat_source
C C 0.0033 0.0016 'International Tables Vol C Tables 4.2.6.8 and 6.1.1.4'
H H 0.0000 0.0000 'International Tables Vol C Tables 4.2.6.8 and 6.1.1.4'
N N 0.0061 0.0033 'International Tables Vol C Tables 4.2.6.8 and 6.1.1.4'
O O 0.0106 0.0060 'International Tables Vol C Tables 4.2.6.8 and 6.1.1.4'
loop_
_geom_angle_atom_site_label_1
_geom_angle_atom_site_label_2
_geom_angle_atom_site_label_3
_geom_angle
C12 O3 C13 104.38(9)
C14 O4 C13 104.31(9)
N2 N1 C1 121.32(9)
C8 N1 N2 108.29(9)
C8 N1 C1 122.25(9)
N1 N2 H2 116.0(10)
C7 N2 N1 107.02(9)
C7 N2 H2 117.7(10)
C7 N3 C8 110.84(10)
C7 N3 C9 124.93(10)
C8 N3 C9 124.22(10)
N1 C1 H1 106.8
N1 C1 C2 113.21(9)
N1 C1 C6 109.33(9)
C2 C1 H1 106.8
C6 C1 H1 106.8
C6 C1 C2 113.33(10)
C1 C2 H2A 107.2
C3 C2 C1 113.26(10)
C3 C2 H2A 107.2
C3 C2 C10 112.99(10)
C10 C2 C1 108.67(9)
C10 C2 H2A 107.2
C2 C3 H3 119.3
C4 C3 C2 121.47(11)
C4 C3 H3 119.3
C3 C4 H4 119.5
C3 C4 C5 120.97(12)
C5 C4 H4 119.5
C4 C5 H5 119.2
C6 C5 C4 121.63(12)
C6 C5 H5 119.2
C1 C6 H6 119.5
C5 C6 C1 121.06(11)
C5 C6 H6 119.5
O1 C7 N2 126.95(11)
O1 C7 N3 126.38(11)
N3 C7 N2 106.66(10)
O2 C8 N1 127.71(11)
O2 C8 N3 126.80(11)
N1 C8 N3 105.49(10)
N3 C9 H9A 109.5
N3 C9 H9B 109.5
N3 C9 H9C 109.5
N3 C9 H9D 109.5
N3 C9 H9E 109.5
N3 C9 H9F 109.5
H9A C9 H9B 109.5
H9A C9 H9C 109.5
H9A C9 H9D 141.1
H9A C9 H9E 56.3
H9A C9 H9F 56.3
H9B C9 H9C 109.5
H9B C9 H9D 56.3
H9B C9 H9E 141.1
H9B C9 H9F 56.3
H9C C9 H9D 56.3
H9C C9 H9E 56.3
H9C C9 H9F 141.1
H9D C9 H9E 109.5
H9D C9 H9F 109.5
H9E C9 H9F 109.5
C11 C10 C2 118.04(10)
C16 C10 C2 121.83(10)
C16 C10 C11 119.92(11)
C10 C11 H11 121.3
C12 C11 C10 117.37(11)
C12 C11 H11 121.3
O3 C12 C14 109.61(10)
C11 C12 O3 128.01(11)
C11 C12 C14 122.30(11)
O3 C13 O4 106.61(9)
O3 C13 H13A 110.4
O3 C13 H13B 110.4
O4 C13 H13A 110.4
O4 C13 H13B 110.4
H13A C13 H13B 108.6
O4 C14 C12 109.39(10)
C15 C14 O4 128.93(11)
C15 C14 C12 121.59(11)
C14 C15 H15 121.6
C14 C15 C16 116.77(11)
C16 C15 H15 121.6
C10 C16 C15 122.04(11)
C10 C16 H16 119.0
C15 C16 H16 119.0
loop_
_geom_bond_atom_site_label_1
_geom_bond_atom_site_label_2
_geom_bond_distance
O1 C7 1.2303(15)
O2 C8 1.2191(14)
O3 C12 1.3783(14)
O3 C13 1.4386(15)
O4 C13 1.4387(15)
O4 C14 1.3816(14)
N1 N2 1.4181(14)
N1 C1 1.4683(15)
N1 C8 1.3660(16)
N2 H2 0.909(16)
N2 C7 1.3721(16)
N3 C7 1.3686(16)
N3 C8 1.3878(15)
N3 C9 1.4492(16)
C1 H1 1.0000
C1 C2 1.5543(16)
C1 C6 1.5056(17)
C2 H2A 1.0000
C2 C3 1.5049(17)
C2 C10 1.5293(16)
C3 H3 0.9500
C3 C4 1.3304(18)
C4 H4 0.9500
C4 C5 1.4600(19)
C5 H5 0.9500
C5 C6 1.3287(19)
C6 H6 0.9500
C9 H9A 0.9800
C9 H9B 0.9800
C9 H9C 0.9800
C9 H9D 0.9800
C9 H9E 0.9800
C9 H9F 0.9800
C10 C11 1.4071(17)
C10 C16 1.3912(17)
C11 H11 0.9500
C11 C12 1.3717(17)
C12 C14 1.3856(17)
C13 H13A 0.9900
C13 H13B 0.9900
C14 C15 1.3728(17)
C15 H15 0.9500
C15 C16 1.4034(17)
C16 H16 0.9500
loop_
_geom_hbond_atom_site_label_D
_geom_hbond_atom_site_label_H
_geom_hbond_atom_site_label_A
_geom_hbond_distance_DH
_geom_hbond_distance_HA
_geom_hbond_distance_DA
_geom_hbond_angle_DHA
_geom_hbond_site_symmetry_A
N2 H2 O1 0.909(16) 1.911(17) 2.8022(14) 166.4(14) 2_667
C1 H1 O2 1.00 2.26 3.1889(14) 153.3 2_666
loop_
_geom_torsion_atom_site_label_1
_geom_torsion_atom_site_label_2
_geom_torsion_atom_site_label_3
_geom_torsion_atom_site_label_4
_geom_torsion
O3 C12 C14 O4 0.29(13)
O3 C12 C14 C15 177.17(10)
O4 C14 C15 C16 177.04(11)
N1 N2 C7 O1 -170.88(11)
N1 N2 C7 N3 9.82(12)
N1 C1 C2 C3 -92.72(12)
N1 C1 C2 C10 140.84(10)
N1 C1 C6 C5 104.14(13)
N2 N1 C1 C2 80.41(13)
N2 N1 C1 C6 -46.96(14)
N2 N1 C8 O2 -167.93(11)
N2 N1 C8 N3 11.53(12)
C1 N1 N2 C7 -162.80(10)
C1 N1 C8 O2 -19.05(18)
C1 N1 C8 N3 160.41(10)
C1 C2 C3 C4 -22.47(17)
C1 C2 C10 C11 -87.43(12)
C1 C2 C10 C16 87.36(13)
C2 C1 C6 C5 -23.16(16)
C2 C3 C4 C5 0.08(19)
C2 C10 C11 C12 175.62(10)
C2 C10 C16 C15 -174.45(10)
C3 C2 C10 C11 145.98(11)
C3 C2 C10 C16 -39.23(15)
C3 C4 C5 C6 12.3(2)
C4 C5 C6 C1 0.74(19)
C6 C1 C2 C3 32.52(14)
C6 C1 C2 C10 -93.91(11)
C7 N3 C8 O2 173.92(11)
C7 N3 C8 N1 -5.55(12)
C8 N1 N2 C7 -13.58(12)
C8 N1 C1 C2 -64.52(14)
C8 N1 C1 C6 168.11(10)
C8 N3 C7 O1 177.86(11)
C8 N3 C7 N2 -2.83(13)
C9 N3 C7 O1 -2.65(19)
C9 N3 C7 N2 176.66(10)
C9 N3 C8 O2 -5.58(18)
C9 N3 C8 N1 174.95(10)
C10 C2 C3 C4 101.63(14)
C10 C11 C12 O3 -177.38(11)
C10 C11 C12 C14 -0.94(17)
C11 C10 C16 C15 0.24(17)
C11 C12 C14 O4 -176.73(10)
C11 C12 C14 C15 0.15(18)
C12 O3 C13 O4 -23.01(12)
C12 C14 C15 C16 0.82(17)
C13 O3 C12 C11 -169.02(12)
C13 O3 C12 C14 14.17(12)
C13 O4 C14 C12 -14.62(12)
C13 O4 C14 C15 168.80(12)
C14 O4 C13 O3 23.17(12)
C14 C15 C16 C10 -1.01(17)
C16 C10 C11 C12 0.73(17)
loop_
_refln_index_h
_refln_index_k
_refln_index_l
_refln_F_squared_meas
_refln_F_squared_sigma
_refln_scale_group_code
1 0 0 90.6378 2.22353 7
-2 0 0 411.269 10.0996 7
-2 0 0 439.603 10.0153 1
2 0 0 442.57 10.0156 1
2 0 0 405.045 10.3424 5
2 0 0 420.629 10.1002 7
-3 0 0 689.793 15.606 1
-3 0 0 660.852 16.0555 3
-3 0 0 659.432 15.7494 7
3 0 0 655.448 15.7413 7
3 0 0 614.972 16.1186 5
3 0 0 686.812 15.6009 1
-4 0 0 2797 65.659 3
-4 0 0 2709.59 65.6845 7
-4 0 0 2853.08 65.293 1
4 0 0 2759.03 65.8026 5
-5 0 0 387.896 9.48981 7
-5 0 0 382.646 9.9704 8
-5 0 0 378.974 10.0318 3
5 0 0 389.948 10.2432 5
-6 0 0 199.915 6.05563 3
-6 0 0 208.006 5.98148 8
6 0 0 207.587 6.28726 5
-7 0 0 9.82148 1.22507 3
-7 0 0 9.73519 1.16061 8
7 0 0 11.4867 1.39161 5
-8 0 0 2.59566 0.79222 3
-8 0 0 2.48354 0.73906 8
8 0 0 1.17576 0.68703 5
8 -1 0 0.38556 0.64424 5
-8 1 0 -0.0807 0.51251 8
-8 1 0 -0.8147 0.54396 3
7 -1 0 3.84293 0.89683 5
-7 1 0 3.54494 0.77158 3
-7 1 0 3.26979 0.81308 8
6 -1 0 11.9664 1.32754 5
-6 1 0 14.3358 1.33609 3
-6 1 0 12.2402 1.20925 8
5 -1 0 12.7892 1.22922 5
-5 1 0 11.8144 0.94936 8
-5 1 0 11.4872 1.06338 3
4 -1 0 40.6666 1.7524 5
-4 1 0 43.0786 1.39273 7
-4 1 0 41.0166 1.67486 3
-4 1 0 40.916 1.70754 8
3 -1 0 95.0363 2.28798 1
3 -1 0 91.4421 2.85459 5
-3 1 0 92.5232 2.53237 7
-3 1 0 95.5321 2.8094 3
2 -1 0 4259.64 102.091 5
2 -1 0 4205.23 100.054 1
2 -1 0 4297.99 100.791 7
-2 1 0 4303.54 101.644 3
-1 1 0 3076.09 73.1936 3
-1 1 0 3176.73 73.5862 5
-1 1 0 3058.68 73.6607 4
-1 -1 0 167.108 4.41704 1
-1 -1 0 183.418 4.45076 5
-1 -1 0 180.565 4.43638 7
1 1 0 188.404 4.45647 5
1 1 0 183.703 4.4361 7
1 1 0 181.201 4.4539 2
-2 -1 0 9571.75 229.445 2
-2 -1 0 9814.52 229.427 3
-2 -1 0 9381.57 228.68 1
2 1 0 9999.99 230.01 5
2 1 0 9918.37 228.855 7
-3 -1 0 218.23 5.67308 2
-3 -1 0 216.91 5.63357 3
-3 -1 0 220.638 5.42636 7
3 1 0 208.949 5.726 5
-4 -1 0 3074.81 72.52 7
-4 -1 0 3003.39 72.1575 3
4 1 0 3105.51 72.3644 5
-5 -1 0 0.63618 0.25804 7
-5 -1 0 3.83862 0.58174 8
-5 -1 0 0.56826 0.35773 3
5 1 0 0.63909 0.41909 5
-6 -1 0 204.656 5.98554 3
-6 -1 0 202.851 5.81463 8
6 1 0 201.826 6.18849 5
-7 -1 0 65.1067 2.66502 8
-7 -1 0 66.0737 2.86548 3
7 1 0 64.4535 2.97884 5
-8 -1 0 343.178 9.57923 8
-8 -1 0 336.044 9.82116 3
8 1 0 348.476 10.2211 5
8 -2 0 33.0228 2.27152 5
-8 2 0 34.1692 2.18462 3
-8 2 0 31.7583 2.13936 8
7 -2 0 84.2638 3.59601 5
-7 2 0 92.1227 3.5272 8
-7 2 0 82.788 3.43488 3
6 -2 0 45.8372 2.23729 5
-6 2 0 43.7988 2.14584 8
-6 2 0 43.7031 2.11914 3
5 -2 0 0.5069 0.42917 5
-5 2 0 0.65838 0.45606 8
-5 2 0 0.08561 0.32633 3
4 -2 0 2.51949 0.5162 5
4 -2 0 2.81239 0.1947 1
-4 2 0 2.67735 0.54736 3
-4 2 0 2.46129 0.52736 8
3 -2 0 1.83481 0.39249 5
3 -2 0 2.34644 0.24227 1
-3 2 0 2.49194 0.4365 3
2 -2 0 376.627 9.2276 5
-2 2 0 371.398 9.18598 3
-2 2 0 370.109 9.22143 4
1 -2 0 69.9303 1.89704 5
-1 2 0 66.7513 1.98011 4
-1 2 0 68.2432 1.88445 3
0 -2 0 1387.7 33.0726 2
0 -2 0 1403.87 33.1134 5
0 2 0 1393.25 33.2588 4
0 2 0 1415.66 33.2977 2
-1 -2 0 993.885 22.1125 5
-1 -2 0 917.479 22.168 2
-1 -2 0 900.367 22.2272 7
-1 -2 0 958.588 22.0424 3
1 2 0 907.501 22.2977 5
1 2 0 946.233 22.2839 4
-2 -2 0 1073.56 25.3399 3
-2 -2 0 1060.6 25.4042 7
-2 -2 0 1067.67 25.4425 2
2 2 0 1082.45 25.4503 5
-3 -2 0 17.4083 0.80384 7
-3 -2 0 17.2308 0.91185 2
-3 -2 0 17.1691 0.85358 3
3 2 0 17.4594 0.94479 5
-4 -2 0 223.888 5.92011 3
-4 -2 0 219.859 5.98431 2
-4 -2 0 215.628 5.69223 7
4 2 0 221.544 6.08241 5
-5 -2 0 90.0696 2.73729 7
-5 -2 0 92.9624 3.1102 8
-5 -2 0 91.963 3.06903 3
5 2 0 90.2956 3.21938 5
-6 -2 0 909.93 21.8806 8
-6 -2 0 892.306 22.1136 3
6 2 0 874.293 22.3391 5
-7 -2 0 19.6241 1.47212 3
-7 -2 0 23.4426 1.4461 8
7 2 0 20.9983 1.59991 5
-8 -2 0 5.23936 1.00596 3
8 2 0 4.28581 1.0851 5
8 -3 0 138.413 5.24186 5
-8 3 0 132.268 5.00068 3
-8 3 0 141.268 5.1608 8
7 -3 0 36.2839 2.24457 5
-7 3 0 41.2179 2.31772 8
-7 3 0 38.9958 2.17895 3
6 -3 0 34.042 1.95739 5
-6 3 0 32.6789 1.85761 8
-6 3 0 30.6478 1.82102 3
5 -3 0 25.2406 1.50129 5
-5 3 0 25.0427 1.45448 3
-5 3 0 26.5468 1.55347 8
4 -3 0 599.178 14.319 1
4 -3 0 593.708 15.0627 5
-4 3 0 609.308 15.1341 8
-4 3 0 599.852 15.0082 3
3 -3 0 425.395 10.5665 5
-3 3 0 412.698 10.6283 8
-3 3 0 415.7 10.5261 3
-3 3 0 420.443 10.5869 4
2 -3 0 1.21749 0.28662 5
-2 3 0 1.54112 0.32264 3
-2 3 0 1.42518 0.35572 4
1 -3 0 106.343 3.00572 2
1 -3 0 111.195 2.90992 5
-1 3 0 110.615 3.10369 4
-1 3 0 110.569 2.90703 3
0 -3 0 110.752 2.91952 2
0 -3 0 107.533 2.71666 5
0 3 0 104.687 3.01131 4
-1 -3 0 351.053 8.18517 5
-1 -3 0 333.671 8.32539 2
-1 -3 0 333.848 8.43642 7
1 3 0 327.319 8.46512 4
1 3 0 334.534 8.17465 5
1 3 0 350.795 8.68224 6
-2 -3 0 28.2272 1.16671 7
-2 -3 0 27.1247 0.98156 3
-2 -3 0 31.5749 1.17784 2
2 3 0 28.0418 1.07647 5
-3 -3 0 160.594 4.34574 2
-3 -3 0 155.163 4.27599 7
-3 -3 0 151.122 4.16326 3
3 3 0 155.627 4.31619 5
-4 -3 0 33.1799 1.43953 2
-4 -3 0 27.7274 1.25474 3
-4 -3 0 24.351 1.18656 7
4 3 0 28.028 1.37761 5
-5 -3 0 -0.2799 0.35033 2
-5 -3 0 2.13616 0.54892 3
-5 -3 0 -0.1791 0.22381 7
5 3 0 0.49075 0.39403 5
-6 -3 0 8.08124 0.95519 3
6 3 0 5.49918 0.89391 5
-7 -3 0 28.1294 1.73586 3
7 3 0 28.8063 1.88424 5
7 -4 0 3.77247 0.95855 5
-7 4 0 4.90032 1.04715 8
-7 4 0 2.95718 0.83397 3
6 -4 0 99.5168 3.65768 5
-6 4 0 85.2964 3.35979 3
-6 4 0 88.4026 3.55326 8
5 -4 0 0.30143 0.40097 5
-5 4 0 1.36925 0.48895 3
-5 4 0 0.72487 0.49946 8
4 -4 0 94.6573 2.73012 1
4 -4 0 97.866 3.247 5
-4 4 0 95.4779 3.26842 4
-4 4 0 98.1542 3.19765 3
-4 4 0 100.135 3.37855 8
3 -4 0 103.459 3.1972 5
-3 4 0 103.421 3.299 4
-3 4 0 104.907 3.1757 3
2 -4 0 1193.37 27.876 2
2 -4 0 1154.35 27.7294 5
-2 4 0 1156.42 27.9497 4
-2 4 0 1148.87 27.7116 3
1 -4 0 448.042 11.0617 5
1 -4 0 462.258 11.2763 2
-1 4 0 481.77 11.6391 6
-1 4 0 437.03 11.3739 4
0 -4 0 780.736 18.7631 2
0 -4 0 764.149 18.4696 5
0 4 0 797.402 18.9528 4
0 4 0 782.001 19.0566 6
-1 -4 0 171.937 4.60466 2
-1 -4 0 184.113 4.78848 7
-1 -4 0 173.87 4.38263 5
1 4 0 175.647 5.00381 6
1 4 0 173.773 4.37963 5
1 4 0 164.585 4.75761 4
-2 -4 0 16.7778 0.94949 7
-2 -4 0 16.4184 0.8871 2
-2 -4 0 17.7568 0.7108 3
2 4 0 14.4784 0.75253 5
2 4 0 16.5162 0.99732 4
-3 -4 0 135.577 3.96688 7
-3 -4 0 136.524 3.93698 2
-3 -4 0 138.527 3.72906 3
3 4 0 137.456 3.87256 5
3 4 0 131.626 4.09952 4
-4 -4 0 218.518 5.90845 3
-4 -4 0 224.022 6.05862 7
-4 -4 0 225.449 6.14945 2
4 4 0 219.922 6.12861 5
-5 -4 0 265.656 7.07437 3
-5 -4 0 266.483 7.06042 7
-5 -4 0 267.463 7.2841 2
5 4 0 246.029 7.26335 5
-6 -4 0 8.74272 1.10361 2
-6 -4 0 10.4198 1.08002 3
6 4 0 10.3479 1.21597 5
-7 -4 0 2.2348 0.71308 3
7 4 0 2.81297 0.78829 5
7 -5 0 0.17647 0.56527 5
-7 5 0 -0.5883 0.50889 3
-7 5 0 1.05857 0.75527 8
6 -5 0 2.0395 0.70079 5
-6 5 0 3.8086 0.81373 3
-6 5 0 2.72262 0.81651 8
5 -5 0 118.415 3.99459 5
-5 5 0 118.253 3.96611 3
-5 5 0 117.894 4.17613 8
-5 5 0 114.099 4.04507 4
4 -5 0 251.271 6.43534 1
4 -5 0 248.808 6.86757 5
-4 5 0 238.618 6.95546 4
-4 5 0 246.99 6.82502 3
3 -5 0 16.3984 0.98294 5
3 -5 0 16.2977 1.0679 2
-3 5 0 17.136 0.99791 3
-3 5 0 13.4855 1.04884 8
-3 5 0 17.5303 1.11829 4
2 -5 0 127.02 3.78722 2
2 -5 0 126.44 3.60007 5
-2 5 0 123.386 3.59653 3
-2 5 0 123.358 3.87634 4
-2 5 0 131.976 3.88371 8
-2 5 0 135.025 3.72859 6
1 -5 0 178.213 4.66662 5
-1 5 0 182.84 5.09992 6
-1 5 0 181.593 5.10101 4
0 -5 0 367.477 8.64606 5
0 -5 0 333.324 8.82999 2
0 5 0 375.672 9.28018 6
0 5 0 324.665 9.01812 4
-1 -5 0 184.604 5.02154 2
-1 -5 0 187.494 5.22706 7
1 5 0 187.256 5.26102 4
-2 -5 0 426.412 10.5632 3
-2 -5 0 444.364 10.9682 2
-2 -5 0 444.478 11.18 7
2 5 0 434.962 10.6985 5
2 5 0 434.854 11.2267 4
-3 -5 0 173.152 4.52086 3
-3 -5 0 169.799 4.9488 7
-3 -5 0 172.144 4.84056 2
3 5 0 163.507 5.05194 4
3 5 0 170.635 4.68521 5
-4 -5 0 72.9918 2.3173 3
-4 -5 0 69.7556 2.56436 7
-4 -5 0 66.7558 2.52401 2
4 5 0 69.6931 2.76492 4
4 5 0 67.8055 2.45803 5
-5 -5 0 47.856 2.01078 7
-5 -5 0 46.3523 1.89533 3
-5 -5 0 47.8858 2.12886 2
5 5 0 46.075 2.08265 5
-6 -5 0 2.60035 0.60431 3
-6 -5 0 3.45574 0.78132 2
6 5 0 2.53575 0.7055 5
-7 -5 0 27.2852 1.71614 3
7 5 0 28.5205 1.95573 5
7 -6 0 10.9398 1.48689 5
-7 6 0 12.23 1.64564 8
-7 6 0 12.21 1.52367 3
6 -6 0 37.8893 2.137 5
-6 6 0 36.4538 2.04953 3
-6 6 0 33.077 2.15609 8
5 -6 0 57.2692 2.53257 5
5 -6 0 59.3629 2.66658 2
-5 6 0 61.8387 2.58387 3
-5 6 0 64.2236 2.881 8
-5 6 0 65.4621 2.78548 4
4 -6 0 16.2047 1.12593 5
4 -6 0 15.4804 1.21587 2
-4 6 0 15.5756 1.30637 8
-4 6 0 16.0959 1.1364 3
-4 6 0 16.5334 1.26744 4
3 -6 0 26.2182 1.32175 5
3 -6 0 29.7773 1.53455 2
-3 6 0 27.8268 1.55436 4
-3 6 0 28.9437 1.37988 3
-3 6 0 26.4272 1.50694 8
2 -6 0 13.2812 0.93257 2
2 -6 0 11.2502 0.74541 5
-2 6 0 10.9188 1.02974 8
-2 6 0 11.2795 0.94374 4
-2 6 0 13.7409 0.94097 6
1 -6 0 81.4649 2.67829 2
1 -6 0 80.7726 2.36759 5
-1 6 0 79.0645 2.83205 4
-1 6 0 79.4401 2.65777 8
-1 6 0 81.002 2.85061 6
0 -6 0 358.127 9.09871 2
0 6 0 348.706 9.35285 4
-1 -6 0 59.7078 2.09795 2
-1 -6 0 56.4074 2.25151 7
1 6 0 56.4845 2.2793 4
-2 -6 0 17.0339 1.02447 2
-2 -6 0 16.5714 0.72722 3
-2 -6 0 17.5221 1.14881 7
2 6 0 17.2468 0.82058 5
2 6 0 16.3005 1.15929 4
-3 -6 0 35.0548 1.77019 7
-3 -6 0 36.9166 1.66261 2
-3 -6 0 36.6569 1.33918 3
3 6 0 36.5469 1.46708 5
3 6 0 38.4505 1.91472 4
-4 -6 0 338.269 9.11562 7
-4 -6 0 332.135 8.54584 3
-4 -6 0 336.664 8.99496 2
4 6 0 340.311 8.81203 5
4 6 0 329.705 9.31782 4
-5 -6 0 121.326 4.13151 2
-5 -6 0 122.009 3.76738 3
-5 -6 0 125.187 4.1162 7
5 6 0 127.486 4.03948 5
5 6 0 125.562 4.46167 4
-6 -6 0 21.9837 1.58491 2
6 6 0 23.2914 1.59799 5
6 6 0 23.6666 1.79867 4
6 -7 0 4.83138 0.97211 2
6 -7 0 6.74465 1.1151 5
-6 7 0 6.61794 1.03241 3
-6 7 0 6.98128 1.18994 8
5 -7 0 15.5252 1.50693 2
5 -7 0 17.2615 1.33608 5
-5 7 0 19.1713 1.8008 4
-5 7 0 16.3143 1.71946 8
-5 7 0 17.786 1.38438 3
4 -7 0 3.27772 0.784 2
4 -7 0 2.84916 0.63524 5
-4 7 0 3.47176 0.80023 4
-4 7 0 3.79765 0.72393 3
-4 7 0 3.40483 0.77596 8
3 -7 0 4.21007 0.70897 2
3 -7 0 4.6894 0.65333 5
-3 7 0 4.87771 0.81863 8
-3 7 0 5.20443 0.84965 4
2 -7 0 1.31486 0.4862 2
2 -7 0 1.67556 0.38589 5
-2 7 0 0.5599 0.39485 6
-2 7 0 1.05964 0.46833 4
-2 7 0 1.55319 0.46988 8
1 -7 0 89.0174 2.96488 2
1 -7 0 81.49 2.48767 5
-1 7 0 87.1053 3.1407 4
-1 7 0 83.5639 2.88344 8
0 -7 0 46.2786 1.85521 2
0 7 0 43.9174 2.03658 4
0 7 0 41.5541 1.71103 8
-1 -7 0 46.9325 2.12323 7
-1 -7 0 46.7508 1.89446 2
1 7 0 44.3333 2.12198 4
-2 -7 0 113.469 3.61309 2
-2 -7 0 116.064 3.90774 7
2 7 0 110.716 3.8962 4
-3 -7 0 6.92295 0.99311 7
-3 -7 0 5.4823 0.8058 2
3 7 0 6.16568 0.96526 4
-4 -7 0 35.0014 1.77159 2
-4 -7 0 31.4533 1.80135 7
4 7 0 33.9815 2.0015 4
-5 -7 0 13.6598 1.33982 2
-5 -7 0 15.7012 1.31035 7
5 7 0 13.9761 1.62476 4
-6 -7 0 38.4628 2.15274 2
6 7 0 42.6338 2.48839 4
5 -8 0 2.81935 0.8787 2
5 -8 0 4.34528 0.84182 5
-5 8 0 4.16896 0.97967 8
-5 8 0 4.01667 0.86462 3
-5 8 0 2.79571 0.85729 4
4 -8 0 1.77557 0.61394 2
4 -8 0 1.02664 0.43641 5
-4 8 0 0.54742 0.50598 4
-4 8 0 0.98071 0.55073 8
3 -8 0 13.0775 0.95582 5
3 -8 0 11.1584 1.23447 2
-3 8 0 13.5346 1.3927 4
-3 8 0 13.0655 1.37098 8
2 -8 0 18.6903 1.03601 5
2 -8 0 19.6985 1.31307 2
-2 8 0 18.5559 1.40163 4
-2 8 0 21.3656 1.41888 8
1 -8 0 127.881 4.149 2
-1 8 0 130.159 4.44312 4
-1 8 0 131.351 4.12673 8
0 -8 0 30.3192 1.58275 2
0 8 0 31.351 1.5001 8
0 8 0 29.6107 1.75073 4
-1 -8 0 166.3 4.93208 2
-1 -8 0 158.703 5.25122 7
1 8 0 164.647 5.30633 4
-2 -8 0 6.6269 1.01468 7
-2 -8 0 8.09404 0.95568 2
2 8 0 6.19444 1.02254 4
-3 -8 0 25.7508 1.54961 2
-3 -8 0 28.4208 1.80968 7
3 8 0 30.1486 1.933 4
-4 -8 0 0.07514 0.48458 2
-4 -8 0 -0.4017 0.35268 7
4 8 0 -0.2985 0.44532 4
-5 -8 0 59.7977 2.70424 2
-5 -8 0 61.4833 2.80818 7
5 8 0 55.3983 2.91035 4
4 -9 0 -0.1145 0.52448 2
-4 9 0 0.507 0.5228 4
-4 9 0 -0.3075 0.54574 8
3 -9 0 8.15652 1.1116 2
-3 9 0 5.42646 0.98917 8
-3 9 0 7.20225 1.13185 4
2 -9 0 69.5613 2.80519 2
-2 9 0 63.232 2.72549 8
-2 9 0 62.884 2.94872 4
1 -9 0 1.0659 0.4999 2
-1 9 0 1.65474 0.66506 4
-1 9 0 1.18549 0.46506 8
0 -9 0 2.92157 0.70763 2
0 -9 0 2.45529 0.7797 7
0 9 0 3.60041 0.82695 4
-1 -9 0 21.8659 1.4426 2
-1 -9 0 18.5642 1.54284 7
1 9 0 23.5603 1.69492 4
-2 -9 0 41.4405 2.34258 7
-2 -9 0 45.5357 2.14832 2
2 9 0 51.2595 2.61588 4
-3 -9 0 -0.4186 0.43805 2
-3 -9 0 -0.885 0.40165 7
3 9 0 0.11723 0.55751 4
-4 -9 0 21.6492 1.68464 7
-4 -9 0 22.4604 1.60269 2
4 9 0 23.0213 2.19405 4
3 -10 0 0.87078 0.63233 2
-3 10 0 0.74153 0.59644 8
-3 10 0 0.39245 0.63961 4
2 -10 0 12.7642 1.42902 2
-2 10 0 15.8098 1.78482 4
-2 10 0 14.4698 1.48324 8
1 -10 0 3.91986 0.94243 7
1 -10 0 4.15477 0.83066 2
-1 10 0 3.32857 0.96026 4
0 -10 0 6.48327 1.12076 7
0 -10 0 6.14764 0.98071 2
0 10 0 4.86424 0.9975 4
-1 -10 0 12.4767 1.29306 2
-1 -10 0 9.2524 1.36125 7
1 10 0 11.1359 1.48206 4
-2 -10 0 12.6661 1.55606 7
-2 -10 0 11.0584 1.29537 2
2 10 0 12.2399 1.5902 4
-3 -10 0 12.0657 1.56462 7
-3 -10 0 9.16768 1.27161 2
3 10 0 14.7893 1.75239 4
2 10 -1 1.10813 0.69815 4
-2 -10 1 0.09236 0.56045 2
-2 -10 1 0.91148 0.64503 7
1 10 -1 5.263 1.10818 4
-1 -10 1 4.8572 1.03951 7
-1 -10 1 5.85475 0.9951 2
0 10 -1 50.0009 2.77606 4
0 -10 1 57.2183 2.8913 7
0 -10 1 55.1517 2.61179 2
-1 10 -1 6.16471 1.17192 4
1 -10 1 7.49533 1.14393 2
-2 10 -1 -0.2414 0.4409 8
-2 10 -1 -0.0946 0.57455 4
2 -10 1 0.65077 0.61929 2
-3 10 -1 8.39321 1.23643 8
-3 10 -1 10.1972 1.51573 4
4 9 -1 4.38265 1.03318 4
-4 -9 1 2.94277 0.89518 7
3 9 -1 5.39934 1.0686 4
-3 -9 1 5.50074 0.99674 7
-3 -9 1 5.37351 0.99655 2
2 9 -1 115.683 4.46919 4
-2 -9 1 119.08 4.10281 2
-2 -9 1 113.035 4.3347 7
1 9 -1 27.1864 1.88517 4
-1 -9 1 26.685 1.90652 7
-1 -9 1 30.0796 1.76195 2
0 9 -1 0.95166 0.53799 4
0 -9 1 0.19191 0.49502 2
-1 9 -1 94.2814 3.87135 4
-1 9 -1 103.385 3.60174 8
1 -9 1 101.658 3.65451 2
-2 9 -1 33.4884 2.12945 4
-2 9 -1 33.4607 1.94338 8
2 -9 1 37.1219 2.02642 2
-3 9 -1 0.6874 0.59076 8
-3 9 -1 1.75555 0.67185 4
3 -9 1 1.80452 0.68037 2
-4 9 -1 0.02292 0.47496 4
-4 9 -1 1.05432 0.62545 8
4 -9 1 0.87075 0.59711 2
5 8 -1 6.17947 1.2048 4
-5 -8 1 8.45935 1.22639 7
-5 -8 1 7.14393 1.18128 2
4 8 -1 10.5657 1.43783 4
-4 -8 1 9.69395 1.20372 2
-4 -8 1 8.05276 1.15512 7
3 8 -1 109.398 4.1045 4
-3 -8 1 104.113 3.91385 7
-3 -8 1 101.682 3.73139 2
2 8 -1 149.515 5.12814 4
-2 -8 1 157.233 4.85307 2
-2 -8 1 149.93 5.07329 7
1 8 -1 12.6137 1.40708 4
-1 -8 1 12.6371 1.24644 2
-1 -8 1 12.6224 1.36538 7
0 8 -1 217.976 6.21041 8
0 8 -1 223.444 6.73655 4
0 -8 1 222.407 6.38993 2
-1 8 -1 34.2003 1.96794 4
-1 8 -1 31.7701 1.70845 8
1 -8 1 34.6112 1.78707 2
-2 8 -1 57.3207 2.51659 8
-2 8 -1 63.0084 2.76132 4
2 -8 1 59.6059 2.54644 2
-3 8 -1 26.109 1.7802 4
-3 8 -1 26.477 1.69618 8
3 -8 1 23.9785 1.60768 2
-4 8 -1 89.561 3.62269 8
-4 8 -1 91.7159 3.70157 4
4 -8 1 85.0791 3.46763 2
-5 8 -1 0.45245 0.62378 4
-5 8 -1 -0.2061 0.50825 8
5 -8 1 -0.2947 0.55433 2
5 7 -1 3.97626 0.97971 4
-5 -7 1 2.12723 0.66889 7
-5 -7 1 2.65173 0.77818 2
4 7 -1 1.20704 0.66626 4
-4 -7 1 1.69994 0.57965 7
-4 -7 1 0.53298 0.53906 2
3 7 -1 38.5598 2.086 4
-3 -7 1 39.7537 2.03837 7
-3 -7 1 38.6724 1.92887 2
2 7 -1 1.41233 0.63215 4
-2 -7 1 1.5528 0.54866 2
-2 -7 1 2.24161 0.64061 7
1 7 -1 33.2293 1.81026 4
-1 -7 1 34.1205 1.67436 2
0 7 -1 61.1053 2.22365 8
0 7 -1 57.3204 2.48513 4
0 -7 1 60.473 2.3503 2
-1 7 -1 111.592 3.91134 4
-1 7 -1 117.248 3.70513 8
1 -7 1 113.52 3.72505 2
1 -7 1 116.59 3.05242 5
-2 7 -1 1.53273 0.55897 4
-2 7 -1 2.2465 0.59735 8
2 -7 1 1.66986 0.51921 2
2 -7 1 1.01335 0.31344 5
-3 7 -1 112.397 3.981 4
-3 7 -1 108.841 3.87083 8
3 -7 1 113.701 3.40955 5
-4 7 -1 65.7885 2.8679 4
-4 7 -1 65.3975 2.88311 8
4 -7 1 67.5792 2.51347 5
4 -7 1 62.4396 2.71356 2
-5 7 -1 37.1798 1.97848 3
-5 7 -1 38.6868 2.18294 4
-5 7 -1 34.2469 2.12615 8
5 -7 1 35.3932 1.86116 5
5 -7 1 35.5233 2.0456 2
-6 7 -1 1.52626 0.78335 8
-6 7 -1 3.07305 0.81189 3
-6 7 -1 1.98647 0.77198 4
6 -7 1 3.08588 0.80474 5
6 -7 1 2.66459 0.78585 2
6 6 -1 20.6497 1.97893 4
-6 -6 1 20.7547 1.61129 3
-6 -6 1 14.9093 1.55575 2
5 6 -1 7.40918 1.11188 4
5 6 -1 8.62915 1.08864 5
-5 -6 1 8.03265 0.98194 7
-5 -6 1 8.1407 1.07786 2
-5 -6 1 8.93371 0.95069 3
4 6 -1 7.72042 1.06003 4
4 6 -1 7.53912 0.81989 5
-4 -6 1 7.33353 0.92906 7
-4 -6 1 7.65207 0.79568 3
-4 -6 1 6.66112 0.9313 2
3 6 -1 90.1259 2.75196 5
3 6 -1 94.6024 3.39274 4
-3 -6 1 92.0399 3.17982 2
-3 -6 1 86.337 3.19169 7
-3 -6 1 92.794 2.77118 3
2 6 -1 45.7727 1.48052 5
2 6 -1 46.7777 2.12274 4
-2 -6 1 47.4464 1.95191 2
-2 -6 1 48.4089 2.08229 7
-2 -6 1 44.7391 1.57372 3
1 6 -1 28.8047 1.51874 4
-1 -6 1 27.278 0.85295 5
-1 -6 1 27.3332 1.37629 2
0 6 -1 25.3179 1.41191 4
0 -6 1 22.414 1.23795 2
0 -6 1 23.4578 0.70435 5
0 -6 1 22.8707 0.70097 5
-1 6 -1 2.91037 0.53319 8
-1 6 -1 2.84662 0.58286 4
1 -6 1 2.42258 0.51383 2
1 -6 1 2.54971 0.30687 5
-2 6 -1 62.1054 2.36248 8
-2 6 -1 61.8105 2.46878 4
2 -6 1 59.022 1.93057 5
2 -6 1 60.4033 2.31133 2
-3 6 -1 163.101 5.07865 8
-3 6 -1 166.329 5.16607 4
3 -6 1 169.154 5.02444 2
3 -6 1 167.823 4.67347 5
-4 6 -1 1.79141 0.62027 4
-4 6 -1 -0.4667 0.3397 3
-4 6 -1 0.59947 0.4947 8
4 -6 1 0.9516 0.56698 2
4 -6 1 1.24398 0.41731 5
-5 6 -1 77.8019 3.01647 3
-5 6 -1 77.8582 3.26038 8
-5 6 -1 78.0022 3.22644 4
5 -6 1 81.3981 3.15395 2
5 -6 1 76.5585 2.99045 5
-6 6 -1 10.927 1.32927 3
-6 6 -1 11.645 1.47977 8
6 -6 1 14.6108 1.47476 5
6 -6 1 16.4006 1.72164 2
-7 6 -1 21.5357 2.09262 8
-7 6 -1 15.5684 1.7064 3
7 -6 1 22.73 1.74105 5
7 5 -1 24.9711 1.8087 5
6 5 -1 64.6415 2.75601 5
6 5 -1 62.4948 2.91254 4
-6 -5 1 61.1917 2.56328 3
-6 -5 1 64.3152 2.79591 2
5 5 -1 12.9307 1.35556 4
5 5 -1 13.6298 1.11673 5
-5 -5 1 13.8997 1.05011 3
-5 -5 1 12.9899 1.01985 7
-5 -5 1 15.4236 1.23608 2
4 5 -1 0.66548 0.46526 4
4 5 -1 1.25045 0.41497 5
-4 -5 1 0.78517 0.44086 2
-4 -5 1 1.21051 0.38634 3
-4 -5 1 0.77328 0.4021 7
3 5 -1 270.352 7.21184 5
3 5 -1 273.949 7.72101 4
-3 -5 1 278.842 7.54816 2
-3 -5 1 287.045 7.20439 3
-3 -5 1 288.41 7.57987 7
2 5 -1 103.737 2.87371 5
2 5 -1 105.393 3.42823 4
-2 -5 1 101.769 3.33894 7
-2 -5 1 102.7 2.93948 3
-2 -5 1 108.521 3.29326 2
1 5 -1 125.224 3.87126 4
-1 -5 1 132.262 3.76174 2
-1 -5 1 122.758 3.1778 5
0 5 -1 129.402 4.02263 4
0 -5 1 132.285 3.27872 5
0 -5 1 140.742 3.91767 2
0 -5 1 135.325 3.28789 5
-1 5 -1 174.28 5.14209 4
1 -5 1 183.159 4.55766 5
1 -5 1 186.104 5.0591 2
-2 5 -1 705.44 18.0883 4
-2 5 -1 722.045 17.9936 8
2 -5 1 746.977 17.5932 5
2 -5 1 745.22 17.9821 2
-3 5 -1 0.30332 0.32014 3
-3 5 -1 0.26331 0.31869 4
-3 5 -1 -0.0477 0.30643 8
3 -5 1 0.08184 0.20357 5
3 -5 1 -0.1564 0.31994 2
-4 5 -1 38.3822 1.89562 4
-4 5 -1 36.9652 1.73388 3
4 -5 1 38.3227 1.71695 5
4 -5 1 38.4776 1.83807 2
-5 5 -1 -0.4764 0.37294 8
-5 5 -1 -0.0216 0.41243 4
-5 5 -1 0.43863 0.47956 3
5 -5 1 0.3525 0.40008 5
-6 5 -1 172.875 5.75897 8
-6 5 -1 170.934 5.53624 3
6 -5 1 176.912 5.5968 5
-7 5 -1 0.45591 0.6454 3
-7 5 -1 0.58185 0.63927 8
7 -5 1 0.79136 0.62607 5
7 4 -1 42.2185 2.35817 5
-7 -4 1 40.8959 2.16008 3
6 4 -1 31.9184 1.82262 5
-6 -4 1 28.2597 1.8222 2
-6 -4 1 29.255 1.64701 3
5 4 -1 2.4567 0.60355 5
-5 -4 1 3.05078 0.71762 2
-5 -4 1 1.39259 0.46293 7
-5 -4 1 1.69459 0.51682 3
4 4 -1 142.943 4.30095 5
-4 -4 1 147.292 4.24039 3
-4 -4 1 146.417 4.24827 7
-4 -4 1 145.617 4.45546 2
3 4 -1 11.437 0.94085 4
3 4 -1 12.5484 0.79495 5
-3 -4 1 11.4845 0.74399 3
-3 -4 1 11.5541 0.91148 2
-3 -4 1 12.4176 0.84867 7
2 4 -1 177.807 4.94884 4
2 4 -1 165.962 4.4714 5
-2 -4 1 175.226 4.54026 3
-2 -4 1 181.282 4.82647 2
-2 -4 1 166.144 4.79624 7
1 4 -1 252.824 6.75304 4
1 4 -1 243.367 6.16231 5
-1 -4 1 259.071 6.6285 2
-1 -4 1 263.517 6.17451 5
0 4 -1 320.343 8.50314 4
0 -4 1 336.333 8.40667 2
0 -4 1 338.962 7.86003 5
-1 4 -1 130.603 3.87826 4
1 -4 1 138.681 3.80827 2
1 -4 1 132.772 3.40955 5
-2 4 -1 197.677 5.37345 8
-2 4 -1 188.039 5.35636 4
-2 4 -1 196.075 5.15403 3
2 -4 1 192.012 5.2778 2
2 -4 1 195.529 5.03854 5
-3 4 -1 16.4804 1.04963 8
-3 4 -1 15.5796 1.04848 4
-3 4 -1 16.0722 0.9807 3
3 -4 1 18.388 0.94813 5
3 -4 1 17.9358 1.08083 2
-4 4 -1 437.596 11.5953 8
-4 4 -1 444.808 11.439 3
-4 4 -1 447.351 11.6072 4
4 -4 1 453.801 11.4531 5
-5 4 -1 122.793 4.09351 3
-5 4 -1 126.987 4.25285 8
5 -4 1 128.776 4.16112 5
-6 4 -1 22.9638 1.61887 8
-6 4 -1 24.2745 1.60785 3
6 -4 1 25.2924 1.6151 5
-7 4 -1 0.00132 0.49223 3
-7 4 -1 0.61281 0.58763 8
7 -4 1 0.30141 0.56225 5
7 3 -1 0.77185 0.60707 5
-7 -3 1 1.01323 0.57609 3
6 3 -1 7.86263 1.10628 5
-6 -3 1 6.21959 0.91183 3
5 3 -1 7.96653 0.93733 5
-5 -3 1 8.04529 1.01067 2
-5 -3 1 8.62287 0.92537 3
-5 -3 1 8.78864 0.70078 7
4 3 -1 19.7404 1.15218 5
-4 -3 1 19.386 0.98464 7
-4 -3 1 20.7184 1.22055 2
-4 -3 1 20.833 1.11346 3
3 3 -1 54.4391 1.87949 5
-3 -3 1 48.9556 1.91394 2
-3 -3 1 54.2028 1.82399 7
-3 -3 1 54.35 1.8287 3
2 3 -1 2.06824 0.31924 5
2 3 -1 1.10361 0.34772 4
-2 -3 1 0.93217 0.31747 2
-2 -3 1 1.16301 0.32378 7
-2 -3 1 1.10953 0.26534 3
1 3 -1 84.1435 2.55488 4
1 3 -1 82.0717 2.19036 5
-1 -3 1 85.547 2.19269 5
-1 -3 1 84.4192 2.48505 2
0 -3 1 306.062 7.65077 2
-1 3 -1 51.0004 1.74589 4
1 -3 1 49.6658 1.68227 2
1 -3 1 51.1461 1.42882 5
-2 3 -1 858.134 20.261 3
-2 3 -1 828.147 20.4077 4
2 -3 1 872.665 20.1914 5
2 -3 1 817.351 20.3129 2
-3 3 -1 454.834 11.416 4
-3 3 -1 450.567 11.2907 3
-3 3 -1 454.442 11.4217 8
3 -3 1 446.859 11.2585 5
-4 3 -1 26.5165 1.43317 8
-4 3 -1 26.8144 1.38199 3
-4 3 -1 28.1607 1.46106 4
4 -3 1 30.1129 1.445 5
4 -3 1 30.4368 1.05241 1
-5 3 -1 10.989 1.15639 8
-5 3 -1 13.8466 1.03473 3
5 -3 1 11.9794 1.19532 5
-6 3 -1 445.664 11.8668 8
-6 3 -1 437.196 11.7416 3
6 -3 1 440.966 11.8534 5
-7 3 -1 9.09231 1.26518 8
-7 3 -1 7.94137 1.14302 3
7 -3 1 8.70219 1.26204 5
-8 3 -1 43.8896 2.46531 3
-8 3 -1 43.8796 2.57912 8
8 -3 1 41.934 2.53698 5
7 2 -1 7.63314 1.19779 5
-7 -2 1 8.21772 1.04445 8
-7 -2 1 7.21905 1.01724 3
6 2 -1 39.1455 2.09265 5
-6 -2 1 42.3657 1.86702 8
-6 -2 1 39.2947 1.98764 3
5 2 -1 9.00535 1.01918 5
-5 -2 1 7.82993 0.89262 3
-5 -2 1 7.84079 0.58648 7
-5 -2 1 7.73943 0.82059 8
-5 -2 1 7.17608 0.87663 2
4 2 -1 118.335 3.65369 5
-4 -2 1 115.844 3.61988 2
-4 -2 1 115.048 3.53122 3
-4 -2 1 117.108 3.22237 7
3 2 -1 20.9468 1.0038 1
3 2 -1 22.9061 1.09429 5
-3 -2 1 21.9955 1.11067 2
-3 -2 1 22.2129 1.03282 3
-3 -2 1 21.831 0.90727 7
2 2 -1 67.3771 2.03015 1
2 2 -1 61.3406 1.94642 5
-2 -2 1 65.2153 1.92391 7
-2 -2 1 64.5262 2.06329 2
-2 -2 1 65.2031 1.95469 3
1 2 -1 32.0303 1.18778 4
1 2 -1 32.6721 1.19791 1
1 2 -1 33.3225 1.01387 5
-1 -2 1 34.9589 1.20617 2
-1 -2 1 34.4572 1.02276 5
0 2 -1 626.801 15.0556 4
0 2 -1 624.811 15.0514 1
0 -2 1 631.266 15.0147 2
-1 2 -1 5.56535 0.51144 4
-1 2 -1 6.61812 0.35782 5
1 -2 1 5.7523 0.45936 2
1 -2 1 5.78461 0.32658 5
-2 2 -1 43.2152 1.57566 4
-2 2 -1 48.2891 1.55478 3
2 -2 1 50.3565 1.39712 1
2 -2 1 44.3527 1.50047 5
-3 2 -1 59.7087 2.03169 3
-3 2 -1 59.3436 2.09151 4
3 -2 1 63.6842 1.65263 1
3 -2 1 57.4393 2.02362 5
-4 2 -1 143.496 4.25662 3
-4 2 -1 149.604 4.31857 8
4 -2 1 144.058 4.3143 5
-5 2 -1 121.948 3.85459 8
-5 2 -1 114.09 3.75845 3
5 -2 1 114.706 3.82565 5
-6 2 -1 107.422 3.77172 8
-6 2 -1 107.358 3.75288 3
6 -2 1 106.719 3.8494 5
-7 2 -1 1.54471 0.56785 3
-7 2 -1 0.44265 0.51114 8
7 -2 1 -0.5813 0.39284 5
-8 2 -1 39.3518 2.33443 3
-8 2 -1 44.5676 2.45617 8
8 -2 1 39.6029 2.48568 5
8 1 -1 17.0315 1.90708 5
-8 -1 1 17.7074 1.64624 8
-8 -1 1 16.3348 1.67545 3
7 1 -1 -0.4309 0.41175 5
-7 -1 1 0.04104 0.47847 3
-7 -1 1 -0.1702 0.49378 8
6 1 -1 83.4544 3.3613 5
-6 -1 1 90.404 3.2835 3
-6 -1 1 88.8236 3.11019 8
5 1 -1 6.33314 0.88508 5
-5 -1 1 5.82035 0.73868 8
-5 -1 1 5.17136 0.72132 3
-5 -1 1 6.02739 0.4441 7
4 1 -1 594.03 15.1434 5
4 1 -1 597.066 14.642 1
-4 -1 1 613.957 15.034 3
-4 -1 1 604.089 15.0909 2
-4 -1 1 619.77 14.5016 7
3 1 -1 11.1707 0.61268 1
3 1 -1 10.613 0.76007 5
-3 -1 1 10.0715 0.49665 7
-3 -1 1 9.36098 0.70286 2
-3 -1 1 10.028 0.71723 3
2 1 -1 397.684 9.75724 5
2 1 -1 401.572 9.6556 1
-2 -1 1 395.591 9.50796 7
-2 -1 1 390.528 9.77392 2
-2 -1 1 398.458 9.71082 3
1 1 -1 84.8181 2.37804 1
1 1 -1 82.4667 2.3039 5
-1 -1 1 88.0947 2.3473 3
-1 -1 1 94.2111 2.46376 1
-1 -1 1 92.247 2.32197 5
0 1 -1 1479.74 32.2246 2
0 1 -1 1174.17 31.8805 1
0 -1 1 1370.48 31.5194 1
-1 1 -1 117.649 2.83602 5
-1 1 -1 113.419 2.87264 3
-1 1 -1 115.215 2.93136 4
-1 1 -1 111.008 2.80521 1
-1 1 -1 111.594 2.90399 7
1 -1 1 113.818 2.91254 7
1 -1 1 96.6193 2.79463 5
1 -1 1 108.692 2.88503 2
1 -1 1 117.019 2.80927 1
-2 1 -1 111.237 3.01354 7
-2 1 -1 109.537 3.09692 4
-2 1 -1 109.842 3.05286 3
2 -1 1 118.359 2.76788 1
2 -1 1 113.461 3.07762 5
-3 1 -1 3.32018 0.4697 3
-3 1 -1 2.91001 0.37658 7
3 -1 1 2.35693 0.43245 5
-4 1 -1 251.519 6.51693 7
-4 1 -1 259.36 6.80862 3
-4 1 -1 257.682 6.79703 8
4 -1 1 250.517 6.86289 5
-5 1 -1 3.93917 0.63889 3
-5 1 -1 4.36239 0.53352 7
-5 1 -1 4.87236 0.70616 8
5 -1 1 4.36682 0.68634 5
-6 1 -1 13.962 1.27907 8
-6 1 -1 12.0873 1.22748 3
-6 1 -1 12.1396 0.80744 7
6 -1 1 11.2967 1.22178 5
-7 1 -1 0.90617 0.52772 3
-7 1 -1 -0.3281 0.42813 8
7 -1 1 1.35527 0.61643 5
-8 1 -1 26.6904 1.86584 3
-8 1 -1 23.6935 1.76186 8
8 -1 1 23.9104 1.94075 5
8 0 -1 0.46655 0.65722 5
-8 0 1 -0.1386 0.51502 3
-8 0 1 0.40075 0.55574 8
7 0 -1 36.4515 2.23308 5
-7 0 1 38.6927 2.15613 3
-7 0 1 38.2871 2.05198 8
6 0 -1 128.931 4.42648 5
-6 0 1 124.596 4.22013 3
-6 0 1 130.074 4.18901 8
5 0 -1 12.3 1.03123 5
-5 0 1 10.0294 0.98423 8
-5 0 1 11.8839 0.54859 7
-5 0 1 11.5707 1.10822 3
4 0 -1 3.28041 0.58609 5
4 0 -1 3.91556 0.30738 7
4 0 -1 3.51303 0.36211 1
-4 0 1 3.85648 0.59544 8
-4 0 1 2.25674 0.45952 3
-4 0 1 3.34907 0.30061 7
3 0 -1 602.208 13.9137 7
3 0 -1 557.917 14.459 5
3 0 -1 601.379 14.053 1
-3 0 1 584.859 13.9012 7
-3 0 1 593.352 14.4111 3
2 0 -1 6083.57 139.506 7
2 0 -1 6453.28 140.57 1
2 0 -1 5853.14 141.951 5
-2 0 1 5659.58 141.59 2
-2 0 1 5907.23 141.487 3
-2 0 1 5781.69 140.351 1
1 0 -1 433.065 10.2752 2
1 0 -1 420.397 10.2762 5
-1 0 1 435.352 10.2916 5
-1 0 1 426.831 10.2709 2
-1 0 1 433.59 10.2063 1
-1 0 1 421.126 10.2646 3
1 0 1 3.1506 0.173 1
-2 0 -1 4336.37 103.108 7
-2 0 -1 4390.72 103.158 3
2 0 1 4343.37 102.696 7
2 0 1 4311.75 103.77 5
-3 0 -1 448.202 10.9412 3
-3 0 -1 443.646 10.7924 7
3 0 1 438.919 11.0311 5
-4 0 -1 467.017 11.7676 7
-4 0 -1 483.887 12.0537 3
4 0 1 495.946 12.2127 5
-5 0 -1 24.058 1.3189 3
-5 0 -1 21.275 1.2221 8
-5 0 -1 22.6167 1.03729 7
5 0 1 22.714 1.36907 5
-6 0 -1 64.8501 2.48306 8
-6 0 -1 61.5419 2.0989 7
-6 0 -1 59.4373 2.45903 3
6 0 1 58.2877 2.57832 5
-7 0 -1 130.414 4.41566 3
-7 0 -1 124.472 4.2016 8
7 0 1 121.349 4.50984 5
-8 0 -1 57.9437 2.72324 8
-8 0 -1 60.1372 2.84554 3
8 0 1 56.0384 2.94666 5
8 -1 -1 16.5622 1.80435 5
-8 1 1 14.8671 1.62718 3
-8 1 1 16.7425 1.70754 8
7 -1 -1 25.5477 1.89038 5
-7 1 1 27.3477 1.77214 8
-7 1 1 30.8463 1.93934 3
6 -1 -1 0.79592 0.49314 5
-6 1 1 0.79214 0.46355 3
-6 1 1 0.96135 0.54764 8
5 -1 -1 4.92031 0.34196 1
5 -1 -1 5.76916 0.82835 5
-5 1 1 3.96806 0.65145 3
-5 1 1 4.03995 0.66304 8
4 -1 -1 5.09242 0.34578 7
4 -1 -1 5.03148 0.35738 1
4 -1 -1 4.80085 0.6551 5
-4 1 1 6.22364 0.74677 8
-4 1 1 5.23133 0.68967 3
3 -1 -1 150.511 3.8302 1
3 -1 -1 156.681 3.79266 7
-3 1 1 153.68 3.84095 1
-3 1 1 149.125 4.22716 3
2 -1 -1 194.457 5.16228 5
2 -1 -1 198.544 4.85474 1
2 -1 -1 195.865 4.77084 7
-2 1 1 196.205 5.09815 3
-2 1 1 203.469 4.86432 1
1 -1 -1 161.201 3.93621 1
1 -1 -1 157.644 4.06524 5
-1 1 1 163.535 3.94261 1
-1 1 1 156.72 4.00693 3
-1 -1 -1 900.731 20.3209 5
-1 -1 -1 843.057 20.2973 7
1 1 1 845.953 20.2394 2
1 1 1 836.331 20.3007 5
1 1 1 873.628 20.3097 7
-2 -1 -1 6183.55 148.554 7
-2 -1 -1 6366.43 148.176 3
2 1 1 6297.32 149.259 5
-3 -1 -1 185.052 4.77324 3
-3 -1 -1 173.893 4.46071 1
-3 -1 -1 184.315 4.68829 7
-4 -1 -1 484.747 11.5682 1
-4 -1 -1 483.98 11.8617 7
-4 -1 -1 478.065 12.0674 3
4 1 1 490.664 12.2616 5
-5 -1 -1 75.2365 2.73842 3
-5 -1 -1 94.43 2.5452 1
-5 -1 -1 79.9366 2.65774 8
-5 -1 -1 79.5632 2.50536 7
5 1 1 75.7235 2.90705 5
-6 -1 -1 1069.55 26.2427 3
-6 -1 -1 1083.02 26.0755 8
-6 -1 -1 1070.02 25.7241 7
6 1 1 1060.41 26.4881 5
-7 -1 -1 4.52521 0.81842 3
-7 -1 -1 4.11352 0.74463 8
7 1 1 3.31368 0.87516 5
-8 -1 -1 8.58182 1.16235 8
-8 -1 -1 7.82292 1.25451 3
8 1 1 6.98913 1.19398 5
8 -2 -1 10.5365 1.5414 5
-8 2 1 8.29555 1.28556 8
-8 2 1 8.35999 1.36336 3
7 -2 -1 1.38568 0.64071 5
-7 2 1 0.80531 0.55613 3
-7 2 1 1.37879 0.63288 8
6 -2 -1 15.8135 1.54029 5
-6 2 1 16.0174 1.34096 8
-6 2 1 15.2943 1.4347 3
5 -2 -1 1.16473 0.20241 1
5 -2 -1 1.35337 0.5104 5
-5 2 1 0.8908 0.42249 3
-5 2 1 1.27223 0.48594 8
4 -2 -1 14.9368 1.04689 5
4 -2 -1 15.6651 0.6278 1
-4 2 1 14.988 0.98571 3
-4 2 1 19.5302 1.1604 8
3 -2 -1 0.90601 0.20738 1
3 -2 -1 0.92289 0.33327 5
-3 2 1 1.49324 0.41021 3
2 -2 -1 85.4646 2.55014 5
2 -2 -1 82.984 2.28193 1
-2 2 1 85.9473 2.48614 3
-2 2 1 87.2289 2.46091 4
-1 2 1 12.7262 0.5658 3
-1 2 1 11.947 0.57224 4
0 -2 -1 146.89 3.62814 2
0 -2 -1 153.017 3.7918 7
0 2 1 143.399 3.72024 4
-1 -2 -1 0.69168 0.22415 7
-1 -2 -1 0.84596 0.21014 5
-1 -2 -1 0.89817 0.16353 2
1 2 1 0.93284 0.18407 2
1 2 1 0.68418 0.18863 5
-2 -2 -1 52.2532 1.45612 3
-2 -2 -1 49.9745 1.58538 7
-2 -2 -1 47.9754 1.48511 2
2 2 1 46.354 1.58236 5
-3 -2 -1 139.449 3.86152 2
-3 -2 -1 141.424 3.8117 3
-3 -2 -1 138.644 3.84746 7
3 2 1 149.746 4.14453 6
-4 -2 -1 1527.96 35.4877 7
-4 -2 -1 1521.4 35.563 3
4 2 1 1430.91 35.7587 5
-5 -2 -1 1.32538 0.3598 7
-5 -2 -1 1.14077 0.41444 3
5 2 1 1.41851 0.47091 5
-6 -2 -1 27.2527 1.28042 7
-6 -2 -1 25.3894 1.32388 8
-6 -2 -1 25.0088 1.49071 3
6 2 1 24.4995 1.60489 5
-7 -2 -1 13.776 1.34282 3
-7 -2 -1 14.5702 1.12575 8
7 2 1 14.1004 1.52897 5
-8 -2 -1 388.462 10.9861 3
8 2 1 400.638 11.3722 5
7 -3 -1 22.4932 1.78178 5
-7 3 1 20.1476 1.56078 3
-7 3 1 21.4827 1.72371 8
6 -3 -1 0.81363 0.53715 5
-6 3 1 0.98897 0.5645 3
-6 3 1 0.44739 0.5087 8
5 -3 -1 210.879 5.21815 1
5 -3 -1 199.083 6.02539 5
-5 3 1 193.187 5.87401 3
-5 3 1 198.671 5.99387 8
4 -3 -1 71.1864 2.06563 1
4 -3 -1 73.9333 2.65193 5
-4 3 1 70.3315 2.55522 3
-4 3 1 74.827 2.70348 8
3 -3 -1 21.5562 0.85468 1
3 -3 -1 22.109 1.1546 5
-3 3 1 20.6711 1.06781 3
-3 3 1 19.8391 1.11137 8
-3 3 1 20.4193 1.06079 4
2 -3 -1 263.071 6.65231 5
2 -3 -1 263.897 6.43427 1
-2 3 1 244.391 6.55651 4
-2 3 1 254.253 6.53403 3
-1 3 1 5.05514 0.42318 3
-1 3 1 5.27996 0.4996 4
0 -3 -1 131.449 3.50656 7
0 -3 -1 127.515 3.32346 2
0 3 1 124.975 3.46739 4
0 3 1 133.85 3.21668 3
-1 -3 -1 173.477 4.59056 7
-1 -3 -1 170.588 4.33791 2
1 3 1 171.258 4.3867 5
1 3 1 175.905 4.77507 6
1 3 1 173.865 4.56167 4
-2 -3 -1 20.5013 0.85314 2
-2 -3 -1 20.4976 0.72567 3
-2 -3 -1 20.0397 0.96248 7
2 3 1 20.5991 1.10067 6
2 3 1 20.3473 0.8962 5
-3 -3 -1 6.91434 0.51217 3
-3 -3 -1 7.07261 0.59084 7
-3 -3 -1 5.79617 0.55914 2
3 3 1 5.97635 0.75716 6
3 3 1 6.03854 0.6514 5
-4 -3 -1 99.0899 3.03138 2
-4 -3 -1 98.0173 3.00003 7
-4 -3 -1 100.256 2.93649 3
4 3 1 92.3629 3.11726 5
-5 -3 -1 3.83118 0.56057 7
-5 -3 -1 4.14638 0.61189 3
5 3 1 5.04249 0.76083 5
-6 -3 -1 105.043 3.43784 3
-6 -3 -1 101.389 3.20503 7
6 3 1 92.2724 3.57471 5
-7 -3 -1 27.377 1.68306 3
7 3 1 29.2934 1.90654 5
-8 -3 -1 126.326 4.4798 3
8 3 1 120.153 4.75981 5
7 -4 -1 33.8321 2.17625 5
-7 4 1 35.4196 2.19168 3
-7 4 1 35.2978 2.2521 8
6 -4 -1 56.0011 2.67045 5
-6 4 1 55.2188 2.53713 3
-6 4 1 55.6326 2.70683 8
5 -4 -1 356.267 9.64723 5
-5 4 1 350.126 9.65619 8
-5 4 1 346.587 9.47648 3
4 -4 -1 8.72339 0.59227 1
4 -4 -1 9.32145 0.97594 5
-4 4 1 8.44858 0.87962 3
-4 4 1 10.2944 1.08061 8
-4 4 1 10.0225 1.00358 4
3 -4 -1 117.723 3.56263 5
3 -4 -1 117.267 3.23485 1
-3 4 1 116.82 3.46733 3
-3 4 1 112.013 3.61335 8
-3 4 1 110.284 3.47679 4
2 -4 -1 8.70192 0.65286 5
-2 4 1 8.27357 0.67567 4
-2 4 1 9.29671 0.64121 3
1 -4 -1 863.31 20.9032 2
-1 4 1 868.841 21.0392 4
-1 4 1 900.09 21.1362 6
-1 4 1 862.291 20.7467 3
0 -4 -1 89.846 2.53098 2
0 4 1 91.589 2.72682 4
0 4 1 88.6673 2.87317 6
-1 -4 -1 0.57823 0.29435 7
-1 -4 -1 0.33106 0.18939 2
1 4 1 0.81659 0.35289 6
1 4 1 0.62685 0.28491 4
1 4 1 0.45173 0.19383 5
-2 -4 -1 172.23 4.41514 2
-2 -4 -1 170.449 4.65942 7
-2 -4 -1 170.181 4.13837 3
2 4 1 157.744 4.87293 6
2 4 1 160.722 4.64711 4
2 4 1 166.522 4.42123 5
-3 -4 -1 12.4197 0.76032 2
-3 -4 -1 10.8679 0.81361 7
-3 -4 -1 12.215 0.628 3
3 4 1 12.2313 0.78978 5
3 4 1 10.6538 0.95834 6
-4 -4 -1 82.4662 2.75681 7
-4 -4 -1 82.572 2.71734 2
-4 -4 -1 87.9483 2.60582 3
4 4 1 81.3582 2.80932 5
-5 -4 -1 6.80667 0.84289 2
-5 -4 -1 6.74282 0.75363 3
-5 -4 -1 6.19319 0.74531 7
5 4 1 6.46602 0.87785 5
-6 -4 -1 57.9384 2.30561 3
-6 -4 -1 56.072 2.24334 7
6 4 1 58.0695 2.56969 5
-7 -4 -1 -0.0916 0.53906 3
7 4 1 0.93034 0.56553 5
7 -5 -1 20.4227 2.02039 5
-7 5 1 19.9978 1.97677 8
-7 5 1 24.4734 1.79393 3
6 -5 -1 97.8136 3.70988 5
-6 5 1 83.4424 3.62213 8
-6 5 1 92.9729 3.57633 3
5 -5 -1 149.469 4.76278 5
-5 5 1 142.457 4.62493 3
-5 5 1 138.605 4.79322 8
4 -5 -1 1.51765 0.44847 5
4 -5 -1 2.52402 0.44625 1
-4 5 1 2.7601 0.59766 4
-4 5 1 1.94216 0.53432 8
-4 5 1 4.05176 0.6774 3
3 -5 -1 359.378 9.25148 5
-3 5 1 350.817 9.2272 6
-3 5 1 352.569 9.27675 4
-3 5 1 359.103 9.40754 8
-3 5 1 348.306 9.11186 3
2 -5 -1 125.951 3.72178 2
2 -5 -1 127.076 3.69529 5
-2 5 1 128.464 3.84985 8
-2 5 1 121.484 3.79511 4
-2 5 1 130.98 3.74422 6
-2 5 1 129.859 3.60453 3
1 -5 -1 16.575 0.87154 2
-1 5 1 16.5869 0.98138 4
-1 5 1 16.067 0.73824 3
-1 5 1 16.4673 1.01896 6
0 -5 -1 63.9064 2.23194 7
0 -5 -1 62.6832 2.02638 2
0 5 1 64.5923 2.23865 4
0 5 1 64.8639 2.38917 6
-1 -5 -1 274.567 7.00396 2
-1 -5 -1 260.347 7.28962 7
1 5 1 293.57 7.6311 6
1 5 1 275.985 7.31673 4
-2 -5 -1 111.587 3.12351 2
-2 -5 -1 105.947 3.38467 7
-2 -5 -1 106.681 2.73479 3
2 5 1 111.098 3.43036 4
2 5 1 97.9617 3.59511 6
2 5 1 109.752 3.07542 5
-3 -5 -1 42.162 1.78454 7
-3 -5 -1 42.2295 1.3606 3
-3 -5 -1 41.8314 1.62459 2
3 5 1 40.2028 1.58194 5
3 5 1 39.9217 1.82351 4
-4 -5 -1 41.6302 1.54203 3
-4 -5 -1 41.9053 1.74836 2
-4 -5 -1 42.0223 1.84279 7
4 5 1 42.0743 1.76578 5
-5 -5 -1 46.8006 1.85495 3
-5 -5 -1 49.7557 2.09615 7
-5 -5 -1 49.7517 2.07996 2
5 5 1 49.3159 2.16009 5
-6 -5 -1 8.95387 1.09499 2
-6 -5 -1 10.469 1.03114 3
-6 -5 -1 7.92571 0.95234 7
6 5 1 12.0374 1.28372 5
-7 -5 -1 22.9154 1.50601 3
7 5 1 22.0531 1.66372 5
6 -6 -1 1.01742 0.61847 5
-6 6 1 0.0925 0.51732 3
-6 6 1 0.77553 0.63352 8
5 -6 -1 1.53602 0.55397 5
-5 6 1 3.10006 0.703 3
-5 6 1 1.31431 0.61163 4
-5 6 1 2.55108 0.74933 8
4 -6 -1 251.353 6.67633 1
4 -6 -1 250.642 7.08188 5
-4 6 1 247.776 6.95448 3
-4 6 1 240.068 7.23278 8
-4 6 1 258.363 7.18837 4
3 -6 -1 27.0531 1.42336 2
3 -6 -1 25.4956 1.36411 5
-3 6 1 28.5933 1.36076 3
-3 6 1 29.6313 1.34679 6
-3 6 1 25.0842 1.4556 4
-3 6 1 25.5651 1.4881 8
2 -6 -1 0.08368 0.23714 5
2 -6 -1 -0.0497 0.24336 2
-2 6 1 -0.1877 0.21551 3
-2 6 1 0.10694 0.32656 8
-2 6 1 -0.3012 0.25417 6
-2 6 1 -0.2196 0.25763 4
1 -6 -1 268.158 6.96472 2
-1 6 1 272.18 7.2043 4
-1 6 1 242.591 7.19454 6
-1 6 1 274.629 7.02677 8
0 -6 -1 42.4849 1.58494 2
0 -6 -1 36.1191 1.70688 7
0 6 1 42.1937 1.80276 4
0 6 1 40.8246 1.89826 6
-1 -6 -1 204.434 4.80893 3
-1 -6 -1 210.36 5.76943 7
-1 -6 -1 200.212 5.35216 2
1 6 1 193.696 5.65032 4
1 6 1 187.251 5.91981 6
-2 -6 -1 91.6257 2.37341 3
-2 -6 -1 95.0482 3.19859 7
-2 -6 -1 93.1409 2.87337 2
2 6 1 93.3887 3.49092 6
2 6 1 89.5624 2.74031 5
2 6 1 94.7402 3.20446 4
-3 -6 -1 14.3384 0.67922 3
-3 -6 -1 18.1477 1.00897 2
-3 -6 -1 15.3898 1.1314 7
3 6 1 14.8263 0.9051 5
3 6 1 15.2197 1.13441 4
-4 -6 -1 20.8677 0.9899 3
-4 -6 -1 22.7946 1.26813 2
-4 -6 -1 19.496 1.30391 7
4 6 1 18.9532 1.15475 5
4 6 1 20.7679 1.43423 4
-5 -6 -1 55.715 2.28052 2
-5 -6 -1 53.9841 2.31627 7
-5 -6 -1 53.8396 1.98651 3
5 6 1 53.2829 2.52623 4
5 6 1 50.9192 2.26951 5
-6 -6 -1 52.5636 2.43384 2
-6 -6 -1 53.2313 2.42494 7
6 6 1 60.5458 2.57618 5
7 6 1 12.5548 1.47942 5
6 -7 -1 13.6337 1.51558 5
-6 7 1 11.2624 1.37167 3
-6 7 1 13.4388 1.59161 8
5 -7 -1 220.487 6.62301 5
5 -7 -1 223.057 6.6941 2
-5 7 1 216.159 6.47401 3
-5 7 1 211.789 6.66581 4
-5 7 1 212.334 6.86474 8
4 -7 -1 8.79075 1.01378 5
4 -7 -1 10.1067 1.17673 2
4 -7 -1 11.6379 0.93711 1
-4 7 1 9.38299 1.00835 3
-4 7 1 9.23274 1.21516 8
-4 7 1 8.87711 1.07326 4
3 -7 -1 0.75541 0.36384 5
3 -7 -1 1.14384 0.48692 2
-3 7 1 1.26244 0.53423 4
-3 7 1 0.54197 0.40665 3
-3 7 1 1.09268 0.52446 8
2 -7 -1 183.626 5.385 2
2 -7 -1 185.086 5.20985 5
-2 7 1 185.599 5.09117 3
-2 7 1 194.912 5.54622 6
-2 7 1 184.92 5.59839 4
-2 7 1 189.298 5.51559 8
1 -7 -1 49.2399 1.92339 2
-1 7 1 44.4489 2.11733 6
-1 7 1 49.4613 1.94872 8
-1 7 1 49.1469 2.11502 4
0 -7 -1 0.15472 0.3604 7
0 -7 -1 0.13529 0.27466 2
0 7 1 0.32786 0.36041 4
0 7 1 0.26686 0.40372 6
-1 -7 -1 53.7097 2.00508 2
-1 -7 -1 55.8715 2.34534 7
1 7 1 55.0321 2.54379 6
1 7 1 56.5576 2.34734 4
-2 -7 -1 3.97543 0.70434 7
-2 -7 -1 6.17777 0.70766 2
2 7 1 6.55903 0.94911 4
2 7 1 2.91999 0.7522 6
-3 -7 -1 45.3904 2.11196 7
-3 -7 -1 44.4681 1.85041 2
3 7 1 43.9024 1.7185 5
3 7 1 43.7578 2.15356 4
-4 -7 -1 1.79798 0.57999 7
-4 -7 -1 1.17591 0.53106 2
4 7 1 1.4185 0.61219 4
4 7 1 1.66569 0.48418 5
-5 -7 -1 13.6894 1.30172 2
-5 -7 -1 16.0757 1.34806 7
5 7 1 11.9365 1.19948 5
5 7 1 11.044 1.33481 4
-6 -7 -1 0.71507 0.5804 7
-6 -7 -1 1.2034 0.60858 2
6 7 1 0.77016 0.61516 4
6 7 1 -0.4239 0.42538 5
5 -8 -1 7.76794 1.2193 2
5 -8 -1 4.91834 0.92459 5
-5 8 1 5.47651 1.09282 4
-5 8 1 3.9625 0.96873 8
-5 8 1 7.36973 1.09135 3
4 -8 -1 2.38223 0.69502 2
4 -8 -1 2.3783 0.59656 5
4 -8 -1 2.1624 0.5776 1
-4 8 1 1.48233 0.62737 8
-4 8 1 3.1217 0.80819 4
-4 8 1 2.57074 0.63065 3
3 -8 -1 311.009 8.50461 2
3 -8 -1 313.574 8.30712 5
-3 8 1 301.234 8.14771 3
-3 8 1 304.585 8.71864 4
-3 8 1 299.785 8.65003 8
2 -8 -1 14.1907 0.9419 5
2 -8 -1 13.4619 1.07954 2
-2 8 1 12.3169 1.15238 6
-2 8 1 12.6944 1.23878 8
-2 8 1 13.178 1.35928 4
1 -8 -1 3.99829 0.67067 2
1 -8 -1 4.42602 0.55247 5
-1 8 1 4.25093 0.67596 8
-1 8 1 2.39164 0.67311 4
-1 8 1 3.33389 0.75081 6
0 -8 -1 62.5244 2.38072 2
0 -8 -1 69.4387 2.81983 7
0 8 1 61.0028 2.6306 4
0 8 1 65.0137 2.30195 8
0 8 1 61.3338 2.82898 6
-1 -8 -1 158.989 5.22961 7
-1 -8 -1 163.908 4.81389 2
1 8 1 171.485 5.31037 4
-2 -8 -1 47.2445 2.30488 7
-2 -8 -1 43.7354 1.9191 2
2 8 1 47.9601 2.28973 4
-3 -8 -1 -0.0923 0.38515 7
-3 -8 -1 0.95945 0.49611 2
3 8 1 0.76066 0.51814 4
-4 -8 -1 27.4535 1.79564 7
-4 -8 -1 26.6749 1.54315 2
4 8 1 28.7273 1.91095 4
-5 -8 -1 11.3081 1.25892 2
-5 -8 -1 11.9013 1.40367 7
5 8 1 10.1869 1.36438 4
4 -9 -1 26.3551 1.6402 1
4 -9 -1 26.8755 1.76858 2
-4 9 1 25.68 1.84938 4
-4 9 1 27.1409 1.93064 8
3 -9 -1 0.52885 0.51306 2
-3 9 1 1.30913 0.63822 8
-3 9 1 0.71455 0.52592 4
2 -9 -1 1.16712 0.61624 7
2 -9 -1 2.73624 0.64948 2
-2 9 1 0.95856 0.54159 6
-2 9 1 2.07067 0.74266 4
-2 9 1 1.70867 0.60876 8
1 -9 -1 49.4149 2.1525 2
1 -9 -1 46.6002 2.4181 7
-1 9 1 49.2042 2.40615 4
-1 9 1 45.5859 2.11049 8
0 -9 -1 92.3918 3.70441 7
0 -9 -1 98.5229 3.36749 2
0 9 1 98.5424 3.73985 4
-1 -9 -1 111.82 3.70843 2
-1 -9 -1 111.391 4.17024 7
1 9 1 114.175 4.18784 4
-2 -9 -1 1.27098 0.63514 7
-2 -9 -1 1.30749 0.54848 2
2 9 1 1.424 0.7304 4
-3 -9 -1 109.643 3.76917 2
-3 -9 -1 112.81 4.24885 7
3 9 1 113.548 4.31691 4
-4 -9 -1 20.7171 1.42575 2
-4 -9 -1 17.8078 1.80079 7
4 9 1 19.1976 1.91609 4
-5 -9 -1 50.9698 2.72697 7
5 9 1 58.726 3.02878 4
3 -10 -1 31.0564 1.90215 2
3 -10 -1 31.9056 2.06938 7
-3 10 1 31.4063 2.12594 4
-3 10 1 35.0326 2.09831 8
2 -10 -1 18.5118 1.41361 2
2 -10 -1 19.9071 1.91946 7
-2 10 1 16.8219 1.40966 8
-2 10 1 16.1582 1.67338 4
1 -10 -1 19.6512 1.64573 7
1 -10 -1 19.5586 1.40781 2
-1 10 1 19.5866 1.65107 4
0 -10 -1 0.1175 0.36507 2
0 -10 -1 2.34544 0.77375 7
0 10 1 1.1473 0.69269 4
-1 -10 -1 11.2584 1.48932 7
-1 -10 -1 9.94018 1.10923 2
1 10 1 9.9297 1.31909 4
-2 -10 -1 16.7442 1.30406 2
-2 -10 -1 18.6909 1.8951 7
2 10 1 15.7064 1.77344 4
-3 -10 -1 15.9396 1.77724 7
-3 -10 -1 15.1287 1.42396 2
3 10 1 15.7426 1.85649 4
1 -11 -1 38.0198 2.40565 7
-1 11 1 35.5573 2.32029 4
0 -11 -1 12.2629 1.29182 2
0 -11 -1 11.3346 1.55212 7
0 11 1 8.41065 1.42792 4
-1 -11 -1 34.2465 2.33821 7
-1 -11 -1 34.6486 1.92597 2
1 11 1 37.3852 2.40894 4
1 10 -2 1.64798 0.78003 4
-1 -10 2 2.86498 0.86535 7
-1 -10 2 4.93397 0.97055 2
0 10 -2 28.1804 2.05214 4
0 -10 2 29.6416 1.93662 2
-1 10 -2 0.54994 0.69879 4
1 -10 2 0.41376 0.56023 2
-2 10 -2 41.5623 2.62241 4
-2 10 -2 50.2041 2.53192 8
3 9 -2 12.5339 1.67737 4
-3 -9 2 7.37661 1.18491 7
-3 -9 2 12.0206 1.42612 2
2 9 -2 3.97296 1.0227 4
-2 -9 2 3.79787 0.92752 7
-2 -9 2 2.21589 0.7036 2
1 9 -2 -0.0994 0.51921 4
-1 -9 2 0.13213 0.52184 7
-1 -9 2 -0.2747 0.479 2
0 9 -2 36.0591 2.25617 4
0 -9 2 45.2347 2.23546 2
-1 9 -2 43.1628 2.13495 8
-1 9 -2 40.3164 2.32719 4
1 -9 2 43.0372 2.23295 2
-2 9 -2 23.7514 1.67507 8
-2 9 -2 27.1363 1.89827 4
2 -9 2 25.2325 1.69713 2
-3 9 -2 -0.1318 0.47881 8
-3 9 -2 -0.0597 0.57449 4
3 -9 2 -0.0703 0.61766 2
-4 9 -2 28.5756 2.02931 8
-4 9 -2 28.1239 2.05363 4
4 -9 2 29.4985 1.95498 2
4 8 -2 65.0156 3.15089 4
-4 -8 2 67.6632 3.01686 7
-4 -8 2 67.715 3.0487 2
3 8 -2 37.9788 2.21563 4
-3 -8 2 34.5093 2.05622 7
-3 -8 2 33.1768 1.98919 2
2 8 -2 62.9887 2.93705 4
-2 -8 2 66.0911 2.73846 2
-2 -8 2 59.2959 2.79109 7
1 8 -2 26.247 1.83027 4
-1 -8 2 27.9383 1.65602 2
0 8 -2 150.029 4.64943 8
0 8 -2 148.022 5.06986 4
0 -8 2 156.393 4.87851 2
-1 8 -2 4.07652 0.82382 4
-1 8 -2 3.24079 0.7182 8
1 -8 2 2.83853 0.71309 2
-2 8 -2 22.3149 1.62375 4
-2 8 -2 21.4351 1.4946 8
2 -8 2 23.2516 1.55514 2
-3 8 -2 0.61998 0.51027 4
-3 8 -2 2.13179 0.69936 8
3 -8 2 0.87433 0.54926 2
-4 8 -2 49.5339 2.62954 4
-4 8 -2 50.0917 2.57391 8
4 -8 2 51.0172 2.49931 2
-5 8 -2 0.36358 0.54337 4
-5 8 -2 0.10953 0.62601 8
5 -8 2 0.6088 0.65912 2
5 7 -2 3.56957 0.85022 4
-5 -7 2 4.0335 0.95141 2
4 7 -2 10.2818 1.3705 4
-4 -7 2 11.0491 1.29196 7
-4 -7 2 11.8568 1.36146 2
3 7 -2 24.7764 1.68708 4
-3 -7 2 26.3936 1.67724 2
-3 -7 2 26.1702 1.6234 7
2 7 -2 72.1296 2.95679 4
-2 -7 2 70.3995 2.86455 7
-2 -7 2 69.1588 2.30077 3
-2 -7 2 67.4265 2.7434 2
1 7 -2 12.8658 0.95461 8
1 7 -2 15.499 1.26472 4
-1 -7 2 13.161 1.09177 2
0 7 -2 91.6646 3.07337 8
0 7 -2 86.2058 3.33109 4
0 -7 2 93.4175 3.22637 2
-1 7 -2 76.095 2.78476 8
-1 7 -2 73.5824 2.97961 4
1 -7 2 75.6488 2.8577 2
-2 7 -2 266.633 7.75598 4
-2 7 -2 267.106 7.57445 8
2 -7 2 271.273 7.58065 2
-3 7 -2 5.97875 0.93587 8
-3 7 -2 4.84818 0.88518 4
3 -7 2 4.99882 0.8397 2
-4 7 -2 57.3386 2.71044 8
-4 7 -2 58.157 2.74893 4
4 -7 2 62.3607 2.27852 5
4 -7 2 61.3314 2.71269 2
-5 7 -2 3.46746 0.85713 8
-5 7 -2 5.71898 1.11052 4
5 -7 2 3.58986 0.7099 5
5 -7 2 3.98255 0.87237 2
-6 7 -2 23.1477 1.8869 8
-6 7 -2 27.8082 2.0043 4
6 -7 2 25.5916 1.64097 5
6 -7 2 23.9398 1.86877 2
6 6 -2 4.66427 1.04005 4
-6 -6 2 4.15489 0.87539 3
-6 -6 2 3.3497 0.94259 2
5 6 -2 9.36156 1.24444 4
-5 -6 2 8.33176 0.97618 3
-5 -6 2 8.43501 1.2089 2
4 6 -2 23.7993 1.63058 4
-4 -6 2 24.0613 1.60715 2
-4 -6 2 22.7184 1.27519 3
-4 -6 2 21.3176 1.40375 7
3 6 -2 0.21219 0.46581 4
-3 -6 2 -0.2922 0.38037 2
-3 -6 2 -0.2156 0.27566 7
-3 -6 2 0.34486 0.27977 3
2 6 -2 1.98628 0.6271 4
-2 -6 2 2.46961 0.55923 7
-2 -6 2 2.75768 0.46302 3
-2 -6 2 2.61038 0.60304 2
1 6 -2 19.2703 1.08762 8
1 6 -2 20.3523 1.36378 4
-1 -6 2 20.8678 1.2347 2
0 6 -2 26.0874 1.47815 4
0 6 -2 24.9777 1.28803 8
0 -6 2 23.0878 1.3362 2
-1 6 -2 24.3198 1.44702 4
-1 6 -2 23.079 1.28066 8
1 -6 2 21.5043 1.28423 2
-2 6 -2 365.436 9.6039 8
-2 6 -2 357.043 9.70822 4
2 -6 2 354.533 8.83396 5
2 -6 2 363.512 9.55809 2
-3 6 -2 25.8556 1.56152 4
-3 6 -2 25.5101 1.51499 8
3 -6 2 25.7987 1.16505 5
3 -6 2 25.1548 1.52226 2
-4 6 -2 34.8372 1.92426 8
-4 6 -2 33.5736 1.90594 4
4 -6 2 36.4784 1.62348 5
4 -6 2 36.9301 1.89327 2
-5 6 -2 0.56016 0.47458 3
-5 6 -2 0.3896 0.49506 4
-5 6 -2 0.56868 0.49738 8
5 -6 2 0.14783 0.37816 5
5 -6 2 0.64081 0.5516 2
-6 6 -2 124.557 4.4046 3
-6 6 -2 119.801 4.63609 8
-6 6 -2 122.304 4.64381 4
6 -6 2 125.008 4.4935 2
6 -6 2 126.718 4.3262 5
-7 6 -2 4.54556 1.0804 3
-7 6 -2 4.76351 1.10875 8
7 -6 2 5.76845 1.10598 5
6 5 -2 -0.2143 0.37113 5
6 5 -2 -0.4029 0.49192 4
-6 -5 2 0.22728 0.68478 2
-6 -5 2 -0.2317 0.38261 3
5 5 -2 190.759 5.7021 5
5 5 -2 187.648 6.03207 4
-5 -5 2 198.572 6.01759 2
-5 -5 2 190.368 5.64816 3
4 5 -2 70.6118 2.88269 4
4 5 -2 71.7319 2.52116 5
-4 -5 2 70.4324 2.51272 3
-4 -5 2 71.3756 2.60407 7
-4 -5 2 67.2898 2.77257 2
3 5 -2 71.7314 2.31002 5
3 5 -2 70.0676 2.74703 4
-3 -5 2 74.1149 2.43161 3
-3 -5 2 70.1701 2.58649 7
-3 -5 2 73.419 2.71822 2
2 5 -2 39.7422 1.80003 4
2 5 -2 37.9336 1.26626 5
-2 -5 2 37.0674 1.45786 3
-2 -5 2 37.1245 1.70935 2
1 5 -2 70.1962 2.60857 4
-1 -5 2 74.4798 2.55807 2
0 5 -2 112.633 3.60466 4
0 -5 2 113.72 3.48931 2
-1 5 -2 5.67013 0.72419 4
-1 5 -2 7.11238 0.78685 8
1 -5 2 6.96018 0.76746 2
1 -5 2 6.48449 0.28511 5
-2 5 -2 5.21819 0.72292 4
-2 5 -2 6.20723 0.78309 8
2 -5 2 5.97946 0.77718 2
2 -5 2 5.54455 0.41974 5
-3 5 -2 13.2532 1.05029 8
-3 5 -2 13.1556 1.08055 4
3 -5 2 12.0879 0.9645 2
3 -5 2 14.3075 0.82493 5
-4 5 -2 4.28717 0.75042 4
-4 5 -2 4.40121 0.77965 8
-4 5 -2 4.39082 0.71775 3
4 -5 2 5.69121 0.69192 5
4 -5 2 5.39459 0.83939 2
-5 5 -2 36.6193 1.96407 4
-5 5 -2 30.6762 1.72589 3
-5 5 -2 35.5351 1.95878 8
5 -5 2 33.8093 1.84334 2
5 -5 2 33.3741 1.72666 5
-6 5 -2 35.7814 2.15801 8
-6 5 -2 32.9282 1.93083 3
6 -5 2 33.8906 1.89705 5
-7 5 -2 18.3811 1.81501 3
-7 5 -2 19.5288 1.94321 8
7 -5 2 16.7292 1.70714 5
7 4 -2 3.11167 0.78613 5
-7 -4 2 0.77435 0.69399 3
6 4 -2 61.8818 2.71937 5
-6 -4 2 62.2806 2.63956 3
-6 -4 2 61.7351 2.8333 2
5 4 -2 199.54 5.93107 5
5 4 -2 206.911 6.17089 4
-5 -4 2 204.454 6.11585 2
-5 -4 2 195.408 5.84974 3
4 4 -2 114.963 3.59494 5
4 4 -2 111.901 3.80421 4
-4 -4 2 115.75 3.492 7
-4 -4 2 114.74 3.80425 2
-4 -4 2 111.324 3.55013 3
3 4 -2 1.00746 0.43699 4
3 4 -2 0.87384 0.32707 5
-3 -4 2 1.0108 0.34785 7
-3 -4 2 1.14746 0.3625 3
-3 -4 2 1.10778 0.43358 2
2 4 -2 21.2298 0.86642 5
2 4 -2 19.0875 1.12542 4
-2 -4 2 20.5358 0.99093 3
-2 -4 2 20.5748 1.15743 2
1 4 -2 1165.64 27.1207 5
1 4 -2 1138.73 27.8447 4
-1 -4 2 1163.1 27.7852 2
0 4 -2 31.747 1.39644 4
0 -4 2 26.524 1.25545 2
-1 4 -2 0.21986 0.28596 4
1 -4 2 0.00037 0.08779 5
1 -4 2 0.59069 0.31247 2
-2 4 -2 10.0018 0.82881 4
-2 4 -2 10.986 0.81598 8
2 -4 2 11.506 0.59355 5
2 -4 2 10.749 0.83121 2
-3 4 -2 196.024 5.63669 8
3 -4 2 195.517 5.28674 5
3 -4 2 202.628 5.5755 2
-4 4 -2 62.6156 2.53509 4
-4 4 -2 65.825 2.44051 3
-4 4 -2 63.2254 2.53038 8
4 -4 2 66.5373 2.35382 5
4 -4 2 65.2427 2.49262 2
-5 4 -2 0.90671 0.45299 8
-5 4 -2 0.86139 0.4947 3
-5 4 -2 1.89392 0.59699 4
5 -4 2 0.66167 0.42737 5
-6 4 -2 1.29568 0.58482 3
-6 4 -2 1.21541 0.60478 8
6 -4 2 1.81984 0.61575 5
-7 4 -2 0.66259 0.53887 3
-7 4 -2 2.16307 0.73976 8
7 -4 2 -0.1545 0.5374 5
7 3 -2 10.7086 1.3954 5
-7 -3 2 10.9659 1.33653 3
6 3 -2 16.6784 1.38304 5
-6 -3 2 18.6863 1.37099 3
-6 -3 2 19.7873 1.52379 2
5 3 -2 0.48012 0.43325 5
-5 -3 2 0.58111 0.51962 2
-5 -3 2 1.05824 0.4772 3
4 3 -2 18.2915 1.15345 5
-4 -3 2 20.2599 0.99146 7
-4 -3 2 20.0876 1.16087 3
-4 -3 2 22.0924 1.33291 2
3 3 -2 100.869 3.34708 4
3 3 -2 109.692 3.35531 1
3 3 -2 109.23 3.22842 5
-3 -3 2 106.467 3.2344 3
-3 -3 2 107.705 3.4156 2
-3 -3 2 111.015 3.16294 7
2 3 -2 817.291 19.5389 1
2 3 -2 797.485 19.513 4
2 3 -2 823.502 19.1999 5
-2 -3 2 792.261 19.5029 2
-2 -3 2 776.599 19.2911 3
1 3 -2 203.91 5.64148 4
1 3 -2 207.96 5.70574 1
1 3 -2 219.856 5.22409 5
-1 -3 2 221.831 5.67356 2
0 3 -2 11.9861 0.75133 4
0 3 -2 9.74607 0.69825 1
0 -3 2 8.82456 0.65067 2
-1 3 -2 743.163 17.7559 5
-1 3 -2 755.091 18.2788 4
-1 3 -2 756.239 18.212 1
1 -3 2 732.231 18.1966 2
1 -3 2 780.718 17.7614 5
-2 3 -2 46.19 1.73121 4
2 -3 2 44.7387 1.44255 5
2 -3 2 44.2954 1.66381 2
-3 3 -2 89.937 2.91002 4
-3 3 -2 84.6089 2.77259 3
-3 3 -2 88.1918 2.90792 8
3 -3 2 89.8531 2.70588 5
3 -3 2 90.2076 2.85749 2
-4 3 -2 146.537 4.4162 8
-4 3 -2 144.094 4.30822 3
-4 3 -2 143.273 4.41926 4
4 -3 2 143.959 4.26557 5
-5 3 -2 0.45681 0.46474 8
-5 3 -2 1.1338 0.49834 3
5 -3 2 0.621 0.40812 5
-6 3 -2 17.0521 1.32704 3
-6 3 -2 14.078 1.39984 8
6 -3 2 16.0434 1.32169 5
-7 3 -2 65.0039 2.89943 8
-7 3 -2 59.3943 2.7716 3
7 -3 2 56.2037 2.7351 5
-8 3 -2 0.05543 0.4943 3
-8 3 -2 -0.7739 0.53753 8
8 -3 2 0.50311 0.67149 5
7 2 -2 0.52325 0.57086 5
-7 -2 2 0.22644 0.51546 3
-7 -2 2 0.38862 0.49043 8
6 2 -2 12.0309 1.30727 5
-6 -2 2 12.3339 1.17443 8
-6 -2 2 10.6085 1.22769 3
5 2 -2 1.88211 0.56469 5
-5 -2 2 1.20462 0.43447 8
-5 -2 2 1.0023 0.51115 2
-5 -2 2 1.21307 0.44016 3
4 2 -2 25.2997 1.34951 5
4 2 -2 27.4957 1.25186 1
-4 -2 2 25.9375 1.28064 8
-4 -2 2 25.5219 1.01048 7
-4 -2 2 23.4563 1.33686 2
-4 -2 2 28.0218 1.36344 3
3 2 -2 12.478 0.8263 5
3 2 -2 15.1052 0.86355 1
-3 -2 2 12.3688 0.66228 7
-3 -2 2 14.4492 0.94358 2
-3 -2 2 11.6522 0.77138 3
2 2 -2 3.69017 0.49129 1
2 2 -2 2.74865 0.42753 4
2 2 -2 3.17397 0.40448 5
-2 -2 2 2.67431 0.38294 3
-2 -2 2 2.78627 0.46797 2
1 2 -2 2.83043 0.44864 1
1 2 -2 3.0939 0.29695 5
1 2 -2 3.39849 0.4247 4
-1 -2 2 3.22778 0.46921 2
0 2 -2 2388.59 57.1904 4
0 2 -2 2439.5 57.505 1
0 2 -2 2440.36 56.3872 5
0 -2 2 2350.37 56.5254 2
-1 2 -2 48.2263 1.55721 1
-1 2 -2 49.8803 1.33788 5
-1 2 -2 46.498 1.59362 4
1 -2 2 45.3529 1.55308 2
1 -2 2 48.3107 1.32094 5
-2 2 -2 56.1126 1.89633 4
-2 2 -2 58.5927 1.71621 1
2 -2 2 54.7621 1.83833 2
2 -2 2 57.8329 1.74221 5
-3 2 -2 0.97114 0.33512 4
-3 2 -2 0.35055 0.27738 3
3 -2 2 1.11306 0.31222 5
3 -2 2 2.03744 0.27687 1
-4 2 -2 55.8194 1.99052 7
-4 2 -2 52.6623 2.04115 3
-4 2 -2 59.0813 2.1539 8
4 -2 2 52.9124 2.05567 5
4 -2 2 56.3678 1.48812 1
-5 2 -2 139.811 4.4391 8
-5 2 -2 143.523 4.43034 3
5 -2 2 148.61 4.49214 5
-6 2 -2 34.3269 1.77924 3
-6 2 -2 30.098 1.75092 8
6 -2 2 30.8312 1.75749 5
-7 2 -2 20.6851 1.50385 3
-7 2 -2 22.4523 1.58695 8
7 -2 2 22.5059 1.67622 5
-8 2 -2 81.0993 3.47685 8
-8 2 -2 84.4112 3.54196 3
8 -2 2 78.0393 3.61321 5
7 1 -2 25.3949 1.78737 5
-7 -1 2 20.4581 1.58041 3
-7 -1 2 22.6585 1.57671 8
6 1 -2 33.5463 1.92878 5
-6 -1 2 32.7192 1.72562 8
-6 -1 2 38.3706 1.97951 3
5 1 -2 1.12339 0.45515 5
5 1 -2 0.33615 0.29045 1
-5 -1 2 0.34917 0.38419 8
-5 -1 2 0.67229 0.4193 3
4 1 -2 29.9273 1.52564 5
4 1 -2 31.7962 1.32705 1
-4 -1 2 35.3655 1.04408 7
-4 -1 2 32.0151 1.59118 2
-4 -1 2 35.5425 1.5718 3
-4 -1 2 36.6016 1.52181 8
3 1 -2 23.6905 1.15821 5
3 1 -2 22.5862 1.03773 1
-3 -1 2 22.4751 1.09669 3
-3 -1 2 22.3942 1.15084 2
-3 -1 2 23.1909 0.77827 7
2 1 -2 170.245 4.46235 5
2 1 -2 170.473 4.42854 1
-2 -1 2 165.945 4.172 7
-2 -1 2 164.397 4.51167 2
-2 -1 2 165.052 4.45186 3
1 1 -2 29.3779 1.02838 4
1 1 -2 30.876 1.10775 1
1 1 -2 28.9809 0.99034 5
0 1 -2 1243.65 28.475 4
0 1 -2 1209.75 28.5583 1
0 -1 2 1170.34 28.5069 2
-1 1 -2 173.384 4.51926 7
-1 1 -2 181.229 4.36372 5
-1 1 -2 174.925 4.44161 1
-1 1 -2 174.346 4.48217 4
1 -1 2 176.235 4.34853 5
1 -1 2 182.503 4.51784 1
1 -1 2 171.843 4.46149 2
-2 1 -2 382.601 9.54641 3
-2 1 -2 380.374 9.58216 7
-2 1 -2 388.426 9.60849 4
-2 1 -2 387.848 9.34045 1
2 -1 2 396.164 9.53312 5
2 -1 2 399.975 9.35234 1
-3 1 -2 70.6957 2.24848 7
-3 1 -2 72.0967 1.86305 1
-3 1 -2 69.9016 2.28153 3
3 -1 2 74.716 1.86956 1
3 -1 2 74.7586 2.32183 5
-4 1 -2 29.2084 1.34881 3
-4 1 -2 28.4282 1.25263 7
-4 1 -2 30.0875 1.38041 8
4 -1 2 29.5793 1.39923 5
-5 1 -2 4.74634 0.70512 8
-5 1 -2 4.29898 0.56804 7
-5 1 -2 5.19133 0.73273 3
5 -1 2 3.96413 0.69402 5
-6 1 -2 0.58792 0.32588 7
-6 1 -2 0.03323 0.42804 8
-6 1 -2 0.15423 0.385 3
6 -1 2 0.39597 0.39575 5
-7 1 -2 31.4966 1.84117 3
-7 1 -2 32.3207 1.85154 8
7 -1 2 27.8761 1.84403 5
-8 1 -2 0.66572 0.57916 3
-8 1 -2 0.51274 0.57193 8
8 -1 2 1.80349 0.84257 5
7 0 -2 -0.3235 0.45648 5
-7 0 2 1.38146 0.59735 8
-7 0 2 0.52833 0.533 3
6 0 -2 0.23654 0.48736 5
-6 0 2 -0.3872 0.36594 8
-6 0 2 -0.0056 0.43254 3
5 0 -2 14.1493 1.16626 5
5 0 -2 13.5971 0.78012 1
-5 0 2 14.0143 1.05919 8
-5 0 2 15.4271 1.14275 3
4 0 -2 15.3279 0.78239 1
4 0 -2 15.5402 1.06094 5
-4 0 2 16.7129 1.06158 3
-4 0 2 15.2827 0.99827 8
3 0 -2 130.398 3.56805 1
3 0 -2 135.581 3.90283 5
-3 0 2 131.988 3.84511 2
-3 0 2 132.264 3.81686 3
2 0 -2 95.9501 2.65213 1
2 0 -2 96.621 2.81107 5
-2 0 2 94.2471 2.76638 3
-2 0 2 97.0581 2.78981 2
-1 0 2 33.4717 1.16858 2
-1 0 2 32.6704 1.15651 3
-1 0 2 36.0141 0.94976 7
0 0 -2 24.4662 0.80826 2
0 0 -2 22.6642 0.77849 7
0 0 2 26.9447 0.88165 1
0 0 2 24.8182 0.80566 2
0 0 2 23.8495 0.79555 7
-1 0 -2 1590.97 35.8525 2
-1 0 -2 1535.52 36.0535 5
-1 0 -2 1476.99 36.2347 1
-1 0 -2 1527.01 36.0311 4
-1 0 -2 1492.64 36.4106 7
1 0 2 1537.58 36.0759 2
1 0 2 1526.72 36.0495 5
1 0 2 1535.86 36.1666 1
-2 0 -2 104.772 2.89401 3
-2 0 -2 104.454 2.92256 7
-2 0 -2 107.25 2.69423 1
2 0 2 104.576 2.93889 5
2 0 2 112.165 2.69721 1
-3 0 -2 68.4292 1.73117 1
-3 0 -2 67.5203 2.12415 7
-3 0 -2 68.5296 2.15138 3
3 0 2 71.1602 2.24302 5
-4 0 -2 170.616 4.69302 7
-4 0 -2 177.298 4.83188 3
4 0 2 174.064 4.93878 5
-5 0 -2 32.6017 1.40387 7
-5 0 -2 33.3431 1.57405 3
-5 0 -2 33.6136 1.52962 8
5 0 2 32.643 1.6509 5
-6 0 -2 -0.2182 0.24733 7
-6 0 -2 -0.1478 0.32129 3
-6 0 -2 -0.0918 0.3314 8
6 0 2 -0.0477 0.35696 5
-7 0 -2 30.7764 1.79105 3
-7 0 -2 31.2739 1.77418 8
7 0 2 30.092 1.95126 5
-8 0 -2 0.82007 0.55805 8
-8 0 -2 0.69921 0.60985 3
8 0 2 1.31843 0.75047 5
7 -1 -2 13.5147 1.57821 5
-7 1 2 12.6275 1.43155 8
-7 1 2 15.4304 1.59892 3
6 -1 -2 47.3936 2.43795 5
-6 1 2 51.9156 2.34705 8
-6 1 2 47.3731 2.27885 3
5 -1 -2 4.46878 0.8068 5
5 -1 -2 4.58164 0.47669 1
-5 1 2 5.27711 0.79884 8
-5 1 2 4.83188 0.76154 3
4 -1 -2 3.07656 0.59462 5
4 -1 -2 2.60173 0.35921 1
-4 1 2 2.69476 0.54416 3
-4 1 2 2.98669 0.61067 8
3 -1 -2 3.48908 0.38471 1
3 -1 -2 3.41387 0.52949 5
-3 1 2 3.16707 0.48544 3
2 -1 -2 361.546 9.31304 5
2 -1 -2 370.231 9.06712 1
-2 1 2 385.022 9.25848 3
1 -1 -2 33.5967 1.08389 1
1 -1 -2 30.7594 0.87962 7
-1 1 2 33.2542 1.11107 3
-1 1 2 32.9443 0.89747 7
-1 1 2 30.9399 1.07035 2
0 -1 -2 1121.45 26.2694 2
0 1 2 1095.32 26.3639 7
0 1 2 1130.39 26.1244 1
0 1 2 1081.54 26.3613 2
-1 -1 -2 778.702 18.549 7
-1 -1 -2 829.872 18.6734 5
-1 -1 -2 728.277 18.4643 1
1 1 2 818.971 18.4948 1
1 1 2 757.271 18.4234 2
1 1 2 764.635 18.5352 5
1 1 2 790.811 18.666 7
-2 -1 -2 6.26507 0.37765 1
-2 -1 -2 5.70433 0.42815 3
-2 -1 -2 5.90809 0.48453 7
2 1 2 6.05397 0.4835 5
-3 -1 -2 115.716 3.24809 3
-3 -1 -2 118.358 3.28459 7
-3 -1 -2 114.979 2.98385 1
3 1 2 120.922 3.42379 5
-4 -1 -2 209.4 5.58169 7
-4 -1 -2 220.51 5.16755 1
-4 -1 -2 210.949 5.66353 3
-4 -1 -2 215.887 5.16286 1
4 1 2 206.179 5.63278 6
4 1 2 201.853 5.80241 5
-5 -1 -2 17.2914 0.98215 7
-5 -1 -2 18.2632 0.59049 1
-5 -1 -2 18.5427 0.59358 1
-5 -1 -2 19.8872 1.14655 3
5 1 2 18.9367 1.22171 5
-6 -1 -2 7.63928 0.92799 3
-6 -1 -2 8.67841 0.92554 8
-6 -1 -2 8.7024 0.83567 7
6 1 2 10.0097 1.17934 5
-7 -1 -2 3.6108 0.73958 3
-7 -1 -2 4.48133 0.79102 8
7 1 2 3.54769 0.8178 5
-8 -1 -2 37.4195 1.96985 8
-8 -1 -2 37.0945 2.12477 3
8 1 2 32.906 2.21302 5
7 -2 -2 23.7452 1.87321 5
-7 2 2 21.9297 1.7237 8
-7 2 2 24.4309 1.81722 3
6 -2 -2 32.6151 1.91938 5
-6 2 2 30.5648 1.81051 8
5 -2 -2 63.2935 1.89664 1
5 -2 -2 63.3107 2.63819 5
-5 2 2 62.2308 2.56518 8
-5 2 2 65.7351 2.33782 6
-5 2 2 58.7597 2.47455 3
4 -2 -2 140.949 3.82602 1
4 -2 -2 145.615 3.62276 7
4 -2 -2 145.498 4.48616 5
-4 2 2 146.125 4.19543 6
-4 2 2 143.699 4.35138 3
-4 2 2 151.674 4.46155 8
3 -2 -2 128.382 3.93319 5
3 -2 -2 132.717 3.52774 1
3 -2 -2 135.172 3.33652 7
-3 2 2 142.156 3.84782 6
-3 2 2 130.863 3.91757 8
-3 2 2 126.13 3.81579 3
2 -2 -2 278.381 7.2463 5
2 -2 -2 284.785 6.98109 1
2 -2 -2 287.113 6.82284 7
-2 2 2 274.427 7.12985 3
1 -2 -2 40.9834 1.29013 1
1 -2 -2 40.7224 1.21052 7
-1 2 2 38.2927 1.1785 4
-1 2 2 38.2878 1.25647 3
0 -2 -2 74.8146 2.10748 7
0 -2 -2 74.1698 2.1418 1
0 2 2 78.4045 1.97446 3
-1 -2 -2 37.3835 1.26467 7
-1 -2 -2 38.4845 0.94687 2
1 2 2 36.2452 0.94765 2
1 2 2 36.765 1.23039 5
-3 -2 -2 15.5209 0.82524 7
-3 -2 -2 13.5864 0.72031 3
3 2 2 15.0067 0.89976 6
-4 -2 -2 6.11698 0.64646 3
-4 -2 -2 6.13783 0.63899 7
4 2 2 5.62293 0.73095 5
4 2 2 6.63488 0.76007 6
-5 -2 -2 2.82564 0.56821 3
-5 -2 -2 4.74382 0.62102 7
5 2 2 4.60548 0.73199 5
-6 -2 -2 98.7983 3.14891 7
-6 -2 -2 97.4847 3.10692 8
-6 -2 -2 100.788 3.35116 3
6 2 2 90.76 3.48844 5
-7 -2 -2 1.15474 0.54267 3
-7 -2 -2 0.62563 0.44331 8
7 2 2 1.02063 0.615 5
-8 -2 -2 11.1828 1.2905 3
8 2 2 11.5038 1.45473 5
7 -3 -2 1.42503 0.71554 5
-7 3 2 1.65966 0.77546 8
-7 3 2 1.26081 0.71867 3
6 -3 -2 66.3995 2.92764 5
-6 3 2 63.6597 2.76947 3
-6 3 2 62.8524 2.83248 8
5 -3 -2 266.65 6.5494 1
5 -3 -2 259.214 7.50757 5
-5 3 2 260.407 7.46622 8
-5 3 2 252.196 7.30844 3
4 -3 -2 140.509 3.80429 1
4 -3 -2 140.726 4.43972 5
-4 3 2 140.704 4.31677 3
-4 3 2 146.887 4.08497 6
-4 3 2 141.575 4.40974 8
3 -3 -2 15.9024 1.03312 5
3 -3 -2 16.3756 0.7657 1
-3 3 2 15.5767 1.00384 8
-3 3 2 15.9362 0.9414 3
-3 3 2 14.6996 0.99479 6
2 -3 -2 12.1985 0.63996 1
2 -3 -2 10.821 0.7689 5
-2 3 2 11.7431 0.6943 3
-2 3 2 9.46689 0.62871 4
1 -3 -2 816.9 19.6974 1
1 -3 -2 818.473 19.6641 7
-1 3 2 815.784 19.5845 3
-1 3 2 842.24 19.6368 4
0 -3 -2 1067.56 25.0339 7
0 -3 -2 1038.98 24.7473 2
0 3 2 1061.22 24.698 3
0 3 2 1038.26 24.9101 4
-1 -3 -2 9.26245 0.61239 7
-1 -3 -2 8.6487 0.37876 2
1 3 2 9.51543 0.57265 5
1 3 2 9.53952 0.40803 2
1 3 2 9.47231 0.58459 4
1 3 2 9.60724 0.7187 6
-2 -3 -2 156.997 4.01108 3
-2 -3 -2 165.314 4.10241 2
-2 -3 -2 166.727 4.42918 7
2 3 2 166.061 4.63779 6
2 3 2 157.085 4.33221 5
-3 -3 -2 62.6937 1.91352 3
-3 -3 -2 65.4162 1.96946 2
-3 -3 -2 65.2067 2.16654 7
3 3 2 62.2229 2.33252 6
3 3 2 66.8306 2.20061 5
-4 -3 -2 70.9987 2.37969 7
-4 -3 -2 67.9845 2.21791 3
4 3 2 70.0424 2.61187 6
4 3 2 71.9285 2.51171 5
-5 -3 -2 37.4298 1.62267 7
-5 -3 -2 35.4044 1.5348 3
5 3 2 35.451 1.76836 5
-6 -3 -2 6.82085 0.88691 3
-6 -3 -2 7.49006 0.84275 7
6 3 2 6.8391 1.01585 5
-7 -3 -2 13.1646 1.24421 3
7 3 2 12.3137 1.3955 5
-8 -3 -2 35.9763 2.06781 3
8 3 2 40.4018 2.45094 5
7 -4 -2 13.1506 1.59489 5
-7 4 2 10.4471 1.33019 3
-7 4 2 7.99184 1.2511 8
6 -4 -2 25.696 1.77185 5
-6 4 2 22.6123 1.70235 8
-6 4 2 21.5464 1.60927 3
5 -4 -2 0.9026 0.50727 5
-5 4 2 0.40952 0.46337 8
-5 4 2 0.62894 0.44104 3
4 -4 -2 2.08757 0.55312 5
4 -4 -2 2.88359 0.42282 1
-4 4 2 2.09062 0.56413 8
-4 4 2 2.91229 0.54138 6
-4 4 2 1.89492 0.50485 3
3 -4 -2 7.37862 0.82119 5
3 -4 -2 7.33337 0.56163 1
-3 4 2 6.66966 0.77461 8
-3 4 2 7.1253 0.73708 3
-3 4 2 7.003 0.71473 4
-3 4 2 8.2906 0.65646 6
2 -4 -2 189.125 5.20283 5
2 -4 -2 184.076 5.01903 1
-2 4 2 194.296 5.10394 4
-2 4 2 183.725 5.21521 8
-2 4 2 193.856 5.17026 6
-2 4 2 189.852 5.03176 3
1 -4 -2 130.829 3.68063 7
-1 4 2 125.961 3.464 3
-1 4 2 131.474 3.65096 4
-1 4 2 138.997 3.8554 6
0 -4 -2 421.348 10.1553 2
0 -4 -2 407.958 10.4442 7
0 4 2 406.855 10.3588 4
0 4 2 440.954 9.98428 3
0 4 2 419.359 10.6477 6
-1 -4 -2 36.2338 1.48951 7
-1 -4 -2 38.1876 1.18982 2
1 4 2 41.2467 1.71034 6
1 4 2 37.2055 1.43291 4
1 4 2 38.8706 1.36692 5
-2 -4 -2 23.9021 0.70398 3
-2 -4 -2 20.8275 1.09584 7
-2 -4 -2 24.2348 0.89342 2
2 4 2 21.6343 1.01037 5
2 4 2 22.0864 1.09445 4
2 4 2 23.5692 1.298 6
-3 -4 -2 71.8887 2.46235 7
-3 -4 -2 72.9004 2.07224 3
-3 -4 -2 74.7981 2.22292 2
3 4 2 72.1275 2.4052 5
3 4 2 71.8438 2.7042 6
-4 -4 -2 145.592 4.32587 7
-4 -4 -2 150.214 4.01858 3
-4 -4 -2 152.618 4.15072 2
4 4 2 140.631 4.62252 6
4 4 2 143.339 4.35504 5
-5 -4 -2 0.32253 0.29924 3
-5 -4 -2 0.8156 0.37475 7
5 4 2 0.18454 0.3393 5
-6 -4 -2 24.4874 1.39604 7
-6 -4 -2 21.6358 1.33005 3
6 4 2 21.5276 1.47949 5
-7 -4 -2 10.6602 1.17382 3
7 4 2 10.5053 1.32306 5
-8 -4 -2 8.66673 1.13722 3
8 4 2 8.21629 1.36798 5
7 -5 -2 25.706 2.00726 5
-7 5 2 17.1743 1.81338 3
-7 5 2 27.9147 2.0723 8
6 -5 -2 6.75577 1.12426 5
-6 5 2 7.11121 1.1645 8
-6 5 2 7.1422 1.09116 3
5 -5 -2 3.29517 0.71226 5
-5 5 2 2.23726 0.68932 8
-5 5 2 1.90052 0.61015 3
4 -5 -2 9.4446 1.07016 5
4 -5 -2 7.02015 0.70477 1
-4 5 2 5.92179 0.7861 3
-4 5 2 7.87688 1.0003 8
-4 5 2 6.80543 0.8717 4
3 -5 -2 30.8163 1.30355 1
3 -5 -2 28.1249 1.44902 5
-3 5 2 26.0452 1.364 4
-3 5 2 28.1857 1.32268 6
-3 5 2 29.7961 1.53936 8
-3 5 2 30.7991 1.39753 3
2 -5 -2 24.7744 1.20868 5
2 -5 -2 23.6245 1.14982 1
-2 5 2 22.3615 1.07393 3
-2 5 2 21.7632 1.14434 4
-2 5 2 25.1078 1.28327 8
-2 5 2 24.1311 1.23681 6
1 -5 -2 52.065 1.72417 2
1 -5 -2 48.9816 1.85001 7
-1 5 2 48.3846 1.57078 3
-1 5 2 49.4453 1.82276 4
-1 5 2 52.1008 1.99318 6
0 -5 -2 184.207 4.76484 2
0 -5 -2 183.409 5.10206 7
0 5 2 192.745 4.48584 3
0 5 2 182.035 5.01509 4
0 5 2 171.636 5.23461 6
-1 -5 -2 37.1175 1.58757 7
-1 -5 -2 38.7984 1.29426 2
1 5 2 39.0471 1.56033 4
1 5 2 36.6408 1.78681 6
-2 -5 -2 152.359 3.98136 2
-2 -5 -2 141.58 4.3542 7
2 5 2 149.323 4.36567 4
2 5 2 152.751 4.14313 5
2 5 2 150.076 4.6964 6
-3 -5 -2 15.4232 1.02414 7
-3 -5 -2 15.6722 0.67409 3
-3 -5 -2 15.5953 0.85117 2
3 5 2 16.3586 1.22002 6
3 5 2 16.1184 1.05818 4
3 5 2 17.4414 0.97798 5
-4 -5 -2 9.55122 0.74603 2
-4 -5 -2 8.86818 0.92596 7
-4 -5 -2 7.38324 0.57252 3
4 5 2 8.99043 1.08396 6
4 5 2 8.91646 0.90457 5
-5 -5 -2 16.0209 0.95084 3
-5 -5 -2 17.7681 1.11562 2
-5 -5 -2 14.8551 1.13354 7
5 5 2 17.6811 1.20835 5
-6 -5 -2 -0.1206 0.36464 3
-6 -5 -2 0.47585 0.45659 7
6 5 2 0.83922 0.5605 5
-7 -5 -2 4.20952 0.80855 3
7 5 2 6.17631 1.09842 5
6 -6 -2 67.6387 3.10668 5
-6 6 2 71.1013 3.25867 8
-6 6 2 65.4472 2.98747 3
5 -6 -2 84.133 3.35035 5
-5 6 2 83.2648 3.44394 8
-5 6 2 86.0135 3.23526 3
4 -6 -2 21.8826 1.21768 1
4 -6 -2 26.0046 1.57603 5
-4 6 2 24.5913 1.56848 8
-4 6 2 25.3186 1.45259 3
-4 6 2 25.0236 1.47468 4
3 -6 -2 38.8685 1.66419 1
3 -6 -2 40.3507 1.81407 5
-3 6 2 41.7002 1.72786 3
-3 6 2 38.4906 1.81037 4
-3 6 2 41.2886 1.96854 8
-3 6 2 41.6544 1.74829 6
2 -6 -2 5.3901 0.65203 2
2 -6 -2 5.18861 0.65054 5
-2 6 2 4.39521 0.65461 6
-2 6 2 4.67974 0.54816 3
-2 6 2 5.10935 0.68551 4
-2 6 2 5.82874 0.7644 8
1 -6 -2 6.53251 0.74833 7
1 -6 -2 7.97375 0.64741 2
-1 6 2 7.08785 0.87265 6
-1 6 2 7.72247 0.51861 3
-1 6 2 7.46401 0.7947 4
-1 6 2 8.56738 0.81451 8
0 -6 -2 133.262 3.70586 2
0 -6 -2 132.307 4.06176 7
0 6 2 138.878 4.02521 4
0 6 2 123.476 4.21414 6
-1 -6 -2 58.2316 2.2775 7
-1 -6 -2 58.2523 1.89123 2
1 6 2 58.5564 2.48077 6
1 6 2 58.6564 2.21984 4
-2 -6 -2 59.8397 1.9155 2
-2 -6 -2 54.5856 2.24135 7
2 6 2 55.7587 2.50935 6
2 6 2 55.416 2.227 4
2 6 2 59.8966 2.00263 5
-3 -6 -2 91.3125 2.8355 2
-3 -6 -2 94.324 2.43663 3
-3 -6 -2 89.7903 3.19866 7
3 6 2 95.3736 3.62748 6
3 6 2 92.6761 3.24579 4
3 6 2 89.5845 2.92304 5
-4 -6 -2 0.40231 0.40641 7
-4 -6 -2 0.65078 0.27185 3
-4 -6 -2 0.68118 0.35269 2
4 6 2 0.13606 0.32435 5
4 6 2 1.64911 0.61532 4
4 6 2 0.86957 0.54806 6
-5 -6 -2 2.46788 0.64002 7
-5 -6 -2 2.17253 0.53475 2
-5 -6 -2 1.54669 0.6662 3
5 6 2 1.21338 0.52273 5
-6 -6 -2 13.6169 1.17561 7
6 6 2 11.6812 1.31166 5
7 6 2 1.32932 0.6994 5
6 -7 -2 0.09109 0.55501 5
-6 7 2 0.61317 0.62796 8
-6 7 2 0.96263 0.65306 3
5 -7 -2 10.1598 1.29363 5
-5 7 2 10.6071 1.22932 3
-5 7 2 11.9239 1.36396 4
-5 7 2 10.9837 1.41733 8
4 -7 -2 18.4022 1.18803 1
4 -7 -2 17.5088 1.3143 5
4 -7 -2 20.022 1.37949 2
-4 7 2 18.788 1.28458 3
-4 7 2 18.1383 1.45438 8
-4 7 2 17.6074 1.33059 4
3 -7 -2 251.19 6.98316 5
3 -7 -2 255.884 6.96814 2
3 -7 -2 249.214 6.89565 1
-3 7 2 245.545 6.75674 3
-3 7 2 246.733 7.19243 8
-3 7 2 244.214 7.0724 4
2 -7 -2 153.713 4.49127 2
2 -7 -2 150.83 4.47055 5
-2 7 2 152.678 4.24428 3
-2 7 2 138.77 4.65638 6
-2 7 2 154.459 4.65614 8
-2 7 2 156.149 4.70992 4
1 -7 -2 323.868 8.15569 2
1 -7 -2 307.572 8.45907 7
-1 7 2 315.387 8.44159 4
-1 7 2 308.251 8.63045 6
-1 7 2 300.47 8.19947 8
0 -7 -2 62.8911 2.16378 2
0 -7 -2 63.6788 2.50521 7
0 7 2 60.8323 2.63024 6
0 7 2 63.4662 2.45605 4
-1 -7 -2 0.70581 0.29707 2
-1 -7 -2 0.88114 0.42566 7
1 7 2 1.17646 0.42214 4
1 7 2 1.25983 0.56557 6
-2 -7 -2 158.336 4.86553 7
-2 -7 -2 154.596 4.29687 2
2 7 2 145.873 4.71289 4
2 7 2 150.782 5.13934 6
-3 -7 -2 61.6662 2.55886 7
-3 -7 -2 59.3444 2.13889 2
3 7 2 59.9222 2.55265 4
3 7 2 60.6895 2.20621 5
3 7 2 58.4973 2.86024 6
-4 -7 -2 23.6038 1.26589 2
-4 -7 -2 22.99 1.50483 7
4 7 2 21.8413 1.2665 5
4 7 2 20.5583 1.5415 4
-5 -7 -2 42.9735 2.2016 7
-5 -7 -2 46.1085 1.97942 2
5 7 2 43.17 2.03692 5
5 7 2 43.901 2.34419 4
-6 -7 -2 -0.1434 0.45492 7
-6 -7 -2 0.0107 0.45477 2
6 7 2 -0.0389 0.42598 5
6 7 2 0.2132 0.58923 4
5 -8 -2 233.867 7.22431 5
5 -8 -2 243.038 7.27327 2
5 -8 -2 237.375 6.93581 7
-5 8 2 239.069 7.55263 8
-5 8 2 231.715 7.2469 4
-5 8 2 239.061 7.04641 3
4 -8 -2 11.7879 1.1825 1
4 -8 -2 12.839 1.32363 5
4 -8 -2 12.5601 1.31544 2
-4 8 2 12.005 1.18449 3
-4 8 2 14.1724 1.5353 8
-4 8 2 11.0424 1.27531 4
3 -8 -2 167.62 5.09311 1
3 -8 -2 163.402 5.08789 2
3 -8 -2 173.074 5.21392 7
3 -8 -2 157.734 4.99916 5
-3 8 2 165.145 5.32445 8
-3 8 2 163.958 5.27643 4
-3 8 2 162.732 4.81371 3
2 -8 -2 5.62867 0.87262 7
2 -8 -2 6.38821 0.84948 2
2 -8 -2 6.08333 0.77517 5
-2 8 2 6.87944 0.99604 6
-2 8 2 4.82116 0.79947 8
-2 8 2 5.83892 0.72545 3
-2 8 2 6.14493 0.90976 4
1 -8 -2 71.986 2.60418 2
1 -8 -2 73.2051 2.91581 7
-1 8 2 75.2741 2.68904 8
-1 8 2 69.9367 2.83579 4
-1 8 2 72.1917 3.01786 6
0 -8 -2 323.445 8.29093 2
0 -8 -2 308.318 8.76112 7
0 8 2 310.958 8.69668 4
0 8 2 316.584 9.03233 6
0 8 2 311.456 8.20971 8
-1 -8 -2 281.725 7.43934 2
-1 -8 -2 275.259 8.03383 7
1 8 2 293.596 8.43952 6
1 8 2 273.943 7.94822 4
-2 -8 -2 0.25349 0.32857 2
-2 -8 -2 -0.4109 0.42616 7
2 8 2 -0.0919 0.51562 6
2 8 2 0.43524 0.41823 4
-3 -8 -2 115.022 3.58056 2
-3 -8 -2 112.657 4.07965 7
3 8 2 118.299 4.16564 4
3 8 2 110.488 4.49869 6
3 8 2 115.303 3.56016 5
-4 -8 -2 36.2658 1.69266 2
-4 -8 -2 32.0837 1.93345 7
4 8 2 35.55 2.06359 4
4 8 2 34.1938 1.67928 5
-5 -8 -2 52.7823 2.59855 7
-5 -8 -2 53.8667 2.27376 2
5 8 2 55.4194 2.80301 4
-6 -8 -2 1.94827 1.01384 2
-6 -8 -2 3.21838 0.87738 7
6 8 2 1.83609 0.7428 4
4 -9 -2 0.52114 0.48213 1
4 -9 -2 -0.1713 0.39436 7
4 -9 -2 -0.0807 0.42933 2
4 -9 -2 0.04775 0.43126 5
-4 9 2 0.25553 0.4944 4
-4 9 2 -0.5826 0.53145 8
3 -9 -2 6.21175 0.9308 2
3 -9 -2 9.12819 1.18392 7
3 -9 -2 7.96705 0.99629 5
-3 9 2 6.99567 1.09433 8
-3 9 2 6.7726 1.05336 4
2 -9 -2 0.06066 0.40974 7
2 -9 -2 0.23234 0.35398 5
2 -9 -2 0.70385 0.44074 2
-2 9 2 0.31263 0.49256 6
-2 9 2 0.61844 0.54658 4
-2 9 2 0.18596 0.45431 8
1 -9 -2 475.707 12.0343 5
1 -9 -2 477.405 12.25 2
1 -9 -2 458.844 12.7041 7
-1 9 2 492.638 12.9541 6
-1 9 2 468.657 12.2705 8
-1 9 2 465.585 12.6588 4
0 -9 -2 55.7335 2.5993 7
0 -9 -2 56.4103 2.23099 2
0 9 2 61.0879 2.92123 6
0 9 2 50.9539 2.51416 4
-1 -9 -2 0.60278 0.40846 2
-1 -9 -2 0.11712 0.43806 7
1 9 2 0.84914 0.61198 6
1 9 2 0.59107 0.508 4
-2 -9 -2 120.232 3.81971 2
-2 -9 -2 112.239 4.33978 7
2 9 2 134.989 4.96926 6
2 9 2 122.087 4.38772 4
-3 -9 -2 253.122 7.67389 7
-3 -9 -2 249.57 6.9757 2
3 9 2 254.454 7.70629 4
-4 -9 -2 36.5206 2.20553 7
-4 -9 -2 33.8947 1.76497 2
4 9 2 38.339 2.30633 4
-5 -9 -2 53.0037 2.69361 7
5 9 2 44.2767 2.62777 4
3 -10 -2 21.7128 1.68795 7
3 -10 -2 18.1824 1.48673 2
-3 10 2 19.7814 1.65053 4
-3 10 2 16.0802 1.61784 8
2 -10 -2 11.1078 1.39507 7
2 -10 -2 9.74054 1.14372 2
-2 10 2 8.96701 1.14459 8
-2 10 2 9.9927 1.35083 4
1 -10 -2 46.974 2.5265 7
1 -10 -2 45.0343 2.12364 2
-1 10 2 43.3482 2.38538 4
-1 10 2 53.6997 2.741 6
0 -10 -2 8.4873 0.99934 2
0 -10 -2 8.0464 1.19408 7
0 10 2 9.91249 1.31079 4
0 10 2 10.9776 1.54888 6
-1 -10 -2 49.2911 2.56121 7
-1 -10 -2 43.6481 2.04243 2
1 10 2 48.4406 2.56117 4
-2 -10 -2 2.29968 0.83701 7
-2 -10 -2 2.54717 0.63616 2
2 10 2 3.1484 0.83809 4
-3 -10 -2 82.5264 3.68039 7
3 10 2 92.5351 3.84052 4
-4 -10 -2 1.17917 0.6813 7
4 10 2 3.16313 0.89327 4
1 -11 -2 16.31 1.51797 2
1 -11 -2 15.413 1.7921 7
-1 11 2 17.703 1.86465 4
0 -11 -2 9.72464 1.40395 2
0 -11 -2 9.05838 1.46991 7
0 11 2 7.91292 1.30188 4
-1 -11 -2 50.1918 2.82339 7
1 11 2 53.3145 2.86663 4
-2 -11 -2 0.07169 0.64986 7
2 11 2 -0.3153 0.56433 4
2 9 -3 0.25718 0.65285 4
-2 -9 3 0.77347 0.58137 7
-2 -9 3 0.04002 0.5778 2
1 9 -3 32.1123 2.15748 4
-1 -9 3 32.4941 2.03891 2
0 9 -3 6.2859 1.15603 4
0 -9 3 6.50799 1.07065 2
-1 9 -3 36.972 2.04787 8
-1 9 -3 39.4869 2.3759 4
-2 9 -3 11.7353 1.36193 8
-2 9 -3 14.9743 1.68071 4
2 -9 3 12.2153 1.45891 2
-3 9 -3 0.8743 0.66122 4
-3 9 -3 1.21307 0.64457 8
3 -9 3 0.50604 0.61022 2
-4 9 -3 22.0012 1.84082 8
-4 9 -3 17.6572 1.93897 4
3 8 -3 42.6755 2.49058 4
-3 -8 3 42.9961 2.37913 2
-3 -8 3 43.7553 2.33525 7
2 8 -3 1.31764 0.71044 4
-2 -8 3 0.96003 0.61068 7
-2 -8 3 2.21906 0.78125 2
1 8 -3 97.7471 3.85961 4
-1 -8 3 99.6943 3.6943 2
0 8 -3 4.06199 0.88381 4
0 8 -3 4.79776 0.82197 8
0 -8 3 3.82513 0.8159 2
-1 8 -3 17.5048 1.34649 8
-1 8 -3 18.9536 1.54458 4
1 -8 3 18.486 1.48193 2
-2 8 -3 4.89776 0.94553 4
-2 8 -3 6.33723 1.00703 8
2 -8 3 5.43903 0.95251 2
-3 8 -3 1.73403 0.67999 8
-3 8 -3 2.70799 0.7835 4
3 -8 3 3.06461 0.81766 2
-4 8 -3 -0.2476 0.5343 4
-4 8 -3 0.14008 0.57593 8
4 -8 3 0.21309 0.55349 2
-5 8 -3 1.48979 0.77412 4
-5 8 -3 0.86273 0.68298 8
5 -8 3 0.059 0.64892 2
4 7 -3 25.838 1.87045 4
-4 -7 3 24.0413 1.78416 2
-4 -7 3 24.8266 1.6463 7
3 7 -3 104.136 3.96586 4
-3 -7 3 106.622 3.61921 3
-3 -7 3 97.2877 3.75688 2
-3 -7 3 102.733 3.77861 7
2 7 -3 49.8076 2.43032 4
-2 -7 3 43.0993 2.1911 7
-2 -7 3 44.703 1.85253 3
-2 -7 3 48.1222 2.28828 2
1 7 -3 159.751 5.30486 4
1 7 -3 166.698 4.90074 8
-1 -7 3 167.64 5.18272 2
0 7 -3 1.21827 0.54318 4
0 7 -3 1.74823 0.53993 8
0 -7 3 1.72403 0.60394 2
-1 7 -3 46.7719 2.15966 8
-1 7 -3 49.7135 2.35621 4
1 -7 3 47.928 2.21742 2
-2 7 -3 11.0178 1.29053 4
-2 7 -3 10.1182 1.16075 8
2 -7 3 10.2136 1.19073 2
-3 7 -3 40.2897 2.17793 4
-3 7 -3 41.2353 2.14477 8
3 -7 3 42.7809 2.13391 2
-4 7 -3 23.9629 1.71534 8
-4 7 -3 23.3614 1.69218 4
4 -7 3 22.4577 1.58898 2
-5 7 -3 38.4529 2.30452 4
-5 7 -3 33.0488 2.15382 8
5 -7 3 36.9493 2.14683 2
-6 7 -3 29.8346 2.16888 4
-6 7 -3 25.8458 2.07268 8
6 -7 3 24.8534 1.90173 2
5 6 -3 50.1731 2.58365 4
-5 -6 3 47.8944 2.53766 2
-5 -6 3 46.3507 2.23005 3
4 6 -3 6.04865 1.01804 4
-4 -6 3 5.86297 1.02351 2
-4 -6 3 5.95887 0.83825 3
-4 -6 3 7.13543 0.95726 7
3 6 -3 34.5214 1.98757 4
-3 -6 3 41.1362 1.96641 7
-3 -6 3 39.0451 1.73541 3
-3 -6 3 37.9753 1.99726 2
2 6 -3 2.59622 0.64534 4
-2 -6 3 3.00922 0.54379 3
-2 -6 3 4.07502 0.75677 2
1 6 -3 132.483 4.32816 4
-1 -6 3 129.179 4.18462 2
0 6 -3 47.2756 1.95977 8
0 6 -3 48.3601 2.16146 4
0 -6 3 45.5711 2.04837 2
-1 6 -3 231.141 6.63746 4
-1 6 -3 226.81 6.44567 8
1 -6 3 226.155 6.47786 2
-2 6 -3 2.50764 0.61429 8
-2 6 -3 2.89237 0.72439 4
2 -6 3 2.02966 0.60171 2
-3 6 -3 5.15309 0.91388 4
-3 6 -3 4.71574 0.84546 8
3 -6 3 4.80194 0.82394 2
3 -6 3 5.85654 0.57755 5
-4 6 -3 61.3361 2.73841 8
-4 6 -3 62.4458 2.78407 4
4 -6 3 64.0712 2.70099 2
4 -6 3 60.2177 2.22367 5
-5 6 -3 61.8238 2.88432 4
-5 6 -3 59.8721 2.85328 8
5 -6 3 65.7615 2.83687 2
5 -6 3 63.5684 2.48869 5
-6 6 -3 41.6657 2.48937 4
-6 6 -3 43.19 2.499 8
6 -6 3 41.0429 2.09818 5
6 -6 3 43.8718 2.40247 2
6 5 -3 34.4391 2.12237 4
-6 -5 3 32.4232 2.13369 2
-6 -5 3 30.7545 1.89118 3
5 5 -3 3.93247 0.86521 4
-5 -5 3 5.41391 1.0356 2
-5 -5 3 3.8666 0.76977 3
4 5 -3 0.19837 0.38867 4
-4 -5 3 -0.045 0.33873 7
-4 -5 3 0.15742 0.45362 2
-4 -5 3 1.04854 0.44837 3
3 5 -3 72.754 2.85532 4
3 5 -3 75.7067 2.40193 5
-3 -5 3 73.2289 2.58634 3
-3 -5 3 71.874 2.67862 7
-3 -5 3 74.6463 2.88048 2
2 5 -3 19.5885 1.29372 4
2 5 -3 18.1094 0.77164 5
-2 -5 3 19.101 1.05378 3
-2 -5 3 17.8245 1.21891 2
1 5 -3 50.7083 2.09948 4
-1 -5 3 45.9578 1.98397 2
0 5 -3 5.28766 0.75265 4
0 -5 3 5.50982 0.75187 2
-1 5 -3 16.9285 1.1579 4
-1 5 -3 17.6641 1.09714 8
1 -5 3 15.7342 1.10126 2
-2 5 -3 -0.2134 0.31255 4
-2 5 -3 0.24008 0.28671 8
2 -5 3 0.13297 0.13877 5
2 -5 3 0.40857 0.36316 2
-3 5 -3 15.5112 1.18742 8
-3 5 -3 14.4101 1.16725 4
3 -5 3 17.897 1.19194 2
3 -5 3 16.7487 0.86214 5
-4 5 -3 26.7342 1.6155 4
-4 5 -3 27.1059 1.61169 8
4 -5 3 27.7049 1.33376 5
4 -5 3 27.3607 1.55462 2
-5 5 -3 132.109 4.57631 4
-5 5 -3 132.624 4.56359 8
5 -5 3 135.263 4.18881 5
5 -5 3 128.296 4.41361 2
-6 5 -3 65.1693 3.01165 8
-6 5 -3 57.9863 2.72892 3
6 -5 3 61.3699 2.64504 5
6 -5 3 64.2496 2.81728 2
-7 5 -3 8.58403 1.23984 3
-7 5 -3 6.79977 1.20956 8
7 -5 3 9.14536 1.33712 2
7 -5 3 9.13972 1.27189 5
6 4 -3 2.69071 0.78687 4
6 4 -3 3.09069 0.76868 5
-6 -4 3 2.94956 0.75423 3
-6 -4 3 3.39993 0.92243 2
5 4 -3 41.1557 1.96051 5
5 4 -3 42.0497 2.1329 4
-5 -4 3 37.023 2.05463 2
-5 -4 3 38.1702 1.94774 3
4 4 -3 27.9534 1.45795 5
4 4 -3 30.7334 1.69484 4
-4 -4 3 31.2992 1.74399 2
-4 -4 3 30.2807 1.53314 3
-4 -4 3 30.6303 1.41758 7
3 4 -3 228.607 6.11036 5
3 4 -3 221.257 6.47522 4
3 4 -3 237.515 6.58753 1
-3 -4 3 222.588 6.23529 7
-3 -4 3 235.25 6.5611 2
-3 -4 3 234.642 6.30312 3
2 4 -3 90.8426 3.10941 1
2 4 -3 92.7904 3.05538 4
2 4 -3 87.6419 2.55151 5
-2 -4 3 89.7124 2.83709 3
-2 -4 3 89.2664 3.03918 2
1 4 -3 1.66141 0.17991 5
1 4 -3 0.64228 0.33917 4
1 4 -3 1.75596 0.48386 1
-1 -4 3 1.89373 0.51351 2
0 4 -3 8.63296 0.84214 4
0 4 -3 7.24202 0.80991 1
0 -4 3 9.36822 0.74687 2
-1 4 -3 188.408 5.29994 1
-1 4 -3 197.134 5.30609 8
-1 4 -3 193.159 5.35199 4
1 -4 3 178.818 5.23159 2
-2 4 -3 74.9936 2.60374 4
-2 4 -3 73.425 2.58913 8
2 -4 3 70.0906 2.50682 2
2 -4 3 75.093 2.09658 5
-3 4 -3 17.9424 1.15868 8
-3 4 -3 17.8272 1.16099 4
3 -4 3 19.2572 0.93176 5
3 -4 3 18.9943 1.14855 2
-4 4 -3 25.9288 1.52302 8
-4 4 -3 25.8578 1.521 4
4 -4 3 28.0275 1.31761 5
4 -4 3 26.479 1.46134 2
-5 4 -3 43.7835 2.15839 8
-5 4 -3 45.6927 2.22667 4
-5 4 -3 44.1841 2.09849 3
5 -4 3 46.3349 2.14517 2
5 -4 3 47.8479 2.01944 5
-6 4 -3 21.8302 1.5884 8
-6 4 -3 20.9729 1.51698 3
6 -4 3 20.4156 1.46441 5
-7 4 -3 13.3758 1.56167 8
-7 4 -3 9.88158 1.31981 3
7 -4 3 11.8495 1.39268 5
6 3 -3 0.46204 0.55047 5
-6 -3 3 0.34215 0.46148 3
-6 -3 3 -0.594 0.53665 2
5 3 -3 5.67457 0.85845 5
-5 -3 3 4.30943 0.78563 3
-5 -3 3 3.34451 0.75844 2
4 3 -3 18.2599 1.23085 4
4 3 -3 19.096 1.24339 1
4 3 -3 24.711 1.322 5
-4 -3 3 21.2225 1.36519 2
-4 -3 3 20.3438 1.00537 7
-4 -3 3 21.3811 1.246 3
3 3 -3 357.676 9.37871 1
3 3 -3 357.971 9.15251 5
3 3 -3 353.989 9.35942 4
-3 -3 3 361.036 9.45084 2
-3 -3 3 375.981 9.07796 7
-3 -3 3 339.396 9.22641 3
2 3 -3 59.6607 1.90198 5
2 3 -3 62.9818 2.26637 1
2 3 -3 57.3066 2.12699 4
-2 -3 3 60.8223 2.22711 2
-2 -3 3 59.9452 2.07148 3
1 3 -3 1.43227 0.40624 1
1 3 -3 1.4932 0.37969 4
1 3 -3 1.70044 0.2289 5
-1 -3 3 1.66434 0.43232 2
0 3 -3 24.2643 1.20237 1
0 3 -3 24.214 1.14692 4
0 -3 3 24.2324 1.14708 2
-1 3 -3 264.774 6.1417 5
-1 3 -3 261.045 6.72834 4
-1 3 -3 239.5 6.64991 1
1 -3 3 250.973 6.67838 2
1 -3 3 258.23 6.12216 5
-2 3 -3 38.0206 1.60027 8
-2 3 -3 39.2921 1.4965 1
2 -3 3 39.4558 1.29319 5
-3 3 -3 30.7665 1.47994 4
-3 3 -3 30.6545 1.49527 8
3 -3 3 32.7165 1.47025 2
3 -3 3 32.7759 1.28883 5
-4 3 -3 8.03849 0.89655 3
-4 3 -3 7.9147 0.88644 8
-4 3 -3 8.85686 0.97896 4
4 -3 3 9.36117 0.95084 2
4 -3 3 7.02673 0.7442 5
-5 3 -3 74.7697 2.81058 3
-5 3 -3 72.7123 2.83363 8
5 -3 3 73.3738 2.71901 5
-6 3 -3 15.5404 1.25721 3
-6 3 -3 13.0489 1.31459 8
6 -3 3 15.4839 1.21392 5
-7 3 -3 1.13104 0.58731 8
-7 3 -3 1.51141 0.73308 3
7 -3 3 1.27868 0.65693 5
-8 3 -3 1.06363 0.70055 8
-8 3 -3 -0.8279 0.46494 3
8 -3 3 1.64269 0.81068 5
7 2 -3 -0.1376 0.60977 5
-7 -2 3 -0.5522 0.42556 3
6 2 -3 4.01373 0.82998 5
-6 -2 3 4.46318 0.84791 3
5 2 -3 5.74128 0.76312 1
5 2 -3 6.39074 0.87104 5
-5 -2 3 5.34811 0.85811 2
-5 -2 3 5.7886 0.90349 3
4 2 -3 7.73944 0.91635 5
4 2 -3 6.73121 0.77177 1
-4 -2 3 6.52353 0.81197 3
-4 -2 3 8.14793 0.51474 7
-4 -2 3 7.57647 0.92718 2
3 2 -3 56.081 2.08613 1
3 2 -3 56.4978 2.04644 5
-3 -2 3 55.719 2.07027 3
-3 -2 3 57.832 1.78884 7
-3 -2 3 57.1445 2.19513 2
2 2 -3 7.13254 0.66531 4
2 2 -3 5.3801 0.62356 1
2 2 -3 4.27544 0.48412 5
-2 -2 3 5.23109 0.57648 3
-2 -2 3 6.29359 0.69374 2
1 2 -3 412.465 9.63272 5
1 2 -3 392.975 9.98486 1
1 2 -3 384.75 9.82756 4
-1 -2 3 396.313 9.94926 2
0 2 -3 19.8217 0.65478 5
0 2 -3 19.3179 0.90785 4
0 2 -3 20.4282 0.99099 1
0 -2 3 19.829 0.96377 2
-1 2 -3 1603.07 37.1008 4
-1 2 -3 1599.52 36.8477 5
-1 2 -3 1536.37 37.0688 1
1 -2 3 1526.32 37.063 2
1 -2 3 1558.19 36.8401 5
-2 2 -3 227.791 5.88547 1
-2 2 -3 232.391 6.06567 4
2 -2 3 227.994 6.00462 2
2 -2 3 230.928 5.80149 5
-3 2 -3 237.416 6.30677 8
-3 2 -3 228.051 6.23222 7
-3 2 -3 242.053 5.91191 1
-3 2 -3 232.308 6.28562 4
3 -2 3 228.976 6.0832 5
3 -2 3 230.907 6.18165 2
-4 2 -3 38.7003 1.69832 8
-4 2 -3 34.0197 1.59603 3
-4 2 -3 38.9622 1.61928 7
4 -2 3 36.5798 1.58897 5
-5 2 -3 50.6319 2.04977 7
-5 2 -3 51.8715 2.17273 3
-5 2 -3 54.748 2.21768 8
5 -2 3 52.2324 2.18254 5
-6 2 -3 14.7069 1.16596 3
-6 2 -3 15.5896 1.26033 8
6 -2 3 13.9422 1.18994 5
-7 2 -3 1.4743 0.55906 3
-7 2 -3 1.32495 0.57872 8
7 -2 3 2.10745 0.75243 5
-8 2 -3 16.8733 1.69321 8
-8 2 -3 11.2323 1.42118 3
8 -2 3 13.5132 1.69121 5
7 1 -3 11.1719 1.50542 5
-7 -1 3 9.11148 1.23982 3
-7 -1 3 12.152 1.39192 8
6 1 -3 25.5004 1.68777 5
-6 -1 3 25.4913 1.58229 8
-6 -1 3 24.506 1.63965 3
5 1 -3 26.0964 1.32819 1
5 1 -3 29.5462 1.68616 5
-5 -1 3 29.0322 1.66725 2
-5 -1 3 29.8419 1.56052 8
-5 -1 3 27.3598 1.61573 3
4 1 -3 0.14256 0.27893 1
4 1 -3 0.07008 0.29791 5
-4 -1 3 -0.0643 0.27275 3
-4 -1 3 0.16816 0.31969 8
-4 -1 3 -0.1882 0.38427 2
3 1 -3 65.0232 2.15968 1
3 1 -3 64.4937 2.24394 5
-3 -1 3 63.3306 2.24081 3
-3 -1 3 65.9262 1.75388 7
-3 -1 3 60.5188 1.7256 7
-3 -1 3 62.5696 2.28187 2
2 1 -3 63.594 2.07445 1
2 1 -3 60.7774 2.02155 5
-2 -1 3 66.11 1.78134 7
-2 -1 3 57.344 2.07867 2
1 1 -3 0.8689 0.23318 5
1 1 -3 1.00829 0.24607 4
1 1 -3 0.85389 0.33127 1
-1 -1 3 0.60207 0.30571 2
0 1 -3 214.374 5.52264 1
0 1 -3 212.587 5.34685 4
-1 1 -3 63.7926 1.73276 5
-1 1 -3 61.0818 1.88291 1
-1 1 -3 59.5714 1.90335 7
-1 1 -3 61.7725 1.84034 4
1 -1 3 58.0785 1.84042 2
1 -1 3 61.048 1.71928 5
-2 1 -3 65.5861 1.91323 1
-2 1 -3 64.9448 2.04455 4
-2 1 -3 63.2734 2.07808 7
2 -1 3 64.5582 1.95576 5
2 -1 3 64.8219 1.99798 2
-3 1 -3 370.667 9.28393 7
-3 1 -3 355.309 9.31027 4
-3 1 -3 362.497 8.87053 1
-3 1 -3 365.418 9.23421 3
3 -1 3 376.727 9.23986 5
-4 1 -3 25.2147 0.79634 1
-4 1 -3 24.2741 1.20579 7
-4 1 -3 24.6173 1.22671 3
4 -1 3 23.5223 1.24096 5
4 -1 3 25.6565 0.79572 1
-5 1 -3 5.95166 0.7532 3
-5 1 -3 5.19841 0.73366 8
-5 1 -3 6.04064 0.73315 7
5 -1 3 5.11393 0.79078 5
-6 1 -3 25.4232 1.37142 7
-6 1 -3 26.8 1.54536 8
-6 1 -3 27.3593 1.57428 3
6 -1 3 26.212 1.5748 5
-7 1 -3 -0.1472 0.40989 8
-7 1 -3 -0.5995 0.45314 3
-7 1 -3 0.21196 0.30506 7
7 -1 3 0.42784 0.51682 5
-8 1 -3 0.20448 0.56616 8
-8 1 -3 0.80922 0.63081 3
8 -1 3 0.6555 0.55889 5
7 0 -3 1.66692 0.71398 5
-7 0 3 2.08351 0.77377 3
-7 0 3 1.52702 0.62029 8
6 0 -3 12.5292 1.41829 5
-6 0 3 14.9631 1.42758 8
-6 0 3 9.74519 1.20662 3
5 0 -3 8.63006 0.79568 1
5 0 -3 8.92685 1.06303 5
-5 0 3 8.91215 0.98979 8
-5 0 3 7.07945 0.98009 3
4 0 -3 0.4288 0.31307 5
4 0 -3 0.07648 0.26702 1
-4 0 3 0.9277 0.39772 8
-4 0 3 0.05971 0.29408 3
-4 0 3 0.10601 0.3764 2
3 0 -3 35.0787 1.35191 1
3 0 -3 31.5391 1.47165 5
-3 0 3 34.7877 1.49303 3
-3 0 3 34.4722 1.51168 2
-3 0 3 34.3637 1.49228 8
2 0 -3 0.06527 0.22023 1
2 0 -3 0.31289 0.25112 5
-2 0 3 0.48243 0.11034 7
-2 0 3 0.27261 0.28852 2
-2 0 3 0.55706 0.29236 3
1 0 -3 21.6039 0.76521 4
1 0 -3 23.3761 0.98384 1
1 0 -3 21.267 0.73757 7
-1 0 3 22.4989 0.9601 2
-1 0 3 22.0669 0.75708 7
0 0 -3 386.237 9.77309 1
0 0 -3 398.596 9.66834 7
0 0 3 413.828 9.69269 2
-1 0 -3 623.062 15.0327 4
-1 0 -3 635.842 15.1901 7
1 0 3 639.876 15.0582 2
1 0 3 628.504 15.0886 5
-2 0 -3 184.37 4.77684 7
-2 0 -3 180.491 4.55935 1
2 0 3 183.658 4.71499 5
2 0 3 173.877 4.58834 2
-3 0 -3 168.094 4.61071 7
-3 0 -3 165.466 4.56379 3
-3 0 -3 169.323 4.25179 1
3 0 3 172.029 4.25333 1
3 0 3 174.136 4.66302 5
-4 0 -3 68.6212 2.30277 7
-4 0 -3 69.5082 1.78412 1
-4 0 -3 67.0311 2.30992 3
4 0 3 67.8925 2.39327 5
-5 0 -3 53.4296 2.0491 7
-5 0 -3 54.8505 2.13662 3
-5 0 -3 53.942 2.06184 8
5 0 3 55.3938 2.22914 5
-6 0 -3 33.7207 1.72175 3
-6 0 -3 33.7271 1.58096 7
-6 0 -3 37.733 1.75425 8
6 0 3 32.0384 1.79494 5
-7 0 -3 0.35606 0.33924 7
-7 0 -3 0.09502 0.426 3
-7 0 -3 0.54947 0.5031 8
7 0 3 0.4051 0.51866 5
-8 0 -3 51.1812 2.47027 8
-8 0 -3 54.0886 2.60355 3
8 0 3 47.9883 2.67599 5
7 -1 -3 33.7527 2.24619 5
-7 1 3 37.032 2.20567 8
-7 1 3 35.8426 2.18434 3
6 -1 -3 5.71448 1.02585 5
-6 1 3 5.42396 0.96391 3
-6 1 3 5.49623 1.00012 8
5 -1 -3 14.5872 1.18295 5
5 -1 -3 14.3959 0.84146 1
-5 1 3 14.5169 1.15575 3
-5 1 3 14.1308 1.15011 8
4 -1 -3 44.2074 1.93883 5
4 -1 -3 39.7297 1.50494 1
-4 1 3 40.3804 1.81383 8
-4 1 3 40.8329 1.81489 3
3 -1 -3 1.21413 0.38428 5
3 -1 -3 1.26577 0.31633 1
-3 1 3 1.51084 0.4291 3
-3 1 3 2.15081 0.48023 8
2 -1 -3 12.0417 0.68838 1
2 -1 -3 12.8556 0.80176 5
-2 1 3 12.4957 0.76083 3
-2 1 3 13.5238 0.79723 2
1 -1 -3 162.092 4.17273 7
1 -1 -3 174.12 4.45922 1
-1 1 3 168.149 4.40066 2
-1 1 3 175.894 4.19699 7
-1 1 3 170.548 4.45415 3
0 -1 -3 159.798 4.09755 1
0 -1 -3 161.124 3.98212 7
0 -1 -3 157.333 3.91153 2
0 1 3 154.691 3.98064 7
0 1 3 148.216 3.89722 2
-1 -1 -3 364.678 8.91234 1
-1 -1 -3 347.571 8.93071 7
-1 -1 -3 380.016 8.69302 2
1 1 3 361.91 8.92805 5
1 1 3 367.669 8.68761 2
-2 -1 -3 460.663 11.4369 7
-2 -1 -3 465.115 11.2577 1
2 1 3 475.04 11.4435 5
-3 -1 -3 11.7171 0.55818 1
-3 -1 -3 11.3392 0.67349 3
-3 -1 -3 11.9334 0.74776 7
3 1 3 10.3213 0.75351 5
-4 -1 -3 46.0451 1.74566 7
-4 -1 -3 43.355 1.69125 3
-4 -1 -3 46.6947 1.36152 1
4 1 3 43.3048 1.83239 5
4 1 3 49.5212 1.88892 6
-5 -1 -3 8.15382 0.37475 1
-5 -1 -3 10.8051 0.98257 8
-5 -1 -3 7.24547 0.77373 3
-5 -1 -3 8.15424 0.37263 1
-5 -1 -3 8.25769 0.82773 7
5 1 3 7.0603 0.82821 5
5 1 3 6.88743 0.6637 6
-6 -1 -3 87.6338 2.97728 7
-6 -1 -3 91.0871 3.1553 3
-6 -1 -3 89.5246 3.03237 8
6 1 3 89.3344 3.34788 5
-7 -1 -3 0.22108 0.41573 3
-7 -1 -3 -0.5057 0.35171 8
-7 -1 -3 0.35414 0.35944 7
7 1 3 -0.2968 0.38826 5
-8 -1 -3 0.51195 0.58085 3
-8 -1 -3 0.73839 0.56419 8
8 1 3 -0.4562 0.57236 5
7 -2 -3 112.869 4.50147 5
-7 2 3 109.343 4.28255 3
-7 2 3 116.163 4.36956 8
6 -2 -3 7.25716 1.16723 5
-6 2 3 8.85245 1.19941 8
-6 2 3 7.21615 1.10731 3
5 -2 -3 89.7342 2.70951 1
5 -2 -3 94.3141 3.46365 5
-5 2 3 88.1604 3.28191 3
-5 2 3 91.0682 3.36251 8
4 -2 -3 35.1392 1.34314 1
4 -2 -3 33.7235 1.71948 5
-4 2 3 35.9263 1.70365 3
-4 2 3 34.4026 1.72247 8
3 -2 -3 0.10358 0.26636 5
3 -2 -3 0.41543 0.23603 1
-3 2 3 0.07105 0.25896 3
-3 2 3 0.28369 0.30508 8
-3 2 3 0.12088 0.26244 6
2 -2 -3 10.5562 0.78796 5
2 -2 -3 11.067 0.6448 1
2 -2 -3 11.2913 0.45459 7
-2 2 3 11.3582 0.81357 6
-2 2 3 10.524 0.69697 3
1 -2 -3 377.272 9.60931 1
1 -2 -3 393.49 9.42402 7
-1 2 3 407.525 9.4478 7
-1 2 3 388.396 9.59432 3
-1 2 3 386.99 9.8292 6
0 -2 -3 540.699 12.945 1
0 -2 -3 530.106 12.8528 7
0 -2 -3 532.073 12.6602 2
-1 -2 -3 288.912 7.13004 7
-1 -2 -3 279.95 7.08464 1
-2 -2 -3 194.523 5.09472 1
-2 -2 -3 196.957 5.22845 7
2 2 3 205.636 4.8659 2
2 2 3 196.088 5.23096 5
2 2 3 203.088 5.3685 6
-3 -2 -3 231.039 5.79462 3
-3 -2 -3 222.712 5.73337 1
-3 -2 -3 226.134 5.99577 7
3 2 3 224.281 6.02574 5
3 2 3 230.138 6.0758 6
-4 -2 -3 174.354 4.65621 3
-4 -2 -3 169.075 4.76846 7
-4 -2 -3 166.39 4.41036 1
4 2 3 172.097 4.85861 6
-5 -2 -3 34.8488 1.52185 3
-5 -2 -3 33.2508 1.18478 1
-5 -2 -3 36.5815 1.58169 7
5 2 3 37.3173 1.64909 6
5 2 3 34.9402 1.72336 5
-6 -2 -3 130.964 4.09321 3
-6 -2 -3 136.037 3.91245 8
-6 -2 -3 128.021 4.02219 7
6 2 3 126.671 4.37854 5
-7 -2 -3 3.43867 0.72397 3
-7 -2 -3 2.83663 0.6171 7
-7 -2 -3 4.44859 0.77481 8
7 2 3 4.07238 0.84892 5
-8 -2 -3 30.5365 1.90359 3
8 2 3 30.1872 2.10068 5
7 -3 -3 38.9525 2.47355 5
-7 3 3 36.1039 2.21909 3
-7 3 3 39.9539 2.38974 8
6 -3 -3 66.0114 3.0158 5
-6 3 3 60.9727 2.76386 3
-6 3 3 65.4167 2.92188 8
5 -3 -3 199.262 6.15521 5
5 -3 -3 194.778 5.2746 1
-5 3 3 200.69 5.9886 3
-5 3 3 204.56 6.13433 8
4 -3 -3 86.9907 3.15137 5
4 -3 -3 86.4524 2.26859 7
4 -3 -3 82.2622 2.56358 1
-4 3 3 82.3683 3.04672 8
-4 3 3 81.2404 2.95179 3
-4 3 3 89.7749 2.94114 6
3 -3 -3 808.53 19.5388 1
3 -3 -3 806.063 19.9976 5
3 -3 -3 844.312 19.2804 7
-3 3 3 812.828 19.8469 6
-3 3 3 782.254 19.7888 3
-3 3 3 808.243 19.9545 8
2 -3 -3 20.2656 0.82025 7
2 -3 -3 20.1195 0.94102 1
-2 3 3 19.5741 0.86803 4
-2 3 3 18.8576 1.05485 6
-2 3 3 20.3931 1.23576 8
-2 3 3 21.7519 1.02788 3
1 -3 -3 15.246 0.79041 1
1 -3 -3 15.766 0.73021 7
-1 3 3 14.555 0.73012 3
-1 3 3 15.9628 0.92411 6
-1 3 3 17.1867 0.69076 4
0 -3 -3 4.58031 0.50705 1
0 -3 -3 4.69196 0.46971 7
0 3 3 5.3437 0.36646 3
0 3 3 6.37707 0.6685 6
0 3 3 5.24657 0.3824 4
-1 -3 -3 279.965 7.01125 7
-1 -3 -3 268.735 6.96662 1
1 3 3 264.414 7.19682 6
1 3 3 283.692 6.84531 4
1 3 3 275.743 6.96527 5
-2 -3 -3 651.718 15.8738 7
-2 -3 -3 616.043 15.7391 1
2 3 3 668.897 16.1077 6
2 3 3 652.976 15.8302 5
2 3 3 664.571 15.3713 2
-3 -3 -3 251.474 6.19828 3
-3 -3 -3 242.91 6.52244 7
3 3 3 251.007 6.73365 6
3 3 3 241.193 6.53846 5
-4 -3 -3 51.7996 1.97877 7
-4 -3 -3 53.5992 1.80615 3
4 3 3 53.3423 2.08708 5
4 3 3 51.8702 2.13548 6
-5 -3 -3 201.663 5.43051 3
-5 -3 -3 200.299 5.22438 1
-5 -3 -3 198.876 5.57572 7
5 3 3 185.742 5.74562 6
5 3 3 199.735 5.7933 5
-6 -3 -3 21.7749 1.31594 7
-6 -3 -3 23.8328 1.32153 3
6 3 3 21.6714 1.50212 5
-7 -3 -3 7.70208 0.93636 7
-7 -3 -3 9.07784 1.05412 3
7 3 3 8.16556 1.16779 5
-8 -3 -3 28.7935 1.78646 3
8 3 3 24.4278 1.8956 5
7 -4 -3 38.6253 2.47254 5
-7 4 3 47.8525 2.68533 8
-7 4 3 41.1714 2.45548 3
6 -4 -3 8.06906 1.19107 5
-6 4 3 8.60882 1.25253 8
-6 4 3 11.0957 1.29236 3
5 -4 -3 2.77138 0.73122 5
-5 4 3 3.16607 0.71948 3
-5 4 3 1.98055 0.66024 8
4 -4 -3 888.186 20.83 7
4 -4 -3 845.05 21.0031 1
4 -4 -3 910.047 21.7568 5
-4 4 3 876.786 21.5092 3
-4 4 3 834.518 21.6474 8
-4 4 3 867.297 21.2991 6
3 -4 -3 0.203 0.19815 1
3 -4 -3 0.26012 0.18543 7
3 -4 -3 -0.1007 0.28523 5
-3 4 3 0.4797 0.3099 6
-3 4 3 0.49168 0.27441 4
-3 4 3 0.01187 0.31068 3
-3 4 3 0.46171 0.34683 8
2 -4 -3 116.561 3.32143 1
2 -4 -3 113.372 3.22151 7
-2 4 3 118.161 3.53271 8
-2 4 3 113.455 3.30729 3
-2 4 3 113.334 3.24646 4
-2 4 3 107.635 3.45689 6
1 -4 -3 1152.28 27.3233 1
1 -4 -3 1090 27.2222 7
-1 4 3 1131.73 27.5246 6
-1 4 3 1154.46 27.0936 3
-1 4 3 1176.53 27.1532 4
0 -4 -3 317.061 8.26006 1
0 -4 -3 330.98 8.2519 7
0 -4 -3 330.177 7.86887 2
0 4 3 319.78 8.48753 6
0 4 3 327.244 7.84036 3
0 4 3 318.31 8.06564 4
-1 -4 -3 679.747 15.5706 2
-1 -4 -3 650.204 16.1252 7
1 4 3 651.898 16.3943 6
1 4 3 654.466 15.9668 4
-2 -4 -3 9.73085 0.44759 2
-2 -4 -3 9.13879 0.72638 7
2 4 3 9.53346 0.6969 5
2 4 3 8.63211 0.83421 6
-3 -4 -3 1.02474 0.36178 7
-3 -4 -3 1.11475 0.2614 2
-3 -4 -3 1.09846 0.24029 3
3 4 3 1.66826 0.47778 6
3 4 3 1.6019 0.41005 5
-4 -4 -3 13.1616 0.93636 7
-4 -4 -3 13.3431 0.74946 3
4 4 3 15.4328 1.01934 5
4 4 3 13.993 1.08425 6
-5 -4 -3 472.957 11.3828 3
-5 -4 -3 456.914 11.6985 7
5 4 3 440.725 12.0258 6
5 4 3 440.317 11.8078 5
-6 -4 -3 158.681 4.69581 3
-6 -4 -3 165.665 4.93574 7
6 4 3 155.994 5.15767 5
-7 -4 -3 33.1111 1.75402 3
-7 -4 -3 35.8785 1.84476 7
7 4 3 38.572 2.15526 5
-8 -4 -3 8.69136 1.13461 3
8 4 3 6.40919 1.17724 5
6 -5 -3 37.9423 2.29784 5
-6 5 3 38.3339 2.34094 8
-6 5 3 35.3828 2.128 3
5 -5 -3 51.3448 2.52991 5
-5 5 3 56.5455 2.67424 8
-5 5 3 55.5268 2.45312 3
4 -5 -3 3.75992 0.56073 1
4 -5 -3 4.03225 0.54007 7
4 -5 -3 4.39636 0.80498 5
-4 5 3 3.02992 0.60812 3
-4 5 3 4.0909 0.7623 8
3 -5 -3 11.1717 0.79917 1
3 -5 -3 12.2127 1.00872 5
3 -5 -3 11.6868 0.78033 7
-3 5 3 12.1524 0.89477 3
-3 5 3 11.4737 0.91021 6
-3 5 3 11.4348 0.85481 4
-3 5 3 11.625 1.1238 8
2 -5 -3 451.409 11.363 7
2 -5 -3 464.472 11.4517 1
-2 5 3 452.026 11.5712 8
-2 5 3 438.836 11.3488 4
-2 5 3 451.393 11.2985 3
-2 5 3 463.826 11.6466 6
1 -5 -3 28.568 1.30534 7
1 -5 -3 30.0808 1.35325 1
-1 5 3 28.8631 1.10901 3
-1 5 3 29.3624 1.46905 6
-1 5 3 29.1551 1.2507 4
0 -5 -3 134.796 3.6618 2
0 -5 -3 136.359 4.05517 7
0 5 3 139.815 4.2956 6
0 5 3 147.259 3.52321 3
0 5 3 137.209 3.91614 4
-1 -5 -3 134.588 3.47513 2
-1 -5 -3 136.318 4.01507 7
1 5 3 136.02 4.25766 6
1 5 3 133.507 3.8691 4
-2 -5 -3 26.8076 0.93723 2
2 5 3 24.365 1.17653 5
2 5 3 24.6904 1.24494 4
2 5 3 26.6186 1.51234 6
-3 -5 -3 298.936 7.40383 2
-3 -5 -3 309.041 7.2125 3
-3 -5 -3 287.743 7.92809 7
3 5 3 298.193 7.80105 5
3 5 3 284.824 8.27496 6
-4 -5 -3 56.1321 2.2257 7
-4 -5 -3 54.5696 1.85468 2
-4 -5 -3 52.7233 1.70851 3
4 5 3 51.6359 2.43122 6
4 5 3 52.6454 2.12586 5
-5 -5 -3 46.3235 1.75419 3
-5 -5 -3 51.6986 2.18154 7
5 5 3 47.7345 2.38594 6
5 5 3 50.2927 2.21745 5
-6 -5 -3 13.3983 0.98365 3
-6 -5 -3 14.0861 1.1753 7
6 5 3 12.1243 1.31164 5
-7 -5 -3 66.4345 2.64403 3
-7 -5 -3 70.5185 2.88281 7
7 5 3 73.9699 3.16062 5
6 -6 -3 23.0512 1.78763 5
-6 6 3 27.6409 1.81014 3
-6 6 3 23.0043 1.92803 8
5 -6 -3 9.73917 1.24099 5
-5 6 3 7.73794 1.13618 8
-5 6 3 9.92422 1.17274 3
4 -6 -3 0.94184 0.38357 7
4 -6 -3 1.45957 0.59871 5
4 -6 -3 0.76656 0.38889 1
-4 6 3 0.56242 0.45635 3
-4 6 3 1.86081 0.62625 8
-4 6 3 1.87454 0.55813 4
3 -6 -3 6.39266 0.72791 7
3 -6 -3 4.91238 0.68502 1
3 -6 -3 4.76132 0.74144 5
-3 6 3 5.71335 0.79139 6
-3 6 3 5.43382 0.87161 8
-3 6 3 6.54151 0.80278 4
-3 6 3 5.50899 0.7298 3
2 -6 -3 3.22569 0.53496 7
2 -6 -3 3.70431 0.60664 1
-2 6 3 3.10275 0.57764 8
-2 6 3 2.75432 0.47299 3
-2 6 3 3.97296 0.5937 4
-2 6 3 3.8937 0.66695 6
1 -6 -3 6.18424 0.62674 2
1 -6 -3 6.87742 0.77374 7
-1 6 3 6.28865 0.72179 8
-1 6 3 7.01983 0.88279 6
-1 6 3 6.15974 0.50402 3
-1 6 3 5.78628 0.67592 4
0 -6 -3 39.6002 1.42526 2
0 -6 -3 40.8162 1.76009 7
0 6 3 38.0827 1.64017 4
0 6 3 42.2453 1.18752 3
0 6 3 40.6939 1.93193 6
-1 -6 -3 6.61793 0.48451 2
-1 -6 -3 7.1265 0.80788 7
1 6 3 6.32476 0.87812 6
1 6 3 7.80005 0.81714 4
-2 -6 -3 142.582 3.7828 2
-2 -6 -3 141.536 4.38588 7
2 6 3 141.488 4.10292 5
2 6 3 138.1 4.67982 6
2 6 3 145.478 4.30736 4
-3 -6 -3 14.4522 0.7734 2
-3 -6 -3 13.3524 1.06336 7
3 6 3 13.1097 1.03708 4
3 6 3 13.2841 0.91145 5
3 6 3 12.6616 1.19554 6
-4 -6 -3 9.97953 0.76522 2
-4 -6 -3 10.5136 1.09592 7
4 6 3 12.352 0.97531 5
4 6 3 11.6654 1.18267 4
4 6 3 9.41091 1.25367 6
-5 -6 -3 100.922 3.57621 7
-5 -6 -3 102.96 3.18881 2
5 6 3 96.706 3.94661 6
5 6 3 93.7068 3.44782 5
-6 -6 -3 5.1403 0.92261 7
6 6 3 5.42195 0.92762 5
-7 -6 -3 9.37729 1.22702 7
7 6 3 8.25081 1.26311 5
6 -7 -3 -0.2318 0.53992 5
-6 7 3 1.84799 0.76077 3
-6 7 3 1.5043 0.8297 8
5 -7 -3 315.661 8.89186 5
-5 7 3 288.652 8.87601 8
-5 7 3 297.352 8.54335 3
4 -7 -3 0.22443 0.34856 1
4 -7 -3 1.39783 0.46527 7
4 -7 -3 1.31294 0.57539 5
-4 7 3 1.28649 0.58863 8
-4 7 3 1.31847 0.54536 3
-4 7 3 0.50087 0.43115 4
3 -7 -3 240.536 6.54423 1
3 -7 -3 236.871 6.56839 7
3 -7 -3 223.936 6.66147 5
3 -7 -3 228.574 6.53481 2
-3 7 3 236.272 6.42494 3
-3 7 3 219.45 6.75039 8
-3 7 3 229.8 6.63334 6
-3 7 3 234.548 6.62555 4
2 -7 -3 9.34568 0.96272 7
2 -7 -3 9.09268 0.99973 1
2 -7 -3 9.6552 0.93666 2
-2 7 3 9.42172 0.99017 4
-2 7 3 9.23223 1.03373 8
-2 7 3 9.53613 0.72434 3
-2 7 3 9.40285 1.09239 6
1 -7 -3 60.4059 2.14667 2
1 -7 -3 61.8478 2.41519 7
-1 7 3 61.0619 2.58465 6
-1 7 3 62.2781 2.31222 8
-1 7 3 62.5829 2.3671 4
-1 7 3 61.31 1.90504 3
0 -7 -3 36.0565 1.45827 2
0 7 3 41.3782 2.04749 6
0 7 3 37.3538 1.72489 4
-1 -7 -3 284.866 7.91602 7
-1 -7 -3 287.021 7.25375 2
1 7 3 290.765 8.29102 6
1 7 3 276.098 7.73866 4
-2 -7 -3 21.7385 1.40317 7
-2 -7 -3 20.2456 0.97099 2
2 7 3 23.5369 1.64646 6
2 7 3 20.9822 1.34342 4
-3 -7 -3 10.3983 1.13013 7
-3 -7 -3 11.4025 0.7728 2
3 7 3 11.9071 1.21247 4
3 7 3 11.6437 0.91037 5
3 7 3 12.3901 1.46289 6
-4 -7 -3 -0.0521 0.30832 2
-4 -7 -3 0.07712 0.35036 7
4 7 3 -0.1218 0.3095 5
4 7 3 -0.0217 0.35935 4
4 7 3 0.3416 0.57988 6
-5 -7 -3 8.33839 0.90195 2
-5 -7 -3 8.8079 1.15698 7
5 7 3 7.18976 1.1673 4
5 7 3 9.52389 1.1192 5
-6 -7 -3 7.57469 1.06892 7
6 7 3 8.31583 1.32072 4
6 7 3 6.96018 1.08869 5
-7 -7 -3 0.36905 0.53779 7
7 7 3 1.22296 0.63457 5
5 -8 -3 48.3714 2.5497 5
5 -8 -3 54.079 2.6107 2
-5 8 3 51.9101 2.5489 4
-5 8 3 43.5116 2.28695 3
-5 8 3 49.6149 2.72763 8
4 -8 -3 80.138 3.05322 7
4 -8 -3 77.5063 2.94914 1
4 -8 -3 80.2528 3.23139 5
4 -8 -3 76.5771 3.10815 2
-4 8 3 76.8641 3.35323 8
-4 8 3 85.8515 3.0619 3
-4 8 3 81.9657 3.20601 4
3 -8 -3 125.783 4.21967 7
3 -8 -3 127.228 4.13988 2
3 -8 -3 126.798 4.18278 1
3 -8 -3 134.733 4.31489 5
-3 8 3 127.223 3.95302 3
-3 8 3 128.731 4.43412 8
-3 8 3 123.003 4.25196 4
2 -8 -3 12.0125 0.99515 2
2 -8 -3 13.4363 1.12715 7
2 -8 -3 12.5988 1.02986 5
2 -8 -3 14.0036 1.16474 1
-2 8 3 13.0942 1.20877 6
-2 8 3 13.2457 1.08476 3
-2 8 3 13.7616 1.1281 4
-2 8 3 12.604 1.23846 8
1 -8 -3 548.166 13.4129 2
1 -8 -3 538.888 13.8655 7
-1 8 3 526.433 13.5434 8
-1 8 3 520.051 13.719 4
-1 8 3 528.555 14.1318 6
0 -8 -3 122.104 3.55043 2
0 -8 -3 111.063 3.96699 7
0 8 3 114.447 3.89726 4
0 8 3 113.817 4.25906 6
0 8 3 121.668 3.59567 8
-1 -8 -3 154.281 5.04224 7
-1 -8 -3 152.364 4.38388 2
1 8 3 165.274 5.43748 6
1 8 3 157.984 4.95636 4
-2 -8 -3 17.4497 1.38383 7
-2 -8 -3 18.827 0.99589 2
2 8 3 17.1693 1.50802 6
2 8 3 17.6754 1.28269 4
-3 -8 -3 325.193 8.25492 2
-3 -8 -3 314.601 9.00592 7
3 8 3 311.358 9.51059 6
3 8 3 314.941 8.48546 5
3 8 3 325.323 9.00223 4
-4 -8 -3 29.4653 1.82375 7
-4 -8 -3 29.1187 1.43763 2
4 8 3 29.9115 1.58657 5
4 8 3 33.3301 1.96543 4
4 8 3 29.0462 2.11577 6
-5 -8 -3 222.434 6.93562 7
5 8 3 229.065 6.64032 5
5 8 3 223.961 7.11062 4
-6 -8 -3 4.26016 0.97728 7
6 8 3 5.31776 1.09341 4
6 8 3 5.58997 0.95259 5
4 -9 -3 4.46971 0.88528 1
4 -9 -3 7.17333 1.05915 2
4 -9 -3 6.22502 1.01017 5
4 -9 -3 6.37898 0.99657 7
-4 9 3 5.84499 1.00547 4
-4 9 3 7.51301 1.20059 8
3 -9 -3 156.344 5.04188 1
3 -9 -3 152.424 4.9499 5
3 -9 -3 152.152 4.92167 2
3 -9 -3 155.226 5.11352 7
-3 9 3 168.154 5.2396 4
-3 9 3 148.276 5.16342 8
2 -9 -3 47.2335 2.29459 7
2 -9 -3 44.6655 2.03089 5
2 -9 -3 44.1471 2.20777 1
2 -9 -3 47.1747 2.06366 2
-2 9 3 42.8914 2.1893 4
-2 9 3 39.8963 2.2821 6
-2 9 3 44.7502 2.17555 8
1 -9 -3 9.70703 1.22855 7
1 -9 -3 6.1585 0.81739 2
-1 9 3 7.76154 1.185 6
-1 9 3 5.96795 0.92357 4
-1 9 3 7.89118 0.97232 8
0 -9 -3 63.647 2.31886 2
0 -9 -3 61.4154 2.75505 7
0 9 3 61.2314 2.99125 6
0 9 3 62.2168 2.69945 4
-1 -9 -3 450.187 11.4418 2
-1 -9 -3 447.803 12.2691 7
1 9 3 440.473 12.5935 6
1 9 3 466.404 12.1982 4
-2 -9 -3 3.38835 0.57516 2
-2 -9 -3 1.7124 0.62876 7
2 9 3 2.67079 0.69432 4
2 9 3 1.98164 0.86087 6
-3 -9 -3 168.191 5.68747 7
3 9 3 175.102 6.22284 6
3 9 3 170.896 5.67734 4
-4 -9 -3 82.3758 3.47253 7
4 9 3 77.1177 3.39667 4
-5 -9 -3 5.01554 1.05764 7
5 9 3 7.75929 1.27414 4
3 -10 -3 -0.1381 0.36912 7
3 -10 -3 0.18229 0.44711 2
3 -10 -3 0.62913 0.59387 1
3 -10 -3 0.27909 0.54048 5
-3 10 3 -0.0877 0.52628 8
-3 10 3 0.14391 0.53554 4
2 -10 -3 4.01629 0.90497 7
2 -10 -3 4.40929 0.99035 1
2 -10 -3 4.2478 0.79481 2
-2 10 3 4.84755 0.87712 8
-2 10 3 5.19042 1.0258 6
-2 10 3 4.33725 0.93954 4
1 -10 -3 14.1966 1.54023 7
1 -10 -3 17.6243 1.23592 2
-1 10 3 16.7747 1.5941 6
-1 10 3 18.3879 1.75583 4
0 -10 -3 29.5341 1.93452 7
0 -10 -3 32.5848 1.59914 2
0 10 3 28.9721 2.12279 6
0 10 3 27.5899 1.8613 4
-1 -10 -3 52.5543 2.67958 7
1 10 3 54.5819 2.98838 6
1 10 3 43.3236 2.43211 4
-2 -10 -3 2.03593 0.73708 7
2 10 3 3.01499 0.89933 4
2 10 3 3.41179 1.0448 6
-3 -10 -3 62.9029 3.08453 7
3 10 3 60.6604 2.96829 4
-4 -10 -3 27.4252 2.03326 7
4 10 3 27.4002 2.05833 4
1 -11 -3 24.6919 1.86539 7
-1 11 3 25.6875 1.91887 4
-1 11 3 26.1938 2.09005 6
0 -11 -3 9.4586 1.42334 7
0 11 3 12.5876 1.76557 6
0 11 3 13.106 1.60699 4
-1 -11 -3 8.96239 1.43906 7
1 11 3 10.9692 1.49347 4
1 11 3 8.12435 1.4397 6
-2 -11 -3 0.889 0.70742 7
2 11 3 1.33624 0.78826 4
2 11 3 -0.7696 0.71407 6
1 9 -4 4.22319 1.01643 4
-1 -9 4 3.40226 0.88852 2
0 9 -4 31.9135 2.20684 4
0 -9 4 31.2381 2.08961 2
-1 9 -4 14.1341 1.66387 4
-1 9 -4 17.2522 1.67503 8
1 -9 4 16.462 1.65872 2
-2 9 -4 0.64431 0.65005 4
-2 9 -4 -0.0631 0.55963 8
2 -9 4 0.59241 0.60653 2
-3 9 -4 7.6159 1.32829 4
-3 9 -4 7.89831 1.28068 8
3 8 -4 44.9772 2.6196 4
-3 -8 4 41.9977 2.37503 7
-3 -8 4 44.0239 2.50461 2
2 8 -4 3.75151 0.94967 4
-2 -8 4 3.88189 0.86718 7
-2 -8 4 4.77545 0.97269 2
1 8 -4 1.23189 0.65735 4
-1 -8 4 2.47376 0.79723 2
0 8 -4 61.1197 2.9061 4
0 8 -4 61.0568 2.61924 8
0 -8 4 58.858 2.77101 2
-1 8 -4 0.83995 0.64893 4
-1 8 -4 0.71402 0.52772 8
1 -8 4 0.90736 0.6065 2
-2 8 -4 41.4509 2.22547 8
-2 8 -4 41.5682 2.36688 4
2 -8 4 41.7932 2.25641 2
-3 8 -4 14.6041 1.63133 4
-3 8 -4 14.0189 1.59434 8
3 -8 4 15.1891 1.60402 2
-4 8 -4 -0.1959 0.51596 4
-4 8 -4 0.10835 0.58716 8
4 -8 4 0.09999 0.4929 2
4 7 -4 -0.1177 0.55365 4
-4 -7 4 -0.1557 0.54026 2
3 7 -4 1.53522 0.71635 4
-3 -7 4 2.46262 0.74385 7
-3 -7 4 2.90257 0.66717 3
-3 -7 4 3.67217 0.9286 2
2 7 -4 7.02553 1.12549 4
-2 -7 4 5.61864 1.03758 2
-2 -7 4 6.0011 0.8197 3
1 7 -4 56.0949 2.63002 4
1 7 -4 55.9345 2.37186 8
-1 -7 4 58.3165 2.61146 2
0 7 -4 20.3831 1.36157 8
0 7 -4 20.3782 1.54851 4
0 -7 4 19.8528 1.4864 2
-1 7 -4 105.995 3.87229 4
-1 7 -4 95.7996 3.5756 8
1 -7 4 102.968 3.70259 2
-2 7 -4 46.8654 2.25997 8
-2 7 -4 42.6742 2.29894 4
2 -7 4 42.8303 2.19923 2
-3 7 -4 3.70783 0.86102 4
-3 7 -4 4.44949 0.93378 8
3 -7 4 4.1333 0.89612 2
-4 7 -4 128.651 4.6743 4
-4 7 -4 121.599 4.54521 8
4 -7 4 124.983 4.45327 2
-5 7 -4 46.7235 2.61758 8
-5 7 -4 42.7046 2.49999 4
5 -7 4 46.7119 2.52512 2
-6 7 -4 3.13315 0.94868 4
-6 7 -4 4.84477 1.15603 8
5 6 -4 2.11836 0.73833 4
4 6 -4 128.359 4.68519 4
-4 -6 4 140.045 4.8507 2
-4 -6 4 133.27 4.33893 3
3 6 -4 77.1745 3.20681 4
-3 -6 4 81.463 3.28992 2
-3 -6 4 79.5127 2.92849 3
-3 -6 4 84.8193 3.1405 7
2 6 -4 15.686 1.32841 4
-2 -6 4 16.5986 1.30612 2
-2 -6 4 16.3871 1.13288 3
1 6 -4 18.7078 1.33706 4
-1 -6 4 16.7301 1.30763 2
0 6 -4 9.3879 1.03207 8
0 6 -4 8.42924 1.06364 4
0 -6 4 8.70641 1.08823 2
-1 6 -4 32.6115 1.77327 4
-1 6 -4 32.5629 1.70342 8
1 -6 4 32.3086 1.75021 2
-2 6 -4 42.372 2.10872 8
-2 6 -4 47.5867 2.24767 4
2 -6 4 47.8394 2.18689 2
-3 6 -4 385.981 10.4731 4
-3 6 -4 377.721 10.3784 8
3 -6 4 376.126 10.3027 2
-4 6 -4 10.7277 1.27423 8
-4 6 -4 9.18768 1.17475 4
4 -6 4 8.93059 1.14189 2
-5 6 -4 1.29585 0.62497 8
-5 6 -4 3.04485 0.83949 4
5 -6 4 0.70593 0.62811 2
5 -6 4 1.60356 0.54471 5
-6 6 -4 164.617 5.93341 8
-6 6 -4 184.107 6.16023 4
6 -6 4 171.049 5.81355 2
6 -6 4 177.961 5.45598 5
5 5 -4 0.77333 0.5447 4
-5 -5 4 -0.6923 0.53113 2
-5 -5 4 -0.2217 0.44949 3
4 5 -4 37.3479 2.05425 4
-4 -5 4 38.7786 1.897 3
-4 -5 4 36.6046 2.0917 2
3 5 -4 23.4339 1.5465 4
-3 -5 4 23.8465 1.38375 3
-3 -5 4 26.2477 1.46373 7
-3 -5 4 27.1984 1.69583 2
2 5 -4 134.049 4.53302 1
2 5 -4 137.322 4.4241 4
-2 -5 4 138.964 4.47707 2
-2 -5 4 142.152 4.21682 3
1 5 -4 1.86828 0.56237 4
1 5 -4 0.84658 0.49 1
-1 -5 4 1.43508 0.53474 2
0 5 -4 0.70828 0.49185 1
0 5 -4 1.01504 0.44304 4
0 -5 4 0.37019 0.40456 2
-1 5 -4 76.24 2.80773 4
-1 5 -4 76.2733 2.75238 8
1 -5 4 72.8349 2.73687 2
-2 5 -4 3.99271 0.71215 4
-2 5 -4 5.60377 0.82055 8
2 -5 4 5.4005 0.77469 2
2 -5 4 4.90775 0.32708 5
-3 5 -4 41.5241 2.0577 4
-3 5 -4 39.1538 1.97241 8
3 -5 4 43.6063 1.98211 2
3 -5 4 41.0993 1.48338 5
-4 5 -4 -0.4092 0.35861 8
-4 5 -4 0.27217 0.49319 4
4 -5 4 1.20074 0.55949 2
4 -5 4 0.89714 0.36248 5
-5 5 -4 238.212 7.30717 8
-5 5 -4 244.155 7.37455 4
5 -5 4 250.119 6.84524 5
5 -5 4 243.945 7.20575 2
-6 5 -4 0.90074 0.62079 4
-6 5 -4 1.63093 0.6535 8
6 -5 4 1.02278 0.56768 5
6 -5 4 1.13476 0.61313 2
-7 5 -4 92.7897 3.93915 8
7 -5 4 87.59 3.56334 5
7 -5 4 91.7741 3.77501 2
6 4 -4 26.3593 1.83147 4
-6 -4 4 24.1883 1.75708 3
-6 -4 4 23.8306 1.9324 2
5 4 -4 5.28726 0.86976 5
5 4 -4 7.57413 1.10775 4
-5 -4 4 6.2632 1.10983 2
-5 -4 4 5.06838 0.8589 3
4 4 -4 261.293 7.52478 4
4 4 -4 269.379 7.21659 5
4 4 -4 266.321 7.58791 1
-4 -4 4 253.082 7.61508 2
-4 -4 4 264.526 7.39179 3
3 4 -4 0.32524 0.39825 4
3 4 -4 -0.0338 0.2577 5
3 4 -4 0.16868 0.43206 1
-3 -4 4 0.2969 0.3901 3
-3 -4 4 0.05965 0.45012 2
-3 -4 4 -0.1333 0.31556 7
2 4 -4 0.8743 0.4037 4
2 4 -4 0.11401 0.38739 1
2 4 -4 0.14871 0.19415 5
-2 -4 4 0.03885 0.27874 2
-2 -4 4 -0.1431 0.25378 3
1 4 -4 0.16346 0.29849 4
1 4 -4 0.14045 0.31625 1
1 4 -4 0.24316 0.13072 5
-1 -4 4 0.50652 0.38285 2
0 4 -4 507.8 12.9991 1
0 4 -4 504.271 12.8847 4
0 -4 4 516.567 12.9204 2
-1 4 -4 4.79239 0.64907 1
-1 4 -4 5.35503 0.67169 4
1 -4 4 5.38206 0.68152 2
-2 4 -4 30.4624 1.44837 1
-2 4 -4 32.2647 1.56999 4
-2 4 -4 33.5089 1.595 8
2 -4 4 31.4726 1.06154 5
2 -4 4 30.4021 1.50987 2
-3 4 -4 142.103 4.48851 8
-3 4 -4 148.081 4.52463 4
3 -4 4 145.671 3.97178 5
3 -4 4 140.411 4.37853 2
-4 4 -4 80.7718 3.0247 4
-4 4 -4 76.5689 2.97071 8
4 -4 4 78.9491 2.62625 5
4 -4 4 75.4446 2.85427 2
-5 4 -4 0.37298 0.4415 8
-5 4 -4 0.39082 0.49911 4
5 -4 4 0.37124 0.37705 5
5 -4 4 1.11635 0.57112 2
-6 4 -4 0.23555 0.54233 8
6 -4 4 0.1326 0.45475 5
6 -4 4 0.69288 0.54886 2
-7 4 -4 29.0101 1.93871 3
-7 4 -4 30.6613 2.11922 8
7 -4 4 32.318 1.92237 5
7 -4 4 26.6397 1.84392 2
6 3 -4 4.90273 0.97215 4
6 3 -4 3.01935 0.80329 5
-6 -3 4 3.90251 0.87374 3
-6 -3 4 3.25936 0.93439 2
5 3 -4 2.6167 0.69604 4
5 3 -4 3.30972 0.70494 5
5 3 -4 2.24331 0.67414 1
-5 -3 4 2.62678 0.70205 3
-5 -3 4 2.08421 0.75664 2
4 3 -4 52.3394 2.21656 1
4 3 -4 49.2043 2.07127 5
4 3 -4 48.6941 2.1573 4
-4 -3 4 50.7499 2.32738 2
-4 -3 4 48.6363 2.13787 3
3 3 -4 0.31131 0.33197 4
3 3 -4 0.62356 0.32202 5
3 3 -4 0.51857 0.38331 1
-3 -3 4 0.44037 0.44224 2
-3 -3 4 0.09917 0.24771 7
-3 -3 4 -0.0008 0.30279 3
2 3 -4 104.77 3.39915 1
2 3 -4 101.637 3.23336 4
2 3 -4 101.686 2.95979 5
-2 -3 4 100.479 3.21629 3
-2 -3 4 101.076 3.36191 2
1 3 -4 69.3081 2.51379 1
1 3 -4 66.3845 2.34495 4
1 3 -4 71.6573 1.99271 5
-1 -3 4 70.8705 2.48757 2
0 3 -4 73.6755 2.55634 1
0 3 -4 73.4907 1.90226 5
0 3 -4 71.4237 2.4071 4
0 3 -4 74.5931 1.90496 5
0 -3 4 71.2853 2.47574 2
-1 3 -4 0.51636 0.31501 4
-1 3 -4 0.23339 0.13034 5
-1 3 -4 1.01986 0.38962 1
1 -3 4 0.25572 0.27555 2
-2 3 -4 184.361 5.25853 8
-2 3 -4 180.722 5.11297 1
-2 3 -4 191.46 5.2435 4
2 -3 4 187.134 4.75356 5
2 -3 4 185.309 5.18745 2
-3 3 -4 20.4669 1.03976 1
-3 3 -4 19.5481 1.20197 8
-3 3 -4 22.67 1.27525 4
3 -3 4 22.7442 1.019 5
3 -3 4 20.8572 1.17736 2
-4 3 -4 92.974 3.19688 8
-4 3 -4 87.858 3.15508 4
4 -3 4 88.9744 2.91662 5
4 -3 4 90.0577 3.09739 2
-5 3 -4 3.79624 0.76516 8
5 -3 4 4.10938 0.70701 5
5 -3 4 5.36375 0.83825 2
-6 3 -4 10.9402 1.30562 8
-6 3 -4 9.31247 1.15106 3
6 -3 4 7.77796 1.01287 5
6 -3 4 8.23246 1.11961 2
-7 3 -4 11.1215 1.37931 8
-7 3 -4 12.9466 1.47544 3
7 -3 4 14.959 1.52588 5
7 -3 4 10.9563 1.31291 2
-8 3 -4 31.8967 2.14379 3
-8 3 -4 30.907 2.18527 8
8 -3 4 32.8318 2.18624 5
6 2 -4 69.8841 3.05544 5
-6 -2 4 69.7259 3.12656 2
-6 -2 4 67.7884 2.9919 3
5 2 -4 15.3295 1.24263 5
5 2 -4 13.3408 1.10924 1
-5 -2 4 12.5628 1.33413 2
-5 -2 4 13.1851 1.32079 3
4 2 -4 7.65132 0.90734 1
4 2 -4 6.0049 0.79063 5
4 2 -4 6.87953 0.81997 4
-4 -2 4 5.89243 0.84802 3
-4 -2 4 5.02519 0.88405 2
3 2 -4 8.03468 0.85268 1
3 2 -4 7.53437 0.7981 4
3 2 -4 7.02151 0.77119 5
-3 -2 4 6.36041 0.82014 2
-3 -2 4 7.75855 0.55969 7
-3 -2 4 8.64418 0.92749 3
2 2 -4 10.0665 0.69182 5
2 2 -4 10.7095 0.74311 4
2 2 -4 11.6427 0.88968 1
-2 -2 4 9.78817 0.75646 3
-2 -2 4 10.705 0.99672 2
1 2 -4 44.291 1.59247 4
1 2 -4 45.5874 1.76574 1
1 2 -4 42.866 1.44699 5
-1 -2 4 44.1857 1.71828 2
0 2 -4 111.094 2.91213 5
0 2 -4 108.818 3.34494 1
0 2 -4 111.283 3.19423 4
0 -2 4 114.729 3.32841 2
-1 2 -4 422.334 11.2229 1
-1 2 -4 447.506 11.1906 4
-1 2 -4 493.505 10.9783 5
1 -2 4 439.754 11.2165 2
-2 2 -4 122.532 3.67349 4
-2 2 -4 126.281 3.60741 1
-2 2 -4 130.29 3.78098 7
2 -2 4 126.214 3.66442 2
2 -2 4 130.337 3.43334 5
-3 2 -4 6.58518 0.55432 1
-3 2 -4 6.33612 0.72762 8
-3 2 -4 7.35132 0.78715 4
-3 2 -4 6.68724 0.74853 7
3 -2 4 6.54876 0.6376 5
3 -2 4 5.33353 0.63208 2
-4 2 -4 0.16075 0.27193 7
-4 2 -4 0.17504 0.33981 8
-4 2 -4 -0.1241 0.18056 1
-4 2 -4 0.42203 0.34807 4
4 -2 4 0.30944 0.31249 2
4 -2 4 -0.1353 0.26377 5
-5 2 -4 0.88634 0.43168 8
-5 2 -4 0.39044 0.3621 3
-5 2 -4 0.43235 0.34264 7
5 -2 4 1.45026 0.50305 2
5 -2 4 1.36915 0.49988 5
-6 2 -4 14.514 1.22838 8
-6 2 -4 14.5791 1.12274 7
-6 2 -4 14.5419 1.16144 3
6 -2 4 13.4654 1.16572 5
-7 2 -4 3.03041 0.77912 3
-7 2 -4 1.62825 0.67797 8
7 -2 4 1.75126 0.66346 5
-8 2 -4 66.1756 3.08778 8
-8 2 -4 67.4884 3.12294 3
8 -2 4 63.9739 3.10987 5
7 1 -4 11.028 1.48858 5
6 1 -4 20.0912 1.55974 5
-6 -1 4 21.8646 1.65562 3
5 1 -4 52.5877 2.34916 5
5 1 -4 51.4208 2.06164 1
-5 -1 4 46.8137 2.30049 2
-5 -1 4 47.7442 2.31256 3
4 1 -4 130.846 4.33064 5
4 1 -4 145.179 4.23327 1
-4 -1 4 144.191 4.41606 3
-4 -1 4 139.978 4.46655 2
3 1 -4 159.899 4.73363 5
3 1 -4 163.21 4.70278 1
-3 -1 4 168.469 4.82205 3
-3 -1 4 153.719 4.79647 2
-3 -1 4 175.954 4.15991 7
-3 -1 4 162.216 4.13884 7
2 1 -4 9.55454 0.63898 4
2 1 -4 9.17909 0.75421 1
2 1 -4 9.64507 0.69494 5
-2 -1 4 9.05424 0.84235 3
-2 -1 4 10.7001 0.79761 2
1 1 -4 5.12481 0.47907 4
1 1 -4 5.06403 0.63342 1
-1 -1 4 5.82782 0.63306 2
0 1 -4 0.16209 0.18726 4
0 1 -4 0.51246 0.29925 1
0 -1 4 0.04616 0.24367 2
-1 1 -4 249.562 6.58547 7
-1 1 -4 253.565 6.58691 1
-1 1 -4 261.881 6.46204 4
1 -1 4 263.454 6.35497 5
1 -1 4 246.841 6.50089 2
-2 1 -4 8.96369 0.61859 1
-2 1 -4 9.75909 0.70738 7
-2 1 -4 8.27731 0.60207 4
2 -1 4 8.94173 0.63568 2
2 -1 4 9.05445 0.58469 5
-3 1 -4 4.02522 0.4527 1
-3 1 -4 4.81938 0.61817 7
-3 1 -4 3.53855 0.5135 4
3 -1 4 4.09248 0.54028 2
3 -1 4 3.73394 0.50801 5
-4 1 -4 59.5466 1.74619 1
-4 1 -4 57.6519 2.1591 8
-4 1 -4 56.8938 2.16709 7
4 -1 4 56.3962 2.10164 2
4 -1 4 59.155 2.16452 5
-5 1 -4 0.80315 0.40953 3
-5 1 -4 1.61508 0.43602 7
-5 1 -4 2.20072 0.53568 8
5 -1 4 0.75738 0.3857 5
-6 1 -4 8.81489 1.06786 3
-6 1 -4 10.7565 1.14449 8
-6 1 -4 9.13859 0.97479 7
6 -1 4 9.45312 1.10031 5
-7 1 -4 9.15075 1.01966 7
-7 1 -4 6.8908 1.01569 3
-7 1 -4 7.52758 1.01329 8
7 -1 4 9.30325 1.25118 5
-8 1 -4 4.59225 0.9219 8
-8 1 -4 6.14884 1.0196 3
8 -1 4 8.4039 1.31262 5
7 0 -4 0.89233 0.76639 5
-7 0 4 0.62453 0.63544 8
-7 0 4 2.11958 0.78247 3
6 0 -4 36.3423 2.15842 5
-6 0 4 35.2228 1.99356 8
-6 0 4 37.973 2.14231 3
5 0 -4 30.9651 1.83094 5
5 0 -4 34.0866 1.53819 1
-5 0 4 33.9969 1.84317 3
-5 0 4 33.5332 1.79896 8
4 0 -4 -0.0755 0.31036 5
4 0 -4 0.45931 0.32134 1
-4 0 4 -0.0275 0.33598 2
-4 0 4 -0.2163 0.30336 3
-4 0 4 0.42881 0.41416 8
3 0 -4 1.19997 0.3746 1
3 0 -4 2.8801 0.52626 5
-3 0 4 2.34807 0.52801 8
-3 0 4 0.91677 0.395 3
-3 0 4 1.3273 0.44807 2
2 0 -4 13.5545 0.8311 5
2 0 -4 13.4911 0.8236 1
-2 0 4 13.6861 0.53006 7
-2 0 4 10.7291 0.78069 3
-2 0 4 11.6651 0.82939 2
1 0 -4 43.8513 1.32663 4
1 0 -4 44.4773 1.65001 1
1 0 -4 45.916 1.37634 7
-1 0 4 43.3055 1.57306 2
0 0 -4 887.783 19.99 4
0 0 -4 815.974 20.3397 1
0 0 -4 853.051 20.1944 7
0 0 4 825.358 20.2056 2
-1 0 -4 893.057 21.566 7
-1 0 -4 900.11 21.5476 1
-1 0 -4 917.341 21.3311 4
1 0 4 902.301 21.4065 2
1 0 4 884.576 21.4284 5
-2 0 -4 5.26214 0.58914 7
-2 0 -4 5.08605 0.50159 1
2 0 4 4.27603 0.45614 5
2 0 4 4.03774 0.42963 2
-3 0 -4 49.1224 1.58479 1
-3 0 -4 52.9143 1.88502 7
3 0 4 50.4306 1.70985 2
3 0 4 50.6418 1.80642 5
-4 0 -4 129.277 3.96818 7
-4 0 -4 134.059 3.92676 3
-4 0 -4 146.694 4.2152 8
-4 0 -4 132.626 3.48006 1
4 0 4 126.054 3.96006 5
-5 0 -4 102.691 3.23451 8
-5 0 -4 103.136 3.30811 3
-5 0 -4 100.574 3.28554 7
-5 0 -4 94.8909 2.53371 1
-6 0 -4 35.0177 1.68105 7
-6 0 -4 31.887 1.64331 8
-6 0 -4 33.7108 1.7322 3
6 0 4 34.2309 1.84679 5
-7 0 -4 5.03546 0.87086 8
-7 0 -4 5.76702 0.93749 3
-7 0 -4 4.03795 0.70957 7
7 0 4 7.09622 1.12764 5
-8 0 -4 21.94 1.70719 3
-8 0 -4 21.2101 1.53007 8
8 0 4 21.3423 1.78162 5
7 -1 -4 3.93421 0.98005 5
-7 1 4 5.33136 1.05586 3
-7 1 4 6.72729 1.16348 8
6 -1 -4 12.4735 1.43241 5
-6 1 4 13.2197 1.43726 3
-6 1 4 14.5721 1.50782 8
5 -1 -4 3.80638 0.81012 5
5 -1 -4 4.13694 0.60574 1
-5 1 4 4.25997 0.84553 3
-5 1 4 3.16055 0.73602 8
4 -1 -4 2.44642 0.45423 1
4 -1 -4 1.21411 0.51205 5
-4 1 4 2.58437 0.59131 3
-4 1 4 3.35264 0.65054 8
3 -1 -4 32.5397 1.55099 5
3 -1 -4 32.9245 1.38563 1
-3 1 4 34.7087 1.58267 8
-3 1 4 29.8422 1.46602 3
-3 1 4 33.1835 1.52865 2
2 -1 -4 16.7444 0.98546 5
2 -1 -4 16.6833 0.91525 1
-2 1 4 15.905 0.94127 3
-2 1 4 18.3569 1.02313 8
-2 1 4 16.3557 0.53738 7
-2 1 4 15.5329 0.91841 2
1 -1 -4 332.361 8.03406 7
1 -1 -4 334.663 8.37613 1
-1 1 4 312.722 8.24056 2
-1 1 4 331.618 8.35893 3
-1 1 4 343.187 8.05476 7
0 -1 -4 103.578 2.75508 7
0 1 4 101.39 2.70157 2
0 1 4 92.0844 3.0311 6
-1 -1 -4 57.9656 1.6679 2
-1 -1 -4 60.0055 1.88616 1
-1 -1 -4 57.3976 1.87062 7
1 1 4 60.7745 2.05281 6
1 1 4 59.6197 1.87234 5
1 1 4 59.0324 1.66808 2
-2 -1 -4 12.7574 0.7644 7
-2 -1 -4 13.0329 0.70204 1
2 1 4 12.4891 0.86653 6
2 1 4 12.7394 0.58413 2
2 1 4 10.3869 0.69072 5
-3 -1 -4 61.5583 1.86141 1
-3 -1 -4 61.0355 2.10529 7
3 1 4 59.6349 2.05229 6
3 1 4 60.3785 2.11599 5
-4 -1 -4 122.931 3.67365 3
-4 -1 -4 127.676 3.36794 1
-4 -1 -4 122.142 3.77298 7
4 1 4 128.77 3.88695 5
4 1 4 131.339 3.68323 6
-5 -1 -4 25.4221 1.35327 7
-5 -1 -4 25.2078 1.26583 8
-5 -1 -4 26.4319 0.914 1
-5 -1 -4 26.7118 1.33145 3
5 1 4 25.6547 1.43285 5
5 1 4 26.5732 1.25626 6
-6 -1 -4 12.3673 1.00705 3
-6 -1 -4 10.4413 0.89624 8
-6 -1 -4 11.76 0.97797 7
6 1 4 9.96917 1.10013 5
-7 -1 -4 0.4513 0.51208 3
-7 -1 -4 0.96737 0.49515 7
-7 -1 -4 1.93146 0.60149 8
7 1 4 1.42645 0.61437 5
-8 -1 -4 50.4928 2.4916 3
-8 -1 -4 52.335 2.38936 8
8 1 4 48.6675 2.66517 5
7 -2 -4 0.29658 0.69231 5
-7 2 4 0.01835 0.54979 8
-7 2 4 -0.117 0.47632 3
6 -2 -4 15.4543 1.60871 5
-6 2 4 16.4531 1.6451 8
-6 2 4 16.3793 1.60094 3
5 -2 -4 49.765 2.40933 5
5 -2 -4 50.2673 1.89866 1
-5 2 4 52.3655 2.3667 6
-5 2 4 53.9979 2.45594 8
-5 2 4 51.12 2.33554 3
4 -2 -4 128.548 4.19617 5
4 -2 -4 123.92 3.67553 1
-4 2 4 127.648 4.07321 3
-4 2 4 124.103 4.11043 8
3 -2 -4 13.3918 0.81661 1
3 -2 -4 10.7773 0.91057 5
-3 2 4 13.8295 1.02107 6
-3 2 4 12.852 0.91024 3
-3 2 4 13.9069 1.04224 8
2 -2 -4 38.5933 1.45193 1
2 -2 -4 35.8942 1.06675 7
-2 2 4 34.7983 1.64047 6
-2 2 4 35.8626 1.47379 3
-2 2 4 36.7689 1.56477 8
1 -2 -4 7.593 0.44046 7
1 -2 -4 8.59357 0.65041 1
-1 2 4 8.0631 0.55382 2
-1 2 4 8.43386 0.5905 3
-1 2 4 8.46737 0.72528 6
0 -2 -4 147.565 3.98234 7
0 -2 -4 162.09 3.92257 2
0 -2 -4 147.304 4.11525 1
0 2 4 151.21 3.83903 2
0 2 4 149.014 4.32058 6
-1 -2 -4 63.0739 2.09197 1
-1 -2 -4 73.761 1.7603 2
-1 -2 -4 67.4402 2.11415 7
1 2 4 67.2912 1.74425 2
1 2 4 69.7174 2.30321 6
1 2 4 65.8907 2.13456 5
-2 -2 -4 264.891 6.86003 1
-2 -2 -4 262.45 6.9791 7
2 2 4 267.711 7.12138 6
2 2 4 275.381 6.99933 5
2 2 4 283.487 6.53456 2
-3 -2 -4 2.70808 0.46903 7
-3 -2 -4 3.95649 0.46115 1
3 2 4 3.77067 0.542 6
3 2 4 3.73249 0.56453 5
-4 -2 -4 32.792 1.24009 1
-4 -2 -4 34.5414 1.53484 7
-4 -2 -4 35.1331 1.40958 3
4 2 4 34.2463 1.55715 5
4 2 4 35.0614 1.54277 6
-5 -2 -4 20.3668 0.88093 1
-5 -2 -4 19.2972 1.12605 3
-5 -2 -4 20.521 1.20256 7
5 2 4 22.058 1.24008 6
-6 -2 -4 26.1009 1.40911 3
-6 -2 -4 26.8134 1.46763 7
-6 -2 -4 26.1487 1.32623 8
6 2 4 27.8238 1.63498 5
6 2 4 23.4447 1.41105 6
-7 -2 -4 17.3123 1.27275 3
-7 -2 -4 15.9311 1.22945 8
-7 -2 -4 17.1857 1.2288 7
7 2 4 13.7597 1.53399 5
-8 -2 -4 0.83765 0.62783 3
8 2 4 -0.3759 0.4548 5
7 -3 -4 -0.374 0.62684 5
-7 3 4 -0.1092 0.58566 3
-7 3 4 0.59857 0.67595 8
6 -3 -4 4.41211 0.96178 5
-6 3 4 3.49344 0.88572 8
-6 3 4 2.96439 0.84591 3
5 -3 -4 1.98394 0.43312 1
5 -3 -4 1.0982 0.67458 5
-5 3 4 2.72999 0.80113 8
-5 3 4 1.44042 0.53407 6
-5 3 4 2.34631 0.62998 3
4 -3 -4 18.1657 1.31924 5
4 -3 -4 21.6162 1.10064 1
-4 3 4 21.1043 1.31745 6
-4 3 4 22.011 1.43459 8
-4 3 4 20.1378 1.2956 3
3 -3 -4 16.2823 0.921 1
3 -3 -4 16.1967 1.14169 5
3 -3 -4 16.1576 0.61898 7
-3 3 4 15.4383 1.0836 8
-3 3 4 17.0541 1.12487 6
-3 3 4 15.0364 1.03219 3
2 -3 -4 71.4403 1.99205 7
2 -3 -4 69.7981 2.27108 1
-2 3 4 68.609 2.42216 8
-2 3 4 65.3667 2.26256 3
-2 3 4 68.5086 2.50231 6
1 -3 -4 51.6874 1.64444 7
1 -3 -4 51.437 1.8231 1
-1 3 4 53.8221 2.02666 6
-1 3 4 50.9897 1.73875 3
-1 3 4 51.5282 1.47106 4
0 -3 -4 461.27 11.675 1
0 -3 -4 480.45 11.2845 2
0 -3 -4 485.352 11.5966 7
0 3 4 460.562 11.9178 6
0 3 4 467.851 11.2752 4
0 3 4 477.63 11.4583 3
-1 -3 -4 6.67704 0.62769 7
1 3 4 4.47154 0.6199 6
-2 -3 -4 149.943 4.18653 7
-2 -3 -4 147.445 4.09134 1
2 3 4 144.892 4.14533 5
2 3 4 151.646 3.55077 2
2 3 4 154.278 4.41045 6
2 3 4 142.155 3.54211 2
-3 -3 -4 14.3054 0.91762 7
-3 -3 -4 13.3419 0.78621 1
3 3 4 12.4045 0.86528 5
3 3 4 13.9218 1.00009 6
-4 -3 -4 209.006 5.45343 1
-4 -3 -4 210.074 5.45208 3
-4 -3 -4 201.862 5.74267 7
4 3 4 208.525 5.83869 5
4 3 4 199.278 5.86313 6
-5 -3 -4 7.80552 0.78213 3
-5 -3 -4 11.7131 0.94802 7
-5 -3 -4 10.7734 0.70597 1
5 3 4 9.69108 1.03613 5
5 3 4 10.7459 0.96011 6
-6 -3 -4 23.4097 1.41395 7
-6 -3 -4 24.0568 1.33474 3
6 3 4 24.2215 1.62433 5
6 3 4 24.6879 1.51697 6
-7 -3 -4 9.94243 1.09103 3
-7 -3 -4 9.79375 1.09764 7
7 3 4 10.2182 1.28919 5
-8 -3 -4 26.5616 1.67889 3
8 3 4 24.0557 1.92883 5
6 -4 -4 159.974 5.59676 5
-6 4 4 151.873 5.30758 3
-6 4 4 164.897 5.58717 8
5 -4 -4 35.9554 2.15052 1
5 -4 -4 36.4807 2.07871 5
-5 4 4 36.9529 2.10344 8
-5 4 4 37.7755 2.0153 3
4 -4 -4 19.0445 1.34522 5
4 -4 -4 19.3654 1.05652 1
-4 4 4 19.639 1.37577 8
-4 4 4 19.1146 1.30693 3
-4 4 4 19.0794 1.28798 6
3 -4 -4 35.4756 1.26995 7
3 -4 -4 34.0279 1.46955 1
3 -4 -4 35.4895 1.73418 5
-3 4 4 32.7484 1.56378 3
-3 4 4 33.9873 1.70567 8
-3 4 4 37.6589 1.72583 6
2 -4 -4 108.02 3.25939 1
2 -4 -4 111.774 3.08339 7
-2 4 4 104.929 3.40129 8
-2 4 4 114.377 3.53247 6
-2 4 4 106.883 3.24932 3
-2 4 4 99.7901 2.99776 4
1 -4 -4 93.0538 2.88827 1
1 -4 -4 94.2309 2.78134 7
-1 4 4 89.9129 2.58182 4
-1 4 4 92.7844 2.70687 3
-1 4 4 94.8043 3.12507 6
0 -4 -4 427.456 10.769 7
0 -4 -4 455.663 10.4431 2
0 -4 -4 406.851 10.8094 1
0 4 4 441.814 11.1332 6
0 4 4 425.732 10.5029 4
0 4 4 430.628 10.4703 3
-1 -4 -4 205.905 5.57927 1
-1 -4 -4 208.725 5.57448 7
1 4 4 199.72 5.31428 4
1 4 4 209.794 5.86841 6
-2 -4 -4 176.941 4.84615 1
-2 -4 -4 171.233 4.90298 7
2 4 4 175.051 5.17792 6
2 4 4 175.863 4.86817 5
-3 -4 -4 238.854 6.58568 7
-3 -4 -4 245.856 6.43769 1
3 4 4 246.64 6.55873 5
3 4 4 236.606 6.80325 6
-4 -4 -4 71.2622 2.25176 3
-4 -4 -4 75.7769 2.45999 1
-4 -4 -4 73.824 2.65336 7
4 4 4 76.7606 2.89698 6
4 4 4 70.861 2.62832 5
-5 -4 -4 27.3255 1.27724 3
-5 -4 -4 28.5903 1.51519 7
-5 -4 -4 29.6292 1.30801 1
5 4 4 25.5949 1.5933 6
5 4 4 24.0307 1.49408 5
-6 -4 -4 0.33177 0.34358 1
-6 -4 -4 0.73254 0.36871 3
-6 -4 -4 0.45048 0.4851 7
6 4 4 0.48667 0.49889 6
6 4 4 0.5036 0.51642 5
-7 -4 -4 8.17838 1.03132 7
-7 -4 -4 8.80994 1.00371 3
7 4 4 8.79194 1.24135 5
-8 -4 -4 11.6327 1.26235 3
8 4 4 12.935 1.65751 5
6 -5 -4 95.0644 3.97868 5
-6 5 4 101.353 4.09574 8
-6 5 4 94.7008 3.81254 3
5 -5 -4 11.8336 1.38162 5
-5 5 4 13.1426 1.4949 8
-5 5 4 14.361 1.43068 3
4 -5 -4 1.77427 0.37464 7
4 -5 -4 1.85839 0.66447 5
4 -5 -4 1.10564 0.37769 1
-4 5 4 3.3371 0.68078 6
-4 5 4 1.65197 0.62048 8
-4 5 4 2.04836 0.60876 3
3 -5 -4 2.47931 0.50267 1
3 -5 -4 3.05652 0.46959 7
3 -5 -4 3.50176 0.66646 5
-3 5 4 2.5286 0.66155 8
-3 5 4 2.17054 0.54592 6
-3 5 4 2.7863 0.5009 4
-3 5 4 4.03151 0.65391 3
2 -5 -4 851.634 20.5863 1
2 -5 -4 835.512 20.4203 7
-2 5 4 819.539 20.8305 6
-2 5 4 865.437 20.3717 4
-2 5 4 828.143 20.7316 8
-2 5 4 857.13 20.4742 3
1 -5 -4 0.36209 0.2536 7
1 -5 -4 -0.179 0.27187 1
-1 5 4 0.35784 0.29315 8
-1 5 4 0.17605 0.20848 4
-1 5 4 -0.0221 0.21057 3
-1 5 4 0.03165 0.31899 6
0 -5 -4 1.60834 0.27507 2
0 -5 -4 1.44723 0.44635 1
0 -5 -4 1.06925 0.32923 7
0 5 4 0.88086 0.40951 6
0 5 4 1.56304 0.3361 4
0 5 4 1.29392 0.24952 3
-1 -5 -4 230.762 6.17161 7
-1 -5 -4 229.15 5.45196 2
1 5 4 225.554 5.42102 3
1 5 4 217.246 6.412 6
1 5 4 217.77 5.90453 4
-2 -5 -4 613.621 15.8908 7
-2 -5 -4 658.896 15.1111 2
2 5 4 617.822 15.7212 4
2 5 4 654.376 16.3099 6
2 5 4 666.59 15.1237 2
2 5 4 621.473 15.7692 5
-3 -5 -4 45.2004 1.90683 7
-3 -5 -4 42.1313 1.30353 2
3 5 4 38.8905 1.7256 5
3 5 4 39.8098 2.00824 6
-4 -5 -4 12.4445 1.00478 7
4 5 4 11.9033 0.97714 5
4 5 4 12.5535 1.17423 6
-5 -5 -4 61.4163 2.10115 3
-5 -5 -4 62.7888 2.33194 1
-5 -5 -4 60.9106 2.51602 7
5 5 4 64.3498 2.57934 5
5 5 4 60.8433 2.77144 6
-6 -5 -4 124.525 4.2342 7
-6 -5 -4 127.841 3.8257 3
-6 -5 -4 122.153 3.85947 1
6 5 4 125.63 4.37758 5
6 5 4 125.803 4.56337 6
-7 -5 -4 30.7631 1.65764 3
-7 -5 -4 38.9561 2.04483 7
7 5 4 32.2246 2.09278 5
-8 -5 -4 1.73282 0.63509 3
8 5 4 1.85773 0.78864 5
6 -6 -4 7.85947 1.27381 5
-6 6 4 8.62536 1.27743 8
-6 6 4 7.75465 1.21902 3
5 -6 -4 0.86119 0.64863 5
-5 6 4 0.32888 0.54828 3
-5 6 4 0.57036 0.62136 8
4 -6 -4 253.747 6.72807 7
4 -6 -4 257.753 6.89004 1
4 -6 -4 246.743 7.37878 5
-4 6 4 240.316 7.37183 8
-4 6 4 251.959 7.10814 3
3 -6 -4 14.9466 1.04292 1
3 -6 -4 16.618 1.23614 5
3 -6 -4 16.4391 1.02311 7
-3 6 4 15.7191 1.06677 3
-3 6 4 15.7241 1.203 8
-3 6 4 14.9651 1.16794 6
-3 6 4 15.7527 1.04125 4
2 -6 -4 141.059 4.15943 7
2 -6 -4 134.943 4.19283 1
-2 6 4 135.098 4.00085 3
-2 6 4 150.538 4.54539 6
-2 6 4 139.679 4.33759 8
-2 6 4 133.131 4.05106 4
1 -6 -4 2.9828 0.59244 1
1 -6 -4 2.58724 0.48948 7
1 -6 -4 2.67251 0.43384 2
-1 6 4 2.98195 0.57546 8
-1 6 4 3.27965 0.44133 3
-1 6 4 2.90243 0.48089 4
-1 6 4 2.42901 0.5761 6
0 -6 -4 861.741 21.0651 1
0 -6 -4 865.125 21.0465 7
0 -6 -4 827.847 20.4422 2
0 6 4 862.487 20.8202 4
0 6 4 896.269 20.3178 3
0 6 4 823.356 21.3632 6
-1 -6 -4 20.1865 1.20265 7
-1 -6 -4 19.4813 0.76267 2
1 6 4 18.6683 1.05809 4
1 6 4 18.5966 1.31355 6
-2 -6 -4 72.7957 2.69606 7
-2 -6 -4 76.5934 2.03772 2
2 6 4 70.3897 2.93731 6
2 6 4 71.0549 2.5585 4
2 6 4 72.1843 2.54464 5
-3 -6 -4 81.2646 3.0069 7
-3 -6 -4 84.2813 2.37602 2
3 6 4 85.1028 2.98667 4
3 6 4 83.8166 3.36996 6
3 6 4 86.3076 2.91369 5
-4 -6 -4 68.2021 2.13396 2
-4 -6 -4 66.8547 2.70215 7
4 6 4 64.3552 2.97555 6
4 6 4 71.0705 2.62402 5
-5 -6 -4 -0.2775 0.28273 7
5 6 4 0.42719 0.4536 5
5 6 4 0.54084 0.58263 6
-6 -6 -4 32.1979 1.8876 7
6 6 4 33.5914 1.9577 5
6 6 4 32.5843 2.17931 6
-7 -6 -4 3.22772 0.79263 7
7 6 4 5.02599 1.01441 5
5 -7 -4 15.6981 1.63971 5
-5 7 4 14.8973 1.4658 3
-5 7 4 14.9948 1.60883 8
4 -7 -4 59.7736 2.40164 1
4 -7 -4 59.2735 2.33798 7
4 -7 -4 62.2204 2.77432 5
-4 7 4 65.9485 2.59485 3
-4 7 4 60.6414 2.81288 8
-4 7 4 57.8086 2.48148 4
3 -7 -4 21.0296 1.44702 5
3 -7 -4 20.667 1.26177 7
3 -7 -4 19.5696 1.27047 1
-3 7 4 20.0737 1.25091 4
-3 7 4 19.3849 1.37547 6
-3 7 4 20.0764 1.24722 3
-3 7 4 19.5711 1.42265 8
2 -7 -4 104.367 3.22914 2
2 -7 -4 98.0101 3.38135 1
2 -7 -4 99.0004 3.33595 7
-2 7 4 96.4217 3.57444 6
-2 7 4 98.581 3.2525 4
-2 7 4 95.2081 3.40723 8
-2 7 4 98.1523 3.07118 3
1 -7 -4 53.8426 2.26367 1
1 -7 -4 54.6482 1.93455 2
1 -7 -4 52.3141 2.20297 7
-1 7 4 53.7304 2.43744 6
-1 7 4 53.7378 2.10552 4
-1 7 4 54.3843 1.7818 3
-1 7 4 51.9969 2.11931 8
0 -7 -4 249 6.96767 1
0 -7 -4 247.682 6.95258 7
0 -7 -4 246.144 6.35959 2
0 7 4 225.541 7.16677 6
0 7 4 260.173 6.92767 8
0 7 4 252.702 6.7797 4
-1 -7 -4 20.8336 0.87989 2
-1 -7 -4 19.0314 1.28146 7
1 7 4 20.0619 1.20616 4
1 7 4 20.3343 1.53347 6
-2 -7 -4 16.8494 0.77198 2
-2 -7 -4 17.0006 1.25721 7
2 7 4 16.5754 1.14953 4
2 7 4 17.1987 1.42254 6
-3 -7 -4 8.73443 0.60145 2
-3 -7 -4 8.29629 1.01856 7
3 7 4 5.41189 0.95778 6
3 7 4 8.41398 1.02079 4
3 7 4 8.12795 0.91774 5
-4 -7 -4 97.7579 2.95249 2
-4 -7 -4 99.8696 3.63698 7
4 7 4 101.383 4.04611 6
4 7 4 103.803 3.69199 4
4 7 4 98.3193 3.4296 5
-5 -7 -4 11.4125 1.31475 7
5 7 4 7.59425 1.27467 6
5 7 4 8.7123 1.20657 4
5 7 4 9.15626 1.1373 5
-6 -7 -4 1.00179 0.63054 7
6 7 4 1.2115 0.72705 6
6 7 4 0.92325 0.57428 5
-7 -7 -4 1.33374 0.67571 7
7 7 4 0.02244 0.50699 5
5 -8 -4 7.22013 1.19768 5
-5 8 4 6.85857 1.05274 3
-5 8 4 6.58216 1.22156 8
4 -8 -4 31.4603 1.91717 5
4 -8 -4 27.5103 1.60575 1
4 -8 -4 28.2947 1.60432 7
-4 8 4 25.9876 1.87181 8
-4 8 4 28.0221 1.70592 4
-4 8 4 29.8699 1.71308 3
3 -8 -4 15.1289 1.18788 1
3 -8 -4 15.315 1.14657 2
3 -8 -4 16.1936 1.23064 7
3 -8 -4 14.693 1.25047 5
-3 8 4 15.5362 1.13132 3
-3 8 4 17.3279 1.23796 4
-3 8 4 15.3111 1.52531 8
2 -8 -4 189.751 5.64998 1
2 -8 -4 184.618 5.31866 2
2 -8 -4 178.671 5.55221 7
-2 8 4 178.125 5.58382 8
-2 8 4 183.131 5.82693 6
-2 8 4 178.301 5.47048 4
-2 8 4 201.434 6.11845 3
1 -8 -4 9.62972 1.08629 1
1 -8 -4 13.3025 0.9255 2
1 -8 -4 9.69666 1.08173 7
-1 8 4 11.9176 1.15027 4
-1 8 4 13.9528 1.06661 8
-1 8 4 13.9784 1.27946 6
0 -8 -4 86.8673 3.24274 7
0 -8 -4 84.1879 2.67694 2
0 8 4 79.6468 3.42296 6
0 8 4 84.8905 3.07953 4
0 8 4 90.7243 2.86769 8
-1 -8 -4 122.258 4.19361 7
-1 -8 -4 121.724 3.4648 2
1 8 4 126.559 4.60193 6
1 8 4 121.31 4.03798 4
-2 -8 -4 132.269 4.47136 7
-2 -8 -4 124.965 3.60656 2
2 8 4 137.923 4.90386 6
2 8 4 131.508 4.32834 4
-3 -8 -4 111.071 3.51255 2
-3 -8 -4 103.472 3.81668 7
3 8 4 101.89 4.21025 6
3 8 4 96.7525 3.65164 4
3 8 4 101.985 3.48378 5
-4 -8 -4 -0.0791 0.47518 7
4 8 4 -0.4039 0.60676 6
4 8 4 0.21115 0.42763 4
4 8 4 -0.2581 0.35339 5
-5 -8 -4 27.4924 1.85411 7
5 8 4 29.639 2.27875 6
5 8 4 30.9187 1.77054 5
5 8 4 32.8661 2.06383 4
-6 -8 -4 0.09151 0.49474 7
6 8 4 -0.6532 0.45668 5
6 8 4 0.16508 0.57063 4
4 -9 -4 20.9403 1.47465 1
4 -9 -4 24.2383 1.65343 2
4 -9 -4 24.3489 1.64009 7
4 -9 -4 20.8344 1.60933 5
-4 9 4 20.8881 1.55972 4
-4 9 4 21.5113 1.75468 8
3 -9 -4 0.75467 0.46301 1
3 -9 -4 0.64791 0.45107 5
3 -9 -4 0.97801 0.50882 2
3 -9 -4 0.81681 0.5062 7
-3 9 4 1.01649 0.59525 8
-3 9 4 0.37279 0.47196 4
2 -9 -4 -0.2346 0.38372 7
2 -9 -4 0.60957 0.4389 5
2 -9 -4 0.25354 0.44233 1
2 -9 -4 0.28024 0.35657 2
-2 9 4 -0.2137 0.41167 4
-2 9 4 0.2207 0.52568 6
-2 9 4 -0.2021 0.35876 8
1 -9 -4 0.25242 0.37345 2
1 -9 -4 -0.1937 0.37683 7
1 -9 -4 0.05108 0.42795 1
-1 9 4 0.0603 0.54163 6
-1 9 4 0.10181 0.38732 8
-1 9 4 -0.2058 0.36282 4
0 -9 -4 34.9501 1.50745 2
0 -9 -4 31.2311 1.88457 7
0 9 4 33.1786 1.83004 4
0 9 4 33.1761 2.16628 6
-1 -9 -4 3.36915 0.5983 2
-1 -9 -4 4.52828 0.89689 7
1 9 4 3.78771 0.78306 4
1 9 4 4.16899 1.02344 6
-2 -9 -4 33.2493 1.97191 7
2 9 4 30.1253 2.21955 6
2 9 4 31.6482 1.82831 4
-3 -9 -4 2.59167 0.72066 7
3 9 4 3.32709 0.85901 4
3 9 4 2.64581 0.98989 6
-4 -9 -4 53.5232 2.7178 7
4 9 4 56.2966 2.7531 4
4 9 4 54.3385 2.37973 5
4 9 4 51.2077 3.08548 6
-5 -9 -4 151.482 5.44717 7
5 9 4 159.176 5.57597 4
5 9 4 158.927 5.14105 5
3 -10 -4 58.9735 2.65876 2
3 -10 -4 60.0764 2.8422 7
3 -10 -4 67.2074 2.87017 5
3 -10 -4 64.0456 2.89182 1
-3 10 4 66.0081 3.02935 8
-3 10 4 61.6178 2.86932 4
2 -10 -4 0.42933 0.59323 1
2 -10 -4 -0.0113 0.41027 2
2 -10 -4 -0.293 0.45039 7
2 -10 -4 0.85317 0.47766 5
-2 10 4 0.7168 0.53341 8
-2 10 4 -0.3701 0.41162 4
-2 10 4 -0.2331 0.54722 6
1 -10 -4 4.91795 1.17287 2
1 -10 -4 4.91216 0.9674 1
1 -10 -4 3.7455 0.92915 7
-1 10 4 3.59145 0.8183 4
-1 10 4 5.51622 1.13893 6
0 -10 -4 -0.1762 0.47631 7
0 10 4 0.40157 0.50521 4
0 10 4 -0.1205 0.54406 6
-1 -10 -4 19.8672 1.61391 7
1 10 4 18.9414 1.81883 6
1 10 4 16.1108 1.60656 4
-2 -10 -4 -0.3467 0.4721 7
2 10 4 -0.2347 0.57511 6
2 10 4 0.04985 0.5378 4
-3 -10 -4 1.22365 0.66701 7
3 10 4 2.37602 0.82702 4
3 10 4 2.62475 0.91025 6
-4 -10 -4 17.624 1.90998 7
4 10 4 18.4405 2.21831 6
4 10 4 19.6472 1.93052 4
1 -11 -4 14.046 1.61426 1
1 -11 -4 12.2975 1.5279 7
-1 11 4 15.46 1.82949 6
-1 11 4 15.954 1.632 4
0 -11 -4 19.3354 1.93213 7
0 11 4 18.7124 1.87731 6
0 11 4 20.6014 1.67306 4
-1 -11 -4 10.8614 1.46967 7
1 11 4 13.7209 1.59554 4
1 11 4 11.8704 1.7547 6
-2 -11 -4 3.51221 0.97971 7
2 11 4 4.96752 1.35866 6
2 11 4 4.60602 1.05619 4
-3 -11 -4 6.40846 1.20795 7
3 11 4 7.54826 1.33307 4
3 11 4 8.73923 1.64962 6
2 8 -5 0.69483 0.66842 4
-2 -8 5 -0.0888 0.53174 7
1 8 -5 11.7284 1.48739 4
-1 -8 5 13.3952 1.55904 2
0 8 -5 51.9488 2.67726 4
0 8 -5 49.923 2.44751 8
0 -8 5 46.2885 2.52594 2
-1 8 -5 6.67904 1.14196 4
-1 8 -5 7.00909 1.09493 8
1 -8 5 6.59144 1.10421 2
-2 8 -5 1.67382 0.71076 8
-2 8 -5 2.73984 0.84404 4
2 -8 5 2.42823 0.80859 2
-3 8 -5 12.639 1.57511 4
-3 8 -5 13.1587 1.57511 8
3 -8 5 13.1493 1.56992 2
-4 8 -5 27.5335 2.04881 4
-4 8 -5 22.0089 1.84745 8
3 7 -5 5.23584 1.09322 4
-3 -7 5 4.1871 0.98036 2
-3 -7 5 5.18988 0.88437 3
-3 -7 5 4.37531 0.85281 7
2 7 -5 51.8808 2.61315 4
-2 -7 5 48.4096 2.54298 2
-2 -7 5 46.7994 2.16889 3
1 7 -5 8.8349 1.17501 4
-1 -7 5 14.8943 1.5256 2
0 7 -5 22.1916 1.6447 4
0 7 -5 24.028 1.54114 8
0 -7 5 20.8981 1.57912 2
-1 7 -5 0.30798 0.51322 8
-1 7 -5 0.28207 0.47256 4
1 -7 5 0.21692 0.45984 2
-2 7 -5 95.2483 3.72986 4
-2 7 -5 90.2138 3.55573 8
2 -7 5 88.2941 3.53981 2
-3 7 -5 1.93506 0.73349 8
-3 7 -5 2.22169 0.84309 4
3 -7 5 1.17205 0.61847 2
-4 7 -5 4.14073 1.01588 4
-4 7 -5 2.69499 0.85934 8
4 -7 5 3.85541 0.89564 2
-5 7 -5 6.73683 1.25708 8
-5 7 -5 5.52087 1.12264 4
5 -7 5 6.51985 1.14958 2
4 6 -5 66.5994 3.04361 4
-4 -6 5 62.3515 2.76783 3
-4 -6 5 69.0583 3.21096 2
3 6 -5 2.57534 0.74007 4
-3 -6 5 2.39541 0.68341 7
-3 -6 5 3.29067 0.74192 3
-3 -6 5 3.49262 0.91452 2
2 6 -5 204.723 6.35951 4
-2 -6 5 212.373 6.43428 2
-2 -6 5 202.476 6.00659 3
1 6 -5 8.44449 1.06545 4
-1 -6 5 7.71946 1.12115 2
0 6 -5 34.9132 1.90404 4
0 -6 5 32.149 1.83195 2
-1 6 -5 21.3263 1.43569 8
-1 6 -5 23.2821 1.53933 4
1 -6 5 25.6634 1.62745 2
-2 6 -5 196.792 6.14996 4
-2 6 -5 204.812 6.13797 8
2 -6 5 196.958 6.06303 2
-3 6 -5 41.9779 2.23918 4
-3 6 -5 42.0722 2.21273 8
3 -6 5 40.4494 2.13498 2
-4 6 -5 71.813 3.09672 4
-4 6 -5 69.394 3.10098 8
4 -6 5 67.8708 2.94644 2
-5 6 -5 -0.3548 0.47347 4
-5 6 -5 0.31502 0.59797 8
5 -6 5 -0.2049 0.56379 2
-6 6 -5 30.0186 2.10244 8
-6 6 -5 26.2876 2.09715 4
6 -6 5 28.631 2.02046 2
5 5 -5 5.22242 0.96401 4
-5 -5 5 3.4309 0.78535 3
4 5 -5 137.924 4.74043 4
-4 -5 5 135.74 4.88839 2
-4 -5 5 139.863 4.60411 3
3 5 -5 24.6499 1.71 1
3 5 -5 28.0126 1.67373 4
-3 -5 5 25.9427 1.47709 7
-3 -5 5 23.1912 1.64216 2
-3 -5 5 24.7037 1.51617 3
2 5 -5 27.6488 1.75681 1
2 5 -5 26.9344 1.63002 4
-2 -5 5 27.2025 1.70505 2
-2 -5 5 28.0282 1.54768 3
1 5 -5 18.0013 1.35504 1
1 5 -5 16.048 1.22805 4
-1 -5 5 16.9732 1.27952 2
0 5 -5 315.269 8.75709 1
0 5 -5 312.466 8.60883 4
0 -5 5 317.321 8.65853 2
-1 5 -5 0.32965 0.43116 1
-1 5 -5 -0.0764 0.3309 4
1 -5 5 -0.489 0.32371 2
-2 5 -5 135.266 4.38413 8
-2 5 -5 138.7 4.41606 4
-2 5 -5 131.238 4.30745 1
2 -5 5 132.736 4.3196 2
-3 5 -5 76.1063 3.02848 4
-3 5 -5 73.2783 2.977 8
3 -5 5 76.1707 2.95493 2
3 -5 5 77.0023 2.837 5
-4 5 -5 104.022 3.89723 4
-4 5 -5 108.145 3.93603 8
4 -5 5 105.243 3.79135 2
4 -5 5 107.524 3.26125 5
-5 5 -5 8.4361 1.26086 8
-5 5 -5 10.318 1.27695 4
5 -5 5 10.7567 1.04901 5
5 -5 5 9.95444 1.27899 2
-6 5 -5 111.569 4.33536 8
-6 5 -5 109.775 4.35747 4
6 -5 5 109.651 4.15485 2
6 -5 5 106.863 3.80715 5
-7 5 -5 84.0787 3.7504 8
7 -5 5 82.6818 3.39247 5
5 4 -5 -0.0465 0.5263 4
-5 -4 5 -0.367 0.47188 2
-5 -4 5 0.33074 0.52395 3
4 4 -5 6.81059 0.99785 4
4 4 -5 10.1982 1.24056 1
-4 -4 5 7.4245 1.12267 2
-4 -4 5 9.0828 1.1276 3
3 4 -5 9.77141 1.07516 4
3 4 -5 8.6533 1.06313 1
-3 -4 5 6.58035 0.99597 2
-3 -4 5 10.222 1.1123 3
2 4 -5 191.812 5.64868 4
2 4 -5 197.905 5.89258 1
-2 -4 5 195.734 5.85501 2
-2 -4 5 190.096 5.61153 3
1 4 -5 37.5067 1.88857 1
1 4 -5 39.5952 1.78737 4
-1 -4 5 38.4783 1.84379 2
0 4 -5 190.48 5.57085 4
0 4 -5 199.228 5.7974 1
0 -4 5 196.085 5.67203 2
-1 4 -5 23.8431 1.3383 4
-1 4 -5 23.9695 1.3931 1
1 -4 5 23.8504 1.34617 2
-2 4 -5 151.83 4.75619 8
-2 4 -5 159.768 4.76168 4
-2 4 -5 155.375 4.66687 1
2 -4 5 155.488 4.7078 2
2 -4 5 154.65 3.97539 5
-3 4 -5 19.3709 1.33861 8
-3 4 -5 21.0099 1.33036 4
-3 4 -5 17.5733 1.15672 1
3 -4 5 19.3589 0.92231 5
3 -4 5 19.07 1.2406 2
-4 4 -5 191.753 5.82954 4
-4 4 -5 189.086 5.85183 8
4 -4 5 194.081 5.74264 2
4 -4 5 191.241 5.32195 5
-5 4 -5 9.41325 1.22771 8
-5 4 -5 7.51274 1.0873 4
5 -4 5 11.1278 1.27968 2
5 -4 5 10.1469 1.02232 5
-6 4 -5 0.07811 0.55033 8
6 -4 5 -0.241 0.4215 2
6 -4 5 0.16163 0.38614 5
-7 4 -5 31.5486 2.08201 8
7 -4 5 27.9515 1.98936 2
7 -4 5 32.6658 1.95422 5
6 3 -5 33.551 2.08487 5
6 3 -5 36.3084 2.0699 4
5 3 -5 8.61542 1.13387 1
5 3 -5 10.1673 1.17532 5
5 3 -5 8.57903 1.11682 4
-5 -3 5 7.49348 1.22626 2
-5 -3 5 8.39095 1.14645 3
4 3 -5 0.84417 0.56949 1
4 3 -5 0.44005 0.41412 4
4 3 -5 1.04811 0.46884 5
-4 -3 5 0.57236 0.61134 2
-4 -3 5 0.49749 0.47727 3
3 3 -5 34.453 1.83391 1
3 3 -5 39.3666 1.78416 4
3 3 -5 39.1541 1.64223 5
-3 -3 5 37.7387 1.83458 3
-3 -3 5 37.5562 1.92702 2
2 3 -5 266.599 7.41433 1
2 3 -5 263.805 7.14396 4
2 3 -5 269.488 6.87291 5
-2 -3 5 257.575 7.21322 3
-2 -3 5 264.997 7.399 2
1 3 -5 59.9681 2.35454 1
1 3 -5 57.3783 1.7853 5
1 3 -5 57.1313 2.1264 4
-1 -3 5 56.7615 2.24926 2
0 3 -5 11.6322 0.83429 4
0 3 -5 12.3778 0.54816 5
0 3 -5 9.52717 0.97824 1
0 -3 5 11.8115 0.89966 2
-1 3 -5 325.598 8.55083 4
-1 3 -5 335.405 7.97364 5
-1 3 -5 327.297 8.68633 1
1 -3 5 320.973 8.59485 2
-2 3 -5 230.473 6.34264 1
-2 3 -5 226.923 6.35304 4
2 -3 5 235.743 5.85797 5
2 -3 5 233.546 6.37779 2
-3 3 -5 33.3732 1.47711 1
-3 3 -5 34.0204 1.68139 8
-3 3 -5 32.5924 1.60679 4
3 -3 5 31.912 1.30421 5
3 -3 5 31.6169 1.5748 2
-4 3 -5 9.2976 0.75272 1
-4 3 -5 13.4035 1.25159 4
-4 3 -5 11.2558 1.14681 8
4 -3 5 12.3883 1.19406 2
4 -3 5 11.1547 0.85561 5
-5 3 -5 6.50668 1.02492 4
-5 3 -5 5.3488 0.90105 8
5 -3 5 6.07833 0.87077 2
5 -3 5 5.10991 0.7514 5
-6 3 -5 205.551 6.40421 8
6 -3 5 212.351 6.24045 5
6 -3 5 205.117 6.2834 2
-7 3 -5 4.93793 1.00531 8
7 -3 5 4.15085 0.89818 5
7 -3 5 6.50308 1.08492 2
-8 3 -5 10.7116 1.50816 8
8 -3 5 13.3513 1.62439 5
6 2 -5 23.0721 1.58147 4
6 2 -5 21.2032 1.65806 5
-6 -2 5 20.2886 1.8741 3
-6 -2 5 15.506 1.73702 2
5 2 -5 18.9238 1.39095 1
5 2 -5 24.1791 1.58843 5
5 2 -5 22.5099 1.45142 4
-5 -2 5 22.0962 1.56018 3
-5 -2 5 21.4013 1.60663 2
4 2 -5 149.193 4.66642 5
4 2 -5 152.569 4.5964 4
4 2 -5 150.482 4.70979 1
-4 -2 5 149.032 4.88512 2
-4 -2 5 149.041 4.77508 3
3 2 -5 0.74338 0.36538 4
3 2 -5 1.85955 0.43849 5
3 2 -5 1.37236 0.52536 1
-3 -2 5 1.02825 0.43717 3
-3 -2 5 2.19608 0.60722 2
2 2 -5 391.886 10.2313 5
2 2 -5 394.788 10.5694 1
2 2 -5 425.206 10.3338 4
-2 -2 5 408.222 10.6058 2
-2 -2 5 414.287 10.5394 3
1 2 -5 61.9303 2.32209 1
1 2 -5 59.5918 1.91823 5
1 2 -5 61.3762 2.05854 4
-1 -2 5 58.1546 2.21763 2
0 2 -5 662.585 15.9765 4
0 2 -5 656.767 16.2503 1
0 -2 5 645.169 16.1419 2
-1 2 -5 656.383 16.0636 4
-1 2 -5 650.399 16.2178 1
1 -2 5 664.41 16.1715 2
-2 2 -5 185.257 5.2452 7
-2 2 -5 182.569 5.10689 4
-2 2 -5 179.7 5.08686 1
2 -2 5 188.505 4.82454 5
2 -2 5 186.317 5.12644 2
-3 2 -5 14.9883 1.03191 7
-3 2 -5 15.0515 0.98844 4
-3 2 -5 16.1054 1.04707 8
-3 2 -5 15.419 0.9031 1
3 -2 5 16.6875 0.90675 5
3 -2 5 16.5978 0.92705 6
3 -2 5 16.0157 0.97787 2
-4 2 -5 130.212 4.07692 4
-4 2 -5 125.418 4.03187 7
-4 2 -5 130.035 3.63004 1
-4 2 -5 125.69 4.04343 8
4 -2 5 127.841 3.84929 5
4 -2 5 124.271 3.90673 2
-5 2 -5 85.6341 2.53242 1
-5 2 -5 82.6655 3.13845 8
-5 2 -5 88.4753 3.15511 7
5 -2 5 86.8105 3.05777 2
5 -2 5 87.3825 3.05232 5
-6 2 -5 14.4877 1.19425 7
-6 2 -5 17.283 1.36978 8
6 -2 5 14.8987 1.39387 2
6 -2 5 15.7758 1.24777 5
-7 2 -5 22.3025 1.53999 7
-7 2 -5 23.4625 1.67031 3
-7 2 -5 23.255 1.69255 8
7 -2 5 20.7975 1.56475 5
-8 2 -5 55.3518 2.81429 3
-8 2 -5 58.6178 2.88541 8
8 -2 5 56.0544 2.89149 5
6 1 -5 30.5163 2.02043 5
-6 -1 5 33.4098 2.03884 3
5 1 -5 11.509 1.25556 5
5 1 -5 13.6074 1.13148 1
-5 -1 5 15.4802 1.49073 2
-5 -1 5 13.3608 1.39964 3
4 1 -5 89.0771 2.93885 4
4 1 -5 87.9334 3.05379 1
4 1 -5 83.3544 3.11282 5
-4 -1 5 85.6331 3.24048 2
-4 -1 5 85.0135 3.15233 3
3 1 -5 142.216 3.99595 4
3 1 -5 139.733 4.20254 5
3 1 -5 133.248 4.17755 1
-3 -1 5 136.688 4.26139 3
-3 -1 5 132.298 4.28671 2
2 1 -5 191.987 5.18971 5
2 1 -5 184.617 4.98241 4
2 1 -5 181.883 5.31236 1
-2 -1 5 190.298 5.32203 3
-2 -1 5 185.195 5.32465 2
1 1 -5 499.65 12.4559 1
1 1 -5 503.718 12.0503 4
-1 -1 5 475.765 12.342 2
0 1 -5 938.224 21.8815 4
0 1 -5 910.282 22.2479 1
0 -1 5 900.392 22.0967 2
-1 1 -5 278.263 7.14582 4
-1 1 -5 288.805 7.37429 7
-1 1 -5 283.853 7.3957 1
1 -1 5 280.788 7.27081 2
-2 1 -5 2.47321 0.46207 7
-2 1 -5 3.61 0.48789 4
-2 1 -5 1.95535 0.39873 1
2 -1 5 2.8435 0.39107 5
2 -1 5 2.96396 0.49736 6
2 -1 5 1.99699 0.41412 2
-3 1 -5 174.701 4.77679 1
-3 1 -5 177.53 5.08567 7
-3 1 -5 182.617 5.00722 4
-3 1 -5 179.52 5.04982 8
3 -1 5 173.517 4.83928 5
3 -1 5 178.46 4.85722 6
3 -1 5 174.536 4.87506 2
-4 1 -5 296.426 7.99391 7
-4 1 -5 285.318 7.45005 1
-4 1 -5 307.426 7.96438 8
4 -1 5 291.402 7.82426 5
4 -1 5 299.317 7.80628 2
-5 1 -5 64.5392 1.90521 1
-5 1 -5 60.9509 2.44413 8
-5 1 -5 62.4435 2.46941 7
5 -1 5 60.3415 2.40701 5
5 -1 5 60.2637 2.3646 2
-6 1 -5 0.23224 0.36417 7
-6 1 -5 0.52955 0.38813 3
-6 1 -5 -0.2176 0.40069 8
6 -1 5 -0.3395 0.27438 5
-7 1 -5 0.6202 0.49066 3
-7 1 -5 0.7514 0.54975 8
-7 1 -5 0.8798 0.49771 7
7 -1 5 0.41778 0.51744 5
-8 1 -5 0.41459 0.45684 7
-8 1 -5 -0.3802 0.5593 8
-8 1 -5 -0.1917 0.55984 3
8 -1 5 1.10851 0.63429 5
6 0 -5 5.44385 1.01275 5
-6 0 5 2.95738 0.85256 8
-6 0 5 5.54517 0.9901 3
5 0 -5 0.93748 0.44181 1
5 0 -5 0.84751 0.60202 5
-5 0 5 1.6846 0.65352 8
-5 0 5 1.18519 0.65525 3
4 0 -5 52.2918 2.11321 1
4 0 -5 49.7264 2.25879 5
-4 0 5 55.2783 2.35013 3
-4 0 5 56.276 2.35354 2
3 0 -5 58.0412 2.22879 5
3 0 -5 50.8857 2.07823 1
-3 0 5 52.9726 2.20698 3
-3 0 5 57.5112 2.22308 2
2 0 -5 506.248 12.7281 5
2 0 -5 517.596 12.7492 1
2 0 -5 514.561 12.3318 4
-2 0 5 508.214 12.7627 2
-2 0 5 488.973 12.7536 3
1 0 -5 10.2335 0.52368 4
1 0 -5 10.4176 0.59528 7
1 0 -5 9.75332 0.79612 1
-1 0 5 10.1077 0.75796 2
0 0 -5 118.812 3.08633 4
0 0 -5 118.218 3.51689 1
0 0 -5 120.493 3.33707 7
0 0 5 116.733 3.35399 2
-1 0 -5 294.67 7.38982 7
-1 0 -5 290.483 7.09429 4
-1 0 -5 287.234 7.41968 1
1 0 5 282.078 7.58004 6
1 0 5 277.746 7.21278 2
-2 0 -5 1563.9 37.0828 1
-2 0 -5 1527.81 37.2329 7
-2 0 -5 1595.42 37.0053 4
2 0 5 1573.4 37.2616 6
2 0 5 1561.32 37.045 5
2 0 5 1546.2 36.9592 2
-3 0 -5 220.743 5.99756 7
-3 0 -5 220.015 5.6817 1
3 0 5 215.762 5.68075 2
3 0 5 208.181 5.76858 6
3 0 5 219.829 5.84182 5
-4 0 -5 4.29756 0.61989 8
-4 0 -5 3.61188 0.44871 1
-4 0 -5 2.87503 0.55591 7
4 0 5 4.54271 0.56199 6
4 0 5 3.78137 0.57875 5
4 0 5 3.62497 0.54161 2
-5 0 -5 14.7334 1.09347 7
-5 0 -5 14.499 0.68215 1
-5 0 -5 13.4818 0.99585 8
5 0 5 13.3398 1.06489 5
-6 0 -5 59.0982 2.37339 8
-6 0 -5 59.4526 2.45861 3
-6 0 -5 56.2782 2.40688 7
6 0 5 60.301 2.56244 5
-7 0 -5 122.064 4.13965 8
-7 0 -5 117.911 4.20467 3
-7 0 -5 126.232 4.17372 7
7 0 5 124.41 4.43299 5
-8 0 -5 1.0973 0.60363 8
-8 0 -5 1.37684 0.73127 3
-8 0 -5 0.53014 0.4572 7
8 0 5 0.57301 0.54376 5
6 -1 -5 0.93614 0.58872 5
-6 1 5 0.73568 0.65691 3
-6 1 5 1.82562 0.7575 8
5 -1 -5 23.5079 1.65217 5
5 -1 -5 26.0469 1.37946 1
-5 1 5 26.2378 1.71698 8
-5 1 5 24.4481 1.65007 3
4 -1 -5 22.5399 1.23318 1
4 -1 -5 20.8031 1.40906 5
-4 1 5 18.8203 1.37449 8
-4 1 5 19.6161 1.3586 3
3 -1 -5 51.3647 1.95889 1
3 -1 -5 47.2606 2.05352 5
-3 1 5 51.0223 2.03642 2
-3 1 5 47.0416 2.02445 3
-3 1 5 50.1157 2.11553 8
2 -1 -5 130.683 3.85801 1
-2 1 5 126.459 3.81764 2
-2 1 5 132.692 3.31419 7
-2 1 5 131.06 3.92004 3
1 -1 -5 146.466 3.88432 7
1 -1 -5 154.49 4.26175 1
-1 1 5 145.64 4.10262 2
0 -1 -5 168.363 4.37734 7
0 -1 -5 157.846 4.52536 1
0 1 5 163.261 4.79881 6
0 1 5 165.869 4.33829 2
-1 -1 -5 3.18654 0.50835 1
-1 -1 -5 3.30101 0.47366 7
1 1 5 2.93103 0.35921 2
1 1 5 2.46673 0.51484 6
-2 -1 -5 1.76447 0.40091 7
-2 -1 -5 1.14557 0.33577 1
2 1 5 1.64462 0.43026 6
2 1 5 1.99982 0.31357 2
2 1 5 1.58211 0.36051 5
-3 -1 -5 131.264 3.87964 7
-3 -1 -5 130.407 3.61733 1
3 1 5 131.024 3.82324 6
3 1 5 133.002 3.85311 5
3 1 5 124.456 3.5136 2
-4 -1 -5 322.063 8.62245 7
-4 -1 -5 322.92 8.17145 1
4 1 5 329.628 8.46858 6
4 1 5 332.269 8.67685 5
-5 -1 -5 26.6365 1.33348 8
-5 -1 -5 27.0463 1.47324 7
-5 -1 -5 27.0294 1.04895 1
5 1 5 27.5479 1.29747 6
5 1 5 26.0644 1.4767 5
-6 -1 -5 44.8363 2.03851 7
-6 -1 -5 44.0908 1.93027 8
-6 -1 -5 48.3133 2.06901 3
6 1 5 44.9923 2.18478 5
-7 -1 -5 65.6274 2.60564 8
-7 -1 -5 63.7044 2.7153 3
-7 -1 -5 63.7148 2.69344 7
7 1 5 68.2972 2.98268 5
-8 -1 -5 0.46174 0.49274 7
-8 -1 -5 0.94976 0.54401 3
-8 -1 -5 0.68741 0.51994 8
8 1 5 0.75161 0.60673 5
6 -2 -5 12.5085 1.52108 5
-6 2 5 16.4592 1.69845 3
-6 2 5 14.5553 1.60456 8
5 -2 -5 7.95631 0.86803 1
5 -2 -5 7.13811 1.04794 5
-5 2 5 7.12209 1.01592 8
-5 2 5 6.85641 1.00109 3
-5 2 5 7.753 1.13888 6
4 -2 -5 20.4675 1.4296 5
4 -2 -5 19.1434 1.14596 1
-4 2 5 19.2559 1.40325 6
-4 2 5 20.4986 1.38637 3
-4 2 5 22.7543 1.43441 8
3 -2 -5 77.2762 2.93322 5
3 -2 -5 80.8651 2.72193 1
-3 2 5 84.4872 2.99502 8
-3 2 5 84.6776 3.13166 6
-3 2 5 84.6686 2.90953 3
2 -2 -5 1.24552 0.19586 7
2 -2 -5 1.08705 0.37661 1
-2 2 5 0.65719 0.37571 3
-2 2 5 0.52318 0.35149 8
-2 2 5 0.63777 0.34264 2
-2 2 5 0.78662 0.20066 7
-2 2 5 0.81103 0.43025 6
1 -2 -5 51.8288 1.86127 1
1 -2 -5 49.9945 1.56077 7
-1 2 5 48.987 1.79216 3
-1 2 5 48.749 1.68676 2
-1 2 5 48.0132 1.88971 8
-1 2 5 49.7077 2.06945 6
0 -2 -5 256.185 6.61421 1
0 -2 -5 242.497 6.39939 7
0 2 5 251.103 6.26845 2
0 2 5 253.99 6.88882 6
-1 -2 -5 11.954 0.75311 7
-1 -2 -5 11.2928 0.77719 1
1 2 5 11.4471 0.85948 6
1 2 5 10.4155 0.49908 2
-2 -2 -5 12.4894 0.79239 1
-2 -2 -5 11.1876 0.81218 7
2 2 5 11.0714 0.83835 6
2 2 5 11.8297 0.52087 2
2 2 5 12.0832 0.81046 5
-3 -2 -5 61.1382 2.0163 1
-3 -2 -5 64.1046 2.24776 7
3 2 5 57.6421 2.23418 6
3 2 5 62.3972 1.80913 2
-4 -2 -5 18.7045 1.12339 7
-4 -2 -5 17.9043 0.91394 1
4 2 5 18.7042 1.1536 5
4 2 5 20.4357 1.18093 6
-5 -2 -5 123.93 3.36288 1
-5 -2 -5 116.341 3.6492 3
-5 -2 -5 118.1 3.83181 7
5 2 5 115.348 3.90802 5
5 2 5 119.818 3.76529 6
-6 -2 -5 23.7248 1.35668 3
-6 -2 -5 24.5261 1.24407 8
-6 -2 -5 19.0041 1.32341 7
6 2 5 21.8375 1.52294 5
6 2 5 19.9192 1.2843 6
-7 -2 -5 38.0647 1.83745 8
-7 -2 -5 42.4633 2.04415 3
-7 -2 -5 41.525 2.04884 7
7 2 5 40.9198 2.30318 5
-8 -2 -5 32.3174 1.95562 3
-8 -2 -5 33.8152 1.91113 7
8 2 5 31.1998 2.17415 5
6 -3 -5 9.39884 1.31029 5
-6 3 5 9.12477 1.3166 3
-6 3 5 9.97133 1.38955 8
5 -3 -5 -0.1551 0.29666 1
5 -3 -5 0.23287 0.52861 5
-5 3 5 0.36031 0.45217 3
-5 3 5 -0.1606 0.36977 6
-5 3 5 -0.2064 0.56167 8
4 -3 -5 167.987 5.44705 5
4 -3 -5 176.914 4.99877 1
-4 3 5 177.287 5.53626 6
-4 3 5 175.312 5.50116 8
-4 3 5 176.753 5.37969 3
3 -3 -5 79.954 2.04252 7
3 -3 -5 77.7679 2.63072 1
3 -3 -5 78.1366 2.93924 5
-3 3 5 77.7018 2.99331 6
-3 3 5 78.7872 2.93574 8
-3 3 5 78.38 2.78618 3
2 -3 -5 247.55 6.72409 1
2 -3 -5 253.379 6.28813 7
-2 3 5 247.824 6.74714 3
-2 3 5 249.188 6.89914 8
-2 3 5 263.006 7.16728 6
1 -3 -5 32.5736 1.22052 7
1 -3 -5 34.6724 1.46938 1
-1 3 5 35.3315 1.67977 6
-1 3 5 31.3296 1.45819 8
-1 3 5 33.6727 1.37989 3
0 -3 -5 309.273 8.38264 1
0 -3 -5 331.252 8.26639 7
0 3 5 340.897 8.74999 6
-1 -3 -5 168.197 4.02729 2
-1 -3 -5 170.77 4.60206 7
-1 -3 -5 163.769 4.61316 1
1 3 5 171.836 4.90758 6
1 3 5 157.992 4.01614 2
-2 -3 -5 684.385 16.9385 7
-2 -3 -5 680.292 16.8453 1
2 3 5 701.336 17.2312 6
2 3 5 695.565 16.9574 5
-3 -3 -5 109.845 3.23416 1
-3 -3 -5 113.964 3.45014 7
3 3 5 110.308 3.55806 6
3 3 5 105.761 2.82304 2
3 3 5 103.259 3.36962 5
3 3 5 107.807 2.81571 2
-4 -3 -5 219.347 5.84022 1
-4 -3 -5 215.013 6.15557 7
4 3 5 226.529 6.30819 6
4 3 5 217.449 6.20918 5
-5 -3 -5 6.72129 0.66279 1
-5 -3 -5 6.5217 0.87655 7
5 3 5 5.7843 0.83556 5
5 3 5 5.43194 0.81093 6
-6 -3 -5 201.849 5.66066 3
-6 -3 -5 205.467 5.91529 7
6 3 5 194.111 6.06344 5
6 3 5 187.596 5.87069 6
-7 -3 -5 8.51033 1.08752 7
-7 -3 -5 7.67722 1.00203 3
7 3 5 8.1461 1.17258 5
-8 -3 -5 -0.4186 0.40372 7
-8 -3 -5 0.63058 0.4951 3
8 3 5 0.10561 0.5553 5
6 -4 -5 25.5304 1.90654 5
-6 4 5 24.0399 1.94452 8
-6 4 5 21.8124 1.71583 3
5 -4 -5 1.27065 0.54504 5
-5 4 5 0.78918 0.56103 3
-5 4 5 0.30149 0.53221 8
4 -4 -5 12.2928 1.28455 5
4 -4 -5 12.5883 0.92937 1
-4 4 5 13.6449 1.19231 6
-4 4 5 13.7474 1.32822 3
-4 4 5 14.3646 1.40022 8
3 -4 -5 8.34434 0.53201 7
3 -4 -5 7.93926 0.94354 5
3 -4 -5 9.41778 0.77771 1
-3 4 5 10.4792 1.15174 6
-3 4 5 8.26622 0.98768 8
-3 4 5 9.04078 0.96528 3
2 -4 -5 213.961 5.93072 1
2 -4 -5 222.69 5.61857 7
-2 4 5 204.826 6.06601 8
-2 4 5 218.808 6.28747 6
-2 4 5 218.084 5.90463 3
1 -4 -5 38.5589 1.49149 7
1 -4 -5 40.9612 1.67755 1
-1 4 5 39.9316 1.70621 8
-1 4 5 40.639 1.87527 6
-1 4 5 43.0015 1.28932 4
-1 4 5 41.551 1.55312 3
0 -4 -5 17.2018 0.94342 7
0 -4 -5 17.9601 1.03895 1
0 4 5 18.721 0.85123 3
0 4 5 16.5499 1.16721 6
0 4 5 19.0345 0.74054 4
-1 -4 -5 25.1376 1.23673 1
-1 -4 -5 23.2927 1.19024 7
1 4 5 24.5708 0.97183 4
1 4 5 23.699 1.40097 6
-2 -4 -5 384.086 9.94636 1
-2 -4 -5 399.084 10.0425 7
2 4 5 393.338 10.0135 5
2 4 5 383.903 10.3319 6
-3 -4 -5 5.5673 0.64089 1
-3 -4 -5 6.59412 0.76532 7
3 4 5 8.94292 1.02568 6
3 4 5 8.56577 0.91591 5
3 4 5 6.77828 0.33779 2
-4 -4 -5 -0.0117 0.27683 7
-4 -4 -5 0.2964 0.28556 1
4 4 5 0.46465 0.33803 5
4 4 5 -0.1487 0.3363 6
-5 -4 -5 64.5289 2.23467 1
-5 -4 -5 62.6148 2.51723 7
5 4 5 59.4483 2.63332 6
-6 -4 -5 148.492 4.23441 1
-6 -4 -5 147.291 4.37823 3
-6 -4 -5 139.823 4.68734 7
6 4 5 154.687 4.96636 5
6 4 5 143.324 4.87466 6
-7 -4 -5 0.8766 0.54562 7
-7 -4 -5 1.15403 0.49963 3
7 4 5 0.03765 0.49567 5
7 4 5 -0.2216 0.50554 6
-8 -4 -5 -0.1216 0.46924 7
-8 -4 -5 -0.219 0.45615 3
8 4 5 -0.4597 0.48688 5
6 -5 -5 3.70343 1.05726 5
-6 5 5 2.97386 0.94699 8
-6 5 5 1.96576 0.77144 3
5 -5 -5 22.4458 1.70221 5
-5 5 5 18.6392 1.51497 3
-5 5 5 16.1693 1.67335 8
4 -5 -5 194.691 5.56657 1
4 -5 -5 197.266 6.11939 5
-4 5 5 193.066 6.09634 8
-4 5 5 195.16 5.96745 6
-4 5 5 193.516 5.86728 3
3 -5 -5 32.1938 1.77886 5
3 -5 -5 32.3352 1.32829 7
3 -5 -5 35.233 1.59897 1
-3 5 5 33.7861 1.80903 6
-3 5 5 31.5415 1.74426 8
-3 5 5 35.3821 1.67764 3
2 -5 -5 5.40228 0.59985 7
2 -5 -5 5.64089 0.74364 1
-2 5 5 6.30014 0.58216 4
-2 5 5 6.88371 0.91607 6
-2 5 5 5.18739 0.65074 3
-2 5 5 6.49922 0.82759 8
1 -5 -5 -0.2948 0.17302 7
1 -5 -5 -0.0056 0.33892 1
-1 5 5 -0.055 0.1719 4
-1 5 5 0.04746 0.32717 6
-1 5 5 -0.1159 0.24584 8
-1 5 5 -0.0016 0.22672 3
0 -5 -5 206.55 5.59182 1
0 -5 -5 194.216 5.45482 7
0 5 5 200.514 5.10781 3
0 5 5 194.769 5.87252 6
0 5 5 190.977 5.12774 4
-1 -5 -5 62.6196 2.30811 1
-1 -5 -5 62.7897 2.26156 7
1 5 5 64.0175 2.0379 4
1 5 5 61.256 1.7801 3
1 5 5 57.516 2.49014 6
-2 -5 -5 239.219 6.79077 1
-2 -5 -5 254.237 6.89655 7
2 5 5 256.445 7.25149 6
2 5 5 251.622 6.62432 4
2 5 5 251.824 6.82804 5
-3 -5 -5 10.84 0.85377 1
-3 -5 -5 11.2507 0.96876 7
3 5 5 8.58828 1.0538 6
3 5 5 11.0839 0.9122 5
-4 -5 -5 151.065 4.42492 1
-4 -5 -5 145.191 4.59526 7
4 5 5 154.324 4.92093 6
4 5 5 138.904 4.51788 5
-5 -5 -5 7.42962 0.86554 1
-5 -5 -5 7.98525 0.97763 7
5 5 5 9.36293 1.21172 6
5 5 5 6.3863 0.96663 5
-6 -5 -5 22.8356 1.3081 1
-6 -5 -5 24.0585 1.27612 3
-6 -5 -5 22.3101 1.55059 7
6 5 5 21.0141 1.63258 6
6 5 5 24.1166 1.65752 5
-7 -5 -5 0.06946 0.54294 7
-7 -5 -5 0.88814 0.52179 3
7 5 5 0.01866 0.60056 6
7 5 5 -0.1191 0.53806 5
-8 -5 -5 8.11799 1.08563 3
-8 -5 -5 9.45019 1.2495 7
8 5 5 7.21616 1.25175 5
5 -6 -5 106.152 4.19354 5
-5 6 5 100.906 4.09977 8
-5 6 5 104.75 3.89163 3
4 -6 -5 44.01 1.97148 1
4 -6 -5 43.7464 2.30254 5
-4 6 5 47.4839 2.40948 8
-4 6 5 44.8236 2.11936 3
3 -6 -5 93.9452 2.9612 7
3 -6 -5 87.2198 3.38649 5
3 -6 -5 91.3357 3.14025 1
-3 6 5 88.7714 2.95088 4
-3 6 5 95.0259 3.47225 6
-3 6 5 90.3581 3.41041 8
-3 6 5 90.9756 3.14132 3
2 -6 -5 84.2555 2.83828 7
2 -6 -5 87.7244 3.02943 1
-2 6 5 89.0658 2.84233 3
-2 6 5 88.1764 2.72299 4
-2 6 5 81.3643 3.22293 6
-2 6 5 82.3397 3.05471 8
1 -6 -5 43.6063 1.91437 1
1 -6 -5 43.6838 1.81308 7
-1 6 5 43.3893 1.6368 4
-1 6 5 41.6468 2.09114 6
-1 6 5 43.0588 1.59678 3
-1 6 5 43.5659 1.85177 8
0 -6 -5 117.86 3.7079 7
0 -6 -5 113.07 3.14655 2
0 -6 -5 115.011 3.77458 1
0 6 5 118.221 3.18719 3
0 6 5 119.749 3.45072 4
0 6 5 116.648 3.54508 8
0 6 5 118.033 4.06321 6
-1 -6 -5 38.692 1.75008 7
-1 -6 -5 35.8388 1.07525 2
-1 -6 -5 34.7527 1.72091 1
1 6 5 35.9393 1.50312 4
1 6 5 37.6394 1.98354 6
1 6 5 36.6968 1.1086 3
-2 -6 -5 15.4106 1.12654 7
-2 -6 -5 15.6972 1.09084 1
2 6 5 14.3657 0.96421 4
2 6 5 14.2468 1.22134 6
-3 -6 -5 0.05174 0.3456 1
-3 -6 -5 0.64606 0.40372 7
3 6 5 0.0424 0.28103 5
3 6 5 0.21833 0.41407 6
3 6 5 0.07326 0.33146 4
-4 -6 -5 115.167 3.8445 1
-4 -6 -5 117.912 4.05333 7
4 6 5 123.657 4.46013 6
4 6 5 121.251 3.97383 5
-5 -6 -5 10.386 1.22773 7
-5 -6 -5 10.7839 1.08024 1
5 6 5 12.9378 1.50862 6
5 6 5 10.6454 1.16778 5
-6 -6 -5 3.76588 0.73791 1
-6 -6 -5 2.64478 0.73815 7
6 6 5 3.3277 0.92989 6
6 6 5 3.61002 0.82113 5
-7 -6 -5 6.10045 1.03729 7
7 6 5 11.0536 1.48726 5
5 -7 -5 16.998 1.80417 5
-5 7 5 18.2326 1.86076 8
-5 7 5 22.8889 1.64897 3
4 -7 -5 0.37005 0.43011 1
4 -7 -5 0.5517 0.50834 5
-4 7 5 1.90234 0.55994 3
-4 7 5 0.17592 0.53098 8
3 -7 -5 22.7122 1.433 1
3 -7 -5 26.2957 1.38117 7
3 -7 -5 26.9164 1.67036 5
-3 7 5 24.4412 1.34147 4
-3 7 5 23.7988 1.64591 6
-3 7 5 25.4356 1.42132 3
-3 7 5 25.204 1.63875 8
2 -7 -5 125.707 4.16719 1
2 -7 -5 135.153 4.12594 7
-2 7 5 129.853 3.95711 4
-2 7 5 131.934 4.50871 6
-2 7 5 131.674 3.91233 3
-2 7 5 128.892 4.27819 8
1 -7 -5 205.091 5.88305 7
1 -7 -5 210.535 5.46963 2
1 -7 -5 208.197 5.99634 1
-1 7 5 200.722 6.26578 6
-1 7 5 199.646 5.63695 4
-1 7 5 198.762 5.37735 3
-1 7 5 198.918 5.80252 8
0 -7 -5 39.3719 1.90784 1
0 -7 -5 37.5955 1.36572 2
0 -7 -5 41.3645 1.87892 7
0 7 5 39.5173 1.67133 4
0 7 5 32.1639 1.95735 6
0 7 5 39.7603 1.66134 8
-1 -7 -5 26.2013 1.49962 1
-1 -7 -5 24.2687 1.49491 7
-1 -7 -5 24.9448 0.91137 2
1 7 5 25.4809 1.3341 4
1 7 5 25.0367 1.69274 6
-2 -7 -5 248.054 7.14301 7
-2 -7 -5 248.678 6.07938 2
-2 -7 -5 251.044 7.09018 1
2 7 5 241.447 6.87556 4
2 7 5 256.181 7.58502 6
-3 -7 -5 110.78 3.75164 7
-3 -7 -5 103.177 3.61432 1
3 7 5 97.0463 3.96554 6
3 7 5 106.785 3.57671 4
3 7 5 100.723 3.48991 5
-4 -7 -5 5.53655 0.85619 1
-4 -7 -5 5.20527 0.92671 7
4 7 5 6.37251 0.95781 4
4 7 5 4.54497 0.77946 5
4 7 5 4.29775 0.9752 6
-5 -7 -5 -0.3528 0.43402 7
-5 -7 -5 -0.574 0.31915 1
5 7 5 0.73373 0.55103 6
5 7 5 0.57755 0.50486 5
-6 -7 -5 65.9374 2.69964 1
-6 -7 -5 64.8118 2.95106 7
6 7 5 65.286 2.9012 5
6 7 5 59.0692 3.16189 6
-7 -7 -5 2.291 0.78434 7
7 7 5 2.34802 0.84145 5
4 -8 -5 26.8794 1.59334 1
4 -8 -5 25.6024 1.81002 5
-4 8 5 24.8704 1.83179 8
-4 8 5 25.4446 1.62835 3
3 -8 -5 93.6597 3.37222 7
3 -8 -5 96.1756 3.70382 5
3 -8 -5 94.3584 3.4835 1
-3 8 5 97.9582 3.78862 6
-3 8 5 96.3059 3.35751 4
-3 8 5 99.197 3.75504 8
-3 8 5 97.9694 3.31644 3
2 -8 -5 1.81733 0.62648 1
2 -8 -5 1.89962 0.50351 2
2 -8 -5 1.24633 0.48347 7
-2 8 5 1.7362 0.58483 8
-2 8 5 1.75721 0.79892 3
-2 8 5 2.46354 0.57643 4
-2 8 5 1.9269 0.70065 6
1 -8 -5 0.23793 0.31439 2
1 -8 -5 0.86624 0.47482 7
1 -8 -5 -0.1658 0.46046 1
-1 8 5 0.16813 0.36379 8
-1 8 5 0.90737 0.55134 6
-1 8 5 0.5837 0.38443 4
0 -8 -5 57.2624 1.92892 2
0 -8 -5 62.3521 2.596 1
0 -8 -5 55.1334 2.44022 7
0 8 5 52.0006 2.67217 6
0 8 5 55.5297 2.25889 4
0 8 5 55.1092 2.15376 8
-1 -8 -5 262.49 7.74221 1
-1 -8 -5 291.346 7.0839 2
-1 -8 -5 270.944 7.8126 7
1 8 5 262.687 8.17524 6
1 8 5 270.072 7.55889 4
-2 -8 -5 14.5517 1.44148 1
-2 -8 -5 14.229 1.2204 7
2 8 5 14.971 1.13464 4
2 8 5 15.8508 1.51004 6
-3 -8 -5 0.22913 0.48876 7
3 8 5 -0.1014 0.39183 4
3 8 5 -0.2699 0.55301 6
-4 -8 -5 21.8117 1.59561 7
4 8 5 25.5601 2.0355 6
4 8 5 22.3138 1.58097 4
4 8 5 22.2025 1.46156 5
-5 -8 -5 28.9046 1.82929 1
-5 -8 -5 34.0848 2.05808 7
5 8 5 33.3829 2.38162 6
5 8 5 31.076 1.84683 5
5 8 5 29.7281 1.92251 4
-6 -8 -5 13.2767 1.56534 7
-6 -8 -5 16.5343 1.56664 1
6 8 5 13.2519 1.46494 5
6 8 5 12.8754 1.74032 6
6 8 5 14.6079 1.62366 4
4 -9 -5 4.39204 0.87168 1
4 -9 -5 4.14139 0.95896 5
-4 9 5 3.68608 0.88816 8
3 -9 -5 47.8318 2.46454 5
3 -9 -5 51.3957 2.44912 1
3 -9 -5 49.0725 2.31571 7
3 -9 -5 49.6212 2.22995 2
-3 9 5 49.785 2.3224 4
-3 9 5 51.6735 2.58369 8
2 -9 -5 0.08506 0.35341 2
2 -9 -5 0.08626 0.42439 7
2 -9 -5 -0.5467 0.38416 1
-2 9 5 0.2404 0.37542 4
-2 9 5 -0.0106 0.46676 8
-2 9 5 0.34712 0.50524 6
1 -9 -5 1.28006 0.66422 1
1 -9 -5 2.11697 0.66417 7
1 -9 -5 1.98647 0.47984 2
-1 9 5 2.18899 0.75544 6
-1 9 5 1.1993 0.50557 4
-1 9 5 1.23662 0.55588 8
0 -9 -5 118.215 4.24057 7
0 -9 -5 120.052 4.26242 1
0 9 5 120.647 4.61397 6
0 9 5 120.928 4.05982 4
-1 -9 -5 99.6619 3.74807 7
-1 -9 -5 99.2137 3.74956 1
1 9 5 95.4456 4.07739 6
1 9 5 95.5562 3.52784 4
-2 -9 -5 75.1317 3.21102 7
2 9 5 77.12 3.05612 4
2 9 5 75.8655 3.59178 6
-3 -9 -5 72.6863 3.1038 7
3 9 5 62.3612 3.34785 6
3 9 5 67.9114 2.91896 4
-4 -9 -5 61.3741 2.94343 7
4 9 5 63.849 3.35918 6
4 9 5 61.4855 2.69956 5
4 9 5 65.5987 2.95172 4
-5 -9 -5 25.1556 1.92295 7
5 9 5 24.4619 2.17108 6
5 9 5 28.0301 1.74394 5
5 9 5 26.3155 1.93499 4
3 -10 -5 7.18133 1.11263 5
3 -10 -5 6.54596 1.06316 7
-3 10 5 8.07153 1.24839 4
-3 10 5 4.92277 1.03545 8
2 -10 -5 20.8424 1.54698 5
2 -10 -5 19.7452 1.60791 1
2 -10 -5 20.2247 1.56125 7
-2 10 5 19.361 1.44409 4
-2 10 5 19.3373 1.73897 6
-2 10 5 19.1884 1.52581 8
1 -10 -5 106.931 4.08304 1
1 -10 -5 103.823 4.01759 7
-1 10 5 103.5 3.86435 4
-1 10 5 107.928 4.39867 6
0 -10 -5 3.49456 0.83931 7
0 -10 -5 3.04707 0.79056 1
0 10 5 2.76519 0.91065 6
0 10 5 4.14331 0.84286 4
-1 -10 -5 22.3239 1.73214 7
-1 -10 -5 24.1211 1.81053 1
1 10 5 25.2241 2.07963 6
1 10 5 26.7097 1.73229 4
-2 -10 -5 45.2046 2.55941 7
2 10 5 48.4786 2.89388 6
2 10 5 48.6261 2.47905 4
-3 -10 -5 1.65412 0.69701 7
3 10 5 5.0325 0.99551 4
3 10 5 2.10264 0.98046 6
-4 -10 -5 2.26706 0.75716 7
4 10 5 3.01123 1.07795 6
4 10 5 1.43105 0.77189 4
1 -11 -5 32.0054 2.15428 1
1 -11 -5 32.9908 2.16176 7
-1 11 5 28.1751 1.9222 4
-1 11 5 31.9382 2.35584 6
0 -11 -5 1.081 0.76114 1
0 -11 -5 1.60286 0.76088 7
0 11 5 2.72285 0.77036 4
0 11 5 1.24719 0.82421 6
-1 -11 -5 0.50033 0.68468 1
-1 -11 -5 -0.4209 0.48187 7
1 11 5 -0.7763 0.42742 6
1 11 5 0.6958 0.64294 4
-2 -11 -5 13.1839 1.69943 7
2 11 5 14.4476 1.99009 6
2 11 5 12.3632 1.56134 4
-3 -11 -5 43.7826 2.64367 7
3 11 5 40.462 2.90329 6
3 11 5 45.6667 2.58841 4
0 8 -6 2.2164 0.79126 4
0 8 -6 5.15397 0.95222 8
0 -8 6 3.51006 0.8994 2
-1 8 -6 -0.9565 0.41712 4
-1 8 -6 -0.4489 0.51868 8
1 -8 6 -0.3951 0.58791 2
-2 8 -6 17.3531 1.76996 4
-2 8 -6 16.5527 1.72057 8
2 -8 6 17.7261 1.83765 2
-3 8 -6 10.0407 1.41877 4
-3 8 -6 8.48308 1.27078 8
2 7 -6 10.6876 1.39396 4
-2 -7 6 10.8264 1.23408 3
-2 -7 6 11.0269 1.52157 2
1 7 -6 0.84515 0.63606 4
-1 -7 6 1.85862 0.81812 2
0 7 -6 7.64498 1.11169 8
0 7 -6 7.17292 1.16887 4
0 -7 6 7.23912 1.17364 2
-1 7 -6 0.8486 0.52639 8
-1 7 -6 0.2455 0.57668 4
1 -7 6 1.33889 0.68347 2
-2 7 -6 19.5858 1.61161 8
-2 7 -6 21.1584 1.67047 4
2 -7 6 17.8946 1.73911 2
-3 7 -6 5.88868 1.1127 4
-3 7 -6 7.94655 1.27553 8
3 -7 6 5.55484 1.03402 2
-4 7 -6 0.9626 0.65409 4
-4 7 -6 0.39372 0.67472 8
4 -7 6 0.04113 0.52634 2
-5 7 -6 11.4164 1.58962 4
3 6 -6 3.65309 0.90006 4
-3 -6 6 4.64844 0.88784 3
-3 -6 6 2.56864 0.81619 2
2 6 -6 14.0924 1.47383 4
-2 -6 6 12.1974 1.39789 2
-2 -6 6 13.4189 1.3291 3
1 6 -6 1.12763 0.62282 1
1 6 -6 3.2176 0.76764 4
-1 -6 6 2.37148 0.74348 2
0 6 -6 80.8773 3.23441 4
0 6 -6 77.2354 3.32091 1
0 -6 6 82.2387 3.27655 2
-1 6 -6 2.4685 0.70934 8
-1 6 -6 3.54598 0.8437 4
1 -6 6 1.98075 0.72087 2
-2 6 -6 27.1195 1.70506 4
-2 6 -6 24.7087 1.67576 8
2 -6 6 23.0329 1.65072 2
-3 6 -6 31.2191 1.96049 8
-3 6 -6 32.99 2.01944 4
3 -6 6 30.1148 1.90144 2
-4 6 -6 63.8593 2.97356 4
-4 6 -6 57.9029 2.85049 8
4 -6 6 60.7609 2.81326 2
-5 6 -6 2.88883 0.95674 8
-5 6 -6 3.14999 0.89944 4
5 -6 6 3.66945 0.88252 2
-6 6 -6 1.56357 0.86915 8
-6 6 -6 2.08041 0.87939 4
4 5 -6 21.5037 1.6234 4
-4 -5 6 23.2854 1.64272 3
-4 -5 6 25.9014 1.92655 2
3 5 -6 0.3864 0.57363 1
3 5 -6 0.12283 0.53315 4
-3 -5 6 1.09292 0.66726 2
-3 -5 6 1.33019 0.58213 3
2 5 -6 252.466 7.28273 4
2 5 -6 250.024 7.54135 1
-2 -5 6 245.885 7.44343 2
-2 -5 6 248.581 7.16736 3
1 5 -6 30.4335 1.87188 1
1 5 -6 32.5403 1.7831 4
-1 -5 6 33.7537 1.8802 2
0 5 -6 551.541 14.0741 4
0 5 -6 534.938 14.266 1
0 -5 6 542.931 14.1634 2
-1 5 -6 33.6594 1.80781 4
-1 5 -6 34.6944 1.9092 1
1 -5 6 29.2712 1.7098 2
-2 5 -6 60.5877 2.50528 1
-2 5 -6 59.547 2.53364 4
-2 5 -6 50.437 2.42934 8
2 -5 6 56.1816 2.47383 2
-3 5 -6 0.22609 0.45141 8
-3 5 -6 -0.4328 0.3787 4
-3 5 -6 -0.006 0.4012 1
3 -5 6 -0.4637 0.47132 2
-4 5 -6 587.748 15.8548 8
-4 5 -6 613.653 15.8417 4
4 -5 6 609.301 15.7274 2
-5 5 -6 20.9655 1.66747 8
-5 5 -6 20.6173 1.6561 4
5 -5 6 22.9639 1.6964 2
-6 5 -6 57.7394 2.99281 4
-6 5 -6 63.4137 3.06356 8
6 -5 6 61.2132 2.95744 2
4 4 -6 60.3152 2.89104 1
4 4 -6 62.4902 2.73586 4
-4 -4 6 65.3381 3.04024 2
-4 -4 6 63.7335 2.79477 3
3 4 -6 67.9994 2.66782 4
3 4 -6 61.8511 2.8086 1
-3 -4 6 62.2371 2.83068 2
-3 -4 6 63.0698 2.68353 3
2 4 -6 63.2846 2.51262 4
2 4 -6 56.8822 2.6474 1
-2 -4 6 63.7676 2.72904 2
-2 -4 6 58.282 2.49122 3
1 4 -6 230.859 6.32138 4
1 4 -6 213.79 6.54873 1
-1 -4 6 213.91 6.42843 2
0 4 -6 59.7934 2.56953 1
0 4 -6 61.3883 2.39387 4
0 -4 6 60.8359 2.49005 2
-1 4 -6 1.45412 0.48577 1
-1 4 -6 1.16416 0.43851 4
1 -4 6 1.97248 0.61172 2
-2 4 -6 914.503 22.5677 4
-2 4 -6 922.409 22.609 1
2 -4 6 900.049 22.5501 2
-3 4 -6 152.369 4.8616 4
-3 4 -6 150.487 4.90265 8
-3 4 -6 149.249 4.66833 1
3 -4 6 156.146 4.1928 5
3 -4 6 159.743 4.86058 2
-4 4 -6 65.8337 2.75388 4
-4 4 -6 63.7468 2.76642 8
-4 4 -6 60.692 2.38789 1
4 -4 6 64.3935 2.66199 2
4 -4 6 61.9837 2.21619 5
-5 4 -6 11.0396 1.31899 4
-5 4 -6 9.65589 1.2152 8
5 -4 6 10.4759 1.24122 2
5 -4 6 10.6391 1.05188 5
-6 4 -6 370.462 10.4483 8
6 -4 6 356.099 10.204 2
6 -4 6 367.623 9.94358 5
-7 4 -6 0.08081 0.58759 8
7 -4 6 1.29476 0.62152 5
7 -4 6 1.11259 0.72967 2
5 3 -6 22.3689 1.65003 1
5 3 -6 22.4605 1.5904 4
-5 -3 6 23.5758 1.79847 2
-5 -3 6 21.7496 1.67164 3
4 3 -6 1.57151 0.59704 4
4 3 -6 3.50159 1.03013 5
4 3 -6 3.45906 0.82029 1
-4 -3 6 2.42881 0.76488 2
-4 -3 6 1.60201 0.63555 3
3 3 -6 -0.3046 0.3424 4
3 3 -6 -0.1934 0.3864 1
3 3 -6 0.45553 0.33198 5
-3 -3 6 -0.33 0.32428 3
-3 -3 6 -0.5567 0.32889 2
2 3 -6 54.1169 1.93066 5
2 3 -6 53.9238 2.13239 4
2 3 -6 53.3064 2.40779 1
-2 -3 6 50.6879 2.32068 2
-2 -3 6 54.8387 2.29832 3
1 3 -6 3.6864 0.59755 4
1 3 -6 3.13341 0.42119 5
1 3 -6 3.66114 0.7083 1
-1 -3 6 4.56213 0.76449 2
0 3 -6 47.4951 2.09276 1
0 3 -6 46.3859 1.86591 4
0 -3 6 46.1551 2.0044 2
-1 3 -6 306.499 8.11553 4
-1 3 -6 309.758 8.31785 1
1 -3 6 300.666 8.19889 2
-2 3 -6 8.83096 0.96143 4
-2 3 -6 8.89754 0.97664 1
2 -3 6 9.96045 0.99996 2
2 -3 6 8.31314 0.56853 5
-3 3 -6 45.1328 1.87961 1
-3 3 -6 39.5387 1.95203 8
-3 3 -6 43.4087 1.9566 4
3 -3 6 44.0607 1.61371 5
3 -3 6 44.2463 1.94237 2
-4 3 -6 494.476 12.5353 1
-4 3 -6 505.165 12.954 4
4 -3 6 488.554 12.8093 2
4 -3 6 494.016 12.4725 5
-5 3 -6 26.458 1.2973 1
-5 3 -6 28.5622 1.76215 4
-5 3 -6 28.3238 1.74744 8
5 -3 6 27.2188 1.46151 5
5 -3 6 24.9341 1.56634 2
-6 3 -6 189.291 6.06167 8
6 -3 6 189.866 5.88352 2
6 -3 6 185.315 5.75257 5
-7 3 -6 17.0643 1.75038 8
7 -3 6 20.6376 1.55919 5
7 -3 6 21.3914 1.68219 2
5 2 -6 5.81458 0.90711 4
5 2 -6 5.89613 0.97633 1
5 2 -6 5.82221 1.00519 5
-5 -2 6 4.09692 0.95451 2
-5 -2 6 4.71876 0.90423 3
4 2 -6 136.106 4.22214 4
4 2 -6 135.061 4.47941 1
4 2 -6 133.771 4.35256 5
-4 -2 6 132.373 4.52601 3
-4 -2 6 129.593 4.59207 2
3 2 -6 36.1104 1.69347 5
3 2 -6 37.7094 1.67699 4
3 2 -6 36.4979 1.89099 1
-3 -2 6 36.913 1.94827 2
-3 -2 6 36.0226 1.85189 3
2 2 -6 1.75286 0.43625 5
2 2 -6 3.21583 0.64378 1
2 2 -6 3.17925 0.51772 4
-2 -2 6 2.43967 0.64664 2
-2 -2 6 4.32708 0.73796 3
1 2 -6 40.1468 1.48182 5
1 2 -6 40.6822 1.83736 1
1 2 -6 33.1364 1.46031 4
-1 -2 6 36.6198 1.7161 2
0 2 -6 0.5729 0.29345 4
0 2 -6 0.56334 0.43293 1
0 -2 6 -0.0481 0.28697 2
-1 2 -6 30.3561 1.48701 1
-1 2 -6 30.4841 1.32769 4
1 -2 6 27.9831 1.38309 2
-2 2 -6 162.318 4.62778 4
-2 2 -6 160.222 4.79016 7
-2 2 -6 162.475 4.69521 1
2 -2 6 157.837 4.64812 2
2 -2 6 162.54 4.34493 5
-3 2 -6 11.6848 1.00649 7
-3 2 -6 14.8766 1.08625 8
-3 2 -6 12.842 0.89311 1
-3 2 -6 13.5073 0.95313 4
3 -2 6 11.3392 0.77775 5
3 -2 6 12.8453 0.92992 6
3 -2 6 13.4043 0.97065 2
-4 2 -6 3.54942 0.66243 4
-4 2 -6 3.85155 0.56028 1
-4 2 -6 3.56262 0.65536 7
-4 2 -6 4.80863 0.7878 8
4 -2 6 4.24774 0.59978 6
4 -2 6 4.58677 0.65785 5
4 -2 6 4.42375 0.71532 2
-5 2 -6 44.1994 2.09245 8
-5 2 -6 41.4086 1.61154 1
-5 2 -6 42.9712 2.08778 7
5 -2 6 42.4636 1.90533 5
5 -2 6 41.5356 1.97005 2
-6 2 -6 62.8427 2.77162 8
-6 2 -6 63.2265 2.73457 7
6 -2 6 60.7129 2.62737 2
6 -2 6 61.5991 2.63883 5
-7 2 -6 3.4138 0.7853 7
-7 2 -6 2.87651 0.79192 8
7 -2 6 3.03487 0.81267 5
7 -2 6 5.00826 0.91181 2
-8 2 -6 75.8238 3.41427 8
8 -2 6 79.5012 3.50867 5
6 1 -6 35.0458 2.24279 5
5 1 -6 18.5187 1.48713 5
5 1 -6 23.6328 1.59903 4
5 1 -6 18.4714 1.39632 1
-5 -1 6 19.2381 1.5518 3
-5 -1 6 20.3496 1.88215 2
4 1 -6 4.87598 0.72471 4
4 1 -6 4.74134 0.80482 1
4 1 -6 3.67063 0.73711 5
-4 -1 6 3.35593 0.76349 2
-4 -1 6 3.83867 0.7843 3
3 1 -6 1.40998 0.46644 5
3 1 -6 0.94905 0.45278 1
3 1 -6 1.5172 0.42741 4
-3 -1 6 1.01661 0.47273 3
-3 -1 6 1.33092 0.48758 2
2 1 -6 227.907 6.04351 4
2 1 -6 226.093 6.28856 5
2 1 -6 231.86 6.5358 1
-2 -1 6 239.161 6.52019 3
-2 -1 6 227.618 6.48785 2
1 1 -6 -0.0199 0.34597 1
1 1 -6 0.05618 0.20421 4
-1 -1 6 -0.4348 0.28362 2
0 1 -6 335.253 8.48162 4
0 1 -6 351.171 8.98759 1
0 -1 6 332.834 8.78809 2
-1 1 -6 9.57094 0.64942 4
-1 1 -6 10.3702 0.85162 1
-1 1 -6 8.60982 0.72496 7
1 -1 6 9.94223 0.77708 2
-2 1 -6 183.945 5.07034 1
-2 1 -6 169.439 4.85322 4
-2 1 -6 178.03 5.1314 7
2 -1 6 179.252 4.95458 2
2 -1 6 181.395 4.82438 5
2 -1 6 180.147 5.18462 6
-3 1 -6 273.603 7.49024 7
-3 1 -6 273.536 7.20986 1
-3 1 -6 269.997 7.27892 4
3 -1 6 284.67 7.19247 5
3 -1 6 266.532 7.29938 6
3 -1 6 271.093 7.21046 2
-4 1 -6 3.34002 0.61457 7
-4 1 -6 3.08436 0.60414 8
-4 1 -6 2.82428 0.48946 1
4 -1 6 4.15027 0.57882 6
4 -1 6 3.17224 0.56621 2
4 -1 6 3.81087 0.61724 5
-5 1 -6 -0.1912 0.20698 1
-5 1 -6 -0.0013 0.38264 8
-5 1 -6 0.28772 0.34905 7
5 -1 6 -0.3056 0.22403 5
5 -1 6 0.32888 0.36482 2
-6 1 -6 3.06093 0.69936 7
-6 1 -6 1.93537 0.58115 8
6 -1 6 3.72043 0.71659 2
6 -1 6 2.10051 0.63777 5
-7 1 -6 7.90744 1.12915 8
-7 1 -6 9.61832 1.20371 7
7 -1 6 7.94834 1.04877 2
7 -1 6 9.14413 1.17065 5
-8 1 -6 1.09558 0.56362 7
-8 1 -6 1.34599 0.68348 8
8 -1 6 1.40973 0.70609 2
8 -1 6 1.13203 0.72287 5
6 0 -6 24.8542 1.88655 5
-6 0 6 29.7882 1.9914 3
5 0 -6 9.08745 1.07478 1
5 0 -6 6.74831 1.04064 5
-5 0 6 7.0904 1.08917 2
-5 0 6 9.4322 1.22814 3
4 0 -6 32.9403 1.80681 5
4 0 -6 31.0015 1.43343 4
4 0 -6 26.7035 1.55218 1
-4 0 6 28.6338 1.72548 3
-4 0 6 31.1357 1.78894 2
3 0 -6 67.3986 2.57585 1
3 0 -6 67.3657 2.59325 5
3 0 -6 68.6608 2.21166 4
-3 0 6 70.6962 2.678 2
-3 0 6 63.7542 2.62639 3
2 0 -6 13.1503 0.95354 5
2 0 -6 13.6004 0.71217 4
2 0 -6 14.3064 1.01347 1
-2 0 6 13.1781 0.97827 2
-2 0 6 14.6422 1.01648 3
1 0 -6 0.13484 0.19323 4
1 0 -6 0.64273 0.40436 1
1 0 -6 0.3342 0.22801 7
-1 0 6 0.07386 0.30516 2
0 0 -6 584.876 14.422 1
0 0 -6 550.429 13.7841 4
0 0 -6 595.421 14.1626 7
0 0 6 573.151 14.1755 2
-1 0 -6 167.057 4.54487 7
-1 0 -6 166.301 4.18585 4
-1 0 -6 153.232 4.55667 1
1 0 6 155.925 4.36766 2
1 0 6 153.559 4.75898 6
-2 0 -6 392.243 9.85955 1
-2 0 -6 375.78 9.61492 4
-2 0 -6 396.195 9.9544 7
2 0 6 384.468 9.72023 5
2 0 6 383.406 10.0428 6
2 0 6 381.552 9.64962 2
-3 0 -6 19.4039 1.17261 7
-3 0 -6 19.1544 1.03904 1
3 0 6 20.0104 1.00674 2
3 0 6 21.3943 1.16562 6
3 0 6 19.6352 1.07856 5
-4 0 -6 17.6516 0.94776 1
-4 0 -6 15.4618 1.05596 8
-4 0 -6 16.402 1.16057 7
4 0 6 16.253 0.98711 6
4 0 6 15.1323 1.05411 5
4 0 6 16.4607 0.99534 2
-5 0 -6 220.43 6.4715 7
-5 0 -6 218.849 5.82071 1
-5 0 -6 222.609 6.33408 8
5 0 6 223.824 6.45619 5
5 0 6 229.501 6.21359 2
5 0 6 228.772 6.05724 6
-6 0 -6 59.6828 2.47454 8
-6 0 -6 62.9617 2.63123 7
6 0 6 58.4206 2.41573 2
6 0 6 62.7023 2.64832 5
-7 0 -6 3.05591 0.71865 7
-7 0 -6 4.34588 0.82971 8
7 0 6 3.59198 0.85281 5
-8 0 -6 5.7443 1.02925 8
-8 0 -6 5.43007 0.98778 7
8 0 6 5.07455 1.08 5
6 -1 -6 19.1381 1.89587 5
-6 1 6 18.8663 1.88251 3
-6 1 6 16.3165 1.74334 8
5 -1 -6 7.85589 1.12196 5
5 -1 -6 8.21469 0.97566 1
-5 1 6 9.15865 1.29083 3
-5 1 6 7.26504 1.1223 8
4 -1 -6 140.85 4.78654 5
4 -1 -6 152.771 4.5638 1
-4 1 6 142.473 4.72106 2
-4 1 6 150.458 4.81147 3
3 -1 -6 0.38216 0.3701 1
3 -1 -6 0.37056 0.39614 5
-3 1 6 0.56474 0.43722 3
-3 1 6 0.53958 0.43049 2
2 -1 -6 8.7026 0.47435 4
2 -1 -6 7.98731 0.8894 1
-2 1 6 6.91853 0.8149 2
-2 1 6 7.67621 0.87004 3
1 -1 -6 257.098 6.95151 1
1 -1 -6 265.608 6.53893 7
-1 1 6 247.96 6.7551 2
0 -1 -6 35.893 1.42326 7
0 -1 -6 38.104 1.61914 1
0 1 6 37.7828 1.43719 2
0 1 6 39.4611 1.84688 6
-1 -1 -6 29.5031 1.2973 7
1 1 6 28.9095 1.12488 2
1 1 6 26.7319 1.45053 6
-2 -1 -6 228.318 6.21569 7
-2 -1 -6 231.658 6.13322 1
2 1 6 228.525 6.10852 5
2 1 6 222.96 6.34425 6
2 1 6 229.796 5.83929 2
-3 -1 -6 27.4017 1.21988 1
-3 -1 -6 24.2776 1.30647 7
3 1 6 27.0407 1.30723 5
3 1 6 21.8587 1.02592 2
3 1 6 26.7584 1.35233 6
-4 -1 -6 613.965 15.2036 1
-4 -1 -6 617.038 15.6534 7
-4 -1 -6 616.067 15.3812 8
4 1 6 621.862 15.2034 2
4 1 6 626.969 15.5998 5
4 1 6 629.491 15.5138 6
-5 -1 -6 4.03926 0.64144 8
-5 -1 -6 4.67072 0.54033 1
-5 -1 -6 4.99046 0.76199 7
5 1 6 3.22591 0.6524 5
5 1 6 4.06168 0.61046 2
5 1 6 5.58759 0.7282 6
-6 -1 -6 4.58671 0.81636 7
-6 -1 -6 6.02661 0.82292 8
6 1 6 5.11664 0.89769 5
-7 -1 -6 43.5108 2.05535 8
-7 -1 -6 40.6618 2.12988 7
7 1 6 41.8905 2.25359 5
-8 -1 -6 106.721 4.0539 7
-8 -1 -6 111.817 3.99967 8
8 1 6 118.891 4.52643 5
6 -2 -6 51.6203 2.81631 5
-6 2 6 45.0543 2.70444 6
-6 2 6 57.7032 2.84833 8
-6 2 6 50.2649 2.70058 3
5 -2 -6 1.82511 0.71471 5
5 -2 -6 1.10528 0.50717 1
-5 2 6 2.67597 0.86135 3
-5 2 6 1.23049 0.57761 8
-5 2 6 0.3256 0.55395 6
4 -2 -6 77.7179 2.80591 1
4 -2 -6 76.6827 3.11367 5
-4 2 6 76.7584 3.27312 6
-4 2 6 77.3524 3.10964 8
-4 2 6 78.2494 3.05685 3
3 -2 -6 113.377 3.5949 1
3 -2 -6 113.704 3.83819 5
-3 2 6 111.299 3.73422 3
-3 2 6 111.962 4.05559 6
-3 2 6 108.552 3.63667 2
-3 2 6 111.522 3.79486 8
2 -2 -6 182.35 5.14256 1
2 -2 -6 186.885 4.53506 7
-2 2 6 168.303 5.5063 6
-2 2 6 175.666 5.02112 2
-2 2 6 175.752 5.15412 3
1 -2 -6 0.57365 0.23493 7
1 -2 -6 0.78615 0.3857 1
-1 2 6 0.20755 0.26888 3
-1 2 6 0.26259 0.26249 2
-1 2 6 0.85745 0.41631 6
0 -2 -6 108.089 3.38445 1
0 -2 -6 111.426 3.19514 7
0 2 6 108.817 3.07265 2
0 2 6 109.765 3.67925 6
-1 -2 -6 35.4247 1.51956 1
-1 -2 -6 34.6125 1.43517 7
1 2 6 34.3112 1.67358 6
1 2 6 34.0301 1.16602 2
-2 -2 -6 35.1392 1.53435 7
-2 -2 -6 34.3369 1.49461 1
2 2 6 37.2372 1.69946 6
2 2 6 34.9035 1.15728 2
2 2 6 35.4926 1.52494 5
-3 -2 -6 171.07 4.84065 1
-3 -2 -6 175.956 5.04376 7
3 2 6 180.045 5.15132 6
3 2 6 172.388 4.99883 5
3 2 6 174.393 4.51163 2
-4 -2 -6 15.5809 0.92335 1
-4 -2 -6 16.3445 1.13462 7
4 2 6 16.4416 1.1397 5
4 2 6 15.9203 0.82015 2
4 2 6 16.1466 1.10509 6
-5 -2 -6 0.36526 0.27783 1
-5 -2 -6 0.94952 0.46654 7
-5 -2 -6 -0.0797 0.24966 8
5 2 6 0.28353 0.33883 6
5 2 6 -0.0069 0.29141 5
-6 -2 -6 383.357 9.86321 8
-6 -2 -6 378.733 10.278 7
6 2 6 383.764 10.1127 6
6 2 6 373.185 10.4279 5
-7 -2 -6 8.78856 1.00188 8
-7 -2 -6 9.88003 1.20705 7
7 2 6 10.4878 1.3583 5
-8 -2 -6 11.9063 1.39484 7
-8 -2 -6 12.237 1.38133 3
8 2 6 12.9561 1.65259 5
6 -3 -6 -0.8447 0.50417 5
-6 3 6 -0.0959 0.50527 3
-6 3 6 1.32811 0.80764 8
5 -3 -6 8.54876 1.27108 5
5 -3 -6 7.647 0.94587 1
-5 3 6 8.71371 1.27499 8
-5 3 6 10.3054 1.36041 6
-5 3 6 9.49707 1.23581 3
4 -3 -6 251.552 6.98415 1
4 -3 -6 255.23 7.48498 5
-4 3 6 245.887 7.42533 8
-4 3 6 249.697 7.32736 3
-4 3 6 260.898 7.66933 6
3 -3 -6 2.62934 0.62439 5
3 -3 -6 2.37683 0.56245 1
-3 3 6 1.9476 0.55501 3
-3 3 6 2.51223 0.64439 6
-3 3 6 2.81678 0.68512 8
2 -3 -6 13.4657 0.98795 1
2 -3 -6 15.1059 0.69374 7
-2 3 6 13.9283 1.18446 6
-2 3 6 15.4542 1.05029 3
-2 3 6 14.1458 1.09053 8
1 -3 -6 6.27641 0.57961 7
1 -3 -6 5.49501 0.67022 1
-1 3 6 5.33875 0.66605 3
-1 3 6 5.96154 0.91481 6
-1 3 6 6.83582 0.80667 8
-1 3 6 5.90528 0.60954 2
0 -3 -6 417.916 10.9381 1
0 -3 -6 446.571 10.7531 7
0 3 6 431.319 10.4814 2
0 3 6 423.011 11.3048 6
-1 -3 -6 102.076 3.22793 1
-1 -3 -6 104.999 3.1751 7
1 3 6 104.889 2.69422 2
1 3 6 101.412 3.47842 6
-2 -3 -6 396.631 10.2339 7
-2 -3 -6 397.004 10.1858 1
2 3 6 400.834 9.48302 2
2 3 6 403.592 10.2723 5
2 3 6 397.306 10.5214 6
-3 -3 -6 261.558 7.00088 1
-3 -3 -6 260.644 7.19291 7
3 3 6 265.99 6.45738 2
3 3 6 266.982 7.19715 5
3 3 6 267.268 7.42371 6
-4 -3 -6 13.5314 0.88088 1
-4 -3 -6 10.9595 0.94563 7
4 3 6 11.4225 1.01749 6
4 3 6 12.1451 1.017 5
4 3 6 11.7988 0.65496 2
-5 -3 -6 297.105 7.56714 1
-5 -3 -6 281.545 8.0017 7
5 3 6 282.051 8.07353 5
5 3 6 293.649 8.07018 6
-6 -3 -6 8.29692 1.07339 7
6 3 6 4.71535 0.84884 5
6 3 6 4.74189 0.80338 6
-7 -3 -6 12.2774 1.30164 7
7 3 6 14.7832 1.36504 6
7 3 6 12.364 1.44814 5
-8 -3 -6 56.1979 2.72662 7
-8 -3 -6 59.4578 2.66815 3
8 3 6 61.1256 3.12007 5
6 -4 -6 25.613 2.0839 5
-6 4 6 30.1127 2.12643 8
-6 4 6 29.9829 2.0709 3
5 -4 -6 1.61604 0.70138 5
-5 4 6 1.64237 0.72987 3
-5 4 6 1.98352 0.69075 8
-5 4 6 1.2872 0.6356 6
4 -4 -6 24.0374 1.38047 1
4 -4 -6 23.662 1.67434 5
-4 4 6 27.6102 1.77099 6
-4 4 6 24.4771 1.72151 8
-4 4 6 25.4272 1.62489 3
3 -4 -6 22.2082 1.48564 5
3 -4 -6 19.6131 1.25714 1
-3 4 6 20.2416 1.31091 3
-3 4 6 21.0032 1.42509 8
-3 4 6 20.6287 1.52622 6
2 -4 -6 1.62548 0.31423 7
2 -4 -6 1.72067 0.46108 1
-2 4 6 3.17636 0.59195 3
-2 4 6 2.24776 0.6099 6
-2 4 6 1.05073 0.44126 8
1 -4 -6 87.7704 2.96653 1
1 -4 -6 90.7618 2.70267 7
-1 4 6 87.1249 2.96317 8
-1 4 6 79.8323 3.16807 6
-1 4 6 88.8446 2.80786 3
0 -4 -6 159.432 4.43346 7
0 -4 -6 167.417 4.65502 1
0 4 6 157.787 4.31609 3
0 4 6 147.703 4.86152 6
0 4 6 150.939 3.96401 4
-1 -4 -6 35.5417 0.97992 2
-1 -4 -6 36.2658 1.565 7
-1 -4 -6 35.4466 1.58605 1
1 4 6 36.6373 1.22023 4
1 4 6 35.0712 1.8057 6
-2 -4 -6 63.2732 2.3401 1
-2 -4 -6 67.3944 2.41864 7
2 4 6 64.76 2.63981 6
2 4 6 68.2805 2.44209 5
-3 -4 -6 0.35828 0.33822 1
-3 -4 -6 0.30761 0.31202 7
3 4 6 0.16075 0.39483 6
3 4 6 -0.0755 0.24476 5
-4 -4 -6 289.39 8.06009 7
-4 -4 -6 290.408 7.77637 1
4 4 6 296.506 8.28469 6
4 4 6 296.963 8.07818 5
-5 -4 -6 112.986 3.90361 7
-5 -4 -6 113.654 3.55415 1
5 4 6 117.977 3.99609 5
5 4 6 116.622 4.07145 6
-6 -4 -6 119.705 3.64404 1
-6 -4 -6 116.963 4.12825 7
6 4 6 115.95 4.21665 6
6 4 6 124.524 4.29343 5
-7 -4 -6 1.24663 0.62002 7
7 4 6 0.56105 0.58929 5
7 4 6 -0.3105 0.46468 6
-8 -4 -6 57.0216 2.75463 7
8 4 6 58.4011 3.01241 5
5 -5 -6 16.3963 1.7593 5
-5 5 6 13.7461 1.60155 8
-5 5 6 14.6733 1.58118 3
4 -5 -6 18.7858 1.49279 5
4 -5 -6 16.3165 1.18241 1
-4 5 6 19.6012 1.53077 6
-4 5 6 16.6499 1.6172 8
-4 5 6 18.2928 1.38478 3
3 -5 -6 9.70379 1.00495 1
3 -5 -6 10.6231 0.74828 7
3 -5 -6 10.5247 1.17192 5
-3 5 6 9.86611 1.15821 8
-3 5 6 12.3791 1.17699 3
-3 5 6 11.1439 1.29393 6
2 -5 -6 28.5086 1.52128 1
2 -5 -6 29.0673 1.28508 7
-2 5 6 30.5946 1.66414 8
-2 5 6 29.4739 1.75829 6
-2 5 6 32.0696 1.50412 3
1 -5 -6 0.6968 0.42459 1
1 -5 -6 1.0303 0.33884 7
-1 5 6 1.18776 0.42738 8
-1 5 6 1.57258 0.59495 6
-1 5 6 0.7273 0.31629 3
-1 5 6 0.83917 0.22464 4
0 -5 -6 4.57677 0.63837 7
0 -5 -6 4.96239 0.71496 1
0 5 6 5.81333 0.70718 8
0 5 6 5.33412 0.8299 6
0 5 6 6.14257 0.45377 4
0 5 6 5.84537 0.59207 3
-1 -5 -6 52.1215 2.07454 7
-1 -5 -6 49.1446 2.06304 1
1 5 6 56.1617 1.76254 4
1 5 6 48.9445 2.33541 6
-2 -5 -6 3.33694 0.62503 7
-2 -5 -6 1.86641 0.49031 1
2 5 6 2.16628 0.61649 6
2 5 6 3.88857 0.53688 4
-3 -5 -6 10.0156 1.02503 7
-3 -5 -6 10.7799 1.03502 1
3 5 6 8.56384 1.06664 6
3 5 6 11.3948 1.10347 5
-4 -5 -6 110.598 3.55707 1
-4 -5 -6 109.831 3.76181 7
4 5 6 111.249 4.0126 6
4 5 6 107.439 3.7176 5
-5 -5 -6 0.19419 0.32679 1
-5 -5 -6 0.17435 0.42872 7
5 5 6 0.20311 0.4044 6
5 5 6 0.15482 0.41524 5
-6 -5 -6 14.4915 1.25702 7
-6 -5 -6 13.1175 1.02209 1
6 5 6 14.5219 1.38618 6
6 5 6 15.9038 1.60743 5
-7 -5 -6 13.8835 1.49945 7
7 5 6 11.8224 1.49855 6
7 5 6 15.4845 1.69805 5
-8 -5 -6 117.537 4.40605 7
8 5 6 116.382 4.64994 5
5 -6 -6 25.6829 1.98326 5
-5 6 6 26.8243 2.03541 8
-5 6 6 20.9356 1.66583 3
4 -6 -6 4.50592 0.78413 1
4 -6 -6 3.91112 0.89963 5
-4 6 6 3.28611 0.85439 6
-4 6 6 4.38921 0.86302 3
-4 6 6 5.10104 1.00564 8
3 -6 -6 98.8589 3.72454 5
3 -6 -6 98.6254 3.07514 7
3 -6 -6 99.1494 3.42569 1
-3 6 6 99.952 3.42984 3
-3 6 6 95.4218 3.6686 8
-3 6 6 97.8532 3.75031 6
2 -6 -6 7.80026 0.93691 1
2 -6 -6 5.70522 0.70504 7
-2 6 6 6.76987 1.0215 6
-2 6 6 5.45644 0.72858 3
-2 6 6 6.29087 0.89116 8
1 -6 -6 141.934 4.24912 7
1 -6 -6 146.363 4.48595 1
-1 6 6 133.566 4.73376 6
-1 6 6 140.524 4.38898 8
-1 6 6 140.342 4.06295 3
-1 6 6 144.572 3.91701 4
0 -6 -6 49.8788 1.55291 2
0 -6 -6 48.4204 2.12926 1
0 -6 -6 50.2854 2.02681 7
0 6 6 47.3845 2.3692 6
0 6 6 49.5009 1.95485 8
0 6 6 48.9904 1.67947 3
0 6 6 50.2946 1.73967 4
-1 -6 -6 77.0858 2.83363 1
-1 -6 -6 77.461 2.80615 7
1 6 6 75.3399 2.4622 4
1 6 6 77.6067 2.22425 3
1 6 6 76.8177 3.14215 6
-2 -6 -6 33.7186 1.70601 1
-2 -6 -6 38.3447 1.83064 7
2 6 6 36.2298 2.03696 6
2 6 6 33.1346 1.492 4
-3 -6 -6 0.19084 0.33732 1
-3 -6 -6 -0.0545 0.29876 7
3 6 6 -0.3821 0.28556 5
3 6 6 -0.2378 0.26454 4
3 6 6 0.86326 0.4651 6
-4 -6 -6 46.8168 2.07271 1
-4 -6 -6 43.5684 2.15693 7
4 6 6 45.022 2.12741 5
4 6 6 45.9157 2.4215 6
-5 -6 -6 12.6685 1.33282 7
-5 -6 -6 12.3598 1.20914 1
5 6 6 10.3016 1.2384 5
5 6 6 14.1435 1.63272 6
-6 -6 -6 32.7951 1.72505 1
-6 -6 -6 32.7113 1.98072 7
6 6 6 32.7054 2.14725 6
6 6 6 33.9062 2.02988 5
-7 -6 -6 4.80774 0.96962 7
7 6 6 5.1186 1.1053 6
7 6 6 7.57009 1.20619 5
5 -7 -6 1.20478 0.78055 5
-5 7 6 0.94999 0.75758 8
-5 7 6 0.43907 0.58329 3
4 -7 -6 14.8877 1.39524 1
4 -7 -6 11.3811 1.49759 5
-4 7 6 11.9928 1.51678 8
-4 7 6 13.4077 1.35592 3
3 -7 -6 168.805 4.94767 7
3 -7 -6 168.156 5.55095 5
3 -7 -6 169.59 5.24739 1
-3 7 6 167.997 5.1319 3
-3 7 6 161.681 5.47714 8
-3 7 6 177.673 5.70535 6
2 -7 -6 1.50691 0.46736 7
2 -7 -6 0.67252 0.43708 1
-2 7 6 0.49029 0.5167 8
-2 7 6 1.19546 0.61254 6
-2 7 6 1.14726 0.45411 3
1 -7 -6 12.6283 1.25908 1
1 -7 -6 8.88867 0.93747 7
-1 7 6 10.1732 1.28273 6
-1 7 6 11.4337 0.80451 4
-1 7 6 9.64616 0.75656 3
-1 7 6 11.2568 1.15189 8
0 -7 -6 47.6466 1.56952 2
0 -7 -6 42.7449 2.02387 7
0 -7 -6 50.5962 2.23224 1
0 7 6 48.9787 1.96498 8
0 7 6 50.0198 1.86984 4
0 7 6 43.3832 2.36717 6
0 7 6 53.4096 2.12067 3
-1 -7 -6 581.434 14.6232 7
-1 -7 -6 540.161 14.5911 1
1 7 6 578.409 15.165 6
1 7 6 571.982 14.2211 4
-2 -7 -6 12.9331 1.12201 7
-2 -7 -6 11.8322 1.22134 1
2 7 6 13.0988 1.52031 6
2 7 6 14.2757 0.9959 4
-3 -7 -6 1.46601 0.54147 1
-3 -7 -6 1.69083 0.5835 7
3 7 6 1.34362 0.52232 5
3 7 6 1.24763 0.71896 6
3 7 6 0.87929 0.45993 4
-4 -7 -6 1.86638 0.65382 7
-4 -7 -6 3.53434 0.75647 1
4 7 6 3.24959 0.85109 6
4 7 6 2.53708 0.67475 5
4 7 6 2.70546 0.67656 4
-5 -7 -6 25.8212 1.59797 1
-5 -7 -6 23.6122 1.64614 7
5 7 6 24.932 1.90249 6
5 7 6 24.2125 1.64523 5
-6 -7 -6 -0.2699 0.45375 1
-6 -7 -6 -0.05 0.53534 7
6 7 6 -0.5691 0.52646 6
6 7 6 0.92335 0.54717 5
-7 -7 -6 10.3043 1.38505 7
7 7 6 10.0278 1.41281 5
7 7 6 7.48492 1.40828 6
4 -8 -6 8.84242 1.1109 1
4 -8 -6 6.18736 1.13032 5
-4 8 6 6.70121 1.12925 8
-4 8 6 8.46175 1.15289 3
3 -8 -6 -0.4475 0.44704 1
3 -8 -6 -0.3187 0.29575 7
3 -8 -6 -0.1933 0.45263 5
-3 8 6 -0.2756 0.4788 6
-3 8 6 0.40193 0.4128 3
-3 8 6 0.36361 0.56186 8
2 -8 -6 31.9402 1.83851 1
2 -8 -6 32.185 1.68862 7
2 -8 -6 28.99 1.49708 2
-2 8 6 28.6803 1.77625 8
-2 8 6 31.8808 2.18724 3
-2 8 6 27.0523 1.9047 6
1 -8 -6 185.309 5.58758 7
1 -8 -6 184.609 5.69852 1
1 -8 -6 184.962 5.03974 2
-1 8 6 183.211 5.5004 8
-1 8 6 185.772 5.27455 4
-1 8 6 168.235 5.95144 6
0 -8 -6 0.03638 0.42739 1
0 -8 -6 1.23618 0.50342 7
0 8 6 1.58395 0.46222 4
0 8 6 1.79248 0.66072 6
0 8 6 1.52029 0.51981 8
-1 -8 -6 2.37195 0.64766 7
-1 -8 -6 1.67236 0.64696 1
1 8 6 0.60285 0.43469 4
1 8 6 1.00779 0.58345 6
-2 -8 -6 0.9981 0.56725 1
-2 -8 -6 0.39964 0.47598 7
2 8 6 0.37976 0.56519 6
2 8 6 1.16797 0.49524 4
-3 -8 -6 103.35 3.8783 1
-3 -8 -6 111.433 4.06001 7
3 8 6 116.151 4.50649 6
3 8 6 112.698 3.84083 4
-4 -8 -6 18.4224 1.76865 7
-4 -8 -6 19.747 1.51795 1
4 8 6 19.5049 1.41877 4
4 8 6 19.2706 1.81414 6
4 8 6 18.8231 1.42496 5
-5 -8 -6 63.8206 2.81921 1
-5 -8 -6 66.0068 3.03554 7
5 8 6 63.6096 2.93729 4
5 8 6 65.0817 2.87082 5
5 8 6 66.6479 3.38757 6
-6 -8 -6 0.36122 0.55783 1
-6 -8 -6 0.4941 0.5898 7
6 8 6 0.07176 0.6474 6
6 8 6 0.68929 0.68714 4
6 8 6 0.23401 0.49922 5
3 -9 -6 0.75311 0.44298 2
3 -9 -6 0.96059 0.50018 7
3 -9 -6 0.37009 0.49136 1
3 -9 -6 0.90779 0.68779 5
-3 9 6 0.48188 0.56181 8
2 -9 -6 1.83675 0.6188 1
2 -9 -6 1.46982 0.55799 7
-2 9 6 1.69188 0.76139 6
-2 9 6 1.78438 0.69426 8
1 -9 -6 30.8446 1.84141 7
1 -9 -6 33.6991 1.96515 1
-1 9 6 35.6058 1.83573 8
-1 9 6 32.8953 1.70171 4
-1 9 6 28.511 2.05726 6
0 -9 -6 55.5225 2.6134 1
0 -9 -6 52.105 2.49003 7
0 9 6 52.8448 2.28568 4
0 9 6 54.2661 2.86336 6
-1 -9 -6 26.926 1.77422 7
-1 -9 -6 24.933 1.75044 1
1 9 6 32.3461 1.72407 4
1 9 6 26.5832 2.05147 6
-2 -9 -6 29.3558 1.89849 1
-2 -9 -6 30.6871 1.94063 7
2 9 6 32.3294 1.78374 4
2 9 6 28.8025 2.14442 6
-3 -9 -6 67.0789 2.94228 1
-3 -9 -6 68.2928 3.04485 7
3 9 6 67.4829 3.47528 6
3 9 6 63.0627 2.78778 4
-4 -9 -6 35.9213 2.17965 7
-4 -9 -6 34.9359 2.09951 1
4 9 6 32.5659 2.00548 4
4 9 6 36.4328 2.5106 6
-5 -9 -6 19.3918 1.67975 7
-5 -9 -6 24.6492 1.76304 1
5 9 6 22.2597 2.14503 6
5 9 6 20.1156 1.66514 4
5 9 6 22.2037 1.61758 5
2 -10 -6 0.10858 0.5958 1
2 -10 -6 -0.3205 0.39434 7
-2 10 6 0.27378 0.55886 6
-2 10 6 0.45859 0.53864 8
1 -10 -6 1.73662 0.73449 1
1 -10 -6 0.90322 0.61429 7
-1 10 6 1.34183 0.54699 4
-1 10 6 0.38155 0.658 6
-1 10 6 0.3697 0.58132 8
0 -10 -6 3.08335 0.82647 7
0 -10 -6 3.18634 0.96548 1
0 10 6 4.83502 0.85819 4
0 10 6 3.28849 1.03117 6
-1 -10 -6 3.52602 0.97112 1
-1 -10 -6 2.97512 0.82375 7
1 10 6 2.79626 0.75708 4
1 10 6 2.83838 0.93739 6
-2 -10 -6 2.17723 0.78392 7
-2 -10 -6 1.71588 0.70962 1
2 10 6 3.44755 0.82065 4
2 10 6 2.64858 0.94349 6
-3 -10 -6 31.1841 2.09642 1
-3 -10 -6 32.0652 2.10179 7
3 10 6 31.4168 2.43659 6
3 10 6 32.4171 1.99306 4
-4 -10 -6 39.9072 2.44883 7
-4 -10 -6 34.1171 2.1732 1
4 10 6 37.7184 2.21505 4
4 10 6 35.8768 2.66726 6
1 -11 -6 1.44772 0.72256 7
-1 11 6 1.31491 0.86684 6
0 -11 -6 37.1081 2.33272 1
0 -11 -6 37.3942 2.3315 7
0 11 6 39.7884 2.70734 6
0 11 6 34.9931 2.13176 4
-1 -11 -6 41.7773 2.4626 7
-1 -11 -6 37.933 2.39249 1
1 11 6 38.0736 2.73498 6
1 11 6 43.3416 2.32674 4
-2 -11 -6 24.7459 1.94078 7
-2 -11 -6 23.423 1.87585 1
2 11 6 26.6561 1.89576 4
2 11 6 23.3492 2.1393 6
-3 -11 -6 8.86204 1.42606 7
3 11 6 8.29242 1.60701 6
1 7 -7 12.5388 1.46281 4
0 7 -7 6.62877 1.14962 4
0 7 -7 4.8197 0.96482 8
0 -7 7 4.63589 1.09694 2
-1 7 -7 12.0013 1.43574 8
-1 7 -7 9.66782 1.32939 4
1 -7 7 12.4068 1.48648 2
-2 7 -7 12.7178 1.5596 4
-2 7 -7 13.9937 1.56877 8
2 -7 7 11.2076 1.42749 2
-3 7 -7 15.2326 1.74865 4
-3 7 -7 18.0112 1.87454 8
3 -7 7 18.7405 1.8274 2
2 6 -7 2.59232 0.79765 4
2 6 -7 1.58275 0.83912 1
-2 -6 7 2.77056 0.78367 3
-2 -6 7 2.70147 0.87054 2
1 6 -7 64.635 2.89012 4
1 6 -7 65.1128 3.16869 1
-1 -6 7 62.8599 3.00024 2
0 6 -7 83.0058 3.56804 1
0 6 -7 83.6998 3.366 4
0 -6 7 80.2354 3.41485 2
-1 6 -7 3.24334 0.88254 1
-1 6 -7 3.72336 0.86598 8
-1 6 -7 3.63039 0.86809 4
1 -6 7 3.69795 0.84923 2
-2 6 -7 10.8736 1.32869 4
-2 6 -7 7.96373 1.20371 1
-2 6 -7 7.11187 1.1033 8
2 -6 7 9.61884 1.24991 2
-3 6 -7 9.86147 1.30816 8
-3 6 -7 12.9001 1.44962 4
3 -6 7 13.027 1.47102 2
-4 6 -7 3.82023 1.00147 8
-4 6 -7 1.32402 0.73951 4
4 -6 7 2.41414 0.79656 2
-5 6 -7 14.3311 1.69825 4
-5 6 -7 12.3457 1.67579 8
5 -6 7 14.1521 1.68688 2
3 5 -7 143.212 5.1754 1
3 5 -7 137.907 4.81056 4
-3 -5 7 142.199 4.84383 3
-3 -5 7 140.871 5.11715 2
2 5 -7 111.136 4.06731 4
2 5 -7 121.054 4.48631 1
-2 -5 7 115.465 4.37063 2
-2 -5 7 114.509 4.10052 3
1 5 -7 67.8501 3.12137 1
1 5 -7 71.0195 2.88673 4
-1 -5 7 70.96 3.03143 2
0 5 -7 5.68229 1.03937 1
0 5 -7 4.89578 0.8673 4
0 -5 7 4.9784 0.93019 2
-1 5 -7 65.0334 2.73942 4
-1 5 -7 63.109 2.82019 1
1 -5 7 64.6942 2.77899 2
-2 5 -7 300.565 8.44686 1
-2 5 -7 289.754 8.33788 4
-2 5 -7 282.571 8.43047 8
2 -5 7 299.973 8.4002 2
-3 5 -7 6.2797 1.06838 8
-3 5 -7 7.11102 1.05222 1
-3 5 -7 4.4307 0.86612 4
3 -5 7 6.12126 1.01623 2
-4 5 -7 13.3015 1.48872 8
-4 5 -7 12.728 1.40423 4
4 -5 7 12.6546 1.47132 2
-5 5 -7 18.5264 1.88564 8
-5 5 -7 21.4627 1.66939 4
5 -5 7 20.0845 1.90495 2
-6 5 -7 10.2078 1.47851 8
-6 5 -7 5.1369 1.114 4
6 -5 7 9.19394 1.32874 2
4 4 -7 20.1137 1.49238 4
4 4 -7 18.7444 1.87878 1
-4 -4 7 18.9699 1.53428 3
-4 -4 7 18.1105 1.85999 2
3 4 -7 95.5059 3.56013 4
3 4 -7 102.563 3.93289 1
-3 -4 7 92.1399 3.8119 2
-3 -4 7 99.73 3.71586 3
2 4 -7 18.5187 1.49702 1
2 4 -7 17.221 1.27892 4
-2 -4 7 17.6653 1.44398 2
-2 -4 7 19.8751 1.43864 3
1 4 -7 175.302 5.63876 1
1 4 -7 176.12 5.26507 4
-1 -4 7 169.481 5.48515 2
0 4 -7 74.8291 3.11044 1
0 4 -7 80.2375 2.91621 4
0 -4 7 77.449 3.04709 2
-1 4 -7 354.178 9.31844 4
-1 4 -7 331.464 9.48266 1
1 -4 7 345.501 9.42244 2
-2 4 -7 29.1057 1.63361 4
-2 4 -7 33.0847 1.77141 1
2 -4 7 25.9954 1.61133 2
-3 4 -7 -0.3035 0.3404 1
-3 4 -7 0.25662 0.47046 8
-3 4 -7 0.37332 0.4017 4
3 -4 7 0.38806 0.47574 2
-4 4 -7 160.99 5.27746 4
-4 4 -7 167.072 5.02584 1
-4 4 -7 159.409 5.39143 8
4 -4 7 165.744 5.26821 2
-5 4 -7 94.5918 3.66966 4
-5 4 -7 85.935 3.61017 8
5 -4 7 86.9638 3.46366 2
5 -4 7 87.385 3.07872 5
-6 4 -7 372.929 10.6121 8
6 -4 7 368.571 10.3387 2
6 -4 7 355.213 9.89696 5
-7 4 -7 6.48026 1.24756 8
7 -4 7 5.11091 0.9548 5
4 3 -7 20.0546 2.32638 4
4 3 -7 15.8087 1.60825 1
-4 -3 7 14.8399 1.55439 3
-4 -3 7 15.6777 1.71465 2
3 3 -7 43.4317 2.31521 1
3 3 -7 43.5117 1.99057 4
-3 -3 7 45.1059 2.23939 3
-3 -3 7 39.2149 2.24989 2
2 3 -7 133.729 4.56499 1
2 3 -7 132.045 4.12552 4
-2 -3 7 133.901 4.41563 3
-2 -3 7 125.449 4.42183 2
1 3 -7 190.592 5.80289 1
1 3 -7 183.724 5.32054 4
-1 -3 7 181.205 5.63021 2
0 3 -7 66.3587 2.75114 1
0 3 -7 69.1152 2.50179 4
0 -3 7 68.1107 2.69058 2
-1 3 -7 29.9872 1.71727 1
-1 3 -7 32.2648 1.56346 4
1 -3 7 32.2622 1.68649 2
-2 3 -7 1.28105 0.5101 1
-2 3 -7 0.08285 0.38407 4
2 -3 7 -0.2317 0.36574 2
-3 3 -7 364.763 9.60768 1
-3 3 -7 359.899 9.83308 8
-3 3 -7 341.623 9.57084 4
3 -3 7 366.502 9.10272 5
3 -3 7 356.123 9.6077 2
-4 3 -7 66.4346 2.52083 1
-4 3 -7 68.7418 2.74972 4
-4 3 -7 67.1112 2.86049 8
4 -3 7 67.631 2.71014 2
4 -3 7 64.4956 2.35523 5
-5 3 -7 109.389 3.5105 1
-5 3 -7 112.498 4.07665 4
-5 3 -7 110.521 4.07033 8
5 -3 7 110.454 3.6398 5
5 -3 7 108.835 3.89818 2
-6 3 -7 18.5105 1.81779 8
6 -3 7 19.0028 1.534 2
6 -3 7 19.3463 1.42277 5
-7 3 -7 29.7172 2.04342 8
7 -3 7 26.7196 1.77155 5
7 -3 7 24.572 1.84625 2
5 2 -7 29.5179 2.48406 5
5 2 -7 29.052 1.93909 1
-5 -2 7 31.5895 2.05751 3
-5 -2 7 29.9754 2.07053 2
4 2 -7 24.3079 1.72078 1
4 2 -7 24.0226 1.52952 5
-4 -2 7 22.8875 1.66918 3
-4 -2 7 23.8843 1.77951 2
3 2 -7 -0.6589 0.48075 1
3 2 -7 0.24954 0.32898 4
3 2 -7 -0.089 0.34746 5
-3 -2 7 0.34048 0.47906 3
-3 -2 7 0.215 0.56025 2
2 2 -7 34.9123 1.56804 5
2 2 -7 35.0777 1.89701 1
2 2 -7 32.7074 1.52831 4
-2 -2 7 31.5406 1.77576 2
-2 -2 7 35.1853 1.81914 3
1 2 -7 175.932 5.43555 1
1 2 -7 178.725 4.92098 5
1 2 -7 178.813 4.9533 4
-1 -2 7 174.247 5.34332 2
0 2 -7 32.7531 1.69856 1
0 2 -7 30.9028 1.39918 4
0 -2 7 32.8306 1.65566 2
-1 2 -7 0.86027 0.4745 1
-1 2 -7 1.0063 0.36459 4
1 -2 7 0.75889 0.45725 2
-2 2 -7 584.952 14.4153 4
-2 2 -7 590.498 14.6278 1
2 -2 7 551.173 14.4712 2
-3 2 -7 50.5825 2.19504 7
-3 2 -7 49.9228 2.0326 1
-3 2 -7 49.2275 2.03488 4
3 -2 7 48.2193 1.82608 5
3 -2 7 47.2311 2.11128 6
3 -2 7 47.1065 2.0205 2
-4 2 -7 2.59116 0.66351 4
-4 2 -7 2.42613 0.52584 1
-4 2 -7 2.20686 0.63218 7
-4 2 -7 3.56746 0.76955 8
4 -2 7 2.61405 0.55075 6
4 -2 7 2.08015 0.52983 2
4 -2 7 1.88697 0.49829 5
-5 2 -7 37.7528 2.02756 7
-5 2 -7 40.405 2.0844 8
-5 2 -7 38.2878 1.652 1
5 -2 7 38.937 1.84567 5
5 -2 7 38.8854 1.92555 2
-6 2 -7 3.87235 0.86837 7
-6 2 -7 6.43215 1.06294 8
6 -2 7 6.56557 1.04411 2
6 -2 7 3.65047 0.80414 5
-7 2 -7 216.873 6.73958 8
-7 2 -7 205.341 6.67897 7
7 -2 7 208.266 6.5725 5
7 -2 7 217.83 6.61593 2
5 1 -7 80.2238 3.27376 1
5 1 -7 77.975 3.32411 5
-5 -1 7 80.4436 3.44739 3
-5 -1 7 77.6165 3.45289 2
4 1 -7 7.52558 1.06481 5
4 1 -7 7.44568 1.08787 1
-4 -1 7 8.17806 1.1462 3
-4 -1 7 6.11128 1.07491 2
3 1 -7 14.9626 1.42285 1
3 1 -7 15.5307 1.17623 5
3 1 -7 17.6283 1.17332 4
-3 -1 7 17.0403 1.36279 2
-3 -1 7 16.4795 1.3363 3
2 1 -7 227.18 6.25412 5
2 1 -7 215.454 5.89723 4
2 1 -7 216.424 6.49277 1
-2 -1 7 234.671 6.52838 3
-2 -1 7 221.23 6.44827 2
1 1 -7 181.423 5.42905 1
1 1 -7 182.647 4.83629 4
-1 -1 7 175.814 5.28742 2
0 1 -7 2.99949 0.61865 1
0 1 -7 3.79406 0.4626 4
0 -1 7 4.05759 0.63592 2
-1 1 -7 246.5 6.72213 7
-1 1 -7 242.053 6.84366 1
-1 1 -7 245.706 6.42002 4
1 -1 7 248.726 6.68136 2
-2 1 -7 92.9599 3.14298 1
-2 1 -7 94.5776 2.90317 4
-2 1 -7 90.4819 3.15059 7
2 -1 7 90.2018 3.26339 6
2 -1 7 93.3565 3.00719 2
-3 1 -7 35.5975 1.60701 4
-3 1 -7 33.0322 1.58195 1
-3 1 -7 34.8048 1.74221 7
3 -1 7 38.8406 1.75715 6
3 -1 7 34.5531 1.51877 5
3 -1 7 33.4229 1.54842 2
-4 1 -7 55.7972 2.32437 8
-4 1 -7 49.7504 1.99427 1
-4 1 -7 53.3009 2.35272 7
4 -1 7 50.8354 2.08327 6
4 -1 7 53.6041 2.11738 2
4 -1 7 55.5465 2.13718 5
-5 1 -7 5.29905 0.88251 8
-5 1 -7 3.0572 0.68637 7
-5 1 -7 4.04611 0.57147 1
5 -1 7 4.38175 0.75405 2
5 -1 7 4.03621 0.69253 5
-6 1 -7 23.8092 1.62506 7
-6 1 -7 22.9261 1.55637 8
6 -1 7 21.0709 1.43123 2
6 -1 7 22.0975 1.51977 5
-7 1 -7 1.46335 0.68605 8
-7 1 -7 0.95938 0.61515 7
7 -1 7 1.06316 0.59017 2
7 -1 7 0.05287 0.48795 5
-8 1 -7 25.9495 1.824 7
-8 1 -7 26.2903 1.96786 8
8 -1 7 21.4512 1.80209 5
8 -1 7 23.3403 1.74374 2
5 0 -7 5.24408 0.93388 1
5 0 -7 6.89596 1.11736 5
-5 0 7 4.65001 0.96237 3
-5 0 7 6.00033 1.10416 2
4 0 -7 31.0033 1.84591 5
4 0 -7 31.5378 1.79017 1
-4 0 7 32.8235 1.93497 2
-4 0 7 29.9733 1.8592 3
3 0 -7 136.969 4.31475 5
3 0 -7 128.63 4.27506 1
-3 0 7 129.358 4.3563 3
-3 0 7 129.282 4.32956 2
2 0 -7 6.54563 0.56842 4
2 0 -7 5.11751 0.80942 1
2 0 -7 5.54925 0.78049 5
-2 0 7 3.84977 0.74974 3
-2 0 7 3.81015 0.67912 2
1 0 -7 4.60972 0.42433 4
1 0 -7 2.93707 0.56492 1
-1 0 7 4.75722 0.64984 2
0 0 -7 152.574 3.84777 4
0 0 -7 147.871 4.50556 1
0 0 -7 143.701 4.19983 7
0 0 7 141.093 4.23929 2
-1 0 -7 51.8754 2.01153 7
-1 0 -7 53.0059 2.13367 1
-1 0 -7 54.1545 1.70103 4
1 0 7 51.8049 1.91378 2
1 0 7 49.7204 2.27474 6
-2 0 -7 66.4271 2.39477 7
-2 0 -7 59.5696 2.28116 1
-2 0 -7 61.2856 2.0528 4
2 0 7 62.3972 2.48722 6
2 0 7 58.8175 2.14845 5
2 0 7 60.6722 2.10857 2
-3 0 -7 0.53612 0.34434 7
-3 0 -7 0.19823 0.31356 1
3 0 7 0.46391 0.33246 5
3 0 7 0.07681 0.29387 6
3 0 7 -0.14 0.23687 2
-4 0 -7 143.422 4.59703 7
-4 0 -7 140.782 4.21569 1
-4 0 -7 146.299 4.49067 8
4 0 7 144.787 4.40555 6
4 0 7 145.895 4.41747 5
4 0 7 149.62 4.26226 2
-5 0 -7 5.44705 0.88706 7
-5 0 -7 7.19879 0.95957 8
-5 0 -7 6.11681 0.69355 1
5 0 7 6.1772 0.77055 2
5 0 7 4.86098 0.74516 5
5 0 7 7.26353 0.85348 6
-6 0 -7 8.59208 1.06311 8
-6 0 -7 8.19089 1.07823 7
6 0 7 9.86609 1.17739 5
6 0 7 7.54226 0.94639 2
-7 0 -7 2.83164 0.79186 8
-7 0 -7 3.42666 0.7907 7
7 0 7 4.10529 0.81046 2
7 0 7 3.53356 0.86635 5
-8 0 -7 5.57981 1.06295 7
-8 0 -7 5.49749 0.99146 8
8 0 7 5.88404 1.18118 5
5 -1 -7 1.95605 0.63119 1
5 -1 -7 2.2922 0.78674 5
-5 1 7 1.97896 0.72449 3
4 -1 -7 100.346 3.60716 1
4 -1 -7 109.465 3.89192 5
-4 1 7 103.348 3.79452 2
-4 1 7 97.4165 3.74134 3
3 -1 -7 7.83211 0.9536 1
3 -1 -7 8.09618 1.03057 5
-3 1 7 7.66757 0.98316 3
-3 1 7 6.37193 0.88191 2
2 -1 -7 6.43396 0.90844 1
-2 1 7 5.23725 0.76733 3
-2 1 7 5.33649 0.78255 2
1 -1 -7 0.05569 0.20132 7
1 -1 -7 -0.1219 0.35173 1
-1 1 7 0.06024 0.26226 2
0 -1 -7 159.152 4.42673 7
0 -1 -7 156.367 4.67834 1
0 1 7 156.464 4.40984 2
0 1 7 157.087 5.04952 6
-1 -1 -7 282.607 7.63822 7
-1 -1 -7 289.531 7.76161 1
1 1 7 294.38 8.12775 6
1 1 7 292.76 7.43504 2
-2 -1 -7 184.561 5.16414 7
-2 -1 -7 173.01 5.07213 1
2 1 7 179.215 4.78175 2
2 1 7 177.162 5.3697 6
-3 -1 -7 26.7464 1.43741 7
-3 -1 -7 28.2992 1.3557 1
3 1 7 27.6787 1.48112 6
3 1 7 24.8595 1.34049 5
3 1 7 26.3468 1.16861 2
-4 -1 -7 18.6219 1.17293 8
-4 -1 -7 16.8039 1.20714 7
-4 -1 -7 19.7676 1.08225 1
4 1 7 19.4084 1.02107 2
4 1 7 22.2378 1.3014 5
4 1 7 19.9651 1.25368 6
-5 -1 -7 23.5716 1.16331 1
-5 -1 -7 23.0985 1.34112 8
-5 -1 -7 21.593 1.45115 7
5 1 7 20.9426 1.19219 2
5 1 7 25.154 1.39212 6
5 1 7 25.0152 1.48001 5
-6 -1 -7 156.452 4.74167 8
-6 -1 -7 148.555 4.9631 7
6 1 7 149.726 4.95617 5
6 1 7 150.254 4.56102 2
-7 -1 -7 1.01357 0.52842 8
-7 -1 -7 0.89491 0.55383 7
7 1 7 0.67132 0.49307 2
7 1 7 0.64801 0.63302 5
-8 -1 -7 3.90675 0.91677 7
-8 -1 -7 6.26029 0.97078 8
8 1 7 4.27186 0.88569 2
8 1 7 7.26982 1.27458 5
5 -2 -7 1.91114 0.63541 1
5 -2 -7 1.90695 0.71689 5
-5 2 7 3.12036 0.91947 6
-5 2 7 2.17491 0.8238 3
4 -2 -7 5.26165 0.83881 1
4 -2 -7 4.65321 0.92409 5
-4 2 7 4.32621 1.0079 6
-4 2 7 4.36326 0.89102 3
3 -2 -7 0.13456 0.37579 1
3 -2 -7 -0.0495 0.36196 5
-3 2 7 -0.7804 0.35966 2
-3 2 7 0.18978 0.43454 3
-3 2 7 -0.0888 0.44427 6
2 -2 -7 18.8353 0.81907 7
2 -2 -7 20.3822 1.27125 1
-2 2 7 16.8797 1.42709 6
-2 2 7 19.3154 1.24797 3
-2 2 7 19.94 1.17899 2
1 -2 -7 19.7807 1.25355 1
1 -2 -7 18.3052 0.89356 7
-1 2 7 15.6962 1.06286 3
-1 2 7 17.5858 1.34503 6
-1 2 7 16.274 0.99508 2
0 -2 -7 129.69 4.02703 1
0 -2 -7 133.038 3.78438 7
0 2 7 132.612 3.68762 2
0 2 7 125.662 4.32703 6
-1 -2 -7 181.072 5.13547 1
-1 -2 -7 182.415 5.04046 7
1 2 7 180.086 4.69642 2
1 2 7 170.126 5.41501 6
-2 -2 -7 15.1885 1.01531 7
-2 -2 -7 13.0833 0.96424 1
2 2 7 17.2033 1.03552 5
2 2 7 13.4217 0.70437 2
2 2 7 14.9299 1.10663 6
-3 -2 -7 77.0905 2.738 7
-3 -2 -7 71.6483 2.54145 1
3 2 7 74.0785 2.65957 5
3 2 7 75.5897 2.22096 2
3 2 7 72.3362 2.80924 6
-4 -2 -7 71.5827 2.73512 7
-4 -2 -7 70.045 2.46554 1
4 2 7 73.9161 2.79826 6
4 2 7 71.6368 2.69543 5
4 2 7 70.2608 2.23873 2
-5 -2 -7 84.6342 2.77245 1
-5 -2 -7 88.6494 3.2499 7
-5 -2 -7 86.7489 2.91449 8
5 2 7 87.6622 2.75324 2
5 2 7 84.5967 3.20422 5
5 2 7 85.044 3.1284 6
-6 -2 -7 0.51874 0.54723 7
-6 -2 -7 0.56419 0.38362 8
6 2 7 0.79228 0.40291 2
6 2 7 1.08836 0.57801 5
6 2 7 0.488 0.38805 6
-7 -2 -7 4.74693 0.83636 8
-7 -2 -7 4.46108 0.88523 7
7 2 7 4.22645 0.93191 5
-8 -2 -7 37.882 2.25047 7
8 2 7 41.4459 2.44818 5
5 -3 -7 49.2504 2.45743 1
5 -3 -7 53.3976 2.77614 5
-5 3 7 53.7161 2.71415 3
-5 3 7 49.653 2.79985 6
-5 3 7 52.055 2.74279 8
4 -3 -7 10.2643 1.11461 1
4 -3 -7 9.2626 1.20297 5
-4 3 7 8.38972 1.10501 3
-4 3 7 8.6187 1.15812 8
-4 3 7 10.5279 1.38961 6
3 -3 -7 94.4387 3.61029 5
3 -3 -7 102.329 3.42886 1
-3 3 7 102.852 3.53981 3
-3 3 7 103.518 3.69287 8
-3 3 7 93.051 3.8239 6
2 -3 -7 49.2693 1.65274 7
2 -3 -7 52.8309 2.17308 1
-2 3 7 52.2486 2.52046 6
-2 3 7 51.9541 2.17843 3
1 -3 -7 151.139 4.11731 7
1 -3 -7 145.007 4.49173 1
-1 3 7 150.775 4.21008 2
-1 3 7 156.002 4.44608 3
-1 3 7 137.601 4.84338 6
0 -3 -7 2.76442 0.47284 7
0 -3 -7 3.7178 0.60214 1
0 3 7 1.61574 0.33209 2
0 3 7 1.55536 0.54606 6
-1 -3 -7 218.617 5.80035 7
-1 -3 -7 207.459 5.8849 1
1 3 7 209.403 5.2736 2
1 3 7 199.671 6.17304 6
-2 -3 -7 208.184 5.79586 7
-2 -3 -7 205.135 5.75862 1
2 3 7 203.766 5.07161 2
2 3 7 202.803 6.08338 6
-3 -3 -7 304.216 8.18065 1
-3 -3 -7 304.363 8.34337 7
3 3 7 316.195 7.55633 2
3 3 7 306.713 8.34072 5
3 3 7 314.214 8.6124 6
-4 -3 -7 0.17849 0.31383 1
-4 -3 -7 -0.3929 0.31254 7
4 3 7 -0.1668 0.32456 5
4 3 7 0.37363 0.40814 6
4 3 7 0.04119 0.19678 2
-5 -3 -7 13.79 1.19235 7
-5 -3 -7 13.0214 0.94131 1
-5 -3 -7 13.1069 0.904 8
5 3 7 13.2595 1.12935 6
5 3 7 11.2283 1.18235 5
5 3 7 13.2276 0.78966 2
-6 -3 -7 -0.6281 0.35417 7
6 3 7 0.24286 0.48519 5
6 3 7 -0.0531 0.42608 6
-7 -3 -7 93.1949 3.69489 7
7 3 7 99.7763 3.9119 5
-8 -3 -7 26.5425 1.88069 7
8 3 7 28.6848 2.09724 5
5 -4 -7 8.60515 1.3842 5
-5 4 7 12.7726 1.57233 6
-5 4 7 8.14858 1.31882 8
-5 4 7 11.1596 1.42858 3
4 -4 -7 20.5816 1.35562 1
4 -4 -7 19.0954 1.55127 5
-4 4 7 17.7262 1.68598 3
-4 4 7 19.6507 1.6557 6
-4 4 7 21.1663 1.70856 8
3 -4 -7 5.96785 0.95287 5
3 -4 -7 5.32523 0.81122 1
-3 4 7 5.38628 0.82869 3
-3 4 7 4.58747 0.92135 6
-3 4 7 5.5028 0.96627 8
2 -4 -7 6.67164 0.61538 7
2 -4 -7 7.60323 0.94993 1
-2 4 7 6.40228 0.81665 3
-2 4 7 7.76163 1.00565 8
-2 4 7 6.74513 1.06979 6
1 -4 -7 117.751 3.79774 1
1 -4 -7 118.542 3.41954 7
-1 4 7 113.07 4.12144 6
-1 4 7 112.82 3.59626 3
0 -4 -7 4.79894 0.74782 1
0 -4 -7 3.95711 0.55915 7
0 4 7 3.78145 0.5544 3
0 4 7 4.47594 0.83358 6
-1 -4 -7 1.8594 0.47077 7
-1 -4 -7 2.11115 0.49239 1
1 4 7 2.9978 0.32059 4
1 4 7 2.44766 0.64677 6
-2 -4 -7 61.8069 2.33548 1
-2 -4 -7 59.4934 2.31721 7
2 4 7 58.033 2.56739 6
-3 -4 -7 195.765 5.62678 1
-3 -4 -7 197.253 5.74688 7
3 4 7 202.158 6.10924 6
3 4 7 193.542 5.73638 5
-4 -4 -7 1.31426 0.54366 7
-4 -4 -7 1.8852 0.51356 1
4 4 7 2.74701 0.65879 6
4 4 7 2.43991 0.29614 2
4 4 7 1.65933 0.53534 5
-5 -4 -7 58.1837 2.5824 7
-5 -4 -7 61.3604 2.3105 1
5 4 7 64.2479 2.68344 5
5 4 7 57.9982 2.67281 6
-6 -4 -7 133.312 4.6156 7
-6 -4 -7 137.171 4.13329 1
6 4 7 135.251 4.70922 6
6 4 7 137.804 4.73263 5
-7 -4 -7 113.816 4.2529 7
7 4 7 115.08 4.25153 6
7 4 7 114.577 4.38404 5
-8 -4 -7 12.0341 1.45927 7
8 4 7 13.1513 1.65516 5
5 -5 -7 0.40264 0.58586 5
-5 5 7 0.54683 0.57071 3
-5 5 7 0.43027 0.6397 8
4 -5 -7 0.55939 0.41087 1
4 -5 -7 -0.2526 0.45609 5
-4 5 7 0.91002 0.6266 3
-4 5 7 -0.3657 0.48033 8
-4 5 7 0.50989 0.56446 6
3 -5 -7 3.18409 0.68989 1
3 -5 -7 2.56145 0.7044 5
-3 5 7 2.81215 0.69412 8
-3 5 7 2.97475 0.66324 3
-3 5 7 3.09775 0.8121 6
2 -5 -7 24.2444 1.14607 7
2 -5 -7 24.8405 1.48006 1
-2 5 7 23.568 1.35937 3
-2 5 7 23.5035 1.68442 6
-2 5 7 21.9016 1.46113 8
1 -5 -7 81.148 2.65016 7
1 -5 -7 81.005 2.94402 1
-1 5 7 78.4192 2.67586 3
-1 5 7 74.7989 2.84823 8
-1 5 7 76.5179 3.20911 6
0 -5 -7 0.15921 0.3886 1
0 -5 -7 0.57653 0.32324 7
0 5 7 0.27304 0.4518 6
0 5 7 0.0176 0.23686 3
-1 -5 -7 11.5298 0.90747 7
-1 -5 -7 12.76 1.00681 1
1 5 7 11.1357 0.63312 4
1 5 7 11.2343 1.30838 6
-2 -5 -7 12.1523 1.02852 1
-2 -5 -7 11.3895 1.10419 7
2 5 7 10.3159 1.22202 6
2 5 7 12.3715 0.77006 4
-3 -5 -7 8.37627 0.97297 7
-3 -5 -7 11.1054 1.08492 1
3 5 7 9.36637 1.04668 5
3 5 7 8.78731 1.17102 6
-4 -5 -7 1.03207 0.49057 1
-4 -5 -7 0.13317 0.45265 7
4 5 7 0.74369 0.43943 5
4 5 7 1.2355 0.54869 6
-5 -5 -7 19.1917 1.47254 7
-5 -5 -7 20.1691 1.27935 1
5 5 7 21.1817 1.59768 6
5 5 7 19.4645 1.43257 5
-6 -5 -7 3.92074 0.83763 7
-6 -5 -7 3.50638 0.67525 1
6 5 7 4.04051 0.95687 5
6 5 7 4.54512 1.00032 6
-7 -5 -7 92.6132 3.73507 7
7 5 7 92.9307 3.84824 6
7 5 7 93.0439 3.85957 5
5 -6 -7 1.20493 0.76162 5
-5 6 7 0.21964 0.69498 8
-5 6 7 1.33692 0.71809 3
4 -6 -7 162.053 5.15371 1
4 -6 -7 169.045 5.75831 5
-4 6 7 157.707 5.63218 8
-4 6 7 171.748 5.75266 6
-4 6 7 161.611 5.34495 3
3 -6 -7 1.34429 0.6335 5
3 -6 -7 1.09534 0.5477 1
-3 6 7 0.71688 0.51771 3
-3 6 7 0.37258 0.54754 8
-3 6 7 0.68923 0.64419 6
2 -6 -7 91.6659 2.95934 7
2 -6 -7 93.789 3.32 1
-2 6 7 81.9504 3.56194 6
-2 6 7 87.7743 3.10265 3
-2 6 7 90.9992 3.37754 8
1 -6 -7 1.89922 0.49539 7
1 -6 -7 2.277 0.67589 1
-1 6 7 3.61057 0.71045 8
-1 6 7 1.73919 0.63535 6
-1 6 7 1.97874 0.4771 3
0 -6 -7 178.637 5.52464 1
0 -6 -7 182.952 5.38657 7
0 6 7 191.612 5.05921 3
0 6 7 175.259 5.92756 6
0 6 7 191.435 5.37417 8
-1 -6 -7 191.085 5.71584 1
-1 -6 -7 189.281 5.60985 7
1 6 7 182.873 6.08779 6
1 6 7 191.954 5.03634 3
1 6 7 194.191 5.10824 4
-2 -6 -7 0.2298 0.40171 7
-2 -6 -7 0.1234 0.37758 1
2 6 7 0.59676 0.31046 4
2 6 7 -0.2002 0.45073 6
-3 -6 -7 0.9251 0.42376 1
-3 -6 -7 0.86273 0.45646 7
3 6 7 0.22835 0.33288 4
3 6 7 0.68211 0.50937 6
3 6 7 1.27137 0.50366 5
-4 -6 -7 4.90979 0.80042 1
-4 -6 -7 3.80472 0.77092 7
4 6 7 3.22404 0.87534 6
4 6 7 5.03274 0.82409 5
-5 -6 -7 0.43546 0.42727 1
-5 -6 -7 0.59882 0.49422 7
5 6 7 0.06669 0.47919 6
5 6 7 0.04921 0.4231 5
-6 -6 -7 8.94107 1.06973 1
-6 -6 -7 8.64304 1.20191 7
6 6 7 8.11779 1.2192 5
6 6 7 8.0339 1.25003 6
-7 -6 -7 3.07507 0.8565 7
7 6 7 3.93284 0.98608 6
7 6 7 4.76421 1.01738 5
4 -7 -7 113.35 4.05088 1
4 -7 -7 124.039 4.68603 5
-4 7 7 110.716 4.51109 8
-4 7 7 118.886 4.19995 3
3 -7 -7 22.5837 1.5833 1
3 -7 -7 25.737 1.807 5
-3 7 7 23.3312 1.51014 3
-3 7 7 25.0829 1.89076 6
-3 7 7 26.0298 1.83082 8
2 -7 -7 9.90612 1.02031 7
2 -7 -7 11.6056 1.25756 1
-2 7 7 11.2402 1.11032 3
-2 7 7 10.0651 1.19062 8
-2 7 7 11.8153 1.47639 6
1 -7 -7 83.4396 3.16119 1
1 -7 -7 80.4173 2.92675 7
-1 7 7 76.397 2.97468 8
-1 7 7 82.4755 3.49317 6
-1 7 7 79.3711 2.70275 3
0 -7 -7 557.762 14.2974 1
0 -7 -7 557.482 14.1282 7
0 7 7 536.498 13.4885 3
0 7 7 541.585 14.7674 6
0 7 7 546.843 13.9131 8
-1 -7 -7 16.5893 1.28475 1
-1 -7 -7 16.9675 1.25846 7
1 7 7 17.0668 1.01408 4
1 7 7 15.7226 1.72574 6
-2 -7 -7 1.1079 0.5056 1
-2 -7 -7 0.89027 0.46073 7
2 7 7 0.43619 0.52051 6
2 7 7 0.05435 0.31219 4
-3 -7 -7 5.59417 0.88375 7
-3 -7 -7 5.68256 0.88053 1
3 7 7 6.42828 1.1639 6
3 7 7 5.52581 0.77001 4
-4 -7 -7 173.356 5.59713 7
-4 -7 -7 173.147 5.42462 1
4 7 7 172.483 5.48839 5
4 7 7 174.458 5.31649 4
4 7 7 169.285 5.9506 6
-5 -7 -7 9.18678 1.25776 7
-5 -7 -7 9.71221 1.17609 1
5 7 7 12.943 1.66358 6
5 7 7 9.75273 1.22965 5
-6 -7 -7 13.6658 1.51757 7
-6 -7 -7 13.3544 1.34966 1
6 7 7 13.9009 1.52999 5
6 7 7 12.0567 1.64536 6
-7 -7 -7 1.52534 0.75144 7
7 7 7 2.40088 0.82133 5
7 7 7 1.00727 0.84394 6
4 -8 -7 0.90192 0.7854 5
-4 8 7 0.01523 0.49704 3
-4 8 7 -0.1614 0.56991 8
3 -8 -7 52.6539 2.72274 5
3 -8 -7 49.4021 2.47401 1
-3 8 7 59.2897 2.94838 6
-3 8 7 52.1439 2.36158 3
-3 8 7 51.963 2.67187 8
2 -8 -7 172.624 5.43518 1
2 -8 -7 158.308 5.04943 7
-2 8 7 159.349 5.76585 6
-2 8 7 160.56 5.38483 8
-2 8 7 180.346 6.15012 3
1 -8 -7 75.8736 3.11257 1
1 -8 -7 72.3222 2.85866 7
-1 8 7 73.9827 2.91939 8
-1 8 7 69.6861 3.33054 6
0 -8 -7 5.08981 0.90121 1
0 -8 -7 4.96777 0.86693 7
0 8 7 5.41575 0.80162 8
0 8 7 3.92051 0.97328 6
-1 -8 -7 0.13189 0.55183 1
-1 -8 -7 0.21193 0.39079 7
1 8 7 -0.6003 0.38774 6
1 8 7 0.35058 0.36344 4
-2 -8 -7 183.375 5.77986 1
-2 -8 -7 178.453 5.75641 7
2 8 7 186.383 5.38885 4
2 8 7 177.966 6.23789 6
-3 -8 -7 159.349 5.44501 1
-3 -8 -7 173.805 5.63754 7
3 8 7 177.573 6.12305 6
3 8 7 174.784 5.2762 4
-4 -8 -7 54.9011 2.66611 7
-4 -8 -7 54.5068 2.53127 1
4 8 7 50.3903 2.38258 4
4 8 7 53.904 2.97121 6
4 8 7 50.0412 2.45818 5
-5 -8 -7 0.14033 0.5079 1
-5 -8 -7 -0.0585 0.46194 7
5 8 7 0.33682 0.48579 4
5 8 7 -0.2411 0.57611 6
5 8 7 0.21879 0.50636 5
-6 -8 -7 37.6532 2.12335 1
-6 -8 -7 33.5775 2.22424 7
6 8 7 37.3998 2.27417 5
6 8 7 32.578 2.43601 6
6 8 7 35.3724 2.22674 4
3 -9 -7 0.64448 0.69246 5
3 -9 -7 -0.0738 0.52097 1
-3 9 7 0.42891 0.63955 6
-3 9 7 -0.4525 0.45961 8
2 -9 -7 4.98301 0.94934 1
2 -9 -7 4.99808 0.84506 7
-2 9 7 5.89597 1.01828 8
-2 9 7 5.14522 1.13369 6
1 -9 -7 0.53163 0.56806 1
1 -9 -7 1.47551 0.56527 7
-1 9 7 1.51291 0.73998 6
-1 9 7 0.39694 0.47346 8
0 -9 -7 31.8893 1.96848 1
0 -9 -7 29.864 1.82361 7
0 9 7 29.056 2.14348 6
-1 -9 -7 202.84 6.52787 1
-1 -9 -7 208.322 6.50398 7
1 9 7 210.774 6.12716 4
1 9 7 211.661 7.08423 6
-2 -9 -7 82.0286 3.38537 1
-2 -9 -7 75.4927 3.2633 7
2 9 7 81.6096 3.05654 4
2 9 7 76.0458 3.66844 6
-3 -9 -7 0.64067 0.60774 1
-3 -9 -7 0.5343 0.61532 7
3 9 7 0.27666 0.49918 6
3 9 7 -0.2133 0.38959 4
-4 -9 -7 41.0061 2.32338 1
-4 -9 -7 43.9111 2.51462 7
4 9 7 43.559 2.88026 6
4 9 7 43.6713 2.26986 4
-5 -9 -7 119.482 4.42246 1
-5 -9 -7 110.724 4.53276 7
5 9 7 119.917 4.42412 5
5 9 7 118.399 4.44351 4
5 9 7 122.083 5.12993 6
2 -10 -7 15.57 1.7571 1
2 -10 -7 15.0226 1.50231 7
-2 10 7 13.418 1.50387 8
-2 10 7 13.5743 1.73336 6
1 -10 -7 4.95272 1.01038 1
1 -10 -7 4.9266 0.91827 7
-1 10 7 6.38717 0.99629 8
-1 10 7 6.53192 1.25653 6
0 -10 -7 1.76268 0.63428 7
0 -10 -7 2.64119 0.84008 1
0 10 7 0.74817 0.74799 6
-1 -10 -7 1.07958 0.64582 7
-1 -10 -7 1.3893 0.68928 1
1 10 7 2.64362 0.92358 6
1 10 7 1.23753 0.55013 4
-2 -10 -7 2.82999 0.91286 1
-2 -10 -7 3.33684 0.84281 7
2 10 7 6.02848 1.25964 6
2 10 7 4.58149 0.86433 4
-3 -10 -7 115.281 4.36906 1
-3 -10 -7 103.977 4.29888 7
3 10 7 108.173 4.8811 6
3 10 7 109.089 4.06674 4
-4 -10 -7 8.83415 1.35404 7
-4 -10 -7 11.2948 1.53998 1
4 10 7 12.8217 1.86433 6
4 10 7 13.346 1.59028 4
0 -11 -7 6.00525 1.12701 7
0 11 7 5.93989 1.32518 6
-1 -11 -7 8.21313 1.2986 1
-1 -11 -7 6.88632 1.27094 7
1 11 7 8.15177 1.20288 4
1 11 7 8.7942 1.60597 6
-2 -11 -7 10.3533 1.44805 7
2 11 7 14.0947 1.54701 4
2 11 7 12.16 1.8613 6
1 6 -8 6.15876 1.26703 1
1 6 -8 6.51885 1.08259 4
0 6 -8 36.8143 2.37275 1
0 6 -8 36.8672 2.13001 4
0 -6 8 37.4674 2.29277 2
-1 6 -8 16.8741 1.76763 1
-1 6 -8 19.2352 1.57612 4
1 -6 8 20.3783 1.95196 2
-2 6 -8 30.5692 2.02516 8
-2 6 -8 31.9186 2.11625 1
-2 6 -8 29.4585 1.97279 4
2 -6 8 31.0147 2.04787 2
-3 6 -8 -0.6797 0.4282 8
-3 6 -8 0.52791 0.60502 4
3 -6 8 -0.2697 0.47471 2
-4 6 -8 21.6809 1.76655 4
-4 6 -8 19.8488 2.02636 8
2 5 -8 11.8815 1.33396 4
2 5 -8 9.7855 1.40313 1
-2 -5 8 12.8779 1.47397 3
-2 -5 8 11.3491 1.467 2
1 5 -8 2.07687 0.77283 1
1 5 -8 0.82316 0.55221 4
-1 -5 8 2.01464 0.75183 2
0 5 -8 17.8982 1.8025 1
0 5 -8 17.1184 1.36592 4
0 -5 8 14.8785 1.55893 2
-1 5 -8 1.10113 0.58457 4
-1 5 -8 0.39191 0.60176 1
1 -5 8 0.49997 0.58534 2
-2 5 -8 111.4 4.12853 1
-2 5 -8 108.293 3.97501 4
-2 5 -8 109.12 4.14833 8
2 -5 8 108.095 4.02403 2
-3 5 -8 5.63723 1.05548 8
-3 5 -8 2.20517 0.75325 4
-3 5 -8 3.67187 0.81312 1
3 -5 8 3.30638 0.81392 2
-4 5 -8 33.481 2.09214 4
-4 5 -8 35.7467 1.96925 1
-4 5 -8 32.9043 2.18998 8
4 -5 8 31.3924 1.98143 2
-5 5 -8 1.14184 0.7605 8
-5 5 -8 0.44756 0.62099 4
5 -5 8 0.93567 0.64555 2
3 4 -8 0.22688 0.63557 1
-3 -4 8 0.19615 0.67683 2
-3 -4 8 -0.288 0.46241 3
2 4 -8 14.7118 1.22479 4
2 4 -8 12.62 1.54273 1
-2 -4 8 13.0164 1.40686 3
-2 -4 8 15.0955 1.62397 2
1 4 -8 28.708 1.95466 1
1 4 -8 32.5312 1.7415 4
-1 -4 8 30.5777 1.95067 2
0 4 -8 47.7948 2.14394 4
0 4 -8 46.2214 2.42349 1
0 -4 8 44.1229 2.27822 2
-1 4 -8 12.21 1.25701 4
-1 4 -8 10.8524 1.32403 1
1 -4 8 9.89369 1.2177 2
-2 4 -8 8.11527 1.12817 1
-2 4 -8 11.1599 1.19508 4
2 -4 8 8.35395 1.09407 2
-3 4 -8 31.6153 1.80084 4
-3 4 -8 31.8267 1.93566 8
-3 4 -8 30.9858 1.81553 1
3 -4 8 30.9061 1.84549 2
-4 4 -8 228.509 6.55264 1
-4 4 -8 211.63 6.8827 8
-4 4 -8 222.095 6.74443 4
4 -4 8 216.261 6.6797 2
-5 4 -8 6.29662 1.07369 4
-5 4 -8 8.9418 1.37442 8
5 -4 8 9.24443 1.26789 2
-6 4 -8 7.13793 1.24918 8
6 -4 8 7.08638 1.22678 2
3 3 -8 8.39308 1.30375 1
-3 -3 8 6.60598 1.09563 2
-3 -3 8 6.93087 1.15664 3
2 3 -8 33.3674 1.65039 4
2 3 -8 30.8634 2.05481 1
-2 -3 8 30.9021 1.84708 3
-2 -3 8 34.7962 2.04624 2
1 3 -8 16.8919 1.14864 4
1 3 -8 15.8251 1.6092 1
-1 -3 8 15.6181 1.52469 2
0 3 -8 -0.1022 0.51098 1
0 3 -8 -0.0143 0.33376 4
0 -3 8 0.112 0.41693 2
-1 3 -8 52.4061 2.47419 1
-1 3 -8 53.9498 2.22098 4
1 -3 8 56.7219 2.4386 2
-2 3 -8 23.7601 1.54208 1
-2 3 -8 25.9788 1.46673 4
2 -3 8 24.8654 1.54319 2
-3 3 -8 34.9517 1.8864 1
-3 3 -8 40.2683 1.92985 4
3 -3 8 36.6146 1.90292 2
-4 3 -8 8.97777 1.06135 1
-4 3 -8 8.15267 1.16304 8
-4 3 -8 10.4155 1.18814 4
4 -3 8 9.32032 1.16683 2
4 -3 8 9.59039 1.53754 6
4 -3 8 9.94517 0.95211 5
-5 3 -8 27.9396 1.54146 1
-5 3 -8 27.4624 1.82638 4
-5 3 -8 25.3439 1.84373 8
5 -3 8 28.5561 1.77283 2
5 -3 8 27.0007 1.52284 5
-6 3 -8 56.6402 2.88822 8
6 -3 8 58.9562 2.76633 2
6 -3 8 63.2651 2.63569 5
-7 3 -8 15.4268 1.79468 8
7 -3 8 19.3964 1.55236 5
4 2 -8 9.39869 1.3737 1
-4 -2 8 10.7779 1.44211 2
-4 -2 8 9.16141 1.36161 3
3 2 -8 10.23 1.29161 1
-3 -2 8 9.75896 1.284 3
-3 -2 8 9.06836 1.28485 2
2 2 -8 40.1434 1.81869 5
2 2 -8 39.2744 2.13379 1
-2 -2 8 41.7017 2.11945 3
-2 -2 8 41.6893 2.16894 2
1 2 -8 18.0945 1.07591 4
1 2 -8 20.5962 1.14484 5
1 2 -8 19.2107 1.46776 1
-1 -2 8 19.7777 1.411 2
0 2 -8 214.684 5.94856 4
0 2 -8 221.906 6.53891 1
0 -2 8 216.89 6.34029 2
-1 2 -8 133.641 4.36516 1
-1 2 -8 126.789 3.91636 4
1 -2 8 132.79 4.20113 2
-2 2 -8 9.0868 1.09467 1
-2 2 -8 9.30149 0.93528 4
2 -2 8 10.729 1.09619 2
-3 2 -8 4.56297 0.74835 1
-3 2 -8 5.36354 0.77723 4
-3 2 -8 6.74179 0.95291 7
3 -2 8 7.92499 0.94004 2
3 -2 8 5.69935 0.90053 6
3 -2 8 5.53078 0.68146 5
-4 2 -8 43.334 2.11319 4
-4 2 -8 43.3231 1.97784 1
-4 2 -8 48.0459 2.32942 7
-4 2 -8 48.3942 2.31629 8
4 -2 8 47.4352 2.13058 2
4 -2 8 46.8994 1.9404 5
4 -2 8 44.6388 2.07807 6
-5 2 -8 191.655 5.9079 8
-5 2 -8 177.339 5.86502 7
-5 2 -8 182.271 5.31294 1
5 -2 8 179.157 5.43896 5
5 -2 8 182.061 5.59571 2
-6 2 -8 0.76468 0.57593 7
-6 2 -8 0.51275 0.61273 8
6 -2 8 0.52271 0.53335 2
6 -2 8 0.0093 0.39019 5
-7 2 -8 1.34328 0.6869 8
-7 2 -8 0.38072 0.52411 7
7 -2 8 2.22399 0.73389 2
7 -2 8 0.7961 0.66989 5
4 1 -8 0.5711 0.54074 5
4 1 -8 0.10408 0.60146 1
-4 -1 8 0.36204 0.56351 3
-4 -1 8 -0.5972 0.47129 2
3 1 -8 33.4351 1.84799 5
3 1 -8 38.2359 2.09003 1
-3 -1 8 36.7316 2.06457 2
-3 -1 8 35.9656 2.05736 3
2 1 -8 21.4783 1.50457 1
2 1 -8 21.158 1.30178 5
-2 -1 8 19.8712 1.41188 3
-2 -1 8 20.6667 1.46278 2
1 1 -8 20.6849 1.08688 4
1 1 -8 20.0917 1.44128 1
-1 -1 8 19.8059 1.35311 2
0 1 -8 28.8716 1.20918 4
0 1 -8 25.7688 1.61535 1
0 -1 8 27.8842 1.51486 2
-1 1 -8 96.6899 2.93683 4
-1 1 -8 89.9878 3.34948 1
-1 1 -8 100.311 3.28508 7
1 -1 8 95.2351 3.20856 2
-2 1 -8 0.74877 0.344 4
-2 1 -8 1.11149 0.49863 1
-2 1 -8 0.1967 0.39921 7
2 -1 8 1.09858 0.43094 2
2 -1 8 0.8528 0.48645 6
-3 1 -8 1.15723 0.52979 7
-3 1 -8 1.32719 0.48421 4
-3 1 -8 0.91454 0.48722 1
3 -1 8 1.29632 0.50339 6
3 -1 8 1.73876 0.48191 2
3 -1 8 1.24179 0.39169 5
-4 1 -8 348.22 9.51225 8
-4 1 -8 343.192 9.16487 1
-4 1 -8 339.425 9.55811 7
4 -1 8 351.692 9.18606 5
4 -1 8 339.569 9.18075 2
4 -1 8 348.336 9.35951 6
-5 1 -8 4.47279 0.90268 7
-5 1 -8 4.42682 0.67176 1
-5 1 -8 4.21604 0.78081 8
5 -1 8 4.56565 0.75009 5
5 -1 8 4.22627 0.74521 2
-6 1 -8 6.01495 0.97695 8
-6 1 -8 6.17096 1.05147 7
6 -1 8 5.81291 0.96852 2
6 -1 8 6.8713 0.98655 5
-7 1 -8 38.5451 2.25226 7
-7 1 -8 36.0493 2.20225 8
7 -1 8 37.3853 2.08091 2
7 -1 8 33.7353 2.09464 5
4 0 -8 33.766 2.07416 5
4 0 -8 39.6829 2.13121 1
-4 0 8 40.3542 2.29104 3
-4 0 8 38.5125 2.14802 2
3 0 -8 1.65685 0.69088 1
3 0 -8 1.29039 0.54018 5
-3 0 8 1.26371 0.57249 3
-3 0 8 2.71596 0.70491 2
2 0 -8 25.0001 1.4861 5
2 0 -8 29.6904 1.69752 1
-2 0 8 26.0213 1.56893 2
-2 0 8 26.4138 1.63847 3
1 0 -8 51.39 2.28159 1
-1 0 8 53.3346 2.20648 2
0 0 -8 0.25963 0.28812 7
0 0 -8 0.65381 0.41023 1
0 0 -8 0.06708 0.19064 4
0 0 8 0.23507 0.32688 2
-1 0 -8 102.074 3.61914 1
-1 0 -8 109.168 3.52372 7
-1 0 -8 111.733 3.09232 4
1 0 8 108.414 3.94957 6
1 0 8 109.964 3.40627 2
-2 0 -8 1.3829 0.43141 7
-2 0 -8 1.46143 0.38187 4
-2 0 -8 1.36442 0.4819 1
2 0 8 1.31232 0.42055 2
2 0 8 1.72736 0.54051 6
-3 0 -8 198.02 5.66882 1
-3 0 -8 178.802 5.71976 7
3 0 8 197.546 5.89759 6
3 0 8 202.45 5.46265 2
3 0 8 196.328 5.54288 5
-4 0 -8 5.57874 0.8427 7
-4 0 -8 3.94515 0.65966 1
4 0 8 6.06198 0.77316 2
4 0 8 5.17827 0.75686 5
4 0 8 5.15281 0.80822 6
-5 0 -8 29.5183 1.70291 8
-5 0 -8 27.6093 1.72686 7
-5 0 -8 31.0446 1.46935 1
5 0 8 29.9562 1.69565 5
5 0 8 32.2953 1.65102 6
5 0 8 29.486 1.51606 2
-6 0 -8 123.539 4.39912 7
-6 0 -8 123.121 4.21619 8
6 0 8 118.998 3.9908 2
6 0 8 121.086 4.25213 5
-7 0 -8 0.18564 0.49797 7
-7 0 -8 0.16499 0.52709 8
7 0 8 0.11965 0.50011 2
7 0 8 -0.137 0.5796 5
-8 0 -8 5.03063 1.0617 7
-8 0 -8 3.94705 0.90472 8
8 0 8 5.21176 1.07787 5
5 -1 -8 24.8714 1.68707 1
5 -1 -8 25.2312 1.91771 5
-5 1 8 28.6332 2.04069 3
4 -1 -8 4.54671 0.88936 1
4 -1 -8 5.90296 1.027 5
-4 1 8 4.30305 0.96329 2
-4 1 8 4.66445 0.98286 3
3 -1 -8 68.8153 2.899 5
3 -1 -8 70.3278 2.85748 1
-3 1 8 70.6494 2.85809 2
-3 1 8 65.8178 2.88017 3
2 -1 -8 15.8893 1.26259 1
-2 1 8 15.5519 1.16517 2
-2 1 8 15.7074 1.19247 3
1 -1 -8 60.1796 2.04283 7
1 -1 -8 56.1967 2.41617 1
-1 1 8 57.4944 2.7499 6
-1 1 8 57.8892 2.2583 2
0 -1 -8 68.1892 2.39667 7
0 -1 -8 70.8948 2.7203 1
0 1 8 69.733 3.02414 6
0 1 8 68.242 2.40414 2
-1 -1 -8 22.5078 1.26706 7
-1 -1 -8 22.5497 1.34331 1
1 1 8 23.9464 1.15434 2
1 1 8 23.5411 1.56666 6
-2 -1 -8 36.4048 1.75122 1
-2 -1 -8 37.2927 1.76977 7
2 1 8 37.0271 1.50296 2
2 1 8 38.0348 1.97273 6
-3 -1 -8 264.01 7.39928 1
-3 -1 -8 277.715 7.63999 7
3 1 8 271.629 7.42636 5
3 1 8 280.903 7.78203 6
3 1 8 266.959 7.08827 2
-4 -1 -8 5.49806 0.73514 1
-4 -1 -8 3.87056 0.76158 7
4 1 8 5.15653 0.83989 6
4 1 8 3.25739 0.56608 2
4 1 8 3.69364 0.66441 5
-5 -1 -8 22.865 1.42084 8
-5 -1 -8 21.9474 1.21306 1
-5 -1 -8 22.5073 1.52446 7
5 1 8 20.6571 1.17536 2
5 1 8 20.4509 1.35824 6
5 1 8 20.5621 1.40894 5
-6 -1 -8 1.36844 0.56912 8
-6 -1 -8 1.55554 0.68502 7
6 1 8 1.6757 0.53535 2
6 1 8 0.43901 0.56929 5
-7 -1 -8 73.2612 3.24517 7
-7 -1 -8 79.4696 3.09197 8
7 1 8 77.8566 2.97056 2
7 1 8 78.1433 3.33956 5
-8 -1 -8 2.52643 0.82191 7
-8 -1 -8 5.13307 0.99193 8
8 1 8 2.68879 0.74764 2
8 1 8 0.78416 0.70306 5
5 -2 -8 25.0146 1.96956 5
5 -2 -8 28.0297 1.77516 1
-5 2 8 25.0285 1.92065 3
-5 2 8 24.8633 2.12816 6
4 -2 -8 75.46 3.31679 5
4 -2 -8 79.4523 3.11986 1
-4 2 8 78.36 3.31649 3
-4 2 8 82.8589 3.81147 6
3 -2 -8 249.234 7.44258 5
3 -2 -8 252.276 7.30608 1
-3 2 8 258.057 7.27892 2
-3 2 8 247.367 7.36473 3
-3 2 8 251.799 7.99255 6
2 -2 -8 15.5718 1.23871 1
-2 2 8 17.4164 1.54253 6
-2 2 8 15.5547 1.16604 2
-2 2 8 14.6729 1.20039 3
1 -2 -8 15.1555 0.87306 7
1 -2 -8 14.2974 1.13855 1
-1 2 8 15.002 1.00632 2
-1 2 8 14.6196 1.32461 3
-1 2 8 14.3883 1.36421 6
0 -2 -8 5.00539 0.78905 1
0 -2 -8 4.26462 0.60205 7
0 2 8 4.0708 0.56721 2
0 2 8 5.24979 0.93683 6
-1 -2 -8 25.4652 1.33702 7
-1 -2 -8 26.1921 1.44078 1
1 2 8 25.5853 1.64076 6
1 2 8 25.6682 1.13745 2
-2 -2 -8 43.2135 1.95525 1
-2 -2 -8 47.187 1.97934 7
2 2 8 44.9794 1.57437 2
2 2 8 46.931 2.25033 6
-3 -2 -8 23.6545 1.32904 1
-3 -2 -8 21.9457 1.39467 7
3 2 8 23.0053 1.01983 2
3 2 8 21.523 1.45988 6
3 2 8 23.0718 1.32916 5
-4 -2 -8 14.4724 1.16579 7
-4 -2 -8 15.3653 1.08184 1
4 2 8 15.6962 1.17636 5
4 2 8 13.8059 0.83807 2
4 2 8 14.5594 1.19579 6
-5 -2 -8 29.8679 1.45354 1
-5 -2 -8 27.1356 1.47664 8
-5 -2 -8 28.6183 1.72098 7
5 2 8 29.6443 1.73363 5
5 2 8 28.0564 1.32562 2
5 2 8 26.6302 1.63083 6
-6 -2 -8 74.0111 2.75243 8
-6 -2 -8 66.0825 2.95954 7
6 2 8 71.8231 2.55753 2
6 2 8 68.5565 2.83346 6
6 2 8 77.1336 3.11901 5
-7 -2 -8 4.39901 0.80609 8
-7 -2 -8 3.44201 0.81611 7
7 2 8 7.19696 1.36426 2
7 2 8 4.98038 1.00843 5
-8 -2 -8 7.87538 1.28589 7
8 2 8 8.06882 1.3743 5
5 -3 -8 115.711 4.58468 5
-5 3 8 112.686 4.45722 3
-5 3 8 117.035 4.81546 6
4 -3 -8 129.699 4.75934 5
4 -3 -8 132.575 4.4506 1
-4 3 8 129.298 5.06546 6
-4 3 8 135.122 4.70429 3
3 -3 -8 42.8099 2.25416 5
3 -3 -8 41.7503 2.08402 1
-3 3 8 47.7369 2.63461 6
-3 3 8 47.1695 2.28425 3
2 -3 -8 24.462 1.52637 1
-2 3 8 24.3711 1.50809 3
-2 3 8 21.7769 1.72346 6
-2 3 8 23.323 1.34439 2
1 -3 -8 265.921 7.35089 1
1 -3 -8 266.1 6.83458 7
-1 3 8 258.079 6.92712 2
-1 3 8 265.643 7.23964 3
-1 3 8 243.899 7.77279 6
0 -3 -8 17.7395 1.04814 7
0 -3 -8 18.2313 1.25545 1
0 3 8 15.3365 0.87719 2
0 3 8 16.3222 1.37703 6
-1 -3 -8 73.1085 2.54414 7
-1 -3 -8 65.1253 2.59359 1
1 3 8 70.5707 2.11796 2
1 3 8 67.9661 2.94395 6
-2 -3 -8 44.0576 1.96242 1
-2 -3 -8 47.1384 1.99666 7
2 3 8 43.8621 1.43237 2
2 3 8 46.4873 2.23612 6
-3 -3 -8 35.6023 1.73074 1
-3 -3 -8 39.1781 1.90698 7
3 3 8 39.1832 1.28992 2
3 3 8 40.0708 2.0647 6
3 3 8 40.465 1.90286 5
-4 -3 -8 186.759 5.31509 1
-4 -3 -8 174.506 5.53162 7
4 3 8 176.178 5.49132 5
4 3 8 185.257 5.74346 6
4 3 8 182.27 4.73757 2
-5 -3 -8 28.435 1.75417 7
-5 -3 -8 31.9443 1.57132 1
-5 -3 -8 31.0965 1.5159 8
5 3 8 30.0752 1.80541 5
5 3 8 31.5982 1.84622 6
5 3 8 38.0431 1.50301 2
-6 -3 -8 38.0193 1.76614 8
-6 -3 -8 40.1283 2.14987 7
-6 -3 -8 41.7006 1.97051 1
6 3 8 38.6493 2.19527 5
6 3 8 41.1342 2.16391 6
-7 -3 -8 68.202 3.0486 7
7 3 8 58.6567 2.97924 5
-8 -3 -8 6.33803 1.1621 7
8 3 8 6.6234 1.29687 5
5 -4 -8 15.9571 1.84801 5
-5 4 8 16.4709 1.79661 3
-5 4 8 15.2478 1.854 6
-5 4 8 13.8051 1.7458 8
4 -4 -8 11.4907 1.4673 5
4 -4 -8 8.34403 1.09979 1
-4 4 8 8.27659 1.22183 8
-4 4 8 10.873 1.39396 3
-4 4 8 8.22988 1.31815 6
3 -4 -8 60.5096 2.60943 1
3 -4 -8 57.3826 2.75277 5
-3 4 8 62.1079 2.67605 3
-3 4 8 65.2874 3.12355 6
-3 4 8 58.5582 2.79378 8
2 -4 -8 135.299 4.33909 1
2 -4 -8 132.73 4.01533 7
-2 4 8 132.116 4.28476 3
-2 4 8 123.68 4.74332 6
1 -4 -8 43.3816 1.66214 7
1 -4 -8 36.3481 1.91615 1
-1 4 8 40.6764 2.25499 6
-1 4 8 41.1736 1.8558 3
0 -4 -8 35.0649 1.75818 1
0 -4 -8 34.9071 1.56704 7
0 4 8 33.6965 1.99443 6
-1 -4 -8 116.561 3.93278 1
-1 -4 -8 121.795 3.83674 7
1 4 8 123.025 4.35794 6
1 4 8 123.817 3.23244 2
-2 -4 -8 2.11941 0.55055 7
-2 -4 -8 2.25818 0.54424 1
2 4 8 1.06105 0.56468 6
2 4 8 1.97072 0.22206 2
-3 -4 -8 581.715 15.0281 7
-3 -4 -8 570.119 14.8718 1
3 4 8 603.817 15.4804 6
3 4 8 589.514 15.0328 5
-4 -4 -8 3.84733 0.77401 7
-4 -4 -8 2.78686 0.61545 1
4 4 8 4.23424 0.87682 6
4 4 8 0.83762 0.52466 5
-5 -4 -8 27.6291 1.52403 1
-5 -4 -8 30.591 1.78324 7
5 4 8 27.299 1.72295 5
5 4 8 29.9452 1.88488 6
-6 -4 -8 174.754 5.05077 1
-6 -4 -8 168.218 5.55444 7
6 4 8 168.072 5.58446 6
6 4 8 161.894 5.52613 5
-7 -4 -8 81.1239 3.51092 7
7 4 8 83.9385 3.51631 6
7 4 8 82.8608 3.62027 5
-8 -4 -8 0.50334 0.56508 7
8 4 8 -0.2101 0.54182 5
4 -5 -8 -0.5648 0.35906 5
4 -5 -8 0.48089 0.47845 1
-4 5 8 0.23624 0.53182 8
-4 5 8 0.78204 0.6533 3
-4 5 8 0.16947 0.55226 6
3 -5 -8 22.4433 1.72315 5
3 -5 -8 22.316 1.50871 1
-3 5 8 26.6698 1.94478 6
-3 5 8 21.347 1.63774 8
-3 5 8 25.1159 1.61499 3
2 -5 -8 70.3331 2.85203 1
2 -5 -8 69.0791 2.38325 7
-2 5 8 71.0838 3.23013 6
-2 5 8 70.989 2.96093 8
-2 5 8 72.8277 2.75929 3
1 -5 -8 5.05882 0.84896 1
1 -5 -8 6.91313 0.7573 7
-1 5 8 6.93744 0.88141 3
-1 5 8 8.27677 1.24879 6
0 -5 -8 0.60725 0.36112 7
0 -5 -8 0.18091 0.48858 1
0 5 8 1.63769 0.64468 6
0 5 8 1.14739 0.41786 3
-1 -5 -8 37.2766 1.78234 7
-1 -5 -8 38.2357 1.89597 1
1 5 8 36.0641 2.12364 6
-2 -5 -8 14.0401 1.11783 7
-2 -5 -8 15.2921 1.19721 1
2 5 8 14.8027 1.40848 6
2 5 8 15.3514 0.83868 4
-3 -5 -8 0.68547 0.51399 1
-3 -5 -8 -0.2889 0.42251 7
3 5 8 0.44987 0.41765 5
3 5 8 -0.0125 0.51566 6
-4 -5 -8 31.4506 1.69096 1
-4 -5 -8 28.8749 1.74679 7
4 5 8 32.6607 2.0119 6
4 5 8 31.6061 1.8313 5
-5 -5 -8 192.028 6.07346 7
-5 -5 -8 188.455 5.69552 1
5 5 8 201.646 6.37636 6
5 5 8 188.794 6.04801 5
-6 -5 -8 1.2416 0.65765 7
-6 -5 -8 1.57999 0.58951 1
6 5 8 0.95836 0.55975 5
6 5 8 1.32729 0.6558 6
-7 -5 -8 22.6575 1.77358 7
7 5 8 23.2391 1.82518 6
7 5 8 28.1592 2.0148 5
4 -6 -8 0.32648 0.61293 5
4 -6 -8 -0.285 0.47481 1
-4 6 8 -0.8687 0.46951 6
-4 6 8 0.3244 0.61694 3
-4 6 8 0.5786 0.62236 8
3 -6 -8 8.19519 1.19837 5
3 -6 -8 10.4401 1.2119 1
-3 6 8 7.48542 1.06235 3
-3 6 8 8.96641 1.3046 8
-3 6 8 9.2051 1.34499 6
2 -6 -8 124.056 4.35729 1
2 -6 -8 130.72 3.92638 7
-2 6 8 126.07 4.44451 8
-2 6 8 136.183 4.92828 6
-2 6 8 128.034 4.18295 3
1 -6 -8 70.4405 2.64733 7
1 -6 -8 79.3057 3.03897 1
-1 6 8 71.429 2.90747 8
-1 6 8 79.3122 2.72034 3
-1 6 8 73.663 3.34085 6
0 -6 -8 -0.2281 0.29395 7
0 -6 -8 -0.2906 0.36587 1
0 6 8 0.66262 0.53651 6
0 6 8 -0.4767 0.26689 3
-1 -6 -8 62.4662 2.52885 7
-1 -6 -8 58.7495 2.55816 1
1 6 8 61.2426 2.9723 6
1 6 8 62.9774 2.143 3
-2 -6 -8 49.3071 2.2558 7
-2 -6 -8 49.3524 2.27928 1
2 6 8 54.2417 1.87019 4
2 6 8 45.8771 2.56821 6
-3 -6 -8 39.1154 2.03287 7
-3 -6 -8 36.9103 1.91342 1
3 6 8 35.5905 1.62094 4
3 6 8 38.6247 2.27765 6
-4 -6 -8 2.02641 0.64411 1
-4 -6 -8 3.14225 0.73157 7
4 6 8 3.55119 0.84847 6
4 6 8 3.92825 0.80656 5
-5 -6 -8 12.0431 1.35381 7
-5 -6 -8 13.2674 1.32261 1
5 6 8 11.1517 1.41327 6
5 6 8 13.3702 1.4377 5
-6 -6 -8 2.53886 0.66237 1
-6 -6 -8 4.85543 1.01149 7
6 6 8 2.9834 0.91328 6
6 6 8 2.5753 0.77259 5
-7 -6 -8 16.8971 1.79262 7
7 6 8 12.1919 1.63753 6
7 6 8 12.9021 1.61727 5
4 -7 -8 5.76426 1.19954 5
-4 7 8 4.89019 1.02422 3
-4 7 8 4.92582 1.08693 8
-4 7 8 4.70612 1.11694 6
3 -7 -8 65.1559 3.1188 5
3 -7 -8 64.0723 2.83147 1
-3 7 8 64.3466 3.22884 6
-3 7 8 61.5806 2.68378 3
-3 7 8 57.9499 2.89798 8
2 -7 -8 200.777 6.26281 1
2 -7 -8 201.171 5.80636 7
-2 7 8 195.771 6.73187 6
-2 7 8 202.369 6.36169 8
-2 7 8 210.486 6.00373 3
1 -7 -8 45.2923 2.30157 1
1 -7 -8 45.9178 2.05807 7
-1 7 8 44.3673 2.60925 6
-1 7 8 46.373 2.21334 8
-1 7 8 45.4811 1.94488 3
0 -7 -8 8.47747 1.0087 7
0 -7 -8 7.27887 1.07786 1
0 7 8 12.5734 1.57834 6
0 7 8 9.55345 0.76307 3
-1 -7 -8 -0.4859 0.31557 7
-1 -7 -8 -0.323 0.39917 1
1 7 8 -0.1926 0.46347 6
-2 -7 -8 484.002 13.2179 1
-2 -7 -8 499.561 13.2179 7
2 7 8 503.81 13.847 6
2 7 8 512.461 12.6279 4
-3 -7 -8 26.4498 1.73046 7
-3 -7 -8 27.2529 1.68791 1
3 7 8 27.8794 1.46789 4
3 7 8 27.2842 1.9935 6
-4 -7 -8 13.9121 1.4639 7
-4 -7 -8 13.6576 1.36901 1
4 7 8 17.0192 1.23583 4
4 7 8 17.2985 1.90841 6
4 7 8 16.8809 1.3642 5
-5 -7 -8 66.4744 2.86195 1
-5 -7 -8 70.3392 3.15106 7
5 7 8 68.4263 3.38297 6
5 7 8 67.2416 3.04748 5
-6 -7 -8 19.0586 1.93617 7
-6 -7 -8 17.16 1.45942 1
6 7 8 18.8331 1.8214 6
6 7 8 20.1184 1.93796 5
-7 -7 -8 28.5263 2.11099 7
7 7 8 30.8627 2.30667 6
7 7 8 29.1364 2.15912 5
3 -8 -8 76.9679 3.30063 1
3 -8 -8 81.5185 3.63915 5
-3 8 8 74.3967 3.41215 8
-3 8 8 79.4037 3.14716 3
-3 8 8 84.9818 3.84926 6
2 -8 -8 1.57927 0.56399 7
2 -8 -8 2.34965 0.77603 1
-2 8 8 2.24148 0.71365 8
-2 8 8 2.54563 0.85545 6
1 -8 -8 0.83646 0.65523 1
1 -8 -8 1.61101 0.5288 7
-1 8 8 3.45653 0.94251 6
-1 8 8 2.99617 0.74098 8
0 -8 -8 93.0634 3.65206 1
0 -8 -8 88.3036 3.41265 7
0 8 8 91.3038 3.30776 8
0 8 8 93.121 4.01877 6
-1 -8 -8 145.107 4.98929 1
-1 -8 -8 151.369 4.93958 7
1 8 8 146.104 5.47705 6
-2 -8 -8 104.952 3.89277 7
-2 -8 -8 103.266 3.87632 1
2 8 8 102.112 3.38862 4
2 8 8 96.8325 4.2827 6
-3 -8 -8 10.2461 1.29476 1
-3 -8 -8 10.7466 1.29808 7
3 8 8 10.0716 1.07153 4
3 8 8 11.7495 1.62084 6
-4 -8 -8 102.911 3.89163 1
-4 -8 -8 99.0329 3.98233 7
4 8 8 104.953 4.48425 6
4 8 8 103.405 3.70164 4
-5 -8 -8 -0.5971 0.51345 7
-5 -8 -8 0.13367 0.48806 1
5 8 8 0.82567 0.77655 6
5 8 8 0.17606 0.55106 4
5 8 8 0.41569 0.48354 5
-6 -8 -8 88.9878 3.56526 1
-6 -8 -8 90.5826 3.89459 7
6 8 8 86.5277 3.67106 4
6 8 8 86.4385 3.7709 5
6 8 8 86.4232 4.18881 6
2 -9 -8 -0.4741 0.60942 7
2 -9 -8 -0.5595 0.56387 1
-2 9 8 -0.8061 0.40125 8
-2 9 8 0.13481 0.53879 6
1 -9 -8 81.4199 3.4603 1
1 -9 -8 75.2835 3.14027 7
-1 9 8 84.1057 3.88293 6
-1 9 8 75.4573 3.17739 8
0 -9 -8 46.7506 2.42321 7
0 -9 -8 54.4967 2.66037 1
0 9 8 48.8062 2.87176 6
-1 -9 -8 0.76434 0.56812 7
-1 -9 -8 0.24143 0.56303 1
1 9 8 0.89305 0.6844 6
-2 -9 -8 7.51438 1.17483 7
-2 -9 -8 7.32403 1.16597 1
2 9 8 7.63443 1.37971 6
2 9 8 8.42259 1.02372 4
-3 -9 -8 32.5528 2.13406 7
-3 -9 -8 31.1215 2.05531 1
3 9 8 33.7171 1.84935 4
3 9 8 32.448 2.38472 6
-4 -9 -8 109.933 4.26644 1
-4 -9 -8 112.893 4.42721 7
4 9 8 113.025 4.83479 6
4 9 8 112.206 4.06356 4
-5 -9 -8 21.4651 1.76977 1
-5 -9 -8 18.7647 1.90304 7
5 9 8 17.8504 1.77395 4
5 9 8 23.7526 1.77469 5
5 9 8 16.616 2.11805 6
1 -10 -8 29.1962 2.08804 1
1 -10 -8 25.2617 1.75896 7
-1 10 8 27.0366 2.23925 6
-1 10 8 28.2974 1.81588 8
0 -10 -8 9.4573 1.4628 1
0 -10 -8 9.89372 1.24062 7
0 10 8 6.64835 1.30003 6
-1 -10 -8 0.89912 0.67824 1
-1 -10 -8 -0.7798 0.45805 7
1 10 8 0.34887 0.73026 6
-2 -10 -8 8.95637 1.38004 7
-2 -10 -8 9.63731 1.4661 1
2 10 8 11.0842 1.39841 4
2 10 8 10.8969 1.72906 6
-3 -10 -8 0.81705 0.68132 7
-3 -10 -8 0.35719 0.62077 1
3 10 8 0.06127 0.50821 4
3 10 8 1.03208 0.85816 6
-4 -10 -8 10.0877 1.54719 7
-4 -10 -8 9.07492 1.34102 1
4 10 8 7.61601 1.55137 6
4 10 8 7.02129 1.16724 4
1 5 -9 0.85468 0.59015 4
0 5 -9 52.6129 2.78207 1
0 5 -9 49.1846 2.42616 4
0 -5 9 46.702 2.59007 2
-1 5 -9 0.92647 0.56885 4
-1 5 -9 0.30454 0.65758 1
1 -5 9 -0.518 0.47993 2
-2 5 -9 4.56724 0.936 4
-2 5 -9 4.35251 0.9259 1
2 -5 9 3.91595 0.89671 2
-3 5 -9 4.13366 0.98974 8
-3 5 -9 2.54915 0.79445 4
-3 5 -9 3.47046 0.89878 1
3 -5 9 2.62988 0.85405 2
-4 5 -9 -0.1667 0.65379 8
-4 5 -9 1.44396 0.68765 1
-4 5 -9 1.40386 0.71398 4
4 -5 9 -0.0294 0.51569 2
2 4 -9 0.57877 0.66636 1
-2 -4 9 0.40091 0.62661 3
-2 -4 9 0.55248 0.71033 2
1 4 -9 13.1958 1.66935 1
-1 -4 9 10.7265 1.44316 2
0 4 -9 1.92676 0.60649 4
0 4 -9 2.26334 0.805 1
0 -4 9 1.98808 0.76292 2
-1 4 -9 10.5638 1.43379 1
-1 4 -9 12.4227 1.29268 4
1 -4 9 11.6594 1.39097 2
-2 4 -9 42.4743 2.13075 4
-2 4 -9 42.5751 2.33541 1
2 -4 9 42.6482 2.24256 2
-3 4 -9 1.85941 0.74576 8
-3 4 -9 1.74917 0.67152 1
-3 4 -9 2.28514 0.67853 4
3 -4 9 1.68891 0.66769 2
-4 4 -9 -0.467 0.40273 1
-4 4 -9 0.51086 0.58531 8
-4 4 -9 0.10561 0.47137 4
4 -4 9 -0.4893 0.36803 2
-5 4 -9 2.24209 0.83101 8
-5 4 -9 1.01163 0.65573 4
5 -4 9 2.28712 0.74056 2
2 3 -9 43.1774 2.47834 1
-2 -3 9 41.8817 2.34769 2
-2 -3 9 40.4024 2.25773 3
1 3 -9 10.496 1.404 1
-1 -3 9 12.8153 1.46706 2
0 3 -9 1.1597 0.47333 4
0 3 -9 0.12643 0.50773 1
0 -3 9 -0.0327 0.44485 2
-1 3 -9 1.92895 0.68268 1
-1 3 -9 2.00256 0.59992 4
1 -3 9 1.73746 0.64831 2
-2 3 -9 73.5495 3.11145 1
-2 3 -9 74.4287 2.83851 4
2 -3 9 73.5483 3.00267 2
-3 3 -9 0.30018 0.39729 4
-3 3 -9 0.75989 0.504 1
3 -3 9 0.66765 0.53973 6
3 -3 9 0.067 0.40792 2
-4 3 -9 0.86176 0.62292 8
-4 3 -9 -0.1528 0.45384 1
-4 3 -9 -0.1377 0.45136 4
4 -3 9 1.12242 0.83145 6
4 -3 9 -0.1348 0.40431 2
-5 3 -9 1.31955 0.72614 8
-5 3 -9 1.59751 0.68578 4
-5 3 -9 0.96758 0.52864 1
5 -3 9 0.267 0.52449 2
-6 3 -9 4.89377 1.1593 8
6 -3 9 4.78736 1.0559 2
3 2 -9 70.7997 3.17745 1
-3 -2 9 62.4505 3.03967 2
-3 -2 9 60.7284 2.9634 3
2 2 -9 0.34532 0.59446 1
-2 -2 9 0.21982 0.50725 2
-2 -2 9 1.5485 0.66284 3
1 2 -9 4.20049 0.94331 1
-1 -2 9 2.69778 0.70212 2
0 2 -9 118.912 4.2609 1
0 2 -9 120.839 3.85255 4
0 -2 9 114.414 4.04097 2
-1 2 -9 25.1368 1.32698 4
-1 2 -9 22.5495 1.58266 1
1 -2 9 23.3442 1.47764 2
-2 2 -9 2.19931 0.53929 4
-2 2 -9 1.54569 0.56974 1
2 -2 9 1.57946 0.60055 2
-3 2 -9 4.71495 0.77505 4
-3 2 -9 4.43649 0.82895 1
-3 2 -9 3.76557 0.80214 7
3 -2 9 3.92547 0.85146 6
3 -2 9 5.90065 0.90943 2
-4 2 -9 29.4104 1.68397 4
-4 2 -9 24.6568 1.54656 1
-4 2 -9 25.6551 1.75125 7
-4 2 -9 25.4707 1.8085 8
4 -2 9 26.2483 1.61047 2
4 -2 9 26.1797 1.68229 6
4 -2 9 28.8563 1.47458 5
-5 2 -9 14.9345 1.60196 8
-5 2 -9 11.743 1.16825 1
-5 2 -9 14.2239 1.59019 7
5 -2 9 11.7858 1.19438 5
5 -2 9 11.4207 1.29316 2
-6 2 -9 0.25421 0.45894 7
-6 2 -9 0.87765 0.72095 8
6 -2 9 -0.0503 0.4634 5
6 -2 9 0.00441 0.48286 2
-7 2 -9 9.34787 1.41586 8
-7 2 -9 8.42182 1.33481 7
7 -2 9 7.77274 1.16853 5
3 1 -9 2.22418 0.7894 1
3 1 -9 2.68688 0.71583 5
-3 -1 9 4.19123 0.91636 2
-3 -1 9 2.36878 0.74313 3
2 1 -9 87.5618 3.59012 1
2 1 -9 92.0782 3.33027 5
-2 -1 9 95.5398 3.67938 3
-2 -1 9 97.543 3.64975 2
1 1 -9 -0.7358 0.46286 1
-1 -1 9 0.0325 0.43131 2
0 1 -9 446.48 12.0124 1
0 -1 9 444.138 11.7226 2
-1 1 -9 99.0713 3.6725 1
-1 1 -9 99.376 3.45187 7
-1 1 -9 99.4041 3.05454 4
1 -1 9 97.2767 3.40426 2
-2 1 -9 245.644 7.30036 1
-2 1 -9 256.776 7.25893 7
-2 1 -9 254.049 6.80199 4
2 -1 9 249.908 7.05169 2
2 -1 9 254.971 7.67186 6
-3 1 -9 40.7977 1.82727 4
-3 1 -9 42.4794 2.04621 1
-3 1 -9 36.6058 2.01983 7
3 -1 9 41.1945 2.16565 6
3 -1 9 38.8791 1.84935 2
-4 1 -9 14.4363 1.45756 7
-4 1 -9 14.197 1.13571 1
4 -1 9 13.8037 1.09537 2
4 -1 9 13.7811 1.10952 5
4 -1 9 12.9886 1.21458 6
-5 1 -9 32.9292 1.96705 8
-5 1 -9 34.6882 1.71694 1
-5 1 -9 34.7221 2.0863 7
5 -1 9 30.7668 1.74226 2
5 -1 9 33.3934 1.79173 5
-6 1 -9 74.7125 3.33528 7
-6 1 -9 78.4548 3.26175 8
6 -1 9 71.9973 2.96528 2
6 -1 9 68.3603 2.96422 5
-7 1 -9 0.72215 0.71123 8
-7 1 -9 -0.1347 0.51781 7
7 -1 9 0.76002 0.59905 2
7 -1 9 0.51184 0.53512 5
4 0 -9 9.34687 1.3509 1
4 0 -9 9.77374 1.34374 5
-4 0 9 11.0667 1.48366 2
-4 0 9 8.00337 1.2764 3
3 0 -9 33.1494 2.0642 1
3 0 -9 35.133 1.96228 5
-3 0 9 35.3988 2.05639 2
-3 0 9 34.5264 2.12757 3
2 0 -9 444.687 11.6255 5
2 0 -9 415.686 11.8096 1
-2 0 9 445.095 11.843 3
-2 0 9 438.742 11.7056 2
1 0 -9 64.4555 2.82332 1
-1 0 9 63.6981 2.62046 2
0 0 -9 20.827 1.21629 7
0 0 -9 17.9197 1.38798 1
0 0 9 20.2554 1.31181 2
0 0 9 19.7509 1.60832 6
-1 0 -9 9.28938 1.01795 7
-1 0 -9 8.10226 1.01865 1
1 0 9 9.97856 0.98635 2
1 0 9 8.26354 1.221 6
-2 0 -9 459.623 11.9891 1
-2 0 -9 448.563 11.9339 7
2 0 9 466.238 12.4074 6
2 0 9 440.066 11.598 2
-3 0 -9 8.10496 1.03769 7
-3 0 -9 7.80406 0.99244 1
3 0 9 9.64568 0.98523 5
3 0 9 9.78625 1.23174 6
3 0 9 10.1246 0.9796 2
-4 0 -9 20.6961 1.30473 1
-4 0 -9 21.0463 1.50208 7
4 0 9 18.9251 1.2187 2
4 0 9 18.5701 1.40676 6
4 0 9 20.267 1.32098 5
-5 0 -9 16.4568 1.41214 7
-5 0 -9 14.1095 1.09138 1
-5 0 -9 16.0287 1.32482 8
5 0 9 16.6207 1.29787 5
5 0 9 15.0659 1.22199 6
5 0 9 14.5115 1.15617 2
-6 0 -9 43.669 2.4855 7
-6 0 -9 49.6384 2.43133 8
6 0 9 53.1352 2.47328 5
6 0 9 49.3831 2.23203 2
-7 0 -9 43.8467 2.42725 8
-7 0 -9 45.2622 2.52179 7
7 0 9 43.467 2.42894 5
7 0 9 47.6274 2.27651 2
4 -1 -9 15.8922 1.62007 1
4 -1 -9 14.3982 1.5575 5
-4 1 9 19.9653 1.94849 6
-4 1 9 12.2615 1.4548 2
-4 1 9 15.4842 1.66298 3
3 -1 -9 35.8441 2.06286 5
3 -1 -9 35.2301 2.08073 1
-3 1 9 36.9662 2.07836 2
-3 1 9 44.8944 2.71896 6
-3 1 9 37.8031 2.18352 3
2 -1 -9 48.4541 2.33646 1
-2 1 9 50.7195 2.29403 2
-2 1 9 49.9395 2.79193 6
-2 1 9 50.4761 2.41438 3
1 -1 -9 33.2443 1.85382 1
1 -1 -9 26.0904 1.31691 7
-1 1 9 29.9802 1.57594 2
-1 1 9 29.095 2.06651 6
0 -1 -9 193.028 5.61172 7
0 -1 -9 209.807 6.1071 1
0 1 9 197.542 5.64221 2
0 1 9 195.318 6.47437 6
-1 -1 -9 107.236 3.80322 1
-1 -1 -9 111.866 3.62144 7
1 1 9 109.361 3.4181 2
1 1 9 108.112 4.1436 6
-2 -1 -9 307.116 8.56874 1
-2 -1 -9 309.3 8.53238 7
2 1 9 323.027 9.04358 6
2 1 9 306.435 8.1144 2
-3 -1 -9 0.2903 0.44481 7
-3 -1 -9 -0.4068 0.31679 1
3 1 9 0.23461 0.29863 2
3 1 9 0.12382 0.4369 6
3 1 9 0.20347 0.35868 5
-4 -1 -9 17.5056 1.399 7
-4 -1 -9 14.1148 1.12755 1
4 1 9 17.701 1.071 2
4 1 9 17.556 1.36658 6
4 1 9 16.3507 1.23928 5
-5 -1 -9 12.433 1.18072 1
-5 -1 -9 10.3497 1.27721 7
-5 -1 -9 12.842 1.24263 8
5 1 9 11.8648 0.94988 2
5 1 9 11.0287 1.24781 5
5 1 9 11.7919 1.29288 6
-6 -1 -9 213.988 6.8394 7
-6 -1 -9 221.12 6.55944 8
6 1 9 217.455 6.71225 5
6 1 9 221.71 6.25121 2
-7 -1 -9 50.178 2.44673 8
-7 -1 -9 46.3 2.5704 7
7 1 9 47.4509 2.55554 5
7 1 9 55.4489 2.60597 2
4 -2 -9 48.6377 2.49563 1
4 -2 -9 47.5188 2.59923 5
-4 2 9 48.9315 2.65179 3
-4 2 9 58.5948 3.23981 6
3 -2 -9 99.0571 3.74555 1
3 -2 -9 99.2218 3.8521 5
-3 2 9 99.443 3.84282 3
-3 2 9 97.1157 3.65314 2
-3 2 9 100.361 4.37584 6
2 -2 -9 28.4708 1.82716 1
-2 2 9 32.5159 1.85594 3
-2 2 9 32.4041 1.70827 2
-2 2 9 30.992 2.21665 6
1 -2 -9 95.1898 3.02295 7
1 -2 -9 92.51 3.5061 1
-1 2 9 93.8534 3.97044 6
-1 2 9 101.451 3.2742 2
-1 2 9 98.3114 3.4966 3
0 -2 -9 14.2423 1.37915 1
0 -2 -9 15.7271 1.02976 7
0 2 9 14.4323 0.96784 2
0 2 9 15.5378 1.47787 6
-1 -2 -9 40.5242 1.81889 7
-1 -2 -9 38.3246 1.95073 1
1 2 9 40.2618 1.59276 2
1 2 9 37.6517 2.19533 6
-2 -2 -9 1.93255 0.54953 7
-2 -2 -9 2.44688 0.6354 1
2 2 9 1.17139 0.36443 2
2 2 9 0.70073 0.4892 6
-3 -2 -9 1.42633 0.55071 1
-3 -2 -9 0.74484 0.5241 7
3 2 9 0.6487 0.53757 6
3 2 9 1.25774 0.45713 5
3 2 9 1.00606 0.32758 2
-4 -2 -9 76.1589 2.85771 1
-4 -2 -9 77.7503 3.11451 7
4 2 9 76.2999 2.48876 2
4 2 9 80.4604 3.22841 6
4 2 9 74.8625 2.95615 5
-5 -2 -9 8.99392 0.99225 1
-5 -2 -9 7.054 1.04067 7
-5 -2 -9 8.89851 1.01048 8
5 2 9 7.01999 1.06039 6
5 2 9 8.74428 1.14592 5
5 2 9 7.73635 0.80307 2
-6 -2 -9 37.3456 1.9241 8
-6 -2 -9 32.2154 2.0439 7
6 2 9 36.8747 2.08168 5
6 2 9 36.6509 2.03457 6
-7 -2 -9 1.95591 0.70605 7
-7 -2 -9 1.6778 0.63793 8
7 2 9 1.7677 0.7496 5
4 -3 -9 55.9005 2.65143 1
4 -3 -9 57.243 2.89549 5
-4 3 9 56.1866 2.77422 3
-4 3 9 54.2964 3.16486 6
3 -3 -9 125.725 4.59469 5
3 -3 -9 126.811 4.43201 1
-3 3 9 131.092 5.11289 6
-3 3 9 124.16 4.49559 3
2 -3 -9 335.512 9.23504 1
-2 3 9 333.515 9.95172 6
-2 3 9 326.83 8.90429 2
-2 3 9 323.068 9.17035 3
1 -3 -9 646.079 15.805 7
1 -3 -9 650.074 16.4688 1
-1 3 9 659.556 15.9859 2
-1 3 9 607.811 17.0372 6
-1 3 9 637.256 16.3118 3
0 -3 -9 122.539 4.1658 1
0 -3 -9 124.505 3.86319 7
0 3 9 123.988 3.69105 2
0 3 9 129.57 4.69553 6
-1 -3 -9 28.9771 1.64562 1
-1 -3 -9 28.8695 1.52905 7
1 3 9 30.3394 1.24604 2
1 3 9 29.262 1.88588 6
-2 -3 -9 17.5503 1.22816 7
-2 -3 -9 19.3679 1.31775 1
2 3 9 16.8953 1.4268 6
2 3 9 17.57 0.86012 2
-3 -3 -9 269.934 7.60715 1
-3 -3 -9 272.412 7.73038 7
3 3 9 277.314 7.73936 5
3 3 9 272.588 6.86468 2
3 3 9 267.944 8.0605 6
-4 -3 -9 73.5423 2.8507 1
-4 -3 -9 76.9181 3.09851 7
4 3 9 78.6897 3.07637 5
4 3 9 80.1236 3.2931 6
-5 -3 -9 100.009 3.44211 8
-5 -3 -9 107.837 3.91833 7
-5 -3 -9 103.835 3.50491 1
5 3 9 98.383 3.89516 6
5 3 9 108.451 3.89649 5
-6 -3 -9 41.7798 1.95292 8
-6 -3 -9 40.9372 2.0479 1
-6 -3 -9 40.2167 2.29846 7
6 3 9 46.0566 2.39617 5
6 3 9 44.523 2.33414 6
-7 -3 -9 16.062 1.72508 7
7 3 9 17.7202 1.78184 5
4 -4 -9 348.115 9.85355 1
4 -4 -9 340.063 10.3059 5
-4 4 9 360.585 10.7861 6
-4 4 9 353.635 10.1395 3
3 -4 -9 82.3453 3.51275 5
3 -4 -9 78.4724 3.2369 1
-3 4 9 83.4597 3.33815 3
-3 4 9 80.9678 3.79806 6
2 -4 -9 443.458 11.5595 1
-2 4 9 409.042 12.1349 6
-2 4 9 425.059 11.4445 3
1 -4 -9 88.3027 3.31632 1
1 -4 -9 87.2493 2.87539 7
-1 4 9 86.2924 3.18414 3
-1 4 9 89.2424 3.82228 6
0 -4 -9 73.2095 2.63392 7
0 -4 -9 75.6635 2.95849 1
0 4 9 74.3617 2.39101 2
0 4 9 72.0101 3.29977 6
-1 -4 -9 972.238 23.2304 7
-1 -4 -9 910.467 23.3947 1
1 4 9 935.612 22.5176 2
1 4 9 953.688 24.0166 6
-2 -4 -9 437.132 11.4608 7
-2 -4 -9 431.728 11.5179 1
2 4 9 435.964 12.0385 6
-3 -4 -9 41.5266 2.00701 1
-3 -4 -9 39.443 1.98025 7
3 4 9 40.0882 2.23529 6
-4 -4 -9 40.1978 2.08856 7
-4 -4 -9 41.231 1.99872 1
4 4 9 43.0217 2.12841 5
4 4 9 42.9417 2.35814 6
-5 -4 -9 220.77 6.41202 1
-5 -4 -9 213.726 6.74768 7
-5 -4 -9 226.526 6.27026 8
5 4 9 231.96 6.86226 5
5 4 9 211.233 6.89392 6
-6 -4 -9 6.00599 1.06366 7
-6 -4 -9 7.27186 0.93352 1
6 4 9 6.07247 1.0734 5
6 4 9 6.31378 1.1166 6
-7 -4 -9 121.607 4.59245 7
7 4 9 120.167 4.66214 5
7 4 9 118.46 4.50692 6
4 -5 -9 154.18 5.61191 5
4 -5 -9 149.1 5.10101 1
-4 5 9 157.683 5.90095 6
-4 5 9 159.187 5.66901 8
-4 5 9 143.692 5.28746 3
3 -5 -9 6.21536 1.01728 1
3 -5 -9 3.32584 0.88769 5
-3 5 9 5.56852 1.15345 6
-3 5 9 3.51973 0.82748 3
2 -5 -9 62.0798 2.69864 1
-2 5 9 61.4904 3.14518 6
-2 5 9 57.2743 2.5529 3
1 -5 -9 41.4093 1.81432 7
1 -5 -9 43.2431 2.16872 1
-1 5 9 46.5629 2.06485 3
-1 5 9 44.4382 2.55152 6
0 -5 -9 824.987 20.7262 1
0 -5 -9 826.276 20.3261 7
0 5 9 824.095 21.3369 6
0 5 9 808.736 20.2642 3
-1 -5 -9 3.82297 0.71102 7
-1 -5 -9 6.47957 0.97021 1
1 5 9 4.34234 0.94104 6
-2 -5 -9 73.7004 2.90259 1
-2 -5 -9 67.5731 2.77156 7
2 5 9 71.2899 3.22082 6
-3 -5 -9 236.984 6.98021 1
-3 -5 -9 241.188 7.077 7
3 5 9 244.163 7.56433 6
-4 -5 -9 279.471 7.88128 1
-4 -5 -9 278.592 8.12991 7
4 5 9 284.674 8.50086 6
4 5 9 269.625 8.0579 5
-5 -5 -9 258.078 7.72005 7
-5 -5 -9 256.025 7.35794 1
5 5 9 261.728 8.03986 6
5 5 9 248.286 7.67055 5
-6 -5 -9 74.0757 2.824 1
-6 -5 -9 60.0667 2.95628 7
6 5 9 64.3897 3.14613 6
6 5 9 68.8181 3.11746 5
-7 -5 -9 22.4338 1.7733 7
7 5 9 21.7286 2.09203 5
7 5 9 20.915 1.84296 6
3 -6 -9 37.4762 2.34533 5
3 -6 -9 37.1846 2.11749 1
-3 6 9 41.3715 2.2009 3
-3 6 9 37.0342 2.29336 8
-3 6 9 40.8681 2.6045 6
2 -6 -9 156.853 5.2141 1
-2 6 9 158.259 5.79767 6
-2 6 9 161.247 5.05753 3
1 -6 -9 5.24035 0.77048 7
1 -6 -9 3.92301 0.84225 1
-1 6 9 4.91187 0.81271 3
-1 6 9 6.1934 1.16461 6
0 -6 -9 12.0513 1.31515 1
0 -6 -9 11.2445 1.14037 7
0 6 9 12.1204 1.10438 3
0 6 9 12.9798 1.59646 6
-1 -6 -9 8.46309 1.06708 7
-1 -6 -9 10.642 1.26643 1
1 6 9 9.21638 0.88155 3
1 6 9 7.0965 1.23293 6
-2 -6 -9 512.313 13.8098 7
-2 -6 -9 531.167 13.9241 1
2 6 9 542.06 14.5833 6
-3 -6 -9 12.3949 1.34616 7
-3 -6 -9 11.646 1.28919 1
3 6 9 13.1303 0.93409 4
3 6 9 11.9033 1.57865 6
-4 -6 -9 74.2698 3.1197 7
-4 -6 -9 72.0485 2.98578 1
4 6 9 72.9295 3.43253 6
4 6 9 72.0805 3.09418 5
-5 -6 -9 12.4108 1.31509 1
-5 -6 -9 13.7068 1.54851 7
5 6 9 13.5827 1.52298 5
5 6 9 10.2162 1.42597 6
-6 -6 -9 14.8182 1.48222 1
-6 -6 -9 17.5448 1.8504 7
6 6 9 14.4979 1.74857 6
6 6 9 14.868 1.71027 5
-7 -6 -9 112.969 4.52877 7
7 6 9 119.86 4.69538 5
7 6 9 115.675 4.76807 6
3 -7 -9 3.45349 0.83341 1
3 -7 -9 4.0929 1.0718 5
-3 7 9 2.67865 0.74397 3
-3 7 9 4.9976 1.22459 6
-3 7 9 4.27246 1.01531 8
2 -7 -9 -0.0122 0.56463 1
-2 7 9 0.02715 0.47431 3
-2 7 9 0.79264 0.54164 8
-2 7 9 0.26115 0.62344 6
1 -7 -9 2.374 0.70399 1
1 -7 -9 3.16982 0.64763 7
-1 7 9 3.30555 0.96854 6
-1 7 9 3.43169 0.67569 3
0 -7 -9 0.8219 0.58931 1
0 -7 -9 1.40782 0.51752 7
0 7 9 0.43966 0.63009 6
0 7 9 0.71723 0.4375 3
-1 -7 -9 205.298 6.32576 1
-1 -7 -9 211.37 6.18193 7
1 7 9 183.52 6.68449 6
-2 -7 -9 70.6794 2.96888 7
-2 -7 -9 68.97 3.00934 1
2 7 9 67.2673 3.41144 6
-3 -7 -9 72.8431 3.07561 1
-3 -7 -9 65.1493 2.96477 7
3 7 9 74.1272 3.4645 4
3 7 9 73.1827 3.51987 6
-4 -7 -9 25.0849 1.76568 7
-4 -7 -9 23.9461 1.68144 1
4 7 9 22.4436 1.9365 6
4 7 9 24.8202 1.47401 4
-5 -7 -9 50.0322 2.68292 7
-5 -7 -9 55.8093 2.62109 1
5 7 9 57.1763 3.10549 6
5 7 9 57.3549 2.81776 5
-6 -7 -9 67.978 3.31355 7
-6 -7 -9 72.7044 3.07339 1
6 7 9 71.4595 3.5876 6
6 7 9 71.7968 3.37405 5
2 -8 -9 9.64473 1.38858 1
-2 8 9 7.81976 1.22627 8
-2 8 9 10.0016 1.53491 6
1 -8 -9 14.8016 1.56714 1
1 -8 -9 16.7963 1.31363 7
-1 8 9 13.8107 1.47357 8
-1 8 9 12.4338 1.7185 6
0 -8 -9 20.5712 1.66892 1
0 -8 -9 24.2665 1.58945 7
0 8 9 21.8302 1.98479 6
-1 -8 -9 15.6753 1.61599 1
-1 -8 -9 15.6863 1.35836 7
1 8 9 16.315 1.96372 6
-2 -8 -9 9.49957 1.26765 1
-2 -8 -9 9.10398 1.27415 7
2 8 9 9.17794 1.46499 6
-3 -8 -9 37.226 2.24083 7
-3 -8 -9 39.1892 2.24467 1
3 8 9 35.4594 2.511 6
-4 -8 -9 43.2253 2.47549 7
-4 -8 -9 43.7883 2.38466 1
4 8 9 40.6426 2.76738 6
4 8 9 46.3563 2.16007 4
-5 -8 -9 1.93928 0.7878 7
-5 -8 -9 1.43065 0.78699 1
5 8 9 1.53915 0.71459 5
5 8 9 1.35116 0.7691 6
5 8 9 -0.0685 0.47889 4
-6 -8 -9 4.27492 1.07384 7
6 8 9 2.94876 1.08037 6
6 8 9 3.53359 0.92933 5
1 -9 -9 0.55929 0.68402 1
1 -9 -9 0.33747 0.43531 7
-1 9 9 0.09346 0.4743 8
-1 9 9 0.83699 0.70847 6
0 -9 -9 11.8452 1.40363 7
0 -9 -9 8.24364 1.26311 1
0 9 9 11.0159 1.60933 6
-1 -9 -9 2.43207 0.78358 7
-1 -9 -9 1.73532 0.72858 1
1 9 9 1.33913 0.79423 6
-2 -9 -9 22.0565 1.69817 7
-2 -9 -9 18.2904 1.89823 1
2 9 9 18.4714 2.13798 6
-3 -9 -9 32.1493 2.1171 7
-3 -9 -9 34.6961 2.2082 1
3 9 9 31.8602 2.46479 6
-4 -9 -9 18.197 1.88222 7
-4 -9 -9 18.4956 1.88891 1
4 9 9 19.7019 1.44374 4
4 9 9 16.5687 2.06255 6
-5 -9 -9 13.7928 1.62279 7
5 9 9 14.7493 1.58498 4
5 9 9 16.2075 2.14083 6
0 -10 -9 51.4536 2.68845 7
0 -10 -9 55.9147 2.97211 1
0 10 9 53.6762 3.29612 6
-1 -10 -9 2.36257 0.73606 7
-1 -10 -9 0.75262 0.85912 1
1 10 9 2.73492 1.06264 6
-2 -10 -9 0.83291 0.67519 7
-2 -10 -9 1.28518 0.78557 1
2 10 9 -0.1767 0.57113 6
-3 -10 -9 4.39226 1.04747 7
-3 -10 -9 4.51292 1.10455 1
3 10 9 5.53547 1.37688 6
0 4 -10 4.78772 1.1749 1
0 -4 10 4.64155 1.02944 2
-1 4 -10 67.3131 2.78833 4
-1 4 -10 66.0591 3.18553 1
1 -4 10 61.2504 2.98688 2
-2 4 -10 32.6451 1.91782 4
-2 4 -10 32.2463 2.14573 1
2 -4 10 34.0847 2.09982 2
-3 4 -10 22.1138 1.86723 8
-3 4 -10 27.6432 1.76695 4
-3 4 -10 23.4352 1.80408 1
3 -4 10 28.1661 1.87674 2
3 -4 10 24.4954 1.91691 6
-4 4 -10 4.23763 0.90014 1
-4 4 -10 2.26215 0.76071 4
-4 4 -10 3.32409 1.02091 8
4 -4 10 4.69483 1.00458 2
1 3 -10 83.7978 3.69401 1
-1 -3 10 76.558 3.4391 2
0 3 -10 13.9236 1.6139 1
0 -3 10 18.5339 1.77223 2
-1 3 -10 33.4622 2.16597 1
1 -3 10 34.1259 2.00742 2
-2 3 -10 29.5314 1.95259 1
-2 3 -10 31.7564 1.73182 4
2 -3 10 29.7722 1.88277 2
-3 3 -10 35.7855 1.93394 4
-3 3 -10 38.1903 2.16975 1
3 -3 10 39.0178 2.12369 2
3 -3 10 37.2717 2.36894 6
-4 3 -10 0.80542 0.60466 4
-4 3 -10 0.26587 0.56853 1
-4 3 -10 0.94125 0.6419 8
4 -3 10 0.72361 0.56638 2
-5 3 -10 14.1646 1.50365 1
-5 3 -10 14.2871 1.68375 8
5 -3 10 13.978 1.53735 2
2 2 -10 52.1494 2.82054 1
-2 -2 10 53.7824 2.76113 3
-2 -2 10 60.3968 2.90182 2
1 2 -10 33.1373 2.14872 1
-1 -2 10 28.935 1.91681 2
0 2 -10 9.92753 1.31482 1
0 -2 10 10.4166 1.23497 2
-1 2 -10 65.0865 2.94716 1
1 -2 10 62.9409 2.7674 2
-2 2 -10 0.12511 0.34058 4
-2 2 -10 0.12923 0.50626 1
2 -2 10 0.00301 0.46877 2
2 -2 10 -0.325 0.46088 6
-3 2 -10 0.80967 0.49431 4
-3 2 -10 1.01062 0.58111 1
3 -2 10 0.58364 0.51763 2
3 -2 10 1.23684 0.59585 6
-4 2 -10 47.2707 2.29485 4
-4 2 -10 47.0774 2.32527 1
-4 2 -10 48.265 2.57538 8
-4 2 -10 48.3065 2.526 7
4 -2 10 47.5581 2.4568 6
4 -2 10 46.0723 2.25932 5
4 -2 10 45.9496 2.25543 2
-5 2 -10 52.4243 2.75763 7
-5 2 -10 53.5963 2.42062 1
-5 2 -10 56.6273 2.84084 8
5 -2 10 50.6384 2.46126 2
5 -2 10 49.8168 2.3131 5
-6 2 -10 1.01292 0.83313 8
-6 2 -10 -0.1424 0.63293 7
6 -2 10 0.81481 0.6134 5
6 -2 10 1.576 0.64415 2
2 1 -10 206.576 6.55743 1
-2 -1 10 190.811 6.39414 3
-2 -1 10 202.299 6.40394 2
1 1 -10 74.2223 3.28126 1
-1 -1 10 76.511 3.15018 2
0 1 -10 38.5189 2.18588 1
0 -1 10 37.4349 2.00708 2
-1 1 -10 46.2311 2.40344 1
1 -1 10 46.5912 2.62155 6
1 -1 10 44.1943 2.15247 2
-2 1 -10 179.014 5.65328 7
-2 1 -10 183.449 5.19497 4
-2 1 -10 180.925 5.78504 1
2 -1 10 178.074 5.47354 2
2 -1 10 180.694 6.13977 6
-3 1 -10 125.561 4.41853 7
-3 1 -10 123.522 4.35664 1
3 -1 10 129.199 4.67685 6
3 -1 10 124.392 4.13487 2
-4 1 -10 12.3936 1.45181 7
-4 1 -10 10.273 1.20142 1
4 -1 10 14.187 1.3396 2
4 -1 10 11.8833 1.1887 5
4 -1 10 10.3602 1.34192 6
-5 1 -10 15.103 1.66398 7
-5 1 -10 13.9722 1.50666 8
-5 1 -10 14.1208 1.18105 1
5 -1 10 13.625 1.36129 2
5 -1 10 14.7952 1.25948 5
-6 1 -10 51.7102 2.73662 8
-6 1 -10 53.0512 2.82714 7
6 -1 10 52.8347 2.52395 2
6 -1 10 50.1588 2.47944 5
3 0 -10 1.64404 0.85188 1
3 0 -10 1.27658 0.62327 5
-3 0 10 1.04332 0.64972 2
-3 0 10 0.31816 0.55522 3
2 0 -10 13.3103 1.51155 1
2 0 -10 13.2614 1.35389 5
-2 0 10 13.5699 1.44942 2
-2 0 10 13.3616 1.51271 3
1 0 -10 15.8283 1.62461 1
-1 0 10 13.8732 1.78227 6
-1 0 10 12.5034 1.32153 2
0 0 -10 254.167 7.50913 1
0 0 10 242.578 7.10825 2
0 0 10 252.162 8.06159 6
-1 0 -10 1.64681 0.6543 1
-1 0 -10 2.06755 0.60278 7
1 0 10 1.67522 0.5524 2
1 0 10 1.82872 0.70497 6
-2 0 -10 292.102 8.11838 7
-2 0 -10 284.826 8.13637 1
2 0 10 273.128 8.53691 6
2 0 10 286.277 7.7882 2
-3 0 -10 1.41999 0.60025 1
-3 0 -10 1.77607 0.69875 7
3 0 10 0.92984 0.48208 2
3 0 10 0.16833 0.46974 6
-4 0 -10 312.775 8.97853 7
-4 0 -10 297.615 8.58524 1
4 0 10 320.559 9.03813 6
4 0 10 298.219 8.5274 5
4 0 10 317.608 8.43777 2
-5 0 -10 151.201 5.29006 7
-5 0 -10 152.566 4.8284 1
-5 0 -10 152.395 5.12564 8
5 0 10 152.759 4.9786 5
5 0 10 151.085 4.74367 2
5 0 10 151.233 5.09941 6
-6 0 -10 165.374 5.47115 8
-6 0 -10 163.495 5.66621 7
6 0 10 156.09 5.04992 2
6 0 10 157.598 5.32199 5
-7 0 -10 0.1176 0.53544 7
-7 0 -10 0.10494 0.65796 8
7 0 10 -0.007 0.5002 5
3 -1 -10 82.4327 3.46701 5
3 -1 -10 81.5146 3.48185 1
-3 1 10 79.6686 4.05351 6
-3 1 10 84.0836 3.61061 3
-3 1 10 80.4857 3.38266 2
2 -1 -10 17.278 1.45015 5
2 -1 -10 20.2153 1.65477 1
-2 1 10 20.0823 1.46984 2
-2 1 10 19.5857 1.88472 6
-2 1 10 20.6161 1.54917 3
1 -1 -10 39.5382 2.15407 1
-1 1 10 34.217 2.39036 6
-1 1 10 36.4194 1.90456 2
0 -1 -10 331.467 9.07796 7
0 -1 -10 350.483 9.66983 1
0 1 10 338.629 9.14974 2
0 1 10 345.618 10.2314 6
-1 -1 -10 8.1474 1.07775 1
-1 -1 -10 8.50619 0.95508 7
1 1 10 7.52858 1.28024 6
1 1 10 10.3792 1.02295 2
-2 -1 -10 54.1428 2.44277 7
-2 -1 -10 56.0781 2.54128 1
2 1 10 60.0171 2.91128 6
2 1 10 59.0589 2.23417 2
-3 -1 -10 15.1541 1.29232 7
-3 -1 -10 16.672 1.31183 1
3 1 10 13.5366 1.01069 2
3 1 10 14.9064 1.39491 6
-4 -1 -10 929.804 22.6597 1
-4 -1 -10 900.204 22.9033 7
4 1 10 879.367 22.9741 6
4 1 10 920.703 22.2179 2
4 1 10 903.378 22.6434 5
-5 -1 -10 0.5408 0.59524 8
-5 -1 -10 1.25379 0.52722 1
-5 -1 -10 0.34668 0.53936 7
5 1 10 0.67969 0.43006 2
5 1 10 1.25105 0.64395 5
5 1 10 1.00787 0.57948 6
-6 -1 -10 31.9942 2.06635 7
-6 -1 -10 29.2711 1.85408 8
6 1 10 27.1013 1.8188 5
-7 -1 -10 56.7205 2.75178 8
-7 -1 -10 59.3243 3.05486 7
7 1 10 59.9123 2.95 5
3 -2 -10 89.3339 3.61148 1
3 -2 -10 89.4965 3.70738 5
-3 2 10 93.2789 3.60069 2
-3 2 10 83.3841 3.64468 3
-3 2 10 89.2608 4.29099 6
2 -2 -10 13.9638 1.54853 1
-2 2 10 11.6515 1.28699 2
-2 2 10 10.4392 1.54815 6
-2 2 10 13.5246 1.47086 3
1 -2 -10 43.5838 2.24725 1
1 -2 -10 42.9238 1.96792 7
-1 2 10 40.0209 2.14047 3
-1 2 10 37.5144 2.49919 6
-1 2 10 39.0353 1.88453 2
0 -2 -10 25.0754 1.6552 1
0 -2 -10 22.0853 1.32764 7
0 2 10 21.8971 1.79323 6
0 2 10 23.654 1.33499 2
-1 -2 -10 12.9549 1.31978 1
-1 -2 -10 14.2744 1.13108 7
1 2 10 15.6192 1.54275 6
1 2 10 14.8455 0.9985 2
-2 -2 -10 264.181 7.79371 1
-2 -2 -10 275.199 7.77493 7
2 2 10 275.408 7.21178 2
2 2 10 279.389 8.36474 6
-3 -2 -10 8.05562 1.03841 7
-3 -2 -10 9.35596 1.09445 1
3 2 10 11.0598 0.8159 2
3 2 10 10.663 1.37766 6
-4 -2 -10 38.3527 2.06823 7
-4 -2 -10 33.1867 1.81711 1
4 2 10 33.3177 2.06696 6
4 2 10 32.4935 1.84157 5
-5 -2 -10 9.76316 1.17857 8
-5 -2 -10 6.95687 1.12117 7
-5 -2 -10 9.30745 1.10721 1
5 2 10 9.75342 1.32603 6
5 2 10 9.52764 1.22921 5
-6 -2 -10 253.989 7.6507 7
-6 -2 -10 237.553 7.07876 8
6 2 10 236.468 7.33956 6
6 2 10 237.579 7.38378 5
-7 -2 -10 37.2826 2.33211 7
-7 -2 -10 34.8847 2.01184 8
7 2 10 34.8562 2.28865 5
3 -3 -10 257.044 7.80997 5
3 -3 -10 247.204 7.57704 1
-3 3 10 249.307 7.65889 3
-3 3 10 244.433 8.3707 6
2 -3 -10 42.5673 2.3015 1
-2 3 10 40.4473 2.05589 2
-2 3 10 46.1069 2.34157 3
-2 3 10 41.3466 2.68886 6
1 -3 -10 0.50973 0.54548 1
1 -3 -10 0.30063 0.39964 7
-1 3 10 0.03671 0.50027 6
-1 3 10 -0.2781 0.42902 3
-1 3 10 0.89651 0.45015 2
0 -3 -10 167.086 4.96118 7
0 -3 -10 165.171 5.3831 1
0 3 10 168.884 5.94166 6
0 3 10 168.039 4.82326 2
-1 -3 -10 277.132 8.16952 1
-1 -3 -10 291.283 7.96983 7
1 3 10 291.507 7.49455 2
1 3 10 288.948 8.79521 6
-2 -3 -10 104.64 3.72072 7
-2 -3 -10 106.28 3.829 1
2 3 10 110.454 4.24876 6
-3 -3 -10 112.657 3.9105 7
-3 -3 -10 100.42 3.73347 1
3 3 10 109.735 4.22806 6
-4 -3 -10 150.821 4.92299 1
-4 -3 -10 151.478 5.12382 7
4 3 10 156.045 5.40045 6
4 3 10 162.946 5.16669 5
-5 -3 -10 20.0713 1.57182 7
-5 -3 -10 20.4304 1.43673 1
5 3 10 21.1372 1.70633 6
5 3 10 18.7739 1.5498 5
-6 -3 -10 31.0898 1.78312 8
-6 -3 -10 36.6953 2.52305 1
-6 -3 -10 32.4407 2.08929 7
6 3 10 35.7924 2.16536 6
6 3 10 33.1952 2.06031 5
-7 -3 -10 33.2951 2.21804 7
7 3 10 29.7381 2.0824 5
3 -4 -10 4.2865 0.98259 5
3 -4 -10 3.61447 0.83198 1
-3 4 10 4.30148 1.12737 6
-3 4 10 5.23185 1.06676 3
2 -4 -10 75.7334 3.23899 1
-2 4 10 78.0432 3.24378 3
-2 4 10 81.1209 3.83355 6
1 -4 -10 89.5926 3.20791 7
1 -4 -10 91.6453 3.55512 1
-1 4 10 92.6151 4.06351 6
-1 4 10 89.4447 3.39719 3
0 -4 -10 390.053 9.92345 7
0 -4 -10 382.063 10.3748 1
0 4 10 350.848 10.8797 6
0 4 10 374.488 10.117 3
-1 -4 -10 80.2867 3.06079 7
-1 -4 -10 90.1518 3.36839 1
1 4 10 86.0487 3.73183 6
-2 -4 -10 39.8335 2.01629 7
-2 -4 -10 43.5543 2.15617 1
2 4 10 42.9522 2.48883 6
-3 -4 -10 177.659 5.60624 1
-3 -4 -10 182.821 5.70916 7
3 4 10 181.941 6.13331 6
-4 -4 -10 169.318 5.50382 7
-4 -4 -10 172.138 5.32505 1
4 4 10 162.443 5.79761 6
4 4 10 167.201 5.47042 5
-5 -4 -10 199.222 6.47124 7
-5 -4 -10 207.599 6.15773 1
5 4 10 201.197 6.4692 5
5 4 10 207.97 6.7587 6
-6 -4 -10 19.5477 1.89676 7
-6 -4 -10 18.4178 1.33053 1
6 4 10 16.4938 1.70504 5
6 4 10 16.904 1.62248 6
-7 -4 -10 6.54986 1.27891 7
7 4 10 7.29195 1.24423 6
7 4 10 8.00918 1.35925 5
3 -5 -10 43.0883 2.36053 1
3 -5 -10 45.9423 2.6071 5
-3 5 10 41.6858 2.79003 6
-3 5 10 43.7915 2.40577 3
2 -5 -10 158.456 5.32346 1
-2 5 10 154.06 5.91419 6
-2 5 10 162.734 5.25717 3
1 -5 -10 2.95963 0.79576 1
1 -5 -10 3.97661 0.68076 7
-1 5 10 3.23642 0.7394 3
-1 5 10 3.42461 1.01504 6
0 -5 -10 0.86031 0.44936 7
0 -5 -10 2.33888 0.7419 1
0 5 10 1.1239 0.52892 3
0 5 10 1.34389 0.7439 6
-1 -5 -10 4.76867 0.90417 1
-1 -5 -10 5.43961 0.84913 7
1 5 10 6.75622 1.2082 6
-2 -5 -10 479.828 13.169 1
-2 -5 -10 494.748 13.0801 7
2 5 10 514.22 13.8785 6
-3 -5 -10 90.0705 3.55737 7
-3 -5 -10 99.8638 3.66802 1
3 5 10 96.9845 4.08102 6
-4 -5 -10 67.9087 2.99911 7
-4 -5 -10 65.663 2.83969 1
4 5 10 65.8569 3.27238 6
4 5 10 68.2763 3.01826 5
-5 -5 -10 7.88561 1.07119 1
-5 -5 -10 6.8579 1.11141 7
5 5 10 6.9522 1.29585 6
5 5 10 6.78341 1.13624 5
-6 -5 -10 92.2209 3.86565 7
-6 -5 -10 90.3084 3.42291 1
6 5 10 86.8245 3.92593 6
6 5 10 88.9279 3.7999 5
-7 -5 -10 210.801 6.96065 7
7 5 10 197.469 6.89198 6
7 5 10 210.845 6.97912 5
3 -6 -10 4.55547 1.05177 5
3 -6 -10 5.30518 0.98432 1
-3 6 10 3.62391 1.06388 6
-3 6 10 4.63877 0.9966 3
2 -6 -10 13.6211 1.52557 1
-2 6 10 13.2935 1.41794 3
-2 6 10 13.2766 1.82214 6
1 -6 -10 121.9 4.17579 7
1 -6 -10 123.989 4.47139 1
-1 6 10 125.048 4.16938 3
-1 6 10 119.65 4.95405 6
0 -6 -10 116.184 3.86383 7
0 -6 -10 110.384 4.1478 1
0 6 10 111.759 4.66251 6
0 6 10 110.662 3.749 3
-1 -6 -10 2.13362 0.7623 1
-1 -6 -10 2.33794 0.67221 7
1 6 10 3.78001 1.01827 6
1 6 10 1.40188 0.49993 3
-2 -6 -10 7.48571 1.04499 7
-2 -6 -10 6.49047 1.04841 1
2 6 10 6.42459 1.22311 6
-3 -6 -10 1.32479 0.62878 7
-3 -6 -10 2.27299 0.71964 1
3 6 10 2.39003 0.8565 6
-4 -6 -10 77.579 3.33085 7
-4 -6 -10 81.1392 3.2619 1
4 6 10 75.9611 3.65873 6
-5 -6 -10 6.20538 1.04947 1
-5 -6 -10 6.86245 1.20186 7
5 6 10 6.70033 1.15186 5
5 6 10 6.61756 1.3239 6
-6 -6 -10 161.412 5.33316 1
-6 -6 -10 151.674 5.63763 7
6 6 10 166.56 6.03359 6
6 6 10 174.004 5.88195 5
2 -7 -10 1.29494 0.67698 1
-2 7 10 0.81293 0.58977 3
-2 7 10 -0.2816 0.58253 6
1 -7 -10 22.0369 1.62163 7
1 -7 -10 19.8699 1.70642 1
-1 7 10 22.249 2.01668 6
-1 7 10 21.2549 1.41396 3
0 -7 -10 64.6581 3.06308 1
0 -7 -10 70.7604 2.86163 7
0 7 10 69.7516 2.63528 3
0 7 10 64.5331 3.43775 6
-1 -7 -10 129.108 4.53251 7
-1 -7 -10 134.953 4.78541 1
1 7 10 134.882 5.3183 6
-2 -7 -10 8.11364 1.17293 1
-2 -7 -10 5.76481 0.97622 7
2 7 10 7.3939 1.42229 6
-3 -7 -10 57.6589 2.79553 1
-3 -7 -10 61.2592 2.87923 7
3 7 10 66.2621 3.41897 6
-4 -7 -10 147.68 5.23855 7
-4 -7 -10 143.937 5.09425 1
4 7 10 162.02 5.89246 6
-5 -7 -10 36.5937 2.15311 1
-5 -7 -10 36.1114 2.27967 7
5 7 10 37.5694 2.60485 6
5 7 10 35.9253 2.25918 5
-6 -7 -10 11.5942 1.58749 7
-6 -7 -10 9.14136 1.27284 1
6 7 10 7.03667 1.22617 5
6 7 10 10.9603 1.62479 6
1 -8 -10 6.83614 1.24441 1
-1 8 10 3.65271 1.08534 6
0 -8 -10 17.0085 1.3764 7
0 -8 -10 13.3052 1.54877 1
0 8 10 10.2206 1.63352 6
-1 -8 -10 2.32188 0.80475 1
-1 -8 -10 4.13615 0.90859 7
1 8 10 4.62873 1.1683 6
-2 -8 -10 12.0307 1.53077 1
-2 -8 -10 10.4802 1.36809 7
2 8 10 11.8575 1.72779 6
-3 -8 -10 -0.4823 0.53007 7
-3 -8 -10 -0.5869 0.49229 1
3 8 10 -0.2481 0.64082 6
-4 -8 -10 33.3152 2.18452 1
-4 -8 -10 37.4624 2.36709 7
4 8 10 37.4367 2.64286 6
-5 -8 -10 47.013 2.58186 1
-5 -8 -10 45.797 2.68604 7
5 8 10 47.1791 3.0258 6
5 8 10 45.137 2.2916 4
0 -9 -10 7.2598 1.22754 1
0 -9 -10 7.40214 1.17205 7
0 9 10 5.96337 1.34261 6
-1 -9 -10 2.40511 0.82582 1
-1 -9 -10 3.75955 0.84973 7
1 9 10 2.02731 0.87247 6
-2 -9 -10 1.68896 0.8425 1
-2 -9 -10 0.78062 0.64164 7
2 9 10 1.28573 0.92969 6
-3 -9 -10 20.3549 2.04676 1
-3 -9 -10 18.0109 1.85785 7
3 9 10 17.7503 2.21615 6
-4 -9 -10 27.9609 2.08916 1
-4 -9 -10 31.8626 2.20461 7
4 9 10 30.7195 2.4733 6
-1 3 -11 -0.124 0.50889 1
1 -3 11 -0.138 0.57209 2
-2 3 -11 14.1369 1.6468 1
2 -3 11 19.9998 1.84186 2
2 -3 11 16.1124 1.90178 6
-3 3 -11 2.04378 0.76354 1
-3 3 -11 2.91299 0.76092 4
3 -3 11 1.93565 0.76039 2
3 -3 11 2.39802 0.9094 6
-4 3 -11 11.428 1.65171 8
-4 3 -11 11.4162 1.37819 4
-4 3 -11 10.2812 1.40571 1
0 2 -11 0.78403 0.62579 1
0 -2 11 0.50593 0.61184 2
-1 2 -11 4.28576 0.97733 1
1 -2 11 7.16396 1.14738 2
1 -2 11 3.38727 1.08509 6
-2 2 -11 29.1056 2.0205 1
2 -2 11 30.057 1.85686 2
2 -2 11 28.5412 2.23361 6
-3 2 -11 25.7072 1.82347 4
-3 2 -11 24.9144 1.75789 1
3 -2 11 24.9032 1.68627 2
3 -2 11 22.2847 1.89809 6
-4 2 -11 5.09978 0.98057 1
4 -2 11 4.51963 0.91829 2
4 -2 11 5.37094 1.10361 6
-5 2 -11 0.24848 0.4459 1
-5 2 -11 1.05349 0.66323 8
1 1 -11 9.91912 1.44433 1
-1 -1 11 8.31772 1.25097 2
0 1 -11 4.20617 1.03867 1
0 -1 11 5.8064 1.00119 2
0 -1 11 7.29249 1.39367 6
-1 1 -11 45.8046 2.54456 1
1 -1 11 46.075 2.30785 2
1 -1 11 50.2666 2.95091 6
-2 1 -11 0.35837 0.59723 1
2 -1 11 0.15027 0.53023 6
2 -1 11 -0.1544 0.45607 2
-3 1 -11 0.33863 0.54867 1
-3 1 -11 0.85977 0.56716 7
3 -1 11 0.1735 0.56434 6
3 -1 11 0.62836 0.48697 2
-4 1 -11 10.9811 1.36014 1
-4 1 -11 10.3433 1.36267 7
4 -1 11 10.2969 1.16314 2
4 -1 11 13.1275 1.59481 6
-5 1 -11 0.33074 0.56189 8
-5 1 -11 0.21728 0.45232 1
-5 1 -11 -0.5096 0.47481 7
5 -1 11 0.77709 0.50488 2
5 -1 11 0.04527 0.47058 5
-6 1 -11 5.73044 1.14931 7
-6 1 -11 6.58578 1.19163 8
6 -1 11 4.50335 0.98337 5
2 0 -11 0.12059 0.69591 1
-2 0 11 0.54478 0.77972 6
-2 0 11 1.0559 0.65902 2
-2 0 11 2.44383 0.87984 3
1 0 -11 1.68917 0.80669 1
-1 0 11 1.68036 0.91083 6
-1 0 11 0.95093 0.56798 2
0 0 -11 109.765 4.19837 1
0 0 11 101.525 3.77936 2
0 0 11 108.471 4.73331 6
-1 0 -11 3.16681 0.82687 1
-1 0 -11 3.51365 0.69719 7
1 0 11 1.95945 0.88886 6
1 0 11 1.99408 0.60747 2
-2 0 -11 3.81443 0.76349 7
-2 0 -11 3.67462 0.84886 1
2 0 11 5.78766 0.86123 2
2 0 11 5.52712 1.18279 6
-3 0 -11 42.5657 2.33295 1
-3 0 -11 47.7239 2.40341 7
3 0 11 50.5826 2.18493 2
3 0 11 44.9645 2.58176 6
-4 0 -11 3.18879 0.78683 7
-4 0 -11 3.63172 0.83241 1
4 0 11 1.97465 0.77137 6
4 0 11 2.24084 0.6039 2
-5 0 -11 6.626 1.1421 8
-5 0 -11 6.25813 1.0154 1
-5 0 -11 3.91338 0.90673 7
5 0 11 5.08913 0.85019 2
5 0 11 4.10791 0.83916 5
5 0 11 5.29048 1.04943 6
-6 0 -11 2.5568 0.8704 8
-6 0 -11 1.08724 0.6695 7
6 0 11 0.81943 0.59387 5
2 -1 -11 98.8711 3.87198 5
2 -1 -11 95.715 4.03182 1
-2 1 11 100.255 3.82543 2
-2 1 11 103.896 4.78948 6
-2 1 11 102.837 4.08018 3
1 -1 -11 0.19567 0.57724 1
-1 1 11 0.17047 0.54398 6
-1 1 11 0.0557 0.46536 2
-1 1 11 -0.2686 0.52986 3
0 -1 -11 0.31555 0.57501 1
0 -1 -11 0.40178 0.41021 7
0 1 11 -0.3477 0.51017 6
0 1 11 0.2311 0.459 2
-1 -1 -11 0.89177 0.5109 7
-1 -1 -11 0.11761 0.49206 1
1 1 11 0.46457 0.42722 2
1 1 11 1.43804 0.70829 6
-2 -1 -11 102.783 3.95743 1
-2 -1 -11 109.521 3.85525 7
2 1 11 98.6383 3.4209 2
2 1 11 103.47 4.30558 6
-3 -1 -11 31.0711 1.93276 7
-3 -1 -11 30.9077 1.91472 1
3 1 11 30.8037 2.13208 6
3 1 11 34.8454 1.65201 2
-4 -1 -11 3.48877 0.85696 7
-4 -1 -11 5.88414 1.00777 1
4 1 11 4.13611 0.98472 2
4 1 11 5.84444 1.09114 6
-5 -1 -11 12.0254 1.29168 1
-5 -1 -11 9.39385 1.32252 7
5 1 11 11.51 1.31873 5
5 1 11 14.2918 1.62016 6
-6 -1 -11 21.0677 1.72161 8
-6 -1 -11 18.5191 1.91065 7
6 1 11 18.9597 1.61185 5
2 -2 -11 2.82808 0.83063 1
-2 2 11 3.70489 0.82986 2
-2 2 11 2.29378 0.84752 3
-2 2 11 3.5769 1.08219 6
1 -2 -11 29.0482 1.94227 1
-1 2 11 26.1591 1.59135 2
-1 2 11 24.8298 1.78496 3
-1 2 11 29.9467 2.2968 6
0 -2 -11 14.0666 1.08698 7
0 -2 -11 11.4007 1.38562 1
0 2 11 12.2517 1.70591 6
0 2 11 12.1863 1.16473 2
-1 -2 -11 8.08198 1.00312 7
-1 -2 -11 7.10047 1.07309 1
1 2 11 6.63531 0.83829 2
1 2 11 4.71311 1.07803 6
-2 -2 -11 49.2143 2.4464 1
-2 -2 -11 51.7394 2.37257 7
2 2 11 50.3193 2.79916 6
2 2 11 52.3294 2.24772 2
-3 -2 -11 11.4318 1.29723 1
-3 -2 -11 17.3673 1.42901 7
3 2 11 13.5014 1.62427 6
-4 -2 -11 4.97687 0.9493 7
-4 -2 -11 7.30294 1.0415 1
4 2 11 8.28481 1.28713 6
-5 -2 -11 0.20809 0.47772 1
-5 -2 -11 0.17909 0.63461 7
5 2 11 0.15013 0.5158 5
5 2 11 0.6771 0.60478 6
-6 -2 -11 169.757 5.96098 7
-6 -2 -11 167.922 5.51997 8
6 2 11 174.081 5.8591 6
6 2 11 167.246 5.76868 5
2 -3 -11 9.11852 1.29062 1
-2 3 11 9.88258 1.62778 6
-2 3 11 8.49969 1.24885 3
-2 3 11 7.51982 1.07019 2
1 -3 -11 58.5623 2.81732 1
-1 3 11 59.1361 3.32059 6
-1 3 11 54.7035 2.63043 3
-1 3 11 57.5491 2.40264 2
0 -3 -11 22.3267 1.68139 1
0 -3 -11 23.3285 1.40872 7
0 3 11 24.1142 2.04032 6
0 3 11 24.642 1.57943 2
-1 -3 -11 58.5432 2.73845 1
-1 -3 -11 61.8373 2.56552 7
1 3 11 61.6288 3.21263 6
-2 -3 -11 1.68829 0.58079 7
-2 -3 -11 1.62282 0.61461 1
2 3 11 2.23139 0.86077 6
-3 -3 -11 2.30477 0.70311 1
-3 -3 -11 3.28453 0.80643 7
3 3 11 3.52699 0.95593 6
-4 -3 -11 20.2707 1.55513 1
-4 -3 -11 22.5862 1.67789 7
4 3 11 22.1156 1.80134 6
-5 -3 -11 22.5712 1.56648 1
-5 -3 -11 24.2866 1.81874 7
5 3 11 21.8583 1.81183 6
5 3 11 21.504 1.72898 5
-6 -3 -11 0.05283 0.56697 8
-6 -3 -11 0.66877 0.67512 7
6 3 11 -0.4427 0.47826 6
6 3 11 -0.3699 0.56235 5
2 -4 -11 0.41853 0.53552 1
-2 4 11 0.63992 0.74489 6
-2 4 11 0.71041 0.59105 3
1 -4 -11 118.276 4.42417 1
-1 4 11 125.237 4.37125 3
-1 4 11 120.041 5.08284 6
0 -4 -11 3.30968 0.90012 1
0 -4 -11 3.56042 0.646 7
0 4 11 2.9919 0.97719 6
0 4 11 4.57338 0.89681 3
-1 -4 -11 8.46333 1.18702 1
-1 -4 -11 11.3216 1.18801 7
1 4 11 8.07129 1.4211 6
-2 -4 -11 8.27889 1.16043 1
-2 -4 -11 6.93704 0.96828 7
2 4 11 8.1352 1.38076 6
-3 -4 -11 109.879 4.04989 1
-3 -4 -11 114.034 4.10693 7
3 4 11 110.252 4.5528 6
-4 -4 -11 2.60785 0.66897 1
-4 -4 -11 4.35477 0.88731 7
4 4 11 3.7467 0.99887 6
-5 -4 -11 11.2241 1.29726 1
-5 -4 -11 10.0221 1.38209 7
5 4 11 13.8979 1.78891 6
5 4 11 12.2279 1.50425 5
-6 -4 -11 77.0474 3.14058 1
-6 -4 -11 78.6412 3.57544 7
6 4 11 78.5721 3.64784 6
6 4 11 80.8202 3.57736 5
2 -5 -11 31.4076 2.04502 1
-2 5 11 32.4607 2.03817 3
-2 5 11 29.4859 2.42322 6
1 -5 -11 45.146 2.51218 1
-1 5 11 47.7358 2.96186 6
-1 5 11 50.4231 2.4311 3
0 -5 -11 0.74121 0.4884 7
0 -5 -11 -0.3184 0.48407 1
0 5 11 0.70153 0.5536 3
0 5 11 0.81466 0.69006 6
-1 -5 -11 75.0731 2.98969 7
-1 -5 -11 73.2526 3.18649 1
1 5 11 72.4216 3.5911 6
-2 -5 -11 18.0484 1.49294 1
-2 -5 -11 19.6493 1.46119 7
2 5 11 19.0026 1.79639 6
-3 -5 -11 42.2249 2.30992 7
-3 -5 -11 47.1652 2.38371 1
3 5 11 43.056 2.67749 6
-4 -5 -11 22.9551 1.65504 1
-4 -5 -11 20.4743 1.62897 7
4 5 11 20.635 1.83925 6
-5 -5 -11 77.8628 3.47638 7
-5 -5 -11 77.4483 3.20596 1
5 5 11 75.3933 3.68719 6
5 5 11 78.369 3.4644 5
-6 -5 -11 13.2002 1.61368 7
-6 -5 -11 12.8579 1.43348 1
6 5 11 9.71026 1.43233 5
6 5 11 14.2655 1.79626 6
2 -6 -11 36.7203 2.26135 1
-2 6 11 33.9545 2.63584 6
-2 6 11 35.476 2.08433 3
1 -6 -11 6.30958 1.14818 1
-1 6 11 6.27644 0.9951 3
-1 6 11 6.68432 1.38277 6
0 -6 -11 2.31865 0.63219 7
0 -6 -11 2.35008 0.87894 1
0 6 11 1.79076 0.62109 3
0 6 11 2.21931 0.93329 6
-1 -6 -11 4.19738 0.93935 1
-1 -6 -11 3.49536 0.78394 7
1 6 11 1.55108 0.86278 6
1 6 11 4.08564 0.81259 3
-2 -6 -11 61.3266 2.80571 7
-2 -6 -11 64.8189 3.01878 1
2 6 11 64.0064 3.35974 6
-3 -6 -11 0.91831 0.5974 7
-3 -6 -11 0.63265 0.57698 1
3 6 11 0.7493 0.6207 6
-4 -6 -11 25.1222 1.87617 7
-4 -6 -11 25.322 1.80918 1
4 6 11 24.5825 2.1065 6
-5 -6 -11 3.21428 0.92367 7
-5 -6 -11 2.02715 0.76657 1
5 6 11 1.95917 0.83666 5
5 6 11 2.47113 0.93733 6
-6 -6 -11 0.81332 0.5984 1
-6 -6 -11 0.46198 0.73457 7
6 6 11 0.06905 0.60528 5
6 6 11 1.12746 0.72826 6
1 -7 -11 13.6572 1.55967 1
-1 7 11 10.0066 1.2183 3
-1 7 11 12.3534 1.85731 6
0 -7 -11 36.3969 2.27532 1
0 -7 -11 36.9009 2.04828 7
0 7 11 38.1568 2.66934 6
0 7 11 38.9554 1.96197 3
-1 -7 -11 -0.5287 0.41552 7
-1 -7 -11 -0.0933 0.47293 1
1 7 11 -0.1774 0.54696 6
-2 -7 -11 38.5249 2.21987 7
-2 -7 -11 39.2468 2.36903 1
2 7 11 40.7659 2.71141 6
-3 -7 -11 40.4189 2.30154 7
-3 -7 -11 38.8133 2.31659 1
3 7 11 40.1401 2.76103 6
-4 -7 -11 0.59424 0.6385 1
-4 -7 -11 0.24397 0.60442 7
4 7 11 0.37295 0.61681 6
-5 -7 -11 0.59151 0.70799 1
-5 -7 -11 -0.0342 0.67111 7
5 7 11 -0.1254 0.70406 6
0 -8 -11 -0.3763 0.59725 1
0 -8 -11 0.00161 0.50732 7
0 8 11 0.21078 0.72024 6
-1 -8 -11 -0.1558 0.59063 1
-1 -8 -11 0.92204 0.63839 7
1 8 11 -0.2129 0.62653 6
-2 -8 -11 25.5145 1.9685 1
-2 -8 -11 29.2793 1.99626 7
2 8 11 31.4187 2.55754 6
-3 -8 -11 0.85914 0.76703 1
-3 -8 -11 0.81265 0.6281 7
3 8 11 1.02914 0.85424 6
-4 -8 -11 31.9126 2.18978 7
-4 -8 -11 35.2259 2.24643 1
4 8 11 34.2613 2.6632 6
-1 -9 -11 6.78034 1.16104 7
1 9 11 7.24803 1.47186 6
-2 -9 -11 7.69997 1.26885 7
2 9 11 9.01056 1.64472 6
-3 -9 -11 0.02304 0.61528 7
3 9 11 0.22898 0.66585 6
-1 1 -12 46.9091 2.63688 1
1 -1 12 39.9717 2.83771 6
1 -1 12 42.8216 2.31606 2
-2 1 -12 3.41631 0.89908 1
2 -1 12 3.22189 1.03601 6
2 -1 12 2.2188 0.78074 2
-3 1 -12 0.17505 0.54863 7
-3 1 -12 1.56366 0.72717 1
3 -1 12 0.40937 0.62959 6
3 -1 12 0.58407 0.54394 2
-4 1 -12 2.78019 0.81082 1
-4 1 -12 3.53402 0.94634 7
4 -1 12 1.77575 0.77739 6
4 -1 12 3.72126 0.77791 2
0 0 -12 1.36398 0.81509 1
0 0 12 0.61721 0.68697 6
0 0 12 0.3961 0.61601 2
-1 0 -12 0.15762 0.64285 1
1 0 12 -0.1744 0.51396 2
1 0 12 2.06167 0.89123 6
-2 0 -12 17.1795 1.83096 1
-2 0 -12 17.4818 1.66525 7
2 0 12 15.8406 1.3126 2
2 0 12 18.0189 2.09613 6
-3 0 -12 8.94562 1.29772 7
-3 0 -12 8.4546 1.28934 1
3 0 12 9.4899 1.52488 6
3 0 12 6.89336 1.02371 2
-4 0 -12 30.3841 2.12583 7
-4 0 -12 29.6529 1.98045 1
4 0 12 29.0718 2.16279 6
-5 0 -12 4.59985 1.10974 8
-5 0 -12 5.31232 1.02765 1
-5 0 -12 3.45926 0.97733 7
5 0 12 4.809 1.0957 6
1 -1 -12 0.2411 0.6453 1
-1 1 12 0.7608 0.60232 2
-1 1 12 1.24214 0.82006 6
-1 1 12 -0.402 0.57105 3
0 -1 -12 32.4406 2.11255 1
0 1 12 29.5699 2.44936 6
0 1 12 29.6664 1.77863 2
-1 -1 -12 1.93973 0.73981 1
-1 -1 -12 3.01883 0.74242 7
1 1 12 4.1063 1.17064 6
1 1 12 2.77784 0.69801 2
-2 -1 -12 0.68836 0.54237 1
-2 -1 -12 2.73165 0.72509 7
2 1 12 1.26669 0.56686 2
2 1 12 1.23594 0.74782 6
-3 -1 -12 25.415 1.79816 7
-3 -1 -12 25.938 1.82981 1
3 1 12 25.227 2.08102 6
-4 -1 -12 49.5219 2.59622 7
-4 -1 -12 50.6218 2.49688 1
4 1 12 44.9588 2.68592 6
-5 -1 -12 13.6684 1.47311 1
-5 -1 -12 8.69315 1.28983 7
5 1 12 10.8289 1.33115 5
5 1 12 14.9649 1.77922 6
1 -2 -12 3.93107 1.07562 1
-1 2 12 4.58903 1.21849 6
-1 2 12 2.77196 0.76553 2
-1 2 12 5.00302 1.06419 3
0 -2 -12 10.8286 1.52321 1
0 2 12 11.6145 1.7729 2
0 2 12 9.20526 1.64615 6
-1 -2 -12 14.8114 1.63202 1
-1 -2 -12 15.8226 1.30219 7
1 2 12 13.4093 1.86393 6
-2 -2 -12 32.0704 1.93139 7
-2 -2 -12 33.1724 2.09063 1
2 2 12 30.5343 2.29848 6
-3 -2 -12 0.59127 0.60735 1
-3 -2 -12 0.69473 0.64145 7
3 2 12 -0.3757 0.54332 6
-4 -2 -12 5.58572 1.12164 7
-4 -2 -12 7.20406 1.15377 1
4 2 12 4.31746 1.05773 6
-5 -2 -12 6.07174 1.06426 1
-5 -2 -12 5.06366 1.05861 7
5 2 12 4.4077 1.00958 5
5 2 12 4.47894 1.04506 6
-6 -2 -12 0.48218 0.603 8
-6 -2 -12 0.67633 0.64368 7
6 2 12 0.65815 0.57571 5
6 2 12 0.24287 0.68636 6
1 -3 -12 6.12554 1.14422 1
-1 3 12 6.79978 1.21646 3
-1 3 12 6.82148 1.42979 6
0 -3 -12 16.5697 1.71841 1
0 3 12 18.3952 2.18961 6
-1 -3 -12 2.52363 0.66441 7
-1 -3 -12 1.37669 0.74401 1
1 3 12 1.28538 0.79485 6
-2 -3 -12 1.28061 0.59105 7
-2 -3 -12 2.04333 0.75997 1
2 3 12 1.07668 0.74767 6
-3 -3 -12 13.2567 1.47741 7
-3 -3 -12 12.2801 1.45111 1
3 3 12 11.7118 1.68404 6
-4 -3 -12 12.8831 1.55334 7
-4 -3 -12 13.755 1.54031 1
4 3 12 11.9214 1.67597 6
-5 -3 -12 0.25471 0.48786 1
-5 -3 -12 -0.178 0.517 7
5 3 12 0.63857 0.54569 5
5 3 12 1.27306 0.73133 6
-6 -3 -12 12.5597 1.41327 8
-6 -3 -12 11.1724 1.54857 7
6 3 12 10.2643 1.41455 5
6 3 12 8.55602 1.40288 6
1 -4 -12 15.5554 1.71109 1
-1 4 12 11.8863 1.82519 6
-1 4 12 14.638 1.60318 3
0 -4 -12 3.88175 0.9922 1
0 4 12 3.94408 1.13213 6
0 4 12 3.5164 0.8281 3
-1 -4 -12 1.57607 0.5994 7
-1 -4 -12 1.89682 0.79163 1
1 4 12 1.0864 0.76376 6
-2 -4 -12 1.15209 0.60566 1
-2 -4 -12 -0.1053 0.46044 7
2 4 12 0.10329 0.66256 6
-3 -4 -12 4.7909 0.99629 7
-3 -4 -12 3.62608 0.87345 1
3 4 12 5.501 1.21018 6
-4 -4 -12 1.1854 0.66957 1
-4 -4 -12 2.2182 0.7566 7
4 4 12 1.27724 0.74301 6
-5 -4 -12 17.6525 1.7386 1
-5 -4 -12 12.5986 1.56932 7
5 4 12 18.3713 1.81039 6
5 4 12 14.8329 1.7038 5
-6 -4 -12 0.79579 0.62939 7
6 4 12 -0.6921 0.59432 5
6 4 12 -0.2393 0.554 6
1 -5 -12 19.4779 1.96567 1
-1 5 12 18.4252 2.22919 6
-1 5 12 20.7741 1.90174 3
0 -5 -12 15.982 1.72068 1
0 5 12 16.8443 1.59098 3
0 5 12 17.366 2.15241 6
-1 -5 -12 0.66604 0.64149 1
-1 -5 -12 2.81037 0.73359 7
1 5 12 3.85759 1.12292 6
-2 -5 -12 30.4714 1.89345 7
-2 -5 -12 29.6351 1.96517 1
2 5 12 27.5625 2.32744 6
-3 -5 -12 9.06726 1.27464 7
-3 -5 -12 8.51297 1.24012 1
3 5 12 9.80984 1.59592 6
-4 -5 -12 23.7334 1.75518 1
-4 -5 -12 25.2512 1.87233 7
4 5 12 22.789 2.05342 6
-5 -5 -12 4.79936 0.99007 1
-5 -5 -12 4.28782 0.96476 7
5 5 12 4.06463 1.11277 6
0 -6 -12 20.6897 2.04251 1
0 6 12 24.2074 1.6407 3
0 6 12 24.5718 2.19925 6
-1 -6 -12 50.0949 2.72814 1
-1 -6 -12 45.797 2.39397 7
1 6 12 46.9684 2.29698 3
1 6 12 53.3457 3.24029 6
-2 -6 -12 34.7917 2.12809 7
-2 -6 -12 36.7071 2.28172 1
2 6 12 38.4392 2.64261 6
-3 -6 -12 28.4094 1.98074 1
-3 -6 -12 26.448 1.90983 7
3 6 12 25.6112 2.25306 6
-4 -6 -12 0.42302 0.69805 7
-4 -6 -12 -0.0599 0.52666 1
4 6 12 0.87167 0.72389 6
-5 -6 -12 9.21191 1.45786 7
-5 -6 -12 7.86877 1.25353 1
5 6 12 9.85755 1.64697 6
0 7 12 0.27185 0.68249 6
-1 -7 -12 9.37811 1.43143 1
-1 -7 -12 9.862 1.28967 7
1 7 12 9.51322 1.63244 6
-2 -7 -12 8.31096 1.36575 1
-2 -7 -12 10.169 1.36982 7
2 7 12 7.71138 1.56064 6
-3 -7 -12 3.27898 0.95117 1
-3 -7 -12 3.3495 0.886 7
3 7 12 1.40166 0.86155 6
-4 -7 -12 114.127 4.51565 7
-4 -7 -12 114.412 4.4579 1
4 7 12 105.822 4.93155 6
-2 -8 -12 22.3385 1.83856 7
2 8 12 21.8071 2.52792 6
-2 -1 -13 39.5744 2.4298 1
-2 -1 -13 38.8482 2.25619 7
2 1 13 36.789 2.65555 6
-3 -1 -13 15.2761 1.62936 7
-3 -1 -13 16.1775 1.73461 1
3 1 13 17.8891 2.11107 6
-1 -2 -13 5.95102 1.24532 1
-1 -2 -13 7.80752 1.09483 7
1 2 13 7.22742 1.55775 6
-2 -2 -13 3.27525 0.85901 1
-2 -2 -13 6.56046 1.0561 7
2 2 13 3.86042 1.11117 6
-3 -2 -13 3.87137 0.85681 7
-3 -2 -13 2.11543 0.80912 1
3 2 13 2.42001 1.01332 6
-4 -2 -13 6.02685 1.13417 1
-4 -2 -13 4.13429 0.9609 7
4 2 13 5.9812 1.30457 6
-1 -3 -13 2.25931 0.72189 7
-1 -3 -13 2.84897 0.94818 1
1 3 13 4.37299 1.24872 6
-2 -3 -13 31.5587 2.0194 7
-2 -3 -13 33.4692 2.23852 1
2 3 13 35.0115 2.63196 6
-3 -3 -13 29.0276 2.01156 1
-3 -3 -13 24.3282 1.82729 7
3 3 13 24.7372 2.19034 6
-4 -3 -13 3.53207 0.90396 1
-4 -3 -13 2.37619 0.81866 7
4 3 13 4.20452 1.18082 6
-1 -4 -13 7.51513 1.11999 7
-1 -4 -13 8.13017 1.30619 1
1 4 13 8.39639 1.56038 6
-2 -4 -13 0.05697 0.50955 7
-2 -4 -13 0.56109 0.59597 1
2 4 13 0.23545 0.67635 6
-3 -4 -13 56.5638 2.77006 7
-3 -4 -13 53.7373 2.78498 1
3 4 13 51.2701 3.21121 6
-4 -4 -13 12.422 1.53269 1
-4 -4 -13 13.1733 1.56124 7
4 4 13 9.73979 1.61658 6
-1 -5 -13 0.2013 0.4433 7
-1 -5 -13 0.11985 0.61877 1
1 5 13 -0.7314 0.57763 6
-2 -5 -13 126.555 4.87784 1
-2 -5 -13 136.728 4.75006 7
2 5 13 121.242 5.42454 6
-3 -5 -13 20.3923 1.70619 7
-3 -5 -13 21.7525 2.09276 1
3 5 13 16.9922 2.12361 6
-4 -5 -13 3.62237 0.93461 1
-4 -5 -13 4.37516 1.07169 7
4 5 13 2.99492 1.03837 6
-2 -6 -13 2.40703 0.90626 1
-2 -6 -13 3.18836 0.86887 7
2 6 13 2.30905 1.02632 6
-3 -6 -13 1.86027 0.83803 7
3 6 13 1.62822 1.00308 6
