#------------------------------------------------------------------------------
#$Date: 2019-11-25 23:19:43 +0200 (Mon, 25 Nov 2019) $
#$Revision: 242038 $
#$URL: file:///home/coder/svn-repositories/cod/cif/4/13/19/4131996.cif $
#------------------------------------------------------------------------------
#
# This file is available in the Crystallography Open Database (COD),
# http://www.crystallography.net/
#
# All data on this site have been placed in the public domain by the
# contributors.
#
data_4131996
loop_
_publ_author_name
'Bates, Demetris'
'Robertson, Craig M.'
'Leitch, Alicea A.'
'Dube, Paul A.'
'Oakley, Richard T.'
_publ_section_title
;
 Magnetic Bistability in Naphtho-1,3,2-dithiazolyl: Solid State
 Interconversion of a Thiazyl \p-Radical and Its N-N \s-Bonded Dimer.
;
_journal_issue                   11
_journal_name_full               'Journal of the American Chemical Society'
_journal_page_first              3846
_journal_page_last               3849
_journal_paper_doi               10.1021/jacs.7b13699
_journal_volume                  140
_journal_year                    2018
_chemical_formula_moiety         '1(C10 H6 N S2)'
_chemical_formula_sum            'C10 H6 N S2'
_chemical_formula_weight         204.28
_space_group_crystal_system      triclinic
_space_group_IT_number           2
_space_group_name_Hall           '-P 1'
_space_group_name_H-M_alt        'P -1'
_atom_sites_solution_hydrogens   geom
_audit_creation_date             2017-12-15
_audit_creation_method
;
Olex2 1.2
(compiled 2017.08.10 svn.r3458 for OlexSys, GUI svn.r5381)
;
_cell_angle_alpha                77.104(11)
_cell_angle_beta                 86.491(11)
_cell_angle_gamma                75.335(11)
_cell_formula_units_Z            4
_cell_length_a                   9.431(4)
_cell_length_b                   9.479(4)
_cell_length_c                   10.550(5)
_cell_measurement_reflns_used    2368
_cell_measurement_temperature    225(2)
_cell_measurement_theta_max      26.06
_cell_measurement_theta_min      2.68
_cell_volume                     889.4(7)
_computing_cell_refinement       'SAINT V8.30C (?, 2016)'
_computing_data_reduction        'SAINT V8.30C (?, 2016)'
_computing_molecular_graphics    'Olex2 (Dolomanov et al., 2009)'
_computing_publication_material  'Olex2 (Dolomanov et al., 2009)'
_computing_structure_refinement  'ShelXL (Sheldrick, 2015)'
_computing_structure_solution    'ShelXT (Sheldrick, 2015)'
_diffrn_ambient_temperature      225
_diffrn_measured_fraction_theta_full 0.997
_diffrn_measured_fraction_theta_max 0.987
_diffrn_measurement_device_type  'Rigaku Micromax007HF'
_diffrn_measurement_method       '\f and \w scans'
_diffrn_radiation_type           MoK\a
_diffrn_radiation_wavelength     0.71073
_diffrn_reflns_av_R_equivalents  0.0596
_diffrn_reflns_av_unetI/netI     0.0858
_diffrn_reflns_Laue_measured_fraction_full 0.997
_diffrn_reflns_Laue_measured_fraction_max 0.987
_diffrn_reflns_limit_h_max       10
_diffrn_reflns_limit_h_min       -11
_diffrn_reflns_limit_k_max       9
_diffrn_reflns_limit_k_min       -11
_diffrn_reflns_limit_l_max       13
_diffrn_reflns_limit_l_min       -12
_diffrn_reflns_number            9137
_diffrn_reflns_point_group_measured_fraction_full 0.997
_diffrn_reflns_point_group_measured_fraction_max 0.987
_diffrn_reflns_theta_full        25.242
_diffrn_reflns_theta_max         26.383
_diffrn_reflns_theta_min         1.980
_exptl_absorpt_coefficient_mu    0.541
_exptl_absorpt_correction_T_max  0.7454
_exptl_absorpt_correction_T_min  0.4710
_exptl_absorpt_correction_type   multi-scan
_exptl_absorpt_process_details
;
SADABS-2012/1 (Bruker,2012) was used for absorption correction.
wR2(int) was 0.1038 before and 0.0708 after correction.
The Ratio of minimum to maximum transmission is 0.6319.
The \l/2 correction factor is 0.0015.
;
_exptl_crystal_colour            violet
_exptl_crystal_colour_primary    violet
_exptl_crystal_density_diffrn    1.526
_exptl_crystal_description       irregular
_exptl_crystal_F_000             420
_exptl_crystal_size_max          0.3
_exptl_crystal_size_mid          0.25
_exptl_crystal_size_min          0.025
_refine_diff_density_max         0.449
_refine_diff_density_min         -0.340
_refine_diff_density_rms         0.072
_refine_ls_extinction_method     none
_refine_ls_goodness_of_fit_ref   1.078
_refine_ls_hydrogen_treatment    constr
_refine_ls_matrix_type           full
_refine_ls_number_parameters     311
_refine_ls_number_reflns         3604
_refine_ls_number_restraints     34
_refine_ls_restrained_S_all      1.077
_refine_ls_R_factor_all          0.1367
_refine_ls_R_factor_gt           0.0842
_refine_ls_shift/su_max          0.000
_refine_ls_shift/su_mean         0.000
_refine_ls_structure_factor_coef Fsqd
_refine_ls_weighting_details
'w=1/[\s^2^(Fo^2^)+(0.0860P)^2^+1.7854P] where P=(Fo^2^+2Fc^2^)/3'
_refine_ls_weighting_scheme      calc
_refine_ls_wR_factor_gt          0.2197
_refine_ls_wR_factor_ref         0.2509
_reflns_Friedel_coverage         0.000
_reflns_number_gt                2170
_reflns_number_total             3604
_reflns_threshold_expression     'I > 2\s(I)'
_cod_data_source_file            ja7b13699_si_005.cif
_cod_data_source_block           HT-225_recovered
_cod_original_cell_volume        889.3(7)
_cod_database_code               4131996
_shelx_shelxl_version_number     2017/1
_shelx_space_group_comment
;
The symmetry employed for this shelxl refinement is uniquely defined
by the following loop, which should always be used as a source of
symmetry information in preference to the above space-group names.
They are only intended as comments.
;
_shelx_estimated_absorpt_t_max   0.987
_shelx_estimated_absorpt_t_min   0.855
_olex2_refinement_description
;
1. Fixed Uiso
 At 1.2 times of:
  All C(H) groups
2. Restrained distances
 N1-S6
 1.6 with sigma of 0.005
3. Uiso/Uaniso restraints and constraints
C21 \\sim C22 \\sim C23 \\sim C24 \\sim C25 \\sim C26 \\sim C27 \\sim C28 \\sim
C29 \\sim C30: within 1.7A with sigma of 0.005 and sigma for terminal atoms of
0.08
C31 \\sim C32 \\sim C33 \\sim C34 \\sim C35 \\sim C36 \\sim C37 \\sim C38 \\sim
C39 \\sim C40: within 1.7A with sigma of 0.005 and sigma for terminal atoms of
0.08
Uanis(S6) \\sim Ueq, Uanis(S5) \\sim Ueq: with sigma of 0.008 and sigma for
terminal atoms of 0.01
Uanis(N1) = Uanis(N3)
Uanis(N2) = Uanis(N4)
4. Others
 Sof(S8)=Sof(S7)=Sof(C32)=Sof(H32)=Sof(C31)=Sof(C40)=Sof(C39)=Sof(H39)=
 Sof(C38)=Sof(C33)=Sof(C34)=Sof(H34)=Sof(C35)=Sof(H35)=Sof(C36)=Sof(H36)=
 Sof(C37)=Sof(H37)=Sof(N4)=1-FVAR(1)
 Sof(S3)=Sof(S4)=Sof(C13)=Sof(C18)=Sof(C11)=Sof(C20)=Sof(C12)=Sof(H12)=
 Sof(C19)=Sof(H19)=Sof(N2)=Sof(C17)=Sof(H17)=Sof(C16)=Sof(H16)=Sof(C14)=
 Sof(H14)=Sof(C15)=Sof(H15)=FVAR(1)
 Sof(S5)=Sof(S6)=Sof(C22)=Sof(H22)=Sof(C21)=Sof(C30)=Sof(C29)=Sof(H29)=
 Sof(C28)=Sof(C23)=Sof(C24)=Sof(H24)=Sof(C25)=Sof(H25)=Sof(C26)=Sof(H26)=
 Sof(C27)=Sof(H27)=Sof(N3)=1-FVAR(2)
 Sof(S2)=Sof(S1)=Sof(N1)=Sof(C10)=Sof(C3)=Sof(C8)=Sof(C1)=Sof(C2)=Sof(H2)=
 Sof(C9)=Sof(H9)=Sof(C4)=Sof(H4)=Sof(C7)=Sof(H7)=Sof(C5)=Sof(H5)=Sof(C6)=
 Sof(H6)=FVAR(2)
5.a Aromatic/amide H refined with riding coordinates:
 C2(H2), C9(H9), C4(H4), C12(H12), C19(H19), C7(H7), C17(H17), C5(H5), C6(H6),
 C16(H16), C14(H14), C15(H15), C22(H22), C29(H29), C24(H24), C25(H25), C26(H26),
  C27(H27), C32(H32), C39(H39), C34(H34), C35(H35), C36(H36), C37(H37)
5.b Naphthalene refined as free rotating group:
 C22(C21,C30,C29,C28,C23,C24,C25,C26,C27), C32(C31,C40,C39,C38,C33,C34,C35,C36,
 C37)
;
_shelx_res_file
;
TITL rigaku_250lt_a.res in P-1
    rigaku_250lt.res
    created by SHELXL-2017/1 at 18:42:16 on 15-Dec-2017
REM Old TITL rigaku_250LT in P-1
REM SHELXT solution in P-1
REM R1 0.288, Rweak 0.020, Alpha 0.087, Orientation as input
REM Formula found by SHELXT: C22 S6
CELL 0.71073 9.431 9.479 10.5496 77.104 86.491 75.335
ZERR 4 0.0039 0.004 0.0045 0.011 0.011 0.011
LATT 1
SFAC C H N S
UNIT 40 24 4 8
DFIX 1.6 0.005 N1 S6
SIMU 0.005 0.08 1.7 C21 C22 C23 C24 C25 C26 C27 C28 C29 C30
SIMU 0.005 0.08 1.7 C31 C32 C33 C34 C35 C36 C37 C38 C39 C40
ISOR 0.008 0.01 S6 S5
EADP N1 N3
EADP N2 N4

L.S. 25
PLAN  20
SIZE 0.3 0.25 0.025
TEMP -23.15
BOND $H
list 4
fmap 2
acta
REM <olex2.extras>
REM <HklSrc "%.\\rigaku_250LT.hkl">
REM </olex2.extras>

WGHT    0.086000    1.785400
FVAR       0.73496   0.82881   0.82892
PART 1
S2    4    0.095997    0.729215    0.858410    31.00000    0.04865    0.07189 =
         0.05214   -0.01833    0.00827   -0.02015
S1    4    0.395370    0.601144    0.859409    31.00000    0.05105    0.06242 =
         0.05385    0.00081   -0.01682   -0.01593

S3    4    0.174321    0.308948    0.868696    21.00000    0.08865    0.07629 =
         0.05538   -0.02933    0.01248   -0.03220
S4    4    0.319146    0.014195    0.869874    21.00000    0.09113    0.06173 =
         0.05361    0.00408   -0.01401   -0.02711
N1    3    0.241527    0.640404    0.948108    31.00000    0.06763    0.07108 =
         0.05390   -0.01294    0.00330   -0.02664
C13   1    0.283526    0.178854    0.479544    21.00000    0.01166    0.02872 =
         0.05138   -0.01215   -0.00100   -0.00559
C18   1    0.217834    0.331663    0.478704    21.00000    0.00991    0.03414 =
         0.05500   -0.00464   -0.00348   -0.00756
C10   1    0.171157    0.736749    0.702513    31.00000    0.02373    0.03363 =
         0.04963   -0.01156    0.00399   -0.00896
C3    1    0.326789    0.723427    0.467249    31.00000    0.02068    0.02219 =
         0.05180   -0.00735   -0.00304   -0.00524
C8    1    0.174000    0.792662    0.467506    31.00000    0.02138    0.02446 =
         0.05309   -0.01129   -0.00601   -0.00761
C11   1    0.282617    0.122792    0.713474    21.00000    0.02952    0.03295 =
         0.05361   -0.00011   -0.00890   -0.01236
C1    1    0.323990    0.667280    0.703134    31.00000    0.02515    0.03018 =
         0.05210   -0.00459   -0.01265   -0.00137
C2    1    0.399472    0.662675    0.588103    31.00000    0.01399    0.02497 =
         0.05950   -0.00672   -0.00710    0.00139
AFIX  43
H2    2    0.500731    0.618629    0.589534    31.00000   -1.20000
AFIX   0

C20   1    0.212731    0.275128    0.711524    21.00000    0.02702    0.04734 =
         0.05338   -0.02003    0.00688   -0.01683
C9    1    0.096319    0.795600    0.586994    31.00000    0.01609    0.03276 =
         0.05328   -0.01328   -0.00196   -0.00316
AFIX  43
H9    2   -0.005322    0.837369    0.587204    31.00000   -1.20000
AFIX   0
C4    1    0.400641    0.720027    0.346766    31.00000    0.02780    0.02899 =
         0.05529   -0.00636    0.00214   -0.00533
AFIX  43
H4    2    0.501676    0.675366    0.345977    31.00000   -1.20000
AFIX   0

C12   1    0.316548    0.076073    0.599993    21.00000    0.02272    0.02662 =
         0.05587   -0.00413   -0.00701   -0.00355
AFIX  43
H12   2    0.362044   -0.024731    0.601564    21.00000   -1.20000
AFIX   0
C19   1    0.181140    0.376911    0.597981    21.00000    0.02156    0.03036 =
         0.05762   -0.01724    0.00310   -0.00585
AFIX  43
H19   2    0.135068    0.477082    0.598515    21.00000   -1.20000
AFIX   0
N2    3    0.245851    0.140367    0.956412    21.00000    0.09502    0.08251 =
         0.04827   -0.01351   -0.00277   -0.01633

C7    1    0.102448    0.852993    0.344965    31.00000    0.02835    0.02798 =
         0.05985   -0.01092   -0.01379   -0.00180
AFIX  43
H7    2    0.001261    0.897470    0.342814    31.00000   -1.20000
AFIX   0

C17   1    0.187949    0.433095    0.357708    21.00000    0.02491    0.03187 =
         0.05721    0.00124   -0.00402   -0.00282
AFIX  43
H17   2    0.143403    0.534024    0.356486    21.00000   -1.20000
AFIX   0

C5    1    0.328367    0.780136    0.231874    31.00000    0.04426    0.04870 =
         0.05464   -0.01061    0.00240   -0.01758
AFIX  43
H5    2    0.379573    0.776492    0.152905    31.00000   -1.20000
AFIX   0
C6    1    0.177521    0.847535    0.231155    31.00000    0.05698    0.04332 =
         0.04866   -0.00646   -0.01013   -0.01915
AFIX  43
H6    2    0.128138    0.889108    0.151616    31.00000   -1.20000
AFIX   0

C16   1    0.221588    0.389439    0.242590    21.00000    0.03081    0.07175 =
         0.04796    0.00680   -0.00840   -0.01814
AFIX  43
H16   2    0.203220    0.459689    0.163316    21.00000   -1.20000
AFIX   0
C14   1    0.316089    0.134866    0.358473    21.00000    0.02798    0.03937 =
         0.05386   -0.01590   -0.00223   -0.00544
AFIX  43
H14   2    0.359861    0.034228    0.357839    21.00000   -1.20000
AFIX   0
C15   1    0.285290    0.235050    0.244211    21.00000    0.03348    0.07371 =
         0.04958   -0.02385    0.00301   -0.01689
AFIX  43
H15   2    0.305867    0.203027    0.165429    21.00000   -1.20000
AFIX   0

PART 0
PART 2
S8    4    0.417612    0.077828    0.859019   -21.00000    0.04939    0.04827 =
         0.04289   -0.00720   -0.00540   -0.00677
S7    4    0.117823    0.201476    0.863797   -21.00000    0.05860    0.06533 =
         0.04063   -0.02164    0.00700   -0.00891

S5    4    0.337493    0.495254    0.869062   -31.00000    0.08414    0.04805 =
         0.05625    0.00743   -0.01399   -0.01764
S6    4    0.190970    0.789146    0.874065   -31.00000    0.07583    0.05907 =
         0.04801   -0.02385    0.00218   -0.00982
AFIX 116
C22   1    0.317708    0.575799    0.585149   -31.00000    0.05460
AFIX  43
H22   2    0.360650    0.476094    0.580602   -31.00000   -1.20000
AFIX 115
C21   1    0.293837    0.615356    0.705288   -31.00000    0.05371
C30   1    0.230339    0.762792    0.712011   -31.00000    0.05183
C29   1    0.190712    0.870674    0.598594   -31.00000    0.05341
AFIX  43
H29   2    0.147770    0.970379    0.603141   -31.00000   -1.20000
AFIX 115
C28   1    0.214582    0.831119    0.478454   -31.00000    0.05279
C23   1    0.278080    0.683683    0.471730   -31.00000    0.05344
C24   1    0.301954    0.644122    0.351593   -31.00000    0.05545
AFIX  43
H24   2    0.344896    0.544415    0.347049   -31.00000   -1.20000
AFIX 115
C25   1    0.262329    0.752000    0.238175   -31.00000    0.05539
AFIX  43
H25   2    0.278473    0.725248    0.156930   -31.00000   -1.20000
AFIX 115
C26   1    0.198830    0.899438    0.244895   -31.00000    0.05397
AFIX  43
H26   2    0.172033    0.972391    0.168194   -31.00000   -1.20000
AFIX 115
C27   1    0.174958    0.938997    0.365032   -31.00000    0.05260
AFIX  43
H27   2    0.132016    1.038704    0.369575   -31.00000   -1.20000
AFIX 116

C32   1    0.404105    0.156572    0.577675   -21.00000    0.05302
AFIX  43
H32   2    0.504704    0.111500    0.572964   -21.00000   -1.20000
AFIX 115
C31   1    0.335024    0.155078    0.698027   -21.00000    0.04888
C40   1    0.186266    0.221727    0.704994   -21.00000    0.04987
C39   1    0.106588    0.289870    0.591609   -21.00000    0.05111
AFIX  43
H39   2    0.005989    0.334942    0.596321   -21.00000   -1.20000
AFIX 115
C38   1    0.175667    0.291365    0.471257   -21.00000    0.04969
C33   1    0.324425    0.224717    0.464288   -21.00000    0.04960
C34   1    0.393511    0.226208    0.343939   -21.00000    0.04706
AFIX  43
H34   2    0.494110    0.181135    0.339231   -21.00000   -1.20000
AFIX 115
C35   1    0.313836    0.294350    0.230553   -21.00000    0.04805
AFIX  43
H35   2    0.360554    0.295359    0.149165   -21.00000   -1.20000
AFIX 115
C36   1    0.165078    0.361000    0.237517   -21.00000    0.05035
AFIX  43
H36   2    0.111197    0.407081    0.160838   -21.00000   -1.20000
AFIX 115
C37   1    0.095994    0.359507    0.357867   -21.00000    0.04951
AFIX  43
H37   2   -0.004605    0.404580    0.362575   -21.00000   -1.20000
AFIX   0

N3    3    0.283761    0.636596    0.943022   -31.00000    0.06763    0.07108 =
         0.05390   -0.01294    0.00330   -0.02664
N4    3    0.292561    0.099011    0.950003   -21.00000    0.09502    0.08251 =
         0.04827   -0.01351   -0.00277   -0.01633
HKLF 4




REM  rigaku_250lt_a.res in P-1
REM R1 =  0.0842 for    2170 Fo > 4sig(Fo)  and  0.1367 for all    3604 data
REM    311 parameters refined using     34 restraints

END

WGHT      0.0853      1.7983

REM Highest difference peak  0.449,  deepest hole -0.340,  1-sigma level  0.072
Q1    1   0.1839  0.3014  0.7764  11.00000  0.05    0.45
Q2    1   0.1257  0.7390  0.7749  11.00000  0.05    0.37
Q3    1   0.3307  0.5757  0.7605  11.00000  0.05    0.34
Q4    1   0.4030  0.0401  0.9421  11.00000  0.05    0.34
Q5    1   0.4697  0.1673  0.8791  11.00000  0.05    0.28
Q6    1   0.1399  0.7476  0.9580  11.00000  0.05    0.28
Q7    1   0.4258  0.5940  0.7640  11.00000  0.05    0.28
Q8    1   0.1912  0.3129  0.9745  11.00000  0.05    0.28
Q9    1   0.3528  0.7037  0.2794  11.00000  0.05    0.27
Q10   1   0.3291  0.0223  0.7651  11.00000  0.05    0.27
Q11   1   0.1251  0.1442  0.7955  11.00000  0.05    0.27
Q12   1   0.3768  0.1066  0.7225  11.00000  0.05    0.27
Q13   1   0.1666  1.0988  0.3073  11.00000  0.05    0.26
Q14   1   0.0612  0.9691  0.1382  11.00000  0.05    0.26
Q15   1   0.5428  0.5951  0.5908  11.00000  0.05    0.25
Q16   1   0.3506  0.6478  0.5159  11.00000  0.05    0.25
Q17   1   0.3580  0.0869  0.7624  11.00000  0.05    0.25
Q18   1   0.2616  0.4195  0.3011  11.00000  0.05    0.24
Q19   1   0.3887  0.6354  0.9467  11.00000  0.05    0.24
Q20   1   0.1477  0.7739  0.6936  11.00000  0.05    0.24
;
_shelx_res_checksum              51141
_shelx_hkl_file
;
  -1   0   0  -10.00    1.40
  -1   0   0   -9.10    1.00
   1   0   0   -9.40    1.50
  -2   0   0 8542.25  802.02
  -2   0   0 9763.42  719.63
   2   0   0 9999.00  802.02
  -3   0   0    4.60    1.70
  -3   0   0    2.90    2.90
   3   0   0    1.50    1.50
   3   0   0    4.20    2.70
  -4   0   0  617.24   49.10
  -4   0   0  551.54   54.79
   4   0   0  664.63   54.99
   4   0   0  686.63   43.10
  -5   0   0    1.00    3.60
   5   0   0   -0.90    1.50
  -6   0   0   44.70    7.50
   6   0   0   34.40    4.30
  -7   0   0    3.30    5.10
   7   0   0    2.70    2.50
  -8   0   0  103.59   13.30
   8   0   0  107.99    9.20
  -9   0   0    5.40    5.70
 -10   0   0  172.98   19.60
 -11   0   0    5.20    7.80
 -11   1   0    6.20    7.90
 -10   1   0    2.70    6.30
  -9   1   0   25.10    7.20
  -8   1   0   -2.90    4.80
  -7   1   0  311.17   29.30
   6  -1   0   16.80    3.80
  -6   1   0   24.60    5.60
   5  -1   0  236.48   17.20
  -5   1   0  237.18   22.30
   4  -1   0   10.50    2.90
   4  -1   0   12.10    3.70
  -4   1   0   10.50    4.10
   3  -1   0  432.26   34.00
   3  -1   0  477.25   41.10
   3  -1   0  469.75   36.80
  -3   1   0  503.65   41.20
   2  -1   0    6.40    2.00
   2  -1   0    5.70    2.70
   2  -1   0    4.80    1.70
  -2   1   0    4.90    2.80
  -2   1   0    9.20    2.00
   1  -1   0   -2.00    1.80
   1  -1   0   -2.20    1.10
  -1   1   0   -3.40    1.60
  -1   1   0   -2.50    1.10
   0  -1   0   -1.20    1.00
   0  -1   0   -2.60    0.80
   0   1   0   -2.30    0.80
  -2  -1   0   87.89    9.20
  -2  -1   0   99.49    7.40
  -3  -1   0 6044.60  381.06
  -3  -1   0 4918.11  452.35
   3   1   0 4978.50  452.35
  -4  -1   0  251.67   16.10
  -4  -1   0  210.38   20.10
   4   1   0  180.48   19.80
  -5  -1   0 1134.79   94.79
  -5  -1   0 1057.69   84.69
  -6  -1   0   59.59    8.10
  -7  -1   0   34.30    7.50
  -8  -1   0   83.89   11.70
  -9  -1   0   -4.50    4.80
 -10  -1   0    8.40    7.00
 -11  -1   0    5.30    6.80
 -10   2   0    3.90    7.50
  -9   2   0    3.00    6.40
  -8   2   0   72.89   11.30
  -7   2   0   44.30    8.60
   6  -2   0   33.20    5.70
  -6   2   0   34.60    6.90
   5  -2   0   65.49    5.90
   5  -2   0   60.69    7.70
  -5   2   0   69.09    8.60
   4  -2   0 1251.07   85.89
   4  -2   0 1126.19  102.29
   4  -2   0 1184.28   91.99
  -4   2   0 1189.98  102.49
   3  -2   0  750.92   63.09
   3  -2   0  700.73   56.69
   3  -2   0  803.32   52.99
  -3   2   0  746.13   63.09
  -3   2   0  639.24   56.39
   2  -2   0 2802.32  205.78
   2  -2   0 2624.44  228.98
  -2   2   0 2582.24  205.58
  -2   2   0 2739.63  229.08
   1  -2   0  128.69   12.20
   1  -2   0  136.09   11.20
  -1   2   0  138.59   12.20
  -1   2   0  132.79   11.00
   0  -2   0 4253.37  382.56
   0  -2   0 4740.13  343.57
   0   2   0 4153.78  382.56
   0   2   0 4861.61  343.57
  -1  -2   0 2148.58  165.48
   1   2   0 2184.98  165.48
  -3  -2   0  391.46   28.80
  -3  -2   0  396.66   34.50
  -4  -2   0  708.53   63.29
  -4  -2   0  752.12   52.99
  -5  -2   0   41.60    6.90
  -5  -2   0   58.19    5.40
  -6  -2   0  290.97   30.70
  -6  -2   0  381.16   25.20
  -7  -2   0  183.08   18.20
  -8  -2   0   85.89   11.40
  -9  -2   0   -6.90    5.20
 -10  -2   0   73.29   11.80
 -11  -2   0   34.00    9.70
 -10   3   0    0.30    6.90
  -9   3   0   18.60    7.80
  -8   3   0   35.50    8.40
   7  -3   0    6.80    4.50
  -7   3   0    4.30    5.90
   6  -3   0    4.40    3.70
   6  -3   0    6.00    2.60
  -6   3   0    7.20    5.20
   5  -3   0   38.00    4.90
   5  -3   0   29.40    5.00
  -5   3   0   34.10    6.80
   4  -3   0   11.50    3.30
   4  -3   0   15.40    3.10
  -4   3   0   23.10    5.10
   3  -3   0   -0.20    2.10
   3  -3   0    2.50    2.70
   3  -3   0    0.90    2.40
  -3   3   0    3.10    3.30
   2  -3   0    7.20    2.60
   2  -3   0    8.60    2.90
  -2   3   0    5.40    1.80
  -2   3   0    5.80    3.00
   1  -3   0   99.19    8.30
   1  -3   0   83.89    8.60
  -1   3   0   86.19    7.90
   0  -3   0  437.66   41.80
   0  -3   0  523.25   38.00
   0   3   0  482.15   37.80
   0   3   0  506.65   41.80
  -1  -3   0 1580.94  122.99
   1   3   0 1629.94  122.99
  -2  -3   0  288.67   21.80
   2   3   0  264.17   21.70
  -3  -3   0   -0.90    0.90
  -3  -3   0   -0.10    1.30
  -4  -3   0  348.67   24.90
  -4  -3   0  320.67   29.70
  -5  -3   0  513.15   45.20
  -6  -3   0   95.29    8.00
  -6  -3   0   75.39   10.00
  -7  -3   0  226.98   17.50
  -7  -3   0  218.68   21.60
  -8  -3   0   32.80    7.50
  -8  -3   0   42.50    5.50
  -9  -3   0   89.29   12.10
 -10  -3   0    4.90    6.30
 -11  -3   0   19.40    8.30
  -9   4   0   11.90    8.10
  -8   4   0   17.60    7.60
   7  -4   0    0.80    4.40
  -7   4   0    2.10    5.90
   6  -4   0   67.49    7.80
   6  -4   0   66.49    9.00
  -6   4   0   69.69   11.00
   5  -4   0  193.78   16.50
   5  -4   0  202.28   17.90
  -5   4   0  203.48   19.90
   4  -4   0  220.98   19.60
   4  -4   0  237.78   18.20
  -4   4   0  224.68   21.50
   3  -4   0   18.80    4.40
   3  -4   0   11.20    3.20
  -3   4   0   17.30    4.80
   2  -4   0  123.09   12.50
   2  -4   0  141.89   11.90
  -2   4   0  128.69   12.80
   1  -4   0  225.18   20.30
   1  -4   0  245.18   19.00
  -1   4   0  220.68   18.50
  -1   4   0  225.98   20.30
   0  -4   0   11.90    2.80
   0  -4   0   17.50    2.90
   0   4   0   14.10    2.70
   0   4   0   11.90    2.50
  -1  -4   0    6.60    1.90
   1   4   0    6.00    1.70
  -2  -4   0   32.90    4.10
   2   4   0   29.80    3.70
  -3  -4   0   10.80    2.40
  -4  -4   0   -2.00    1.80
  -4  -4   0    1.20    1.20
  -4  -4   0   -1.00    2.30
  -5  -4   0   54.79    7.60
  -5  -4   0   73.89    6.70
  -6  -4   0    3.90    3.60
  -6  -4   0    7.40    3.00
  -7  -4   0   83.49   11.00
  -7  -4   0  101.89    9.00
  -8  -4   0   23.50    4.80
  -8  -4   0   31.30    6.90
  -9  -4   0   72.69   11.30
  -9  -4   0   74.79    8.80
 -10  -4   0    1.50    6.70
 -11  -4   0   11.70    7.60
  -9   5   0   15.00    7.80
   8  -5   0   -0.30    5.00
  -8   5   0   13.60    7.30
   7  -5   0   -2.60    4.50
  -7   5   0    6.50    6.30
   6  -5   0   -2.10    3.70
  -6   5   0   -8.80    5.20
   5  -5   0    9.10    4.30
  -5   5   0   -1.20    5.10
   4  -5   0    4.40    3.50
  -4   5   0   12.20    5.50
   3  -5   0    7.60    3.40
  -3   5   0    6.70    4.30
   2  -5   0  105.09   10.70
   2  -5   0   85.09   10.00
  -2   5   0  121.89   10.90
   1  -5   0   78.49    7.90
   1  -5   0   71.69    7.80
  -1   5   0   73.09    7.70
   0  -5   0    5.60    2.30
   0  -5   0    5.10    2.30
   0   5   0    8.20    2.30
   0   5   0    2.90    1.50
   1   5   0   21.60    3.30
   2   5   0   93.39    8.40
  -3  -5   0  105.99    8.80
   3   5   0   84.59    8.30
  -4  -5   0    3.10    1.70
  -4  -5   0    3.80    2.10
  -4  -5   0    7.80    2.90
  -5  -5   0   -2.40    2.70
  -5  -5   0   -0.10    2.00
  -6  -5   0   10.30    3.20
  -6  -5   0    7.40    2.80
  -6  -5   0    5.60    3.90
  -7  -5   0    0.90    4.00
  -7  -5   0    2.00    3.30
  -8  -5   0    2.20    5.00
  -8  -5   0   -2.50    3.40
  -9  -5   0   12.90    6.20
  -9  -5   0   14.40    4.90
 -10  -5   0    9.50    5.90
 -11  -5   0    8.40    8.30
   8  -6   0    6.00    5.50
  -8   6   0    4.10    7.40
   7  -6   0    0.20    4.50
  -7   6   0   14.80    7.40
   6  -6   0   14.10    5.80
  -6   6   0    8.00    6.40
   5  -6   0   16.70    5.50
  -5   6   0   19.10    6.90
   4  -6   0   62.49    9.20
  -4   6   0   84.59   11.10
   3  -6   0   33.70    5.90
  -3   6   0   51.59    7.40
   2  -6   0   28.00    5.20
   2  -6   0   33.60    5.80
  -2   6   0   36.40    5.90
   1  -6   0   17.30    4.00
   1  -6   0   20.60    4.20
  -1   6   0   24.40    4.20
   0  -6   0   13.40    3.40
   0  -6   0   17.90    3.40
   0   6   0   15.60    3.40
  -1  -6   0   33.40    4.50
  -1  -6   0   37.40    5.20
  -2  -6   0   82.19    8.50
  -2  -6   0   90.29    8.30
  -3  -6   0   29.80    4.50
  -3  -6   0   30.40    5.10
  -4  -6   0   13.20    3.40
  -4  -6   0   22.50    3.50
  -5  -6   0   24.30    3.40
  -5  -6   0   21.80    3.90
  -5  -6   0   30.30    5.40
  -6  -6   0  170.98   14.20
  -6  -6   0  147.29   13.50
  -6  -6   0  156.68   15.60
  -7  -6   0    3.80    4.50
  -7  -6   0    4.00    3.30
  -7  -6   0    4.30    3.20
  -8  -6   0   10.50    3.80
  -8  -6   0    9.00    4.00
  -8  -6   0    5.70    5.00
  -9  -6   0    1.90    3.50
  -9  -6   0    5.20    5.40
  -9  -6   0    3.80    4.20
 -10  -6   0   12.80    5.30
 -10  -6   0   22.30    7.20
 -10  -6   0    9.60    4.40
 -11  -6   0    7.30    8.30
   7  -7   0    8.30    5.70
  -7   7   0    7.30    6.90
   6  -7   0    7.70    5.40
  -6   7   0   12.10    7.20
   5  -7   0    5.10    4.50
  -5   7   0    6.90    6.00
   4  -7   0    4.00    4.50
  -4   7   0   15.30    5.70
   3  -7   0   13.30    4.40
  -3   7   0   13.90    5.20
   2  -7   0    0.50    3.80
   2  -7   0   -1.10    3.60
  -2   7   0    1.10    4.00
   1  -7   0   69.19    8.10
   1  -7   0   66.79    8.50
  -1   7   0   68.79    8.00
   0  -7   0   75.49    7.90
   0  -7   0   67.79    8.30
  -1  -7   0   48.30    5.70
  -2  -7   0   -0.20    2.20
  -2  -7   0    4.30    2.90
  -3  -7   0   31.70    5.10
  -3  -7   0   24.20    4.30
  -4  -7   0    0.90    2.60
  -4  -7   0   11.70    4.30
  -5  -7   0    1.90    3.40
  -5  -7   0   -0.70    2.40
  -5  -7   0   -0.70    2.50
  -6  -7   0   -1.70    2.20
  -6  -7   0   -6.70    3.40
  -6  -7   0   -1.80    2.50
  -6  -7   0    2.60    3.60
  -7  -7   0   -4.50    3.40
  -7  -7   0    1.60    4.00
  -7  -7   0   -0.40    2.90
  -8  -7   0    6.80    3.60
  -8  -7   0    1.40    4.80
  -8  -7   0   10.60    4.10
  -9  -7   0    0.40    3.50
  -9  -7   0    1.50    4.10
  -9  -7   0    7.70    5.60
 -10  -7   0   23.90    6.00
 -10  -7   0   13.60    4.70
 -10  -7   0   14.60    6.60
   6  -8   0   -0.60    5.40
  -6   8   0    4.20    7.00
   5  -8   0   -1.10    4.80
  -5   8   0   -1.20    6.40
   4  -8   0    2.60    4.60
  -4   8   0    6.70    6.00
   3  -8   0    6.00    4.90
  -3   8   0   12.20    5.40
   2  -8   0   -0.30    3.50
  -2   8   0    5.00    4.30
   1  -8   0   -1.00    3.50
  -1   8   0    1.90    3.80
   0  -8   0   23.20    4.70
   0  -8   0   10.60    4.30
  -1  -8   0    7.70    3.20
  -1  -8   0    6.40    3.40
  -2  -8   0   12.70    4.00
  -2  -8   0   14.20    3.80
  -3  -8   0  270.77   22.90
  -3  -8   0  234.58   21.30
  -4  -8   0    4.10    4.90
  -4  -8   0    7.30    3.50
  -5  -8   0   29.20    5.40
  -5  -8   0   20.20    4.70
  -5  -8   0   27.30    4.70
  -6  -8   0    1.30    4.00
  -6  -8   0    5.80    4.10
  -6  -8   0    2.40    2.80
  -6  -8   0    6.40    3.50
  -7  -8   0   54.19    7.60
  -7  -8   0   60.39    8.60
  -7  -8   0   49.20    7.80
  -8  -8   0    2.50    4.20
  -8  -8   0    0.10    4.60
  -8  -8   0    0.00    3.20
  -9  -8   0   -2.10    3.90
  -9  -8   0   -1.70    3.40
  -9  -8   0   -9.00    4.30
 -10  -8   0   -6.40    3.30
 -10  -8   0   -6.60    5.00
 -10  -8   0   -3.60    4.60
   4  -9   0   11.50    5.90
  -4   9   0   14.30    7.40
   3  -9   0    3.70    4.80
  -3   9   0   -7.70    5.40
   2  -9   0   25.70    6.10
  -2   9   0   44.80    7.30
   1  -9   0   -1.70    3.80
  -1   9   0   -0.90    4.30
   0  -9   0    1.90    3.70
  -1  -9   0   -1.90    3.20
  -2  -9   0    6.10    3.60
  -3  -9   0    6.80    3.20
  -4  -9   0   -0.80    3.10
  -4  -9   0   -1.40    3.20
  -5  -9   0    6.70    3.80
  -5  -9   0    6.40    3.80
  -5  -9   0   11.50    4.10
  -6  -9   0   23.70    5.50
  -6  -9   0   19.30    4.80
  -6  -9   0   19.90    4.70
  -6  -9   0   25.70    5.70
  -7  -9   0    1.40    3.50
  -7  -9   0    3.40    4.50
  -7  -9   0    5.50    4.70
  -8  -9   0   -0.10    3.50
  -8  -9   0   -6.00    3.80
  -8  -9   0    9.00    4.70
  -9  -9   0   -2.00    3.70
  -9  -9   0   -2.80    4.80
  -9  -9   0   -2.80    4.10
   3 -10   0    4.70    4.70
   2 -10   0    1.70    4.40
   1 -10   0   -0.60    4.30
   0 -10   0    8.40    5.10
  -1 -10   0   24.30    5.70
  -2 -10   0    0.10    3.60
  -3 -10   0   -0.80    3.40
  -4 -10   0   15.50    4.60
  -4 -10   0   23.10    5.00
  -5 -10   0    6.40    4.20
  -5 -10   0    6.80    4.00
  -6 -10   0   10.70    4.60
  -6 -10   0    6.90    4.20
  -6 -10   0    3.60    4.80
  -7 -10   0   -0.10    3.70
  -7 -10   0   -4.40    4.30
  -8 -10   0   -0.10    4.00
  -8 -10   0   -2.90    4.50
   0 -11   0   -3.70    4.30
  -1 -11   0   -5.20    4.00
  -2 -11   0   -2.60    4.00
  -3 -11   0   -6.60    3.40
  -3 -11   0    1.70    3.60
  -4 -11   0    1.20    4.10
  -4 -11   0    2.40    3.80
  -5 -11   0   -3.40    3.60
  -5 -11   0    5.10    4.20
  -5 -11   0   -3.30    3.60
  -6 -11   0   -0.40    4.30
  -6 -11   0   -2.80    4.50
  -5 -11   1   -2.90    4.30
  -5 -11   1   -1.60    3.80
  -5 -11   1   -3.40    4.00
  -4 -11   1    8.40    4.80
  -4 -11   1   10.10    4.20
  -4 -11   1    5.50    4.60
  -3 -11   1    4.10    3.50
  -3 -11   1    3.30    4.10
  -3 -11   1   -0.80    4.10
  -2 -11   1    2.30    4.50
  -2 -11   1    3.70    4.30
  -2 -11   1    2.10    3.70
  -1 -11   1    3.60    3.50
  -1 -11   1    7.90    5.10
  -7 -10   1   -0.60    3.60
  -7 -10   1    2.20    4.60
  -6 -10   1   16.40    5.00
  -6 -10   1   19.50    5.80
  -6 -10   1   22.90    5.80
  -5 -10   1   81.39    8.70
  -5 -10   1   57.59    8.50
  -5 -10   1   64.19    9.30
  -4 -10   1   22.60    5.20
  -4 -10   1   20.50    5.10
  -4 -10   1   16.50    5.00
  -3 -10   1   -0.90    3.70
  -3 -10   1   -3.00    3.40
  -3 -10   1   -0.80    3.00
  -2 -10   1    7.20    4.60
  -2 -10   1   16.30    4.90
  -1 -10   1  108.09   11.90
   0 -10   1   27.90    6.50
   1 -10   1    5.50    4.90
   2 -10   1    2.30    5.20
  -9  -9   1    3.20    5.40
  -8  -9   1   10.70    4.80
  -8  -9   1   22.60    6.50
  -8  -9   1    6.70    4.10
  -7  -9   1   13.20    4.90
  -7  -9   1   20.70    5.90
  -6  -9   1   83.59    8.60
  -6  -9   1   84.69   10.40
  -6  -9   1   57.79    8.60
  -6  -9   1   87.69   10.10
  -5  -9   1   11.00    4.50
  -5  -9   1   17.90    4.30
  -5  -9   1    5.30    3.50
  -4  -9   1    5.80    3.50
  -4  -9   1    9.40    4.30
  -4  -9   1   11.40    4.20
  -3  -9   1    9.90    4.10
  -3  -9   1   10.30    4.10
  -2  -9   1   10.10    4.00
  -1  -9   1    3.00    3.60
   0  -9   1    2.60    3.80
  -1   9  -1    0.20    4.80
   1  -9   1    4.40    4.30
  -2   9  -1   45.50    7.80
   2  -9   1   31.50    6.50
  -3   9  -1    1.60    6.50
   3  -9   1    8.00    4.80
  -4   9  -1   18.00    8.00
   4  -9   1   23.70    6.70
  -9  -8   1  -11.30    4.90
  -9  -8   1   -4.60    2.90
  -9  -8   1   -5.90    4.10
  -8  -8   1    8.20    4.60
  -8  -8   1    8.50    5.60
  -8  -8   1    7.60    3.90
  -7  -8   1   22.60    4.10
  -7  -8   1   24.50    5.00
  -7  -8   1   39.00    7.30
  -7  -8   1   20.00    5.50
  -6  -8   1   16.40    4.50
  -6  -8   1   39.70    7.20
  -6  -8   1   27.50    6.00
  -6  -8   1   28.40    4.50
  -5  -8   1   13.20    3.90
  -5  -8   1   14.90    4.80
  -5  -8   1   20.50    4.20
  -4  -8   1   20.20    5.10
  -4  -8   1   18.70    4.30
  -3  -8   1  224.88   16.00
  -3  -8   1  180.28   17.20
  -3  -8   1  202.28   18.90
  -2  -8   1   27.30    5.00
  -2  -8   1   12.90    4.40
  -1  -8   1   20.40    5.00
  -1  -8   1   35.20    5.40
   0  -8   1   32.00    6.00
  -1   8  -1   -0.80    4.00
   1  -8   1    3.20    3.60
  -2   8  -1    5.00    4.90
   2  -8   1    7.30    4.40
  -3   8  -1   14.30    6.00
   3  -8   1   10.40    4.80
  -4   8  -1   12.80    6.50
   4  -8   1   -1.40    4.30
  -5   8  -1    5.10    6.80
   5  -8   1    2.90    5.20
 -10  -7   1   11.00    6.80
 -10  -7   1    9.70    4.10
 -10  -7   1   14.30    5.30
  -9  -7   1   13.20    6.50
  -9  -7   1    2.00    3.40
  -9  -7   1    4.90    4.40
  -8  -7   1    6.70    4.10
  -8  -7   1   -1.10    4.70
  -8  -7   1   -1.20    2.80
  -7  -7   1   -0.60    4.00
  -7  -7   1   -3.90    2.40
  -7  -7   1   -4.70    3.60
  -6  -7   1   -1.30    2.70
  -6  -7   1   -3.90    2.40
  -6  -7   1   -1.90    3.60
  -6  -7   1    8.10    4.30
  -5  -7   1   -5.00    2.10
  -5  -7   1    0.80    3.60
  -5  -7   1   -3.80    2.50
  -4  -7   1   -2.80    2.10
  -4  -7   1   -4.60    3.00
  -4  -7   1   -1.70    2.40
  -3  -7   1    8.50    3.00
  -3  -7   1    6.30    3.90
  -3  -7   1    5.80    2.80
  -2  -7   1    4.70    3.30
  -2  -7   1    2.40    2.70
  -1  -7   1   79.29    7.60
  -1  -7   1   49.50    7.60
   0   7  -1   59.09    7.40
   0  -7   1   59.09    7.20
  -1   7  -1   49.20    7.50
   1  -7   1   49.10    7.60
   1  -7   1   61.29    7.90
  -2   7  -1   -2.70    4.30
   2  -7   1   -2.50    3.20
  -3   7  -1   10.20    5.50
   3  -7   1   11.00    4.70
  -4   7  -1   20.10    6.60
   4  -7   1    8.50    4.70
  -5   7  -1   12.60    6.60
   5  -7   1    0.70    4.80
  -6   7  -1   11.10    7.10
   6  -7   1   -2.40    5.30
  -7   7  -1   12.10    7.40
   7  -7   1    6.70    5.20
 -11  -6   1    2.90    6.60
 -11  -6   1   -6.40    3.40
 -10  -6   1    6.10    5.30
 -10  -6   1   11.30    4.40
 -10  -6   1   13.20    6.80
  -9  -6   1    2.30    3.20
  -9  -6   1    2.30    5.50
  -9  -6   1    3.20    4.20
  -8  -6   1    3.00    4.10
  -8  -6   1    5.30    3.30
  -8  -6   1    3.60    5.40
  -7  -6   1   19.50    4.90
  -7  -6   1   21.90    4.30
  -7  -6   1   24.90    6.20
  -6  -6   1  108.09   12.10
  -6  -6   1  113.39    8.60
  -6  -6   1   97.99   10.40
  -6  -6   1  108.59   10.20
  -5  -6   1   97.49    9.90
  -5  -6   1   90.59    9.10
  -5  -6   1  107.29    8.20
  -4  -6   1   30.90    3.90
  -4  -6   1   21.50    3.70
  -4  -6   1   24.50    4.70
  -3  -6   1    1.10    2.30
  -3  -6   1   -0.60    3.60
  -3  -6   1    3.90    2.10
  -2  -6   1   63.09    6.80
  -2  -6   1   72.49    7.50
  -1  -6   1    9.80    3.20
  -1  -6   1    4.50    2.70
   0   6  -1   35.00    5.30
   0  -6   1   31.60    4.70
   0  -6   1   27.90    4.90
  -1   6  -1   13.10    3.90
   1  -6   1   15.50    3.90
   1  -6   1   12.60    3.60
  -2   6  -1   44.20    6.80
   2  -6   1   44.80    6.80
  -3   6  -1   51.69    8.00
   3  -6   1   37.70    6.60
  -4   6  -1   54.79    9.20
   4  -6   1   58.79    8.60
  -5   6  -1   16.20    6.70
   5  -6   1   11.20    5.30
  -6   6  -1    3.60    5.80
   6  -6   1   -5.80    4.00
  -7   6  -1   15.70    6.70
   7  -6   1    9.70    6.00
  -8   6  -1    7.00    7.20
 -11  -5   1    6.30    6.80
 -10  -5   1    4.70    6.00
 -10  -5   1   -6.40    4.90
  -9  -5   1    5.70    6.00
  -9  -5   1    3.80    4.50
  -8  -5   1    1.00    3.90
  -8  -5   1    4.40    5.00
  -7  -5   1   -0.50    2.40
  -7  -5   1    0.80    4.30
  -7  -5   1    0.40    3.50
  -6  -5   1   16.60    4.10
  -6  -5   1   16.10    4.80
  -6  -5   1   10.20    2.90
  -5  -5   1   -0.90    1.60
  -5  -5   1   -5.60    2.70
  -5  -5   1    0.80    1.80
  -4  -5   1   35.70    4.00
  -4  -5   1   30.30    4.80
  -4  -5   1   31.50    4.30
   2   5  -1  347.67   29.70
  -2  -5   1  416.86   33.10
  -2  -5   1  370.36   29.90
   1   5  -1    3.40    1.70
  -1  -5   1    6.70    2.30
  -1  -5   1    9.20    3.00
   0   5  -1   24.20    3.60
   0   5  -1   28.80    4.40
   0  -5   1   26.00    4.20
   0  -5   1   31.60    4.50
  -1   5  -1    7.50    3.10
   1  -5   1    5.60    2.60
   1  -5   1    7.70    2.90
  -2   5  -1  226.58   19.20
   2  -5   1  196.48   18.90
   2  -5   1  191.48   17.50
  -3   5  -1   -2.60    3.70
   3  -5   1    3.70    3.00
  -4   5  -1   10.00    5.20
   4  -5   1    3.50    3.90
  -5   5  -1   -0.70    5.30
   5  -5   1    0.50    3.60
  -6   5  -1   -1.00    5.90
   6  -5   1   -3.00    3.80
  -7   5  -1    1.80    6.10
   7  -5   1   -1.50    4.30
  -8   5  -1    7.60    7.20
 -11  -4   1    9.20    7.30
 -10  -4   1    7.60    6.20
  -9  -4   1  136.19   12.20
  -9  -4   1  110.99   14.30
  -8  -4   1   -0.60    4.80
  -8  -4   1   -0.10    3.70
  -7  -4   1  125.39   11.30
  -7  -4   1  124.09   13.60
  -6  -4   1    4.50    4.10
  -6  -4   1    7.30    3.30
  -5  -4   1  155.58   11.40
  -5  -4   1  156.38   15.60
  -5  -4   1  179.18   13.60
  -5  -4   1  144.69   13.00
  -4  -4   1   -3.20    2.50
  -4  -4   1    2.80    1.70
  -4  -4   1    2.60    1.60
  -3  -4   1   28.40    4.30
  -3  -4   1   23.70    3.40
  -3  -4   1   28.60    3.40
   2   4  -1    9.00    1.90
  -2  -4   1    8.10    2.30
  -2  -4   1    7.60    2.90
  -2  -4   1    8.60    2.00
   1   4  -1    7.00    1.80
  -1  -4   1    5.60    1.90
   0   4  -1   33.30    3.90
   0   4  -1   31.60    4.60
   0  -4   1   36.20    4.60
   0  -4   1   33.90    4.60
  -1   4  -1  419.46   33.30
  -1   4  -1  409.26   36.80
   1  -4   1  420.66   36.90
   1  -4   1  444.66   33.60
  -2   4  -1  106.09   11.70
   2  -4   1  116.79   10.70
   2  -4   1  126.09   11.50
  -3   4  -1   31.50    5.90
   3  -4   1   27.20    5.40
   3  -4   1   15.60    3.80
  -4   4  -1   39.50    7.20
   4  -4   1   46.60    6.80
  -5   4  -1  323.47   30.10
   5  -4   1  303.87   27.00
   5  -4   1  344.17   25.20
  -6   4  -1   25.30    7.40
   6  -4   1   22.20    4.90
   6  -4   1   19.60    4.40
  -7   4  -1    5.20    6.70
   7  -4   1    1.50    4.30
  -8   4  -1    3.60    6.70
  -9   4  -1   13.10    7.70
 -11  -3   1   -1.50    7.20
 -10  -3   1    2.40    5.80
  -9  -3   1   -0.30    4.70
  -9  -3   1   -5.30    4.00
  -8  -3   1   36.20    5.40
  -8  -3   1   17.50    6.10
  -7  -3   1    4.70    3.30
  -7  -3   1    7.40    4.40
  -6  -3   1   65.89    9.20
  -6  -3   1   90.39    7.80
  -5  -3   1  186.08   19.40
  -5  -3   1  226.58   16.20
  -4  -3   1  163.08   11.60
  -3  -3   1    1.10    1.30
  -3  -3   1    2.50    1.40
  -3  -3   1   -2.90    2.00
   2   3  -1  198.48   15.70
  -2  -3   1  207.68   15.80
  -2  -3   1  189.68   14.00
   1   3  -1  464.05   37.60
  -1  -3   1  448.46   37.60
  -1  -3   1  545.35   41.90
   0   3  -1  249.18   19.40
   0   3  -1  249.38   21.50
   0  -3   1  228.68   21.60
   0  -3   1  253.47   19.60
  -1   3  -1   35.00    4.90
  -1   3  -1   33.80    4.00
   1  -3   1   36.40    4.60
   1  -3   1   31.30    4.70
  -2   3  -1   -0.60    1.40
  -2   3  -1    0.50    2.90
   2  -3   1   -0.30    2.30
   2  -3   1   -1.10    1.90
  -3   3  -1    5.90    3.50
   3  -3   1    6.40    2.80
   3  -3   1    8.50    3.20
  -4   3  -1   13.20    4.40
   4  -3   1    8.90    3.40
  -5   3  -1   36.80    6.70
   5  -3   1   23.90    4.90
   5  -3   1   19.00    3.70
  -6   3  -1    5.20    5.30
   6  -3   1    5.10    3.80
   6  -3   1    3.50    2.40
  -7   3  -1   -1.60    5.50
  -8   3  -1    2.90    6.10
  -9   3  -1   12.30    7.30
 -10   3  -1    9.70    8.00
 -11  -2   1    9.40    7.40
 -10  -2   1    9.10    6.60
  -9  -2   1    0.70    5.00
  -8  -2   1   34.80    7.40
  -7  -2   1   46.70    6.40
  -7  -2   1   55.09    8.20
  -6  -2   1   47.50    7.70
  -6  -2   1   71.49    6.40
  -5  -2   1   72.29    6.10
  -5  -2   1   43.20    7.30
  -4  -2   1    2.00    2.10
  -4  -2   1    0.90    3.10
   3   2  -1  215.58   14.20
  -3  -2   1  208.18   15.60
  -3  -2   1  189.88   14.20
   2   2  -1 1422.56   94.69
  -2  -2   1 1476.95  107.29
  -2  -2   1 1379.66  101.09
  -2  -2   1 1329.87   94.59
   1   2  -1  737.93   53.39
  -1  -2   1  657.03   50.39
  -1  -2   1  688.23   53.39
  -1  -2   1  699.93   47.30
   0   2  -1  562.94   50.89
   0   2  -1  619.44   45.80
   0  -2   1  634.54   45.80
   0  -2   1  559.24   50.89
  -1   2  -1    6.20    2.70
  -1   2  -1    7.60    1.90
   1  -2   1   10.70    2.80
   1  -2   1   10.10    2.30
  -2   2  -1  795.02   62.99
  -2   2  -1  837.62   70.29
   2  -2   1  797.72   70.19
   2  -2   1  830.52   63.09
  -3   2  -1   73.89    8.70
  -3   2  -1   77.19    7.40
   3  -2   1   89.19    7.90
   3  -2   1   73.79    8.40
  -4   2  -1   83.59   10.00
   4  -2   1   90.09    8.80
  -5   2  -1   21.60    5.30
   5  -2   1   13.10    4.00
  -6   2  -1  100.59   12.10
  -7   2  -1   15.50    6.50
  -8   2  -1    3.50    5.80
  -9   2  -1    5.70    6.70
 -10   2  -1    0.00    7.40
 -11  -1   1   10.50    7.40
 -10  -1   1   -0.90    6.30
  -9  -1   1   -2.70    5.00
   8   1  -1    5.20    2.80
  -8  -1   1   12.50    5.10
   7   1  -1  121.09    9.40
  -7  -1   1  118.59   13.40
   6   1  -1    3.70    2.00
   6   1  -1    6.00    1.90
  -6  -1   1    7.80    3.80
  -6  -1   1    6.70    2.60
   5   1  -1   33.10    3.60
  -5  -1   1   34.70    4.40
  -5  -1   1   39.10    6.20
  -5  -1   1   30.60    4.40
   3   1  -1  281.87   19.80
   3   1  -1  286.87   21.20
  -3  -1   1  293.47   19.90
  -3  -1   1  291.47   21.30
  -2  -1   1   18.70    2.20
   1   1  -1   -0.80    1.30
   1   1  -1   -0.40    1.00
  -1  -1   1    0.50    0.60
  -1  -1   1   -1.20    1.50
  -1  -1   1   -0.20    1.00
   0   1  -1    7.20    1.70
   0   1  -1    9.70    1.50
   0   1  -1   13.10    2.10
   0  -1   1   12.70    2.10
   0  -1   1    8.30    1.60
   0  -1   1    6.90    1.30
   0  -1   1    8.00    1.70
  -1   1  -1   -0.20    2.10
  -1   1  -1   -1.00    1.10
   1  -1   1    0.00    1.90
   1  -1   1    1.00    1.30
  -2   1  -1    5.60    2.70
  -2   1  -1    5.60    1.60
   2  -1   1    3.30    2.40
   2  -1   1    5.50    1.90
  -3   1  -1    5.90    3.20
  -3   1  -1    4.20    1.80
   3  -1   1    4.10    2.60
   3  -1   1    6.30    2.40
  -4   1  -1    1.50    3.10
  -4   1  -1    3.90    1.60
   4  -1   1    2.20    2.70
  -5   1  -1   87.39   10.30
  -6   1  -1  142.89   15.20
  -7   1  -1    7.30    5.30
  -8   1  -1   -4.10    5.00
  -9   1  -1    8.40    6.60
 -10   1  -1   19.20    8.40
 -11   1  -1   12.40    8.00
 -11   0   1   -0.50    7.20
 -10   0   1   27.50    8.50
  -9   0   1   16.60    7.00
   8   0  -1   28.70    4.50
  -8   0   1   35.80    8.00
   7   0  -1    7.80    2.70
  -7   0   1    8.50    4.90
   6   0  -1   87.59    7.50
  -6   0   1   81.19   10.30
  -6   0   1   96.19    7.80
   5   0  -1   26.10    3.40
   5   0  -1   23.30    3.30
  -5   0   1   27.60    3.30
  -5   0   1   24.60    5.30
  -5   0   1   20.50    3.50
   4   0  -1    6.20    1.70
   4   0  -1    7.10    1.90
  -4   0   1    3.40    3.30
  -4   0   1    7.20    1.90
  -4   0   1    4.10    1.80
   3   0  -1  231.28   16.00
   3   0  -1  236.48   17.00
  -3   0   1  226.68   18.30
  -3   0   1  234.88   20.80
  -3   0   1  226.98   16.10
  -3   0   1  220.18   17.00
   2   0  -1   26.60    3.10
   2   0  -1   40.10    3.50
   2   0  -1   38.70    3.80
  -2   0   1   33.90    3.70
  -2   0   1   32.50    3.30
  -2   0   1   32.80    3.50
   1   0  -1 1431.26   94.49
   1   0  -1 1437.96  107.09
   1   0  -1 1466.85  100.69
  -1   0   1 1367.96  100.69
  -1   0   1 1351.66   94.49
  -1   0   1 1356.86  107.09
   0   0  -1  187.18   13.90
   0   0  -1  194.58   13.10
   0   0  -1  185.18   16.50
   0   0   1  191.18   14.00
   0   0   1  193.58   16.50
  -1   0  -1 1397.66   95.99
  -1   0  -1 1420.36  121.49
  -1   0  -1 1397.26  102.19
   1   0   1 1461.95   95.99
   1   0   1 1389.16  102.19
   1   0   1 1484.95  121.49
  -2   0  -1   29.80    4.60
   2   0   1   28.90    4.10
  -3   0  -1  237.48   20.50
  -3   0  -1  219.48   18.10
   3   0   1  218.38   20.30
  -4   0  -1    6.20    3.20
  -4   0  -1    2.40    2.10
   4   0   1    4.90    2.90
  -5   0  -1   25.20    5.30
  -6   0  -1   82.19   10.60
   6   0   1   95.19    7.60
  -7   0  -1    7.60    5.40
   7   0   1   11.90    3.20
  -8   0  -1   36.10    8.30
   8   0   1   32.30    4.70
  -9   0  -1   13.10    6.70
 -10   0  -1   23.40    8.50
 -11   0  -1    4.80    7.70
 -11   1   1   12.70    8.00
 -10   1   1   13.90    7.40
  -9   1   1    7.40    6.10
  -8   1   1   -4.30    4.60
  -7   1   1   13.60    5.80
   6  -1  -1  180.88   14.40
   6  -1  -1  191.08   14.60
  -6   1   1  203.58   19.10
   5  -1  -1   31.80    3.60
  -5   1   1   16.60    5.00
   4  -1  -1   27.40    5.00
   4  -1  -1   25.20    3.50
   4  -1  -1   22.40    3.70
   4  -1  -1   20.40    2.90
  -4   1   1   25.20    3.70
  -4   1   1   26.90    3.40
  -4   1   1   25.20    5.10
   3  -1  -1   31.40    3.60
   3  -1  -1   35.60    4.50
   3  -1  -1   28.20    5.10
  -3   1   1   29.80    3.80
  -3   1   1   29.50    5.20
  -3   1   1   28.60    3.80
   2  -1  -1   33.90    3.90
   2  -1  -1   40.40    4.00
   2  -1  -1   45.30    4.50
  -2   1   1   42.80    4.20
  -2   1   1   40.00    4.20
  -2   1   1   29.60    5.00
   1  -1  -1   -1.00    1.20
   1  -1  -1   -0.20    1.30
   1  -1  -1   -1.10    1.20
  -1   1   1   -0.60    1.40
  -1   1   1   -1.40    1.70
  -1   1   1   -0.40    1.10
  -1   1   1   -1.90    1.30
   0  -1  -1   20.90    2.50
   0  -1  -1   18.30    2.20
   0   1   1   17.60    2.00
   0   1   1   18.40    2.50
  -1  -1  -1   -1.80    1.40
  -1  -1  -1   -4.80    1.10
  -1  -1  -1   -1.20    0.80
   1   1   1   -1.40    1.10
   1   1   1   -1.40    0.70
   1   1   1   -3.10    1.20
  -2  -1  -1  253.47   19.70
  -2  -1  -1  285.87   23.80
   2   1   1  271.57   23.60
   3   1   1 1207.68  103.49
  -4  -1  -1  421.36   36.90
   4   1   1  411.56   36.70
  -6  -1  -1   94.49   11.00
  -7  -1  -1    8.60    4.60
  -8  -1  -1  113.09   13.90
  -9  -1  -1    3.10    5.20
 -10  -1  -1   11.70    7.40
 -11  -1  -1    6.70    7.30
 -10   2   1    0.80    6.80
  -9   2   1    3.20    6.20
  -8   2   1   67.89   11.10
  -7   2   1   42.40    8.20
   6  -2  -1   30.70    4.10
   6  -2  -1   34.30    5.50
  -6   2   1   39.10    7.70
   5  -2  -1   57.29    5.80
   5  -2  -1   65.09    6.20
   5  -2  -1   67.59    7.40
  -5   2   1   68.09    8.60
   4  -2  -1 1177.58  101.49
   4  -2  -1 1138.79   80.29
   4  -2  -1 1177.28   91.09
   4  -2  -1 1201.48   85.19
  -4   2   1 1191.08  101.49
   3  -2  -1  752.52   64.89
   3  -2  -1  784.82   58.39
   3  -2  -1  757.82   51.49
   3  -2  -1  750.22   54.59
  -3   2   1  789.72   64.99
  -3   2   1  667.83   58.09
   2  -2  -1 2906.11  233.28
   2  -2  -1 2746.73  196.78
   2  -2  -1 2738.13  209.48
   2  -2  -1 2740.73  184.78
  -2   2   1 2537.45  209.28
  -2   2   1 2749.52  233.28
   1  -2  -1  128.99   11.10
   1  -2  -1  141.39   11.80
   1  -2  -1  152.98   10.70
   1  -2  -1  147.29   12.80
  -1   2   1  138.79   12.80
  -1   2   1  142.59   11.70
   0  -2  -1 4885.01  321.77
   0  -2  -1 4828.72  342.87
   0  -2  -1 4624.04  364.76
  -1  -2  -1 2260.17  176.58
  -1  -2  -1 2345.17  155.78
   1   2   1 2328.97  176.58
  -2  -2  -1 8804.32  752.62
   2   2   1 8906.51  752.62
  -3  -2  -1  426.86   36.70
   3   2   1  411.56   36.50
  -4  -2  -1  731.63   62.49
   4   2   1  707.83   62.29
  -5  -2  -1   47.00    7.30
   5   2   1   44.40    6.30
  -6  -2  -1  320.97   29.50
  -7  -2  -1  189.78   19.10
  -8  -2  -1   79.09   11.50
  -9  -2  -1    2.30    5.20
 -10  -2  -1   69.39   11.90
 -11  -2  -1   28.40    9.60
 -10   3   1    6.60    7.30
  -9   3   1   13.80    6.80
  -8   3   1   29.60    7.90
   7  -3  -1    3.60    2.30
   7  -3  -1    6.00    4.40
  -7   3   1   11.80    6.10
   6  -3  -1    6.70    3.90
   6  -3  -1    5.60    2.40
  -6   3   1    4.40    4.80
   5  -3  -1   47.50    7.30
   5  -3  -1   60.49    6.20
  -5   3   1   58.79    8.60
   4  -3  -1   10.00    3.40
   4  -3  -1   11.50    2.70
   4  -3  -1   13.70    4.10
  -4   3   1   16.90    4.70
   3  -3  -1   -2.60    2.00
   3  -3  -1    1.60    2.60
   3  -3  -1   -3.30    2.00
   3  -3  -1    0.20    2.00
  -3   3   1   -0.50    1.50
  -3   3   1    4.10    3.10
   2  -3  -1    7.50    2.70
   2  -3  -1    4.20    2.40
   2  -3  -1    4.50    2.20
  -2   3   1    5.20    2.80
  -2   3   1    3.30    1.80
   1  -3  -1  374.16   27.90
   1  -3  -1  337.57   30.50
   1  -3  -1  350.06   26.20
  -1   3   1  352.06   27.70
  -1   3   1  342.27   30.50
   0  -3  -1  276.27   21.90
  -1  -3  -1 5364.66  409.96
   1   3   1 5374.86  409.96
  -2  -3  -1  103.89   11.00
  -2  -3  -1  138.99   10.30
   2   3   1  123.59   10.10
  -3  -3  -1    6.60    2.60
  -3  -3  -1    3.50    1.80
  -4  -3  -1  155.38   14.80
  -5  -3  -1 2401.06  205.38
  -6  -3  -1   40.00    4.90
  -6  -3  -1   35.00    7.00
  -7  -3  -1  543.05   48.50
  -8  -3  -1    9.70    6.00
  -9  -3  -1  107.99   14.00
 -10  -3  -1    3.70    6.50
 -11  -3  -1  102.19   14.90
  -9   4   1    8.60    7.00
   8  -4  -1   68.89   10.80
  -8   4   1   99.09   12.70
   7  -4  -1    2.90    4.40
  -7   4   1   11.80    6.10
   6  -4  -1   39.20    7.00
  -6   4   1   37.60    8.40
   5  -4  -1   58.39    7.70
   5  -4  -1   69.49    8.80
  -5   4   1   79.89    9.90
   4  -4  -1   19.50    3.90
   4  -4  -1   18.40    4.40
  -4   4   1   25.70    5.80
   3  -4  -1   -0.20    2.20
   3  -4  -1    0.50    2.10
   3  -4  -1    1.30    2.70
  -3   4   1    1.40    3.30
   2  -4  -1 2226.38  172.98
   2  -4  -1 2344.87  192.28
   2  -4  -1 2122.89  162.38
  -2   4   1 2309.87  192.18
   1  -4  -1   26.80    3.90
   1  -4  -1   19.50    3.60
  -1   4   1   29.80    4.00
  -1   4   1   17.80    3.20
   0  -4  -1  384.16   31.70
   0   4   1  421.56   31.80
  -1  -4  -1    4.60    2.00
   1   4   1    6.60    1.80
  -2  -4  -1 1828.22  149.59
  -2  -4  -1 1743.23  134.69
   2   4   1 1693.13  134.59
  -3  -4  -1    1.50    1.70
  -3  -4  -1    4.50    2.30
  -4  -4  -1   57.99    6.10
  -4  -4  -1   53.09    6.60
  -5  -4  -1   -2.10    3.00
  -6  -4  -1   13.20    4.40
  -6  -4  -1   12.40    3.20
  -7  -4  -1    3.60    4.60
  -8  -4  -1  901.01   87.09
  -8  -4  -1 1095.99   72.89
  -9  -4  -1    0.60    6.10
 -10  -4  -1  101.89   13.80
 -11  -4  -1    1.40    7.00
  -9   5   1   18.00    8.00
   8  -5  -1   -6.50    4.50
  -8   5   1   11.90    7.20
   7  -5  -1   13.90    5.50
  -7   5   1   27.30    7.70
   6  -5  -1   -2.40    3.70
  -6   5   1   -8.60    4.90
   5  -5  -1    8.50    4.30
  -5   5   1   13.90    6.10
   4  -5  -1   -1.10    3.50
  -4   5   1   -0.10    4.40
   3  -5  -1  100.59   10.80
   3  -5  -1   96.59   10.50
  -3   5   1  119.19   11.50
   2  -5  -1   19.20    4.20
   2  -5  -1   11.10    3.50
  -2   5   1   15.80    4.20
   1  -5  -1  245.18   22.90
   1  -5  -1  281.07   24.80
  -1   5   1  313.07   24.80
   0  -5  -1    0.90    2.10
  -1  -5  -1 1763.72  128.09
   1   5   1 1568.04  127.89
  -2  -5  -1   59.59    6.40
   2   5   1   58.59    6.10
  -3  -5  -1 2707.43  230.38
  -3  -5  -1 2702.33  207.28
  -4  -5  -1   12.90    3.30
  -4  -5  -1   11.00    3.00
  -5  -5  -1    2.10    3.00
  -5  -5  -1    4.90    2.40
  -6  -5  -1    2.40    2.50
  -6  -5  -1   -1.20    3.30
  -7  -5  -1  109.29   10.60
  -7  -5  -1  122.89   13.00
  -8  -5  -1   11.50    5.50
  -8  -5  -1    3.80    3.40
  -9  -5  -1   49.99    6.60
  -9  -5  -1   50.79    9.40
 -10  -5  -1    6.50    7.00
 -11  -5  -1  198.98   21.70
   8  -6  -1   26.60    7.90
  -8   6   1   47.20   10.10
   7  -6  -1    3.40    5.10
  -7   6   1   25.40    8.00
   6  -6  -1   65.29   10.30
  -6   6   1   91.89   11.80
   5  -6  -1   20.90    5.80
  -5   6   1   30.10    7.70
   4  -6  -1   21.20    5.40
  -4   6   1   22.90    6.70
   3  -6  -1  118.89   12.60
  -3   6   1  137.39   13.40
   2  -6  -1   50.99    7.10
   2  -6  -1   62.09    7.50
  -2   6   1   54.29    7.00
   1  -6  -1   25.20    4.20
   1  -6  -1   15.90    4.00
  -1   6   1   20.80    3.70
   0  -6  -1   79.39    8.30
  -1  -6  -1   87.59    8.40
  -2  -6  -1  329.47   26.50
  -3  -6  -1   64.29    7.10
  -3  -6  -1   70.69    7.00
  -4  -6  -1    0.20    2.10
  -4  -6  -1    3.20    2.70
  -5  -6  -1  210.48   19.40
  -5  -6  -1  197.58   15.10
  -5  -6  -1  195.58   17.70
  -5  -6  -1  229.28   15.10
  -6  -6  -1  530.85   41.50
  -6  -6  -1  511.15   45.90
  -7  -6  -1   46.70    6.70
  -7  -6  -1   46.40    6.10
  -7  -6  -1   37.00    7.20
  -8  -6  -1   18.00    4.50
  -8  -6  -1   19.90    4.50
  -8  -6  -1   25.30    6.60
  -9  -6  -1   62.59    8.10
  -9  -6  -1   66.19   10.90
  -9  -6  -1   64.39    8.70
 -10  -6  -1   31.10    8.70
 -11  -6  -1    9.90    8.10
   7  -7  -1   -1.60    4.70
  -7   7   1    6.30    6.80
   6  -7  -1   -2.60    4.40
  -6   7   1   10.10    6.80
   5  -7  -1    8.10    4.70
  -5   7   1   12.50    6.40
   4  -7  -1   39.20    7.40
  -4   7   1   52.59    8.70
   3  -7  -1    8.00    4.40
  -3   7   1   20.60    5.30
   2  -7  -1    3.30    3.10
   2  -7  -1   -0.10    3.10
  -2   7   1    1.90    3.60
   1  -7  -1   93.99   11.50
   1  -7  -1  131.49   11.70
  -1   7   1  120.59   11.30
   0  -7  -1  172.88   15.40
  -1  -7  -1    4.60    2.80
  -2  -7  -1   -0.20    2.20
  -3  -7  -1  352.06   28.50
  -4  -7  -1   13.80    3.50
  -5  -7  -1   50.29    6.60
  -5  -7  -1   46.00    6.40
  -6  -7  -1    4.30    3.80
  -6  -7  -1   -3.50    2.60
  -7  -7  -1   -5.80    3.60
  -7  -7  -1   -1.10    2.70
  -7  -7  -1    1.10    3.60
  -8  -7  -1   17.00    4.80
  -8  -7  -1    9.70    3.90
  -8  -7  -1    9.00    5.30
  -9  -7  -1    9.90    6.20
  -9  -7  -1    7.80    4.20
  -9  -7  -1    2.60    3.70
 -10  -7  -1    8.10    4.30
 -10  -7  -1   16.20    7.70
   6  -8  -1    9.70    5.40
  -6   8   1   16.20    7.70
   5  -8  -1   -0.70    4.40
  -5   8   1    4.80    6.60
   4  -8  -1   17.40    5.40
  -4   8   1   21.70    6.60
   3  -8  -1    0.60    3.70
  -3   8   1   15.00    5.10
   2  -8  -1   33.60    6.80
  -2   8   1   40.60    6.30
   1  -8  -1    8.20    3.30
   1  -8  -1   12.20    4.20
  -1   8   1    9.90    3.70
   0  -8  -1   35.70    5.80
  -1  -8  -1    2.00    3.00
  -2  -8  -1   26.10    4.40
  -3  -8  -1  124.59   11.90
  -4  -8  -1   24.40    4.80
  -4  -8  -1   37.70    6.20
  -5  -8  -1    9.50    3.60
  -5  -8  -1    5.80    3.70
  -6  -8  -1    4.10    4.00
  -6  -8  -1    4.20    3.40
  -6  -8  -1   -0.90    2.70
  -7  -8  -1   45.20    7.00
  -7  -8  -1   33.10    5.80
  -7  -8  -1   36.60    6.30
  -8  -8  -1   11.60    5.00
  -8  -8  -1    9.90    4.70
  -8  -8  -1   18.20    4.60
  -9  -8  -1    1.50    4.30
  -9  -8  -1   -5.30    3.50
  -9  -8  -1   -5.20    5.20
 -10  -8  -1   14.00    5.40
 -10  -8  -1   15.20    7.70
 -10  -8  -1   14.00    4.90
   4  -9  -1   -0.70    4.50
   3  -9  -1    8.60    5.30
   2  -9  -1   15.10    4.90
  -2   9   1   28.30    6.20
   1  -9  -1    1.00    3.60
   0  -9  -1    4.00    3.70
  -1  -9  -1   -0.80    2.90
  -2  -9  -1    0.40    3.30
  -3  -9  -1   10.90    3.60
  -4  -9  -1    1.70    3.10
  -5  -9  -1   20.60    4.30
  -5  -9  -1   14.80    4.20
  -6  -9  -1    4.30    3.50
  -6  -9  -1   13.30    4.10
  -6  -9  -1    5.30    3.60
  -7  -9  -1    2.30    3.90
  -7  -9  -1    5.20    4.50
  -7  -9  -1   10.10    4.50
  -8  -9  -1   -0.60    4.50
  -8  -9  -1    5.00    4.50
  -8  -9  -1    0.60    3.70
  -9  -9  -1    0.60    4.40
  -9  -9  -1   -3.20    5.20
  -9  -9  -1   -3.60    3.50
   3 -10  -1    3.90    4.70
   2 -10  -1    2.10    4.40
   1 -10  -1   -5.60    3.70
   0 -10  -1    7.60    4.40
  -1 -10  -1   16.90    5.30
  -2 -10  -1    3.20    4.00
  -3 -10  -1    8.00    4.00
  -4 -10  -1   22.00    5.40
  -5 -10  -1   11.70    4.40
  -5 -10  -1   20.30    5.10
  -6 -10  -1    5.80    4.20
  -6 -10  -1    3.90    3.90
  -7 -10  -1    4.20    4.80
  -7 -10  -1    1.60    4.00
  -8 -10  -1    0.90    3.80
  -8 -10  -1   -7.00    4.20
   0 -11  -1   -4.30    4.10
  -1 -11  -1   -4.90    4.00
  -2 -11  -1    1.50    3.90
  -3 -11  -1   -1.40    4.10
  -4 -11  -1   -2.60    3.80
  -5 -11  -1    1.40    3.90
  -5 -11  -1    2.00    4.20
  -6 -11  -1    2.30    4.10
  -7 -10   2    0.80    3.60
  -6 -10   2   21.30    5.60
  -6 -10   2   11.00    5.00
  -6 -10   2   20.60    5.10
  -5 -10   2   11.50    4.60
  -5 -10   2   19.30    5.70
  -5 -10   2   12.10    4.70
  -4 -10   2   21.80    5.30
  -4 -10   2   17.70    5.10
  -4 -10   2   15.90    5.20
  -3 -10   2   12.70    4.60
  -3 -10   2    6.40    4.70
  -3 -10   2    7.50    4.20
  -2 -10   2   61.99    8.20
  -2 -10   2   66.49    9.10
  -2 -10   2   68.99    9.20
  -1 -10   2   11.60    4.80
  -1 -10   2    9.20    4.50
  -1 -10   2   11.30    4.50
   0 -10   2   55.29    8.70
   0 -10   2   53.99    8.50
   0 -10   2   48.80    7.60
   1 -10   2   20.10    5.40
   1 -10   2   29.50    6.70
   1 -10   2   29.60    6.60
   2 -10   2    9.70    5.10
   2 -10   2    7.30    3.90
  -8  -9   2   -2.20    3.50
  -8  -9   2   10.10    6.40
  -8  -9   2    6.00    4.70
  -7  -9   2  127.99   12.70
  -7  -9   2  130.69   13.40
  -6  -9   2   32.60    5.70
  -6  -9   2   40.50    7.00
  -5  -9   2   93.09   11.00
  -5  -9   2  115.39   10.40
  -5  -9   2   99.99   10.60
  -4  -9   2   20.30    5.20
  -4  -9   2   12.40    4.10
  -4  -9   2   19.50    4.80
  -3  -9   2   38.50    6.60
  -3  -9   2   32.70    5.70
  -3  -9   2   30.80    5.50
  -2  -9   2   24.30    5.00
  -2  -9   2   25.10    5.20
  -2  -9   2   29.00    5.70
  -1  -9   2   65.39    8.00
  -1  -9   2   71.29    8.90
  -1  -9   2   70.29    9.10
   0  -9   2    3.40    3.00
   0  -9   2    5.10    4.00
   0  -9   2   -0.60    4.20
   1  -9   2   31.60    6.10
   1  -9   2   33.70    6.40
  -2   9  -2   97.29   12.40
   2  -9   2   87.09   11.70
   2  -9   2  130.69   12.00
  -3   9  -2  174.78   19.20
   3  -9   2  158.18   17.60
   3  -9   2  227.28   17.20
  -4   9  -2   28.70    8.80
   4  -9   2   11.30    5.60
   4  -9   2   25.40    6.20
  -9  -8   2   15.70    7.40
  -9  -8   2   10.00    4.00
  -9  -8   2    5.80    5.00
  -8  -8   2    2.90    3.50
  -8  -8   2   13.90    5.30
  -8  -8   2    7.00    6.60
  -7  -8   2   14.20    3.90
  -7  -8   2   26.10    7.10
  -7  -8   2    4.50    3.50
  -7  -8   2   16.20    5.10
  -6  -8   2   20.20    4.10
  -6  -8   2   18.10    5.30
  -6  -8   2    8.80    3.70
  -5  -8   2    1.50    3.20
  -5  -8   2   -0.10    2.90
  -5  -8   2    4.60    4.30
  -4  -8   2  364.56   24.40
  -4  -8   2  318.67   27.00
  -4  -8   2  310.97   26.10
  -3  -8   2   59.99    8.30
  -3  -8   2   70.99    9.00
  -3  -8   2   85.09    8.20
  -2  -8   2  232.48   17.00
  -2  -8   2  206.48   18.20
  -2  -8   2  208.18   18.60
  -1  -8   2   13.00    4.60
  -1  -8   2   20.30    4.30
  -1  -8   2   10.10    3.90
   0  -8   2    4.00    3.50
  -1   8  -2    5.20    4.70
   1  -8   2    7.00    3.80
  -2   8  -2   16.40    5.90
   2  -8   2   22.40    5.50
  -3   8  -2   52.59    9.10
   3  -8   2   49.50    7.80
  -4   8  -2   14.30    6.80
   4  -8   2    0.20    4.80
   4  -8   2   13.90    5.10
  -5   8  -2    2.10    7.10
   5  -8   2    1.10    4.80
   5  -8   2   14.30    5.20
 -10  -7   2   79.09    9.80
 -10  -7   2   89.09   12.90
  -9  -7   2  115.49   13.90
  -9  -7   2  106.59   11.30
  -9  -7   2   87.39   10.50
  -8  -7   2   18.50    5.30
  -8  -7   2   21.50    4.30
  -8  -7   2   21.80    6.90
  -7  -7   2    1.00    2.70
  -7  -7   2   -6.20    4.30
  -7  -7   2   -3.60    2.90
  -7  -7   2   -0.90    3.70
  -6  -7   2   21.20    5.30
  -6  -7   2   25.10    4.10
  -6  -7   2   24.10    4.30
  -5  -7   2   10.30    3.30
  -5  -7   2   13.10    4.50
  -5  -7   2    8.00    3.00
  -4  -7   2   -1.60    3.40
  -4  -7   2   -1.10    2.20
  -4  -7   2   -0.60    2.70
  -3  -7   2   14.70    3.60
  -3  -7   2   21.60    4.20
  -3  -7   2   21.40    4.50
  -2  -7   2   59.09    7.50
  -2  -7   2   78.99    7.20
  -2  -7   2   50.99    7.80
  -1  -7   2  241.18   18.00
  -1  -7   2  232.68   20.10
   0   7  -2  464.75   41.00
   0  -7   2  468.95   37.60
  -1   7  -2  114.39   12.10
   1  -7   2  115.59   11.70
  -2   7  -2   -4.80    4.40
   2  -7   2   -1.90    3.40
  -3   7  -2    7.00    5.20
   3  -7   2   -1.10    3.60
  -4   7  -2  168.08   16.80
   4  -7   2  143.09   15.30
  -5   7  -2   25.50    7.30
   5  -7   2    7.40    5.50
   5  -7   2   19.00    4.90
  -6   7  -2    8.20    7.00
   6  -7   2    8.60    4.60
   6  -7   2    2.00    5.10
 -10  -6   2    8.60    4.10
 -10  -6   2    4.20    6.60
 -10  -6   2   -5.00    4.80
  -9  -6   2   73.09   11.80
  -9  -6   2   61.19    9.00
  -9  -6   2   94.69    9.20
  -8  -6   2   -1.10    2.60
  -8  -6   2   -5.70    3.60
  -8  -6   2   -4.70    5.10
  -7  -6   2  168.18   16.80
  -7  -6   2  157.38   13.70
  -7  -6   2  137.49   13.70
  -6  -6   2   80.89    8.50
  -6  -6   2   87.49    9.40
  -6  -6   2   93.09    7.70
  -5  -6   2  609.04   48.90
  -5  -6   2  662.33   43.30
  -5  -6   2  605.24   46.60
  -4  -6   2   20.90    4.80
  -4  -6   2   29.00    4.00
  -4  -6   2   18.00    3.40
   3   6  -2   16.80    3.00
  -3  -6   2   27.50    5.30
  -3  -6   2   20.00    3.50
  -3  -6   2   23.50    4.60
  -3  -6   2   29.40    4.20
   2   6  -2   38.70    4.90
  -2  -6   2   40.70    6.10
  -2  -6   2   43.50    6.00
  -2  -6   2   45.50    5.60
  -2  -6   2   45.60    5.50
  -1  -6   2   31.40    5.40
  -1  -6   2   30.70    4.80
  -1  -6   2   32.70    4.90
   0   6  -2   50.19    7.10
   0  -6   2   66.89    7.00
   0  -6   2   52.99    7.10
  -1   6  -2    5.20    3.80
   1  -6   2    5.60    3.10
  -2   6  -2  177.28   17.70
   2  -6   2  195.28   16.70
  -3   6  -2  338.07   30.60
   3  -6   2  334.77   28.10
  -4   6  -2  240.98   24.00
   4  -6   2  259.17   21.90
  -5   6  -2   96.29   12.60
   5  -6   2  108.69   10.20
   5  -6   2   76.89   10.90
  -6   6  -2   15.50    6.80
   6  -6   2   11.10    4.10
   6  -6   2    5.00    5.90
  -7   6  -2   53.29   10.00
   7  -6   2   40.40    8.10
 -11  -5   2   -2.70    6.40
 -10  -5   2   16.00    7.10
 -10  -5   2  -12.20    4.80
  -9  -5   2   19.70    6.60
  -9  -5   2    2.40    4.40
  -8  -5   2   47.50    7.20
  -8  -5   2   64.79   10.00
  -7  -5   2   13.40    3.30
  -7  -5   2   17.50    6.00
  -7  -5   2    9.90    4.10
  -6  -5   2    9.60    2.80
  -6  -5   2    6.70    2.50
  -6  -5   2   17.30    4.00
  -5  -5   2   12.90    2.70
  -5  -5   2   11.90    2.80
  -5  -5   2    9.10    3.70
  -4  -5   2   60.39    5.80
  -4  -5   2   47.40    5.50
  -4  -5   2   54.09    7.00
  -3  -5   2   68.29    7.30
  -3  -5   2   46.30    5.60
  -3  -5   2   56.69    5.70
   2   5  -2  376.46   29.30
  -2  -5   2  364.46   29.40
  -2  -5   2  354.26   32.70
  -2  -5   2  388.56   26.30
  -2  -5   2  380.06   28.30
   1   5  -2   38.90    5.00
  -1  -5   2   52.29    5.80
  -1  -5   2   58.29    6.30
  -1  -5   2   55.49    6.50
  -1  -5   2   55.59    5.90
   0   5  -2   23.10    3.50
   0   5  -2   29.30    4.70
   0  -5   2   35.10    5.10
   0  -5   2   25.60    4.20
  -1   5  -2   56.59    6.90
   1  -5   2   56.99    6.70
   1  -5   2   41.80    6.20
  -2   5  -2  147.09   14.40
   2  -5   2  142.89   13.20
  -3   5  -2    2.50    4.00
   3  -5   2    3.70    3.40
  -4   5  -2   12.80    5.10
   4  -5   2    1.50    3.40
  -5   5  -2   24.70    6.90
   5  -5   2   22.30    5.60
   5  -5   2   16.70    4.40
  -6   5  -2    2.80    5.50
   6  -5   2    3.00    3.30
   6  -5   2   -1.60    4.00
  -7   5  -2    5.90    5.90
   7  -5   2    0.80    3.40
  -8   5  -2   15.60    7.30
 -11  -4   2    7.50    7.10
 -10  -4   2   -0.60    5.80
  -9  -4   2   95.49   12.50
  -9  -4   2   82.19   10.50
  -8  -4   2   32.90    6.10
  -8  -4   2   46.30    8.70
  -7  -4   2   62.79    8.20
  -7  -4   2   79.09   10.20
  -6  -4   2    4.50    2.60
  -6  -4   2   -2.30    2.90
  -6  -4   2    0.80    4.50
  -5  -4   2   54.29    5.50
  -5  -4   2   66.59    6.20
  -5  -4   2   57.89    7.00
  -4  -4   2   48.20    4.60
  -4  -4   2   35.70    4.30
  -4  -4   2   40.20    5.90
  -3  -4   2   16.30    3.90
  -3  -4   2   18.80    2.70
  -3  -4   2   16.80    2.80
   2   4  -2   -1.00    1.20
  -2  -4   2    1.10    1.80
  -2  -4   2    3.70    2.60
  -2  -4   2   -2.80    1.30
  -2  -4   2   -1.20    2.80
   1   4  -2    2.70    1.40
  -1  -4   2    6.80    2.80
  -1  -4   2    3.20    2.50
  -1  -4   2    2.50    1.90
  -1  -4   2    4.50    2.20
   0   4  -2   93.29    9.70
   0   4  -2  101.19    8.50
   0  -4   2   94.69    8.70
   0  -4   2   95.29    9.80
   0  -4   2  100.19    8.90
  -1   4  -2  212.08   17.00
  -1   4  -2  206.08   19.00
   1  -4   2  208.18   17.20
   1  -4   2  203.98   18.90
  -2   4  -2  166.18   15.90
   2  -4   2  163.58   15.70
   2  -4   2  169.78   14.40
  -3   4  -2   14.60    4.70
   3  -4   2   13.80    3.40
  -4   4  -2   48.80    8.20
   4  -4   2   46.20    6.90
  -5   4  -2  297.37   28.80
   5  -4   2  307.07   25.80
   5  -4   2  315.47   23.40
  -6   4  -2   23.80    7.50
   6  -4   2   23.70    4.80
   6  -4   2   22.70    4.10
   6  -4   2   27.40    5.40
  -7   4  -2   27.80    8.20
   7  -4   2   23.00    4.10
  -8   4  -2   33.90    9.00
  -9   4  -2    4.90    7.10
 -11  -3   2    7.00    6.90
 -10  -3   2   -2.00    5.90
  -9  -3   2   -2.70    4.40
  -9  -3   2    5.60    5.20
  -8  -3   2    7.80    5.00
  -8  -3   2    2.30    4.20
  -7  -3   2   -9.60    3.30
  -7  -3   2   -0.40    4.10
  -6  -3   2   19.10    5.10
  -6  -3   2   16.70    3.00
  -6  -3   2   13.10    3.60
   5   3  -2  225.18   15.80
  -5  -3   2  212.78   17.50
  -5  -3   2  228.88   16.00
   3   3  -2    4.70    1.80
  -3  -3   2    3.90    1.40
  -3  -3   2    6.10    1.80
  -3  -3   2    2.10    2.70
  -2  -3   2   10.50    2.10
   1   3  -2  382.46   28.40
  -1  -3   2  304.37   27.20
  -1  -3   2  339.57   25.40
  -1  -3   2  377.96   31.90
  -1  -3   2  419.96   28.60
  -1   3  -2   23.50    3.50
  -1   3  -2   30.90    4.80
   1  -3   2   27.40    3.90
   1  -3   2   24.60    3.70
   1  -3   2   32.00    4.80
  -2   3  -2   18.80    4.20
  -2   3  -2   12.70    2.60
   2  -3   2   14.10    3.00
   2  -3   2   19.30    3.90
  -3   3  -2    0.20    3.30
   3  -3   2    3.10    2.30
  -4   3  -2   -1.00    3.90
   4  -3   2   -2.30    2.20
   4  -3   2   -2.80    1.90
  -5   3  -2   35.40    7.10
   5  -3   2   38.80    4.70
   5  -3   2   24.70    5.30
  -6   3  -2    1.90    4.80
   6  -3   2    0.10    2.40
   6  -3   2    2.80    2.60
  -7   3  -2    6.50    6.00
  -8   3  -2   21.40    7.10
  -9   3  -2   24.50    8.60
 -10   3  -2    2.00    7.20
  10  -3   2    0.70    4.40
 -11  -2   2    8.60    6.50
 -10  -2   2    7.40    6.40
  -9  -2   2    2.20    5.10
  -9  -2   2   -2.20    4.10
  -8  -2   2   36.70    7.80
  -8  -2   2   39.50    6.30
   7   2  -2   13.00    2.80
  -7  -2   2   28.90    5.90
  -7  -2   2   19.00    4.50
   6   2  -2   58.79    5.00
   6   2  -2   51.59    5.70
  -6  -2   2   41.10    6.10
  -6  -2   2   63.69    5.50
  -6  -2   2   49.00    6.30
  -6  -2   2   46.00    7.60
   5   2  -2   41.00    4.90
   5   2  -2   48.10    4.20
  -5  -2   2   45.60    4.70
  -5  -2   2   36.60    5.30
  -5  -2   2   34.90    4.90
  -5  -2   2   41.20    6.80
   4   2  -2   -1.60    1.70
   4   2  -2   -0.20    1.60
  -4  -2   2   -0.50    1.70
  -4  -2   2   -3.30    2.20
   3   2  -2   80.49    6.00
   3   2  -2   70.59    6.70
  -3  -2   2   73.19    7.10
  -3  -2   2   72.49    6.00
   2   2  -2  397.56   26.00
   2   2  -2  354.26   27.70
  -2  -2   2  376.26   27.90
  -2  -2   2  383.66   29.00
  -2  -2   2  368.86   25.90
   1   2  -2    6.00    1.90
   1   2  -2    6.60    1.10
   1   2  -2    6.50    1.70
  -1  -2   2    3.40    1.20
  -1  -2   2    5.90    2.30
  -1  -2   2    7.10    1.80
  -1  -2   2    7.80    2.60
   0   2  -2   78.99    8.00
   0   2  -2   80.19    6.70
   0  -2   2   83.99    6.50
   0  -2   2   79.09    7.20
   0  -2   2   79.89    6.80
   0  -2   2   77.39    8.00
  -1   2  -2  467.15   36.30
  -1   2  -2  477.05   40.50
   1  -2   2  454.25   34.10
   1  -2   2  453.45   36.30
   1  -2   2  450.35   40.50
   1  -2   2  495.95   32.20
  -2   2  -2  568.24   44.00
  -2   2  -2  581.14   49.10
   2  -2   2  550.04   49.10
   2  -2   2  548.05   41.10
   2  -2   2  576.74   44.00
  -3   2  -2  429.76   36.60
  -3   2  -2  409.26   32.50
   3  -2   2  390.96   30.10
   3  -2   2  397.36   36.30
   3  -2   2  432.06   32.60
  -4   2  -2   31.90    6.00
   4  -2   2   27.00    3.80
   4  -2   2   28.50    4.50
  -5   2  -2   24.70    6.50
  -6   2  -2  104.89   12.70
  -7   2  -2   12.50    6.20
  -8   2  -2   -0.30    5.60
  -9   2  -2   15.80    8.00
 -10   2  -2   11.20    7.90
  10  -2   2    0.60    4.30
 -11  -1   2    3.50    7.00
 -10  -1   2   -1.00    5.90
  -9  -1   2    2.40    5.30
   8   1  -2   27.60    4.50
  -8  -1   2   39.60    5.60
  -8  -1   2   24.20    6.70
   7   1  -2  107.29    9.40
   7   1  -2  139.69   10.30
  -7  -1   2   97.69   12.70
  -7  -1   2  119.89   10.50
   6   1  -2   57.19    5.30
   6   1  -2   47.80    5.50
  -6  -1   2   60.99    5.90
  -6  -1   2   43.30    7.50
  -6  -1   2   50.39    6.30
   5   1  -2    2.10    1.80
   5   1  -2    2.50    1.90
  -5  -1   2    4.10    2.10
  -5  -1   2    0.40    1.90
  -5  -1   2    1.00    3.00
  -5  -1   2   -0.80    2.30
   4   1  -2  283.17   19.40
   4   1  -2  260.47   20.70
  -4  -1   2  293.57   22.10
  -4  -1   2  297.87   19.50
  -4  -1   2  253.77   20.90
   3   1  -2   78.29    5.80
   3   1  -2   82.79    6.60
  -3  -1   2   66.69    6.60
  -3  -1   2   68.39    6.00
   2   1  -2  172.48   12.70
   2   1  -2  172.18   13.70
  -2  -1   2  193.38   14.10
  -2  -1   2  166.18   12.70
  -2  -1   2  189.28   13.90
   1   1  -2    2.40    1.70
   1   1  -2    4.00    1.50
  -1  -1   2    6.50    1.50
  -1  -1   2    2.70    1.80
   0   1  -2   56.79    5.30
   0   1  -2   63.69    6.10
   0   1  -2   55.99    4.70
   0   1  -2   55.79    4.80
   0  -1   2   50.49    5.30
   0  -1   2   56.49    4.90
   0  -1   2   64.29    6.10
   0  -1   2   51.69    4.80
  -1   1  -2   -2.40    1.30
  -1   1  -2   -3.60    1.50
  -1   1  -2   -4.80    2.30
   1  -1   2   -2.80    1.50
   1  -1   2   -3.10    1.70
   1  -1   2   -5.80    2.00
   1  -1   2   -4.90    1.40
  -2   1  -2   45.20    6.30
  -2   1  -2   43.70    4.80
   2  -1   2   48.90    4.60
   2  -1   2   53.29    4.70
   2  -1   2   51.59    5.80
  -3   1  -2    8.40    2.10
  -3   1  -2   10.60    3.50
   3  -1   2   13.90    3.40
   3  -1   2   15.20    2.10
  -4   1  -2   12.40    2.60
  -4   1  -2   22.50    4.80
  -5   1  -2   19.90    5.30
  -6   1  -2  356.66   33.00
  -7   1  -2    5.00    5.60
  -8   1  -2    1.40    5.50
  -9   1  -2    5.00    6.70
   9  -1   2    6.80    3.60
 -10   1  -2   34.20    9.60
  10  -1   2   28.50    5.40
 -11   0   2   -0.50    7.10
 -10   0   2    0.30    6.70
  -9   0   2   15.50    6.90
   8   0  -2    6.30    2.70
  -8   0   2    1.50    4.80
   7   0  -2   22.30    3.90
   7   0  -2   24.10    3.60
  -7   0   2   28.50    6.60
   6   0  -2    8.90    2.60
   6   0  -2   10.90    2.80
  -6   0   2   14.00    3.50
  -6   0   2    7.50    4.20
   5   0  -2   27.50    3.90
   5   0  -2   28.20    3.70
  -5   0   2   31.60    5.80
  -5   0   2   35.60    4.30
  -5   0   2   35.20    4.30
  -5   0   2   21.50    3.70
   4   0  -2   69.89    6.00
   4   0  -2   65.49    5.60
  -4   0   2   55.99    6.10
  -4   0   2   69.39    6.40
  -4   0   2   63.49    7.80
  -4   0   2   63.99    5.90
   3   0  -2  296.47   20.90
   3   0  -2  261.87   18.40
   3   0  -2  260.17   19.60
  -3   0   2  247.58   18.40
  -3   0   2  259.67   19.70
  -3   0   2  248.78   20.70
   2   0  -2   16.00    2.40
   2   0  -2   18.50    2.80
   2   0  -2   16.80    2.60
  -2   0   2   18.40    2.60
  -2   0   2   21.10    2.70
  -2   0   2   20.30    3.00
   1   0  -2 2916.31  223.38
   1   0  -2 3043.20  210.18
   1   0  -2 3053.49  197.28
  -1   0   2 2879.11  197.28
  -1   0   2 2966.10  223.38
  -1   0   2 2706.43  210.18
   0   0  -2  483.95   30.50
   0   0  -2  444.76   32.50
   0   0  -2  436.56   38.40
   0   0   2  429.66   38.40
   0   0   2  405.86   30.40
   0   0   2  463.35   32.50
  -1   0  -2 2944.21  255.77
  -1   0  -2 2858.81  215.58
  -1   0  -2 3173.98  202.38
   1   0   2 2883.41  215.58
   1   0   2 3120.79  202.38
   1   0   2 3046.40  255.77
  -2   0  -2   22.90    2.90
  -2   0  -2   18.80    4.20
  -2   0  -2   22.00    2.70
   2   0   2   21.30    2.90
   2   0   2   23.80    4.10
   2   0   2   19.80    2.70
  -3   0  -2  275.47   24.10
   3   0   2  272.57   18.60
   3   0   2  253.77   23.90
  -4   0  -2   57.59    7.90
  -4   0  -2   70.39    6.70
   4   0   2   61.49    5.40
   4   0   2   61.49    7.20
  -5   0  -2   29.50    6.00
   5   0   2   25.00    3.20
  -6   0  -2   10.90    4.80
   6   0   2   13.00    2.60
  -7   0  -2   31.20    7.50
   7   0   2   36.20    4.60
  -8   0  -2   -2.00    5.20
   8   0   2    3.60    3.00
   8   0   2   -3.50    3.00
  -9   0  -2   17.70    7.20
   9   0   2   16.50    3.90
 -10   0  -2   -2.90    7.10
 -11   0  -2    2.70    7.70
 -10   1   2   18.00    8.00
  -9   1   2   -4.00    6.00
  -8   1   2    1.60    5.10
   7  -1  -2   -0.90    2.30
  -7   1   2    2.40    3.20
  -7   1   2    1.10    4.40
   6  -1  -2  248.08   19.20
   6  -1  -2  268.47   19.90
  -6   1   2  268.87   24.70
   5  -1  -2   10.80    3.00
   5  -1  -2    3.20    2.20
   5  -1  -2    8.10    2.30
  -5   1   2    7.30    3.70
  -5   1   2   15.50    3.00
   4  -1  -2   16.60    2.60
   4  -1  -2   15.70    2.90
   4  -1  -2   15.70    3.30
  -4   1   2   20.50    3.40
  -4   1   2   15.40    2.70
  -4   1   2   17.40    4.40
  -4   1   2   17.60    3.20
   3  -1  -2   40.60    4.80
   3  -1  -2   38.40    4.20
   3  -1  -2   42.10    4.50
  -3   1   2   44.20    4.90
  -3   1   2   40.90    4.50
  -3   1   2   37.10    5.70
  -3   1   2   42.60    4.50
   2  -1  -2   48.80    4.70
   2  -1  -2   40.90    4.30
   2  -1  -2   46.70    4.70
  -2   1   2   50.59    4.60
  -2   1   2   41.70    4.30
  -2   1   2   44.90    4.90
   1  -1  -2    1.00    1.50
   1  -1  -2    0.30    1.20
   1  -1  -2   -0.50    1.20
  -1   1   2   -0.20    1.40
  -1   1   2   -0.30    1.10
  -1   1   2    1.30    1.70
   0  -1  -2   26.40    2.60
   0  -1  -2   20.20    2.70
   0  -1  -2   16.50    2.60
   0   1   2   18.20    2.70
   0   1   2   22.60    2.80
   0   1   2   20.70    3.10
   0   1   2   24.20    2.50
  -1  -1  -2    7.80    1.40
  -1  -1  -2    7.60    2.30
  -1  -1  -2    6.50    1.70
   1   1   2    8.60    1.50
   1   1   2    8.00    1.80
   1   1   2    8.90    2.20
  -2  -1  -2  247.48   16.00
  -2  -1  -2  216.88   20.60
  -2  -1  -2  220.88   17.10
   2   1   2  251.67   16.10
   2   1   2  224.28   20.60
   2   1   2  231.98   17.20
  -3  -1  -2  314.17   29.20
   3   1   2  363.96   22.70
   3   1   2  309.87   29.10
  -4  -1  -2  277.97   25.30
   4   1   2  263.37   25.00
   4   1   2  290.77   19.20
  -5  -1  -2   42.40    6.70
  -6  -1  -2   21.50    5.30
   6   1   2   31.80    3.60
  -7  -1  -2   81.99   10.80
  -8  -1  -2   29.20    8.00
  -9  -1  -2    4.20    6.20
 -10  -1  -2    2.20    6.80
 -11  -1  -2   12.80    8.50
 -10   2   2    7.60    7.00
  -9   2   2    1.00    6.10
  -8   2   2    1.80    5.80
   7  -2  -2   14.30    3.20
  -7   2   2   22.80    7.00
   6  -2  -2   78.79    7.40
   6  -2  -2   82.09    9.20
  -6   2   2   85.79   10.30
   5  -2  -2   15.70    3.60
   5  -2  -2   14.50    2.80
  -5   2   2   18.30    5.10
  -5   2   2   20.20    4.00
   4  -2  -2   98.29    8.90
   4  -2  -2   90.89    7.60
   4  -2  -2   86.19    7.70
  -4   2   2   90.19    8.20
  -4   2   2   85.09    8.20
  -4   2   2   83.59    9.80
   3  -2  -2   77.79    7.40
   3  -2  -2   74.79    7.00
   3  -2  -2   90.59    8.20
  -3   2   2   87.29    9.00
  -3   2   2   85.19    7.60
  -3   2   2   86.99    7.80
   2  -2  -2  886.81   57.69
   2  -2  -2  858.51   65.19
   2  -2  -2  827.52   61.29
  -2   2   2  832.02   57.59
  -2   2   2  887.31   72.59
  -2   2   2  789.02   61.19
  -2   2   2  823.22   65.09
   1  -2  -2    7.90    1.90
   1  -2  -2    7.70    2.20
   1  -2  -2    8.10    2.00
  -1   2   2    7.20    2.40
  -1   2   2    5.90    1.70
  -1   2   2    7.80    2.20
   0  -2  -2  578.84   43.90
   0  -2  -2  632.64   46.50
   0  -2  -2  634.34   41.10
   0   2   2  569.54   41.00
   0   2   2  641.04   46.40
   0   2   2  550.54   43.80
  -1  -2  -2  657.53   58.39
  -1  -2  -2  724.43   49.80
  -1  -2  -2  719.63   52.69
  -1  -2  -2  693.33   46.50
   1   2   2  660.93   46.40
   1   2   2  704.63   52.59
   1   2   2  642.04   49.70
   1   2   2  669.33   58.39
  -2  -2  -2 1380.26   90.89
  -2  -2  -2 1326.47  114.89
  -2  -2  -2 1416.76   97.19
   2   2   2 1319.97  114.89
   2   2   2 1290.77   90.89
  -3  -2  -2  201.48   15.30
  -3  -2  -2  201.78   18.40
   3   2   2  203.38   18.30
  -4  -2  -2    2.20    3.10
   4   2   2    3.70    2.80
  -5  -2  -2   46.90    7.00
   5   2   2   43.90    6.60
  -6  -2  -2   55.69    8.20
  -7  -2  -2   58.79    9.10
  -8  -2  -2   28.60    7.70
  -9  -2  -2    1.20    5.60
 -10  -2  -2   25.50    8.20
 -11  -2  -2    6.70    8.10
 -10   3   2   15.00    7.60
  -9   3   2   16.60    7.50
  -8   3   2   10.60    6.50
   7  -3  -2    1.40    2.30
   7  -3  -2   -0.40    4.00
  -7   3   2   -1.00    5.00
   6  -3  -2    3.70    3.40
   6  -3  -2    2.20    2.30
  -6   3   2    5.00    5.40
   5  -3  -2    9.30    3.60
   5  -3  -2   19.80    3.30
  -5   3   2   29.00    6.20
   4  -3  -2   -0.60    2.20
   4  -3  -2    1.80    2.20
  -4   3   2    1.00    3.60
   3  -3  -2    3.50    2.50
   3  -3  -2    0.00    1.80
   3  -3  -2    3.40    2.20
  -3   3   2    0.80    1.60
  -3   3   2    3.40    3.30
   2  -3  -2    1.00    2.00
   2  -3  -2   -2.10    1.40
   2  -3  -2   -0.10    2.00
  -2   3   2    0.20    2.50
  -2   3   2    0.40    1.50
   1  -3  -2   41.20    5.00
   1  -3  -2   41.20    4.80
   1  -3  -2   31.80    4.20
  -1   3   2   44.00    4.50
  -1   3   2   33.40    4.70
   0  -3  -2    3.00    2.30
   0  -3  -2    2.00    2.00
  -1  -3  -2  257.67   20.40
  -1  -3  -2  317.97   23.00
  -1  -3  -2  274.87   22.00
   1   3   2  309.87   22.90
  -2  -3  -2    6.60    2.50
  -2  -3  -2    7.70    1.90
   2   3   2    6.90    2.20
  -3  -3  -2   -1.10    2.10
  -3  -3  -2    2.20    2.50
  -3  -3  -2    5.70    1.90
   3   3   2    8.30    2.80
  -4  -3  -2   39.00    5.00
  -4  -3  -2   34.10    5.90
   4   3   2   41.00    5.50
  -5  -3  -2  130.79    9.60
  -5  -3  -2  109.19   11.80
   5   3   2   89.79   11.20
  -6  -3  -2    5.50    4.20
  -6  -3  -2   10.80    2.90
  -7  -3  -2   59.79    9.10
  -8  -3  -2   12.90    6.10
  -9  -3  -2   80.89   12.30
 -10  -3  -2   -4.90    6.20
 -11  -3  -2    3.10    7.50
  -9   4   2    9.20    6.90
   8  -4  -2    9.10    5.30
  -8   4   2   16.00    6.80
   7  -4  -2    4.40    4.30
  -7   4   2    4.30    5.60
   6  -4  -2   71.79    9.30
  -6   4   2   65.39   10.10
   5  -4  -2  186.28   17.00
  -5   4   2  191.68   18.90
   4  -4  -2  223.08   19.60
  -4   4   2  234.58   21.60
   3  -4  -2    8.50    3.00
   3  -4  -2   12.30    3.00
  -3   4   2   15.60    4.10
   2  -4  -2  135.39   11.00
   2  -4  -2  119.79   11.30
  -2   4   2  118.29   12.00
   1  -4  -2  237.78   18.00
   1  -4  -2  236.78   16.80
   1  -4  -2  219.28   18.80
  -1   4   2  238.98   20.20
  -1   4   2  211.08   18.50
   0  -4  -2   10.10    2.80
   0  -4  -2   11.40    2.80
   0  -4  -2    9.00    2.10
   0   4   2   11.60    2.30
  -1  -4  -2    4.30    2.10
  -1  -4  -2    6.60    2.50
  -1  -4  -2    7.80    2.10
   1   4   2    5.80    1.80
  -2  -4  -2   31.70    4.00
  -2  -4  -2   31.40    4.10
   2   4   2   26.90    3.60
  -3  -4  -2   16.30    2.60
  -3  -4  -2   11.80    2.60
  -3  -4  -2   10.80    2.90
  -4  -4  -2    0.20    1.80
  -5  -4  -2   57.79    7.60
  -6  -4  -2    2.50    3.90
  -7  -4  -2   96.89    9.20
  -7  -4  -2  125.99    9.80
  -7  -4  -2   94.39   12.30
  -8  -4  -2   24.90    6.70
  -9  -4  -2   69.59   11.60
 -10  -4  -2   13.90    7.30
 -11  -4  -2   12.00    7.70
  -9   5   2   16.80    7.70
   8  -5  -2   -6.90    4.50
  -8   5   2   16.00    7.10
   7  -5  -2   -3.50    4.20
  -7   5   2   10.90    6.30
   6  -5  -2   -2.60    3.70
  -6   5   2    0.80    5.60
   5  -5  -2    1.90    3.50
  -5   5   2    4.50    5.20
   4  -5  -2    1.20    3.40
  -4   5   2    4.10    4.30
   3  -5  -2    1.40    2.70
  -3   5   2    5.40    4.10
   2  -5  -2  128.29   13.70
  -2   5   2  179.28   14.90
   1  -5  -2   20.70    3.70
   0  -5  -2    9.00    2.30
  -1  -5  -2  126.79   11.00
  -1  -5  -2  147.29   12.00
  -2  -5  -2  353.86   28.20
  -2  -5  -2  352.96   25.00
  -3  -5  -2  294.37   26.30
  -3  -5  -2  309.37   24.40
  -4  -5  -2   40.60    5.70
  -4  -5  -2   46.50    4.70
  -4  -5  -2   41.20    5.50
  -5  -5  -2   -6.90    2.90
  -5  -5  -2   -0.70    2.30
  -6  -5  -2   20.50    3.90
  -6  -5  -2   25.80    5.70
  -7  -5  -2   54.39    8.70
  -8  -5  -2   11.20    3.70
  -8  -5  -2    2.80    3.40
  -8  -5  -2    4.40    5.30
  -9  -5  -2   67.79   11.00
  -9  -5  -2   57.09    7.40
 -10  -5  -2   11.60    7.00
 -11  -5  -2  142.89   17.00
   8  -6  -2   18.70    6.40
  -8   6   2   47.30    9.70
   7  -6  -2   13.40    5.70
  -7   6   2   31.00    8.30
   6  -6  -2   63.59   10.30
  -6   6   2   92.99   11.80
   5  -6  -2   19.00    5.30
  -5   6   2   32.20    7.70
   4  -6  -2   13.90    4.10
  -4   6   2   24.40    6.40
   3  -6  -2  124.89   12.70
  -3   6   2  131.39   13.30
   2  -6  -2   44.60    7.10
  -2   6   2   61.09    7.10
   1  -6  -2   12.30    3.70
  -1   6   2   24.00    3.50
   0  -6  -2   78.89    8.30
  -1  -6  -2   94.19    9.00
  -2  -6  -2  358.96   24.20
  -2  -6  -2  311.67   26.90
  -3  -6  -2   56.79    5.90
  -3  -6  -2   62.59    6.80
  -4  -6  -2    1.90    2.20
  -4  -6  -2    4.30    2.80
  -4  -6  -2    3.00    2.80
  -5  -6  -2  226.58   15.40
  -5  -6  -2  208.48   19.40
  -5  -6  -2  193.98   17.90
  -6  -6  -2  525.25   40.80
  -6  -6  -2  495.15   45.00
  -7  -6  -2   48.10    7.80
  -7  -6  -2   37.30    6.30
  -8  -6  -2   20.40    4.40
  -8  -6  -2   20.00    4.60
  -8  -6  -2   26.50    6.90
  -9  -6  -2   55.79    8.60
  -9  -6  -2   63.99   10.50
  -9  -6  -2   67.69    7.90
 -10  -6  -2   30.00    8.60
 -11  -6  -2   12.80    7.60
   7  -7  -2    4.30    5.20
  -7   7   2    6.70    7.10
   6  -7  -2    3.10    5.00
  -6   7   2   13.60    7.00
   5  -7  -2   10.80    5.20
  -5   7   2   19.30    7.00
   4  -7  -2   26.80    5.30
   3  -7  -2    2.20    3.70
  -3   7   2   18.20    5.10
   2  -7  -2    0.90    3.10
  -2   7   2    4.40    3.50
   1  -7  -2  130.69   12.60
   0  -7  -2  147.29   13.50
  -1  -7  -2    4.70    2.50
  -2  -7  -2   -1.30    2.20
  -3  -7  -2  496.45   39.60
  -4  -7  -2   11.60    3.00
  -4  -7  -2   13.10    3.70
  -5  -7  -2   89.69    8.30
  -5  -7  -2   78.19    9.40
  -5  -7  -2  103.99    9.80
  -6  -7  -2   -4.10    3.30
  -6  -7  -2   -2.90    2.90
  -7  -7  -2   -1.10    3.20
  -8  -7  -2    8.40    3.90
  -8  -7  -2    8.10    4.40
  -8  -7  -2    5.80    5.20
  -9  -7  -2   40.90    7.90
  -9  -7  -2   34.90    5.80
  -9  -7  -2   22.90    5.50
 -10  -7  -2   10.20    6.50
 -10  -7  -2    3.60    3.90
   6  -8  -2   51.19    8.70
  -6   8   2   74.69   11.30
   5  -8  -2   -2.70    4.20
  -5   8   2   15.90    6.90
   4  -8  -2   39.90    8.30
  -4   8   2   64.39    9.10
   3  -8  -2    9.50    4.60
  -3   8   2    9.00    4.80
   2  -8  -2   64.39    8.80
  -2   8   2   73.59    8.10
   1  -8  -2    1.20    3.30
   0  -8  -2  155.58   14.40
  -1  -8  -2   -3.60    2.70
  -2  -8  -2  310.67   25.70
  -3  -8  -2   27.50    5.10
  -4  -8  -2  781.12   61.49
  -5  -8  -2   -3.60    2.90
  -5  -8  -2    6.00    3.00
  -6  -8  -2  116.29   11.50
  -6  -8  -2   97.59   11.00
  -7  -8  -2    5.60    4.20
  -7  -8  -2    3.70    3.50
  -8  -8  -2  240.28   21.10
  -8  -8  -2  238.18   23.00
  -9  -8  -2    2.00    3.90
  -9  -8  -2   11.20    5.00
  -9  -8  -2   -2.30    5.20
 -10  -8  -2    6.50    4.40
 -10  -8  -2   17.20    7.10
   5  -9  -2   13.60    6.20
   4  -9  -2    5.70    4.60
   3  -9  -2   36.00    6.60
   2  -9  -2    2.30    3.90
   1  -9  -2    4.20    3.80
   0  -9  -2   -4.50    2.90
  -1  -9  -2   10.60    3.90
  -2  -9  -2   -2.50    2.70
  -3  -9  -2  107.79   11.00
  -4  -9  -2   -0.60    2.90
  -5  -9  -2   60.89    8.30
  -6  -9  -2    6.70    3.50
  -6  -9  -2    4.10    3.70
  -7  -9  -2   27.70    5.80
  -8  -9  -2   -0.50    3.60
  -8  -9  -2    2.70    4.50
  -9  -9  -2    0.30    3.90
  -9  -9  -2    4.70    4.90
   3 -10  -2   -2.50    4.50
   2 -10  -2    1.60    4.50
   1 -10  -2    2.60    4.20
   0 -10  -2  109.79   12.00
  -1 -10  -2   38.50    7.00
  -2 -10  -2   51.49    7.70
  -3 -10  -2   -5.30    2.90
  -4 -10  -2   88.39   10.10
  -5 -10  -2   44.40    7.30
  -6 -10  -2   18.70    5.00
  -6 -10  -2   20.80    5.70
  -7 -10  -2   -0.40    3.90
  -8 -10  -2   17.90    5.60
  -8 -10  -2   14.20    5.60
   1 -11  -2    6.00    5.00
   0 -11  -2   -4.30    3.60
  -1 -11  -2    7.50    4.40
  -2 -11  -2   -0.80    4.00
  -3 -11  -2   20.60    5.60
  -4 -11  -2    6.90    4.60
  -5 -11  -2  100.69   11.50
  -6 -11  -2   -2.40    4.20
  -6 -10   3    0.90    4.70
  -5 -10   3    1.20    4.40
  -5 -10   3    4.70    4.40
  -5 -10   3    5.30    4.00
  -4 -10   3   10.10    4.60
  -4 -10   3   11.80    4.90
  -4 -10   3    8.40    4.50
  -3 -10   3   -2.30    3.70
  -3 -10   3    0.50    3.90
  -3 -10   3   -8.30    3.50
  -2 -10   3    8.30    4.30
  -2 -10   3    3.10    4.50
  -2 -10   3    9.10    4.70
  -1 -10   3    6.80    5.10
  -1 -10   3   10.00    4.60
  -1 -10   3   15.40    5.10
   0 -10   3   10.30    4.20
   0 -10   3   11.80    5.20
   0 -10   3   13.50    5.20
   1 -10   3    4.90    4.90
   1 -10   3    6.60    4.80
   1 -10   3   10.80    4.40
  -8  -9   3   -5.80    6.30
  -7  -9   3   -1.30    4.40
  -6  -9   3    1.70    4.40
  -6  -9   3   -2.70    2.80
  -6  -9   3   -5.50    3.60
  -5  -9   3    7.80    4.20
  -5  -9   3    4.40    3.40
  -5  -9   3   12.20    4.60
  -4  -9   3    8.10    4.10
  -4  -9   3   14.90    4.40
  -4  -9   3    9.30    4.50
  -3  -9   3    7.20    3.90
  -3  -9   3    5.20    4.20
  -3  -9   3    4.60    4.00
  -2  -9   3   -2.80    3.10
  -2  -9   3    3.30    4.60
  -2  -9   3   -0.30    3.50
  -1  -9   3   -0.40    3.30
  -1  -9   3   -4.10    2.80
  -1  -9   3    0.10    4.30
   0  -9   3    4.50    3.80
   0  -9   3   -0.20    4.20
   0  -9   3    2.20    3.80
   1  -9   3    4.00    3.30
   1  -9   3   12.30    4.60
   1  -9   3    6.50    4.60
  -2   9  -3   -0.30    6.00
   2  -9   3    4.50    3.40
   2  -9   3    3.40    4.60
   2  -9   3    8.90    5.00
  -3   9  -3    3.40    6.90
   3  -9   3   -1.90    4.50
   3  -9   3   12.70    5.00
   3  -9   3   12.60    4.60
  -9  -8   3    5.50    7.80
  -8  -8   3   13.20    4.20
  -8  -8   3   11.90    7.40
  -8  -8   3    2.40    4.90
  -7  -8   3   42.50    5.80
  -7  -8   3   33.40    6.80
  -7  -8   3   31.80    5.40
  -6  -8   3    8.00    4.70
  -6  -8   3   13.10    4.10
  -6  -8   3   10.00    3.70
  -5  -8   3   -3.80    3.80
  -5  -8   3   -5.20    3.10
  -5  -8   3   -3.40    2.50
  -4  -8   3    5.00    3.70
  -4  -8   3   11.50    3.60
  -4  -8   3    8.00    4.20
  -3  -8   3   43.30    6.50
  -3  -8   3   39.90    6.90
  -3  -8   3   51.99    6.70
  -2  -8   3    4.20    4.30
  -2  -8   3    1.90    3.50
  -2  -8   3    2.20    3.30
  -1  -8   3   -0.80    3.50
  -1  -8   3   -1.20    3.20
  -1  -8   3    0.00    3.10
   0  -8   3    4.90    3.50
   0  -8   3   11.60    4.10
   0  -8   3   11.00    4.40
  -1   8  -3   45.40    7.80
   1  -8   3   31.60    5.50
   1  -8   3   34.90    6.50
   1  -8   3   51.29    7.20
  -2   8  -3    7.70    5.80
   2  -8   3    8.70    4.40
   2  -8   3    8.30    4.30
   2  -8   3   11.30    3.70
  -3   8  -3   19.70    7.30
   3  -8   3   14.10    4.40
   3  -8   3   20.10    5.30
   3  -8   3   14.60    5.60
  -4   8  -3    3.90    6.90
   4  -8   3   -5.30    3.90
   4  -8   3    0.30    4.20
   4  -8   3   -0.10    3.30
  -5   8  -3    3.00    7.80
   5  -8   3    4.00    5.10
   5  -8   3    1.50    4.50
   5  -8   3   -3.10    3.90
  -9  -7   3   25.40    4.70
  -9  -7   3   44.50    9.80
  -9  -7   3   13.50    5.50
  -8  -7   3   -3.70    4.00
  -8  -7   3   -7.90    5.60
  -8  -7   3   -0.60    2.70
  -7  -7   3   -0.20    4.20
  -7  -7   3    3.40    3.70
  -7  -7   3    3.40    2.80
  -6  -7   3    5.40    4.30
  -6  -7   3    6.00    2.70
  -6  -7   3    4.10    3.10
  -5  -7   3   34.20    5.20
  -5  -7   3   32.10    5.00
  -5  -7   3   35.30    6.10
  -4  -7   3   67.29    9.00
  -4  -7   3   74.09    7.80
  -4  -7   3   79.79    7.70
  -3  -7   3   28.60    4.50
  -3  -7   3   21.20    5.20
  -3  -7   3   20.20    4.20
  -2  -7   3   68.99    7.20
  -2  -7   3   39.20    6.80
  -2  -7   3   59.39    6.90
  -1  -7   3  287.37   24.30
  -1  -7   3  301.57   23.50
   0  -7   3    6.20    3.60
   0  -7   3    1.80    2.90
   0  -7   3    5.60    3.50
  -1   7  -3  158.88   15.60
   1  -7   3  162.68   13.00
   1  -7   3  145.89   14.50
  -2   7  -3   15.60    5.80
   2  -7   3    6.20    3.20
   2  -7   3   13.90    4.50
   2  -7   3   12.00    4.50
  -3   7  -3   61.69    9.60
   3  -7   3   70.09    8.50
   3  -7   3   60.59    7.60
   3  -7   3   52.39    8.50
  -4   7  -3    6.10    6.10
   4  -7   3    5.00    4.40
   4  -7   3    7.70    4.30
   4  -7   3    4.50    3.20
  -5   7  -3   32.40    8.10
   5  -7   3   29.00    5.60
   5  -7   3   22.20    6.00
   5  -7   3   28.60    5.50
  -6   7  -3    5.10    7.30
   6  -7   3   -3.00    4.70
   6  -7   3    6.40    3.90
   6  -7   3    7.30    4.30
 -10  -6   3  -11.50    4.60
 -10  -6   3   10.40    7.00
 -10  -6   3   10.50    4.00
  -9  -6   3    1.70    3.10
  -9  -6   3  -10.70    3.90
  -9  -6   3    1.00    6.40
  -8  -6   3   -5.00    5.50
  -8  -6   3   -8.60    3.50
  -8  -6   3   -1.30    2.40
  -7  -6   3   19.50    5.00
  -7  -6   3   21.70    4.10
  -7  -6   3   16.20    3.50
  -6  -6   3  396.46   26.50
  -6  -6   3  375.76   29.60
  -6  -6   3  336.17   28.80
  -5  -6   3   29.80    4.40
  -5  -6   3   20.50    5.20
  -5  -6   3   26.90    4.10
  -4  -6   3   66.99    7.00
  -4  -6   3   81.29    6.90
  -4  -6   3   53.99    8.10
   3   6  -3    1.10    1.70
  -3  -6   3    2.10    2.20
  -3  -6   3    1.20    2.70
  -3  -6   3    2.70    3.50
   2   6  -3   96.49    8.30
  -2  -6   3   97.49    8.70
  -2  -6   3   67.59    9.00
  -2  -6   3   85.89    8.10
  -1  -6   3   13.00    4.20
  -1  -6   3   12.80    3.40
  -1  -6   3   15.30    3.50
   0   6  -3    5.70    4.10
   0  -6   3    9.20    3.10
   0  -6   3    7.40    3.00
   0  -6   3    5.30    3.50
  -1   6  -3   25.60    5.50
   1  -6   3   22.30    4.80
   1  -6   3   23.10    4.80
   1  -6   3   27.00    4.50
  -2   6  -3  142.09   15.60
   2  -6   3  178.98   14.60
   2  -6   3  134.59   12.70
   2  -6   3  171.08   13.90
  -3   6  -3   84.29   10.80
   3  -6   3   80.39    9.60
   3  -6   3   83.19    9.00
   3  -6   3   72.09    8.30
  -4   6  -3  307.27   28.80
   4  -6   3  324.37   24.20
   4  -6   3  290.57   26.00
  -5   6  -3   31.00    8.00
   5  -6   3   25.10    5.60
   5  -6   3   25.80    5.10
   5  -6   3   27.80    5.90
  -6   6  -3   -1.20    6.10
   6  -6   3    3.00    3.70
   6  -6   3   -0.30    4.50
   6  -6   3    0.20    3.50
  -7   6  -3   18.00    8.00
   7  -6   3   18.30    5.20
 -10  -5   3    4.50    6.00
 -10  -5   3   19.80    7.50
  -9  -5   3   83.29   10.70
  -9  -5   3   93.89   13.00
  -8  -5   3   59.99    8.70
  -8  -5   3   61.79   10.70
  -8  -5   3   68.89    7.70
  -7  -5   3   21.60    5.00
  -7  -5   3   14.00    3.40
  -7  -5   3   27.80    4.80
  -6  -5   3    3.20    2.10
  -6  -5   3    3.20    2.80
  -6  -5   3    4.80    3.90
  -5  -5   3    4.40    2.30
  -5  -5   3    2.80    2.00
  -5  -5   3    2.60    3.40
  -4  -5   3   49.60    6.30
  -4  -5   3   23.20    3.90
  -4  -5   3   35.90    4.30
  -3  -5   3  248.78   18.60
  -3  -5   3  266.07   20.60
  -3  -5   3  253.37   20.30
   2   5  -3   39.60    4.90
  -2  -5   3   51.99    5.50
  -2  -5   3   53.29    5.50
   1   5  -3    4.90    1.70
  -1  -5   3    8.10    3.20
  -1  -5   3    7.80    2.70
  -1  -5   3    7.60    2.50
   0   5  -3  194.58   18.60
   0  -5   3  190.78   16.70
   0  -5   3  202.98   16.20
   0  -5   3  216.98   15.30
  -1   5  -3  672.53   55.89
   1  -5   3  609.84   47.40
   1  -5   3  645.74   44.70
   1  -5   3  638.04   50.29
  -2   5  -3  136.19   13.10
   2  -5   3  125.79   11.10
   2  -5   3  106.59   10.40
  -3   5  -3  139.49   13.30
   3  -5   3   99.79   11.80
   3  -5   3  118.89   10.50
   3  -5   3  129.59   11.00
  -4   5  -3   59.09    9.40
   4  -5   3   62.79    7.40
  -5   5  -3    2.00    5.20
   5  -5   3    1.20    3.70
   5  -5   3    8.60    3.50
  -6   5  -3    5.10    5.60
   6  -5   3    2.70    3.70
   6  -5   3   -3.30    4.10
   6  -5   3    4.80    3.30
  -7   5  -3   68.99   10.90
   7  -5   3   56.79    7.80
  -8   5  -3   35.40    8.50
   8  -5   3   28.20    6.20
 -11  -4   3   13.00    8.00
 -10  -4   3   -7.40    5.20
 -10  -4   3    8.20    6.30
  -9  -4   3   48.10    8.00
  -9  -4   3   63.19   10.30
  -8  -4   3  293.97   23.20
  -8  -4   3  276.97   27.40
   7   4  -3   24.00    3.80
  -7  -4   3   26.80    4.70
  -7  -4   3   15.20    4.70
  -7  -4   3   25.80    7.00
   6   4  -3   66.69    6.30
  -6  -4   3   55.59    7.80
  -6  -4   3   68.99    6.80
  -6  -4   3   65.29    6.60
   5   4  -3  469.65   30.70
  -5  -4   3  411.56   33.20
  -5  -4   3  440.26   34.40
  -5  -4   3  436.46   30.70
  -4  -4   3 1090.39   81.79
  -4  -4   3 1057.49   77.69
  -4  -4   3 1043.20   72.39
  -3  -4   3  372.26   28.00
  -3  -4   3  387.46   28.80
  -3  -4   3  344.57   25.80
   2   4  -3  257.07   18.70
  -2  -4   3  245.28   17.10
  -2  -4   3  238.58   18.90
  -2  -4   3  236.28   18.50
  -2  -4   3  203.38   21.40
   1   4  -3  170.68   13.60
  -1  -4   3  175.78   13.80
  -1  -4   3  171.58   12.70
  -1  -4   3  171.78   13.80
  -1  -4   3  149.09   15.50
   0   4  -3  636.34   61.49
   0   4  -3  707.63   55.09
   0  -4   3  744.63   52.29
   0  -4   3  748.23   55.29
   0  -4   3  754.32   49.10
   0  -4   3  687.03   61.69
  -1   4  -3  337.27   27.60
  -1   4  -3  335.87   31.00
   1  -4   3  365.46   24.90
   1  -4   3  342.47   26.40
   1  -4   3  366.06   27.90
  -2   4  -3  164.58   16.50
   2  -4   3  173.98   14.70
   2  -4   3  169.68   13.20
   2  -4   3  172.08   13.90
  -3   4  -3   87.59   10.60
   3  -4   3   98.79    9.50
   3  -4   3   90.29    8.40
   3  -4   3   94.79    8.60
  -4   4  -3  807.72   69.99
   4  -4   3  816.42   58.59
   4  -4   3  778.32   62.79
  -5   4  -3  457.65   41.70
   5  -4   3  444.96   37.40
   5  -4   3  483.15   34.50
  -6   4  -3  513.25   46.30
   6  -4   3  540.35   38.10
   6  -4   3  482.05   36.20
  -7   4  -3   13.30    6.30
   7  -4   3   17.90    4.50
   7  -4   3    9.40    3.70
  -8   4  -3   13.10    6.80
   8  -4   3    6.00    4.10
  -9   4  -3   19.80    7.80
   9  -4   3   12.10    4.80
 -11  -3   3   -0.10    6.40
 -10  -3   3  -10.10    5.60
 -10  -3   3    1.50    5.80
  -9  -3   3   92.09   10.90
  -9  -3   3   83.59   11.80
  -8  -3   3  164.88   18.00
  -8  -3   3  159.48   15.30
  -8  -3   3  191.88   13.80
   7   3  -3   26.50    3.90
  -7  -3   3   29.20    5.50
  -7  -3   3   34.00    4.80
  -7  -3   3   30.20    6.60
   6   3  -3   11.60    2.70
  -6  -3   3    5.70    3.10
  -6  -3   3   19.40    3.70
  -6  -3   3   10.00    3.70
   5   3  -3  170.18   12.50
  -5  -3   3  165.28   12.60
   4   3  -3  250.27   18.20
  -4  -3   3  280.47   20.20
  -4  -3   3  250.47   20.00
  -4  -3   3  238.68   18.30
   3   3  -3    1.80    1.80
   3   3  -3   -1.50    1.90
  -3  -3   3    0.20    1.80
  -3  -3   3    1.00    2.50
   2   3  -3  276.07   20.00
  -2  -3   3  259.77   20.00
  -2  -3   3  296.77   21.70
  -2  -3   3  305.27   22.10
  -2  -3   3  275.27   25.20
   1   3  -3  498.05   38.60
  -1  -3   3  456.75   43.50
  -1  -3   3  476.05   34.60
  -1  -3   3  546.05   37.20
  -1  -3   3  528.05   38.70
   0   3  -3  199.38   18.20
   0   3  -3  256.87   21.00
   0  -3   3  270.07   21.00
   0  -3   3  236.68   18.50
   0  -3   3  198.28   16.60
   0  -3   3  232.48   17.90
  -1   3  -3   26.00    4.70
  -1   3  -3   17.90    2.90
   1  -3   3   24.70    3.60
   1  -3   3   25.50    3.50
   1  -3   3   26.60    4.70
   1  -3   3   15.00    3.00
  -2   3  -3  109.59   11.30
   2  -3   3  109.29    9.40
   2  -3   3  108.49    9.00
   2  -3   3  106.19    9.90
  -3   3  -3    4.70    3.70
   3  -3   3   -0.20    2.20
   3  -3   3    1.30    2.20
   3  -3   3   -0.10    2.30
  -4   3  -3   46.70    7.80
   4  -3   3   54.89    5.70
   4  -3   3   60.39    6.10
   4  -3   3   41.00    6.60
  -5   3  -3   19.10    5.60
   5  -3   3   12.80    3.50
   5  -3   3   14.50    3.10
  -6   3  -3   71.19   10.10
   6  -3   3   48.80    6.60
   6  -3   3   62.39    7.10
  -7   3  -3   16.40    6.90
   7  -3   3   22.60    4.70
  -8   3  -3  175.48   18.90
   8  -3   3  160.28   13.60
  -9   3  -3   94.19   14.00
   9  -3   3   89.49    9.40
 -11  -2   3   92.69   13.40
 -10  -2   3   24.50    8.10
  -9  -2   3    4.00    5.30
  -9  -2   3   -5.80    4.60
   8   2  -3   30.30    4.90
  -8  -2   3   37.80    7.00
  -8  -2   3   58.39    6.50
  -8  -2   3   41.00    8.10
   7   2  -3  273.37   20.00
  -7  -2   3  324.97   20.50
  -7  -2   3  235.38   26.10
  -7  -2   3  283.97   22.40
   6   2  -3   48.10    5.10
  -6  -2   3   48.20    6.50
  -6  -2   3   46.40    6.00
  -6  -2   3   48.80    7.90
  -6  -2   3   52.89    5.90
   5   2  -3   12.20    3.10
   5   2  -3   19.80    3.00
  -5  -2   3   13.70    3.50
  -5  -2   3   24.50    3.70
  -5  -2   3   16.50    3.20
   4   2  -3   -1.30    1.70
   4   2  -3   -5.70    1.90
  -4  -2   3   -4.80    1.70
  -4  -2   3   -2.80    2.60
  -4  -2   3    0.90    1.90
   3   2  -3   47.40    6.00
   3   2  -3   67.39    5.50
  -3  -2   3   65.59    5.70
  -3  -2   3   66.39    6.80
   2   2  -3   -0.10    1.90
   2   2  -3    4.50    1.90
  -2  -2   3   -0.80    2.10
  -2  -2   3    5.00    2.10
   1   2  -3  320.47   23.90
   1   2  -3  351.66   22.40
  -1  -2   3  300.07   23.90
  -1  -2   3  344.17   22.40
  -1  -2   3  281.27   28.00
   0   2  -3   74.59    6.10
   0   2  -3   76.29    6.00
   0   2  -3   74.79    6.60
   0   2  -3   67.29    7.60
   0  -2   3   77.59    6.20
   0  -2   3   60.79    7.40
   0  -2   3   69.39    6.20
   0  -2   3   66.99    6.70
  -1   2  -3 1844.62  159.28
  -1   2  -3 1959.90  142.79
   1  -2   3 1858.11  142.69
   1  -2   3 1806.42  159.28
   1  -2   3 1808.22  134.29
   1  -2   3 1904.51  126.09
  -2   2  -3  502.15   38.50
  -2   2  -3  493.55   43.20
   2  -2   3  509.65   34.10
   2  -2   3  497.45   36.10
   2  -2   3  447.86   43.00
   2  -2   3  500.55   38.50
  -3   2  -3 1792.82  151.18
  -3   2  -3 1684.83  135.49
   3  -2   3 1799.22  119.49
   3  -2   3 1773.92  126.99
  -4   2  -3   15.10    4.70
   4  -2   3   13.10    2.50
   4  -2   3   12.20    2.70
  -5   2  -3  133.19   13.90
   5  -2   3  112.59   10.00
   5  -2   3  128.49   10.20
  -6   2  -3  127.79   14.30
   6  -2   3  116.09   10.10
  -7   2  -3  145.69   16.00
   7  -2   3  131.19   11.20
  -8   2  -3   46.30    9.60
   8  -2   3   34.00    5.20
  -9   2  -3   24.80    8.20
   9  -2   3   10.00    4.10
 -10   2  -3   14.00    8.40
  10  -2   3    8.70    4.70
 -11  -1   3    9.90    7.10
 -10  -1   3    6.40    6.30
  -9  -1   3   43.70    6.60
  -9  -1   3   24.30    7.00
  -8  -1   3  236.28   25.30
  -8  -1   3  294.67   21.50
   7   1  -3  112.89   10.00
  -7  -1   3  133.49   11.60
   6   1  -3  173.08   15.30
   6   1  -3  179.78   14.30
  -6  -1   3  210.28   16.10
  -6  -1   3  166.98   16.20
  -6  -1   3  228.58   19.30
  -6  -1   3  221.98   14.80
   5   1  -3   12.40    2.90
   5   1  -3   17.60    2.90
  -5  -1   3   15.20    3.10
  -5  -1   3   15.40    2.80
  -5  -1   3   13.30    3.60
   4   1  -3  539.35   37.30
   4   1  -3  512.25   39.90
  -4  -1   3  491.85   40.10
  -4  -1   3  582.64   42.20
  -4  -1   3  590.24   37.60
   3   1  -3    4.60    1.80
   2   1  -3  343.17   25.80
   2   1  -3  356.16   24.10
  -2  -1   3  349.87   24.20
  -2  -1   3  341.17   25.90
   1   1  -3   10.20    2.20
   1   1  -3   11.00    2.00
  -1  -1   3    9.10    2.30
  -1  -1   3   12.10    2.80
  -1  -1   3   11.00    2.20
   0   1  -3   65.39    5.90
   0   1  -3   65.59    5.30
   0   1  -3   67.49    6.80
   0   1  -3   59.09    5.30
   0  -1   3   65.19    6.10
   0  -1   3   58.69    5.40
   0  -1   3   58.99    6.70
  -1   1  -3    2.70    2.80
  -1   1  -3    2.00    1.80
  -1   1  -3    0.70    1.40
  -1   1  -3    1.30    1.30
   1  -1   3    0.60    1.60
   1  -1   3    3.20    1.90
   1  -1   3    3.70    2.60
  -2   1  -3   52.19    5.00
  -2   1  -3   42.60    4.90
  -2   1  -3   57.59    6.70
   2  -1   3   54.39    5.00
   2  -1   3   50.29    5.00
   2  -1   3   46.70    6.00
  -3   1  -3   64.29    8.30
  -3   1  -3   56.49    6.30
   3  -1   3   60.99    7.50
   3  -1   3   75.99    6.10
   3  -1   3   73.19    6.10
  -4   1  -3   45.30    7.40
   4  -1   3   41.60    4.50
   4  -1   3   35.20    4.60
  -5   1  -3   10.10    4.70
  -6   1  -3  272.97   27.00
   6  -1   3  299.17   20.70
  -7   1  -3    4.40    5.20
   7  -1   3    8.20    3.20
  -8   1  -3    5.50    6.10
   8  -1   3    1.30    3.00
  -9   1  -3   12.60    6.90
   9  -1   3   11.80    4.10
 -10   1  -3   46.80   10.50
  10  -1   3   37.60    6.40
 -11   0   3    3.10    7.30
 -10   0   3    2.10    6.40
  -9   0   3   14.70    5.00
  -9   0   3   15.00    6.70
  -8   0   3    1.80    4.70
  -8   0   3    3.10    3.90
   7   0  -3   23.20    4.10
  -7   0   3   31.20    6.70
  -7   0   3   39.80    5.70
   6   0  -3    0.40    2.30
   6   0  -3    3.70    2.50
  -6   0   3    8.00    3.10
  -6   0   3    1.20    3.80
  -6   0   3    1.70    3.10
   5   0  -3   10.30    2.60
   5   0  -3    9.80    2.60
  -5   0   3   13.00    4.60
  -5   0   3   11.10    3.40
  -5   0   3   17.50    3.00
  -5   0   3   17.40    3.20
   4   0  -3  228.38   17.20
   4   0  -3  231.58   16.10
  -4   0   3  230.58   16.30
  -4   0   3  229.18   17.50
  -4   0   3  204.08   17.90
   3   0  -3   46.80    5.00
   3   0  -3   51.09    5.00
   3   0  -3   46.00    4.70
  -3   0   3   45.70    5.60
  -3   0   3   50.89    4.70
  -3   0   3   46.30    5.00
   2   0  -3    6.10    1.80
   2   0  -3    5.90    1.70
   2   0  -3    4.00    1.30
  -2   0   3    5.30    1.80
  -2   0   3    5.90    1.30
  -2   0   3    3.20    2.20
   1   0  -3 1824.72  137.19
   1   0  -3 1945.11  128.69
  -1   0   3 1946.91  137.29
   0   0  -3  855.51   76.99
   0   0  -3  906.71   65.09
   0   0  -3  924.41   60.99
   0   0   3  963.50   61.09
   0   0   3  882.01   65.09
   0   0   3  863.21   76.99
  -1   0  -3 2060.59  134.49
  -1   0  -3 1946.11  143.19
  -1   0  -3 1933.11  169.88
   1   0   3 1921.51  169.88
   1   0   3 2108.59  134.49
   1   0   3 1980.90  143.29
  -2   0  -3    6.40    1.80
  -2   0  -3    5.60    3.00
  -2   0  -3    3.90    1.60
   2   0   3    5.60    1.90
   2   0   3    3.10    1.80
   2   0   3    6.30    2.60
  -3   0  -3   42.80    7.10
  -3   0  -3   56.39    5.00
   3   0   3   57.59    5.10
   3   0   3   52.99    6.50
   3   0   3   59.69    5.10
  -4   0  -3  233.28   21.70
  -4   0  -3  211.28   18.90
   4   0   3  250.27   16.60
  -5   0  -3   11.80    4.70
   5   0   3   11.10    2.60
  -6   0  -3    9.70    4.80
   6   0   3    9.90    2.70
  -7   0  -3   28.50    6.90
   7   0   3   21.00    3.70
  -8   0  -3    0.00    5.20
   8   0   3   -3.20    2.80
  -9   0  -3   16.70    6.90
   9   0   3    5.70    3.50
 -10   0  -3   11.70    7.90
 -11   0  -3    5.10    7.40
 -10   1   3   19.70    7.80
  -9   1   3   12.10    6.80
  -9   1   3   14.70    5.00
  -8   1   3    8.80    4.30
  -8   1   3    0.50    5.10
   7  -1  -3    9.20    3.10
  -7   1   3    7.90    4.80
  -7   1   3    9.50    3.90
   6  -1  -3  136.19   12.40
  -6   1   3  150.68   15.70
  -6   1   3  175.58   13.20
   5  -1  -3   54.39    6.00
   5  -1  -3   63.39    6.90
   5  -1  -3   55.99    5.90
  -5   1   3   53.79    7.80
  -5   1   3   71.39    7.00
  -5   1   3   62.59    6.40
   4  -1  -3    1.00    2.20
   4  -1  -3    2.30    2.00
   4  -1  -3    5.90    2.10
  -4   1   3    0.40    3.30
  -4   1   3    6.60    1.90
  -4   1   3    4.80    2.40
  -4   1   3    5.30    2.60
   3  -1  -3   39.30    4.90
   3  -1  -3   44.20    4.60
   3  -1  -3   44.80    5.00
  -3   1   3   44.10    4.60
  -3   1   3   46.40    5.40
  -3   1   3   46.40    4.90
   2  -1  -3    4.40    2.00
   2  -1  -3    5.80    1.70
   2  -1  -3    4.80    1.90
  -2   1   3    7.00    2.30
  -2   1   3    3.60    1.40
  -2   1   3    5.20    1.90
   1  -1  -3    2.50    1.60
   1  -1  -3    1.70    1.30
   1  -1  -3   -0.30    1.80
  -1   1   3    1.40    1.20
  -1   1   3    2.80    1.80
  -1   1   3    3.10    2.10
   0  -1  -3    1.90    1.70
   0  -1  -3    0.10    1.30
   0  -1  -3    2.10    1.10
   0   1   3    3.80    2.00
   0   1   3    0.40    0.90
   0   1   3    1.20    1.90
   0   1   3   -0.30    1.40
  -1  -1  -3    6.90    2.00
  -1  -1  -3    8.80    1.60
  -1  -1  -3   12.20    2.70
   1   1   3    7.80    2.10
   1   1   3    9.20    2.50
   1   1   3    6.30    1.60
  -2  -1  -3   35.40    4.10
  -2  -1  -3   34.30    3.50
  -2  -1  -3   27.90    4.80
   2   1   3   39.50    4.20
   2   1   3   36.10    4.80
   2   1   3   35.50    3.70
  -3  -1  -3  290.27   26.10
  -3  -1  -3  267.07   20.00
  -3  -1  -3  307.97   21.40
   3   1   3  282.37   25.90
   3   1   3  304.37   20.20
   3   1   3  289.07   21.40
  -4  -1  -3   13.40    4.00
   4   1   3    8.10    3.00
  -5  -1  -3    7.20    4.00
   5   1   3    7.50    2.30
  -6  -1  -3    9.10    4.50
   6   1   3   11.40    2.50
  -7  -1  -3  131.49   16.10
   7   1   3  163.48   11.60
  -8  -1  -3   18.70    6.40
  -9  -1  -3    3.80    6.30
 -10  -1  -3   14.50    7.50
 -11  -1  -3   14.20    8.80
 -10   2   3    7.80    7.20
  -9   2   3    6.70    6.50
  -8   2   3    3.70    5.90
   7  -2  -3    6.50    4.00
  -7   2   3    9.50    5.50
  -7   2   3    6.10    3.90
   6  -2  -3   70.99    8.10
   6  -2  -3   97.79    9.60
  -6   2   3   97.89   10.90
  -6   2   3   97.09    9.20
   5  -2  -3   11.00    2.60
   5  -2  -3   11.70    3.40
  -5   2   3   15.90    4.60
  -5   2   3   15.40    3.50
   4  -2  -3   29.40    4.30
   4  -2  -3   27.40    3.80
  -4   2   3   28.90    4.30
  -4   2   3   23.50    3.90
  -4   2   3   40.90    6.20
  -4   2   3   39.10    4.80
   3  -2  -3  411.86   32.60
   3  -2  -3  421.96   29.00
   3  -2  -3  392.96   30.60
  -3   2   3  433.76   36.50
  -3   2   3  404.26   28.90
  -3   2   3  440.26   30.90
  -3   2   3  385.26   32.40
   2  -2  -3  581.74   42.80
   2  -2  -3  520.25   40.20
   2  -2  -3  570.24   37.90
  -2   2   3  550.34   42.60
  -2   2   3  547.05   40.40
  -2   2   3  519.15   37.80
   1  -2  -3  473.35   33.80
   1  -2  -3  457.65   31.70
   1  -2  -3  480.35   35.70
  -1   2   3  461.45   35.60
  -1   2   3  443.16   33.80
  -1   2   3  427.76   31.60
   0  -2  -3   86.89    7.30
   0  -2  -3   84.39    6.80
   0  -2  -3   78.29    7.50
   0   2   3   79.69    6.70
   0   2   3   91.09    7.20
   0   2   3   78.19    7.50
   0   2   3   81.99    7.90
  -1  -2  -3   10.50    2.50
  -1  -2  -3    7.70    1.70
  -1  -2  -3    4.20    2.10
  -1  -2  -3    6.30    1.70
   1   2   3    7.80    2.20
   1   2   3    7.00    2.20
   1   2   3   10.70    2.00
  -2  -2  -3  390.26   27.70
  -2  -2  -3  365.36   32.60
  -2  -2  -3  393.16   25.80
   2   2   3  380.66   32.60
   2   2   3  352.36   27.60
   2   2   3  364.86   25.80
  -3  -2  -3   76.59    5.90
  -3  -2  -3   82.49    6.80
  -3  -2  -3   69.19    8.40
   3   2   3   75.99    8.10
   3   2   3   79.39    6.80
   3   2   3   79.39    6.00
  -4  -2  -3    1.00    3.00
  -4  -2  -3    3.80    1.70
  -4  -2  -3    1.30    1.20
   4   2   3    0.00    1.30
   4   2   3    1.30    2.50
  -5  -2  -3   40.00    6.60
  -6  -2  -3   58.19    8.40
  -7  -2  -3   32.40    7.40
  -8  -2  -3   34.50    8.30
  -9  -2  -3    5.80    6.10
 -10  -2  -3   12.70    8.10
 -11  -2  -3   20.30    9.20
 -10   3   3    7.30    6.70
  -9   3   3   11.30    6.90
   8  -3  -3    3.00    4.20
  -8   3   3    9.20    6.50
   7  -3  -3   -4.90    3.50
  -7   3   3   -5.40    5.30
   6  -3  -3    0.80    3.40
  -6   3   3    1.40    4.60
   5  -3  -3   14.20    3.80
  -5   3   3   16.40    5.20
  -5   3   3   21.30    4.50
   4  -3  -3    5.30    3.00
   4  -3  -3    3.80    2.20
  -4   3   3    7.20    3.70
  -4   3   3    4.20    3.00
   3  -3  -3    1.90    2.20
   3  -3  -3    0.70    2.00
  -3   3   3    3.70    3.00
  -3   3   3    0.10    1.60
  -3   3   3   -0.90    2.40
   2  -3  -3    4.50    2.10
   2  -3  -3    4.80    2.30
   2  -3  -3    6.40    2.50
  -2   3   3    2.50    2.30
  -2   3   3    8.70    2.80
  -2   3   3    4.10    1.80
  -2   3   3    6.60    2.90
   1  -3  -3    6.80    2.40
   1  -3  -3    8.60    2.30
   1  -3  -3    7.50    2.20
  -1   3   3    7.50    2.60
  -1   3   3    5.50    2.50
  -1   3   3    7.50    1.80
   0  -3  -3  188.98   14.70
   0  -3  -3  224.78   16.50
   0  -3  -3  177.58   15.80
   0   3   3  211.48   16.30
   0   3   3  205.38   15.90
   0   3   3  205.38   14.70
  -1  -3  -3   87.09    7.50
  -1  -3  -3   81.09    8.40
  -1  -3  -3   90.39    8.20
   1   3   3   92.89    8.20
   1   3   3  104.89    8.80
   1   3   3   93.89    7.50
   1   3   3  107.99    8.70
  -2  -3  -3  162.58   13.60
  -2  -3  -3  186.48   14.20
  -2  -3  -3  159.48   15.30
  -2  -3  -3  185.88   12.40
   2   3   3  172.18   13.70
   2   3   3  162.38   15.30
   2   3   3  172.88   12.40
  -3  -3  -3   -1.90    2.60
  -3  -3  -3   -1.00    1.10
  -3  -3  -3    2.60    2.00
  -3  -3  -3   -0.10    1.60
   3   3   3    1.40    2.30
   3   3   3    0.20    1.50
  -4  -3  -3  219.58   21.80
  -4  -3  -3  263.27   18.60
   4   3   3  240.18   21.80
  -5  -3  -3   20.30    4.70
  -5  -3  -3   10.40    2.80
   5   3   3   15.20    4.00
  -6  -3  -3   69.19    8.90
  -6  -3  -3   51.19    5.80
  -7  -3  -3   13.70    5.60
  -8  -3  -3   37.90    8.40
  -9  -3  -3    7.90    6.70
 -10  -3  -3   -1.60    7.20
 -11  -3  -3   14.10    8.30
  -9   4   3    9.60    7.40
   8  -4  -3    1.80    4.30
  -8   4   3    4.10    6.50
   7  -4  -3    4.60    4.00
  -7   4   3    4.90    5.40
   6  -4  -3   21.80    5.40
  -6   4   3   27.00    7.20
   5  -4  -3  309.27   26.20
  -5   4   3  317.67   29.20
   4  -4  -3   41.60    6.50
  -4   4   3   55.09    8.20
   3  -4  -3   17.40    3.70
  -3   4   3   28.40    5.10
   2  -4  -3  113.69   11.00
  -2   4   3  127.19   11.80
   1  -4  -3  471.25   32.20
   1  -4  -3  445.66   34.20
   1  -4  -3  463.85   36.20
  -1   4   3  484.45   39.60
  -1   4   3  417.96   35.90
   0  -4  -3   34.80    5.00
   0  -4  -3   41.10    4.50
   0  -4  -3   31.70    4.40
   0   4   3   34.00    4.20
  -1  -4  -3    7.80    2.60
  -1  -4  -3   10.70    2.40
  -1  -4  -3    7.30    2.80
   1   4   3    8.10    2.00
   1   4   3    6.40    2.40
  -2  -4  -3    7.30    2.80
  -2  -4  -3    4.10    2.00
  -2  -4  -3   11.70    2.60
   2   4   3    7.60    1.90
   2   4   3    6.40    2.30
  -3  -4  -3   41.80    4.90
  -3  -4  -3   30.90    4.40
  -3  -4  -3   32.50    4.80
  -3  -4  -3   29.40    3.70
   3   4   3   25.60    4.40
  -4  -4  -3    5.00    2.90
  -4  -4  -3    4.90    1.40
  -4  -4  -3    6.00    2.30
  -4  -4  -3    4.30    3.10
   4   4   3    5.20    2.90
  -5  -4  -3  184.68   13.60
  -5  -4  -3  155.68   15.80
   5   4   3  149.69   15.40
  -6  -4  -3    9.90    4.80
  -6  -4  -3    1.80    2.70
  -7  -4  -3  132.39   14.50
  -7  -4  -3  130.99   11.30
  -8  -4  -3   10.90    5.90
  -9  -4  -3  124.99   15.60
 -10  -4  -3   -0.80    6.40
 -11  -4  -3   10.30    8.20
   8  -5  -3    6.20    5.00
  -8   5   3   11.50    7.00
   7  -5  -3    1.60    4.60
  -7   5   3    3.90    6.10
   6  -5  -3   -4.20    3.40
  -6   5   3   -0.30    5.20
   5  -5  -3    1.30    3.40
  -5   5   3    4.20    5.10
   4  -5  -3    4.60    3.00
  -4   5   3    0.40    4.30
   3  -5  -3    4.40    3.20
  -3   5   3   10.20    4.10
   2  -5  -3  177.08   17.10
  -2   5   3  219.98   18.50
   1  -5  -3   11.10    2.80
  -1   5   3    7.80    3.10
   0  -5  -3   12.30    2.80
  -1  -5  -3   58.59    6.00
  -1  -5  -3   61.49    6.40
  -2  -5  -3  389.66   26.20
  -2  -5  -3  350.46   29.40
  -3  -5  -3  121.49   11.10
  -3  -5  -3  127.39   10.00
  -4  -5  -3   40.10    5.90
  -4  -5  -3   47.40    4.60
  -4  -5  -3   43.40    5.50
  -4  -5  -3   29.10    5.40
  -5  -5  -3    5.40    2.60
  -5  -5  -3    1.30    2.90
  -5  -5  -3    5.00    3.60
   5   5   3    3.30    2.90
  -6  -5  -3    8.70    4.40
  -6  -5  -3    0.70    3.20
  -6  -5  -3    2.50    2.50
  -7  -5  -3   -3.40    3.40
  -7  -5  -3    8.70    5.00
  -8  -5  -3    9.70    5.90
  -9  -5  -3   11.20    6.30
 -10  -5  -3    1.50    6.40
 -11  -5  -3    3.60    7.60
   8  -6  -3   -5.20    5.00
  -8   6   3    4.50    6.90
   7  -6  -3    4.30    5.00
  -7   6   3   13.60    7.20
   6  -6  -3   -2.40    4.00
  -6   6   3   12.70    6.40
   5  -6  -3   19.00    5.20
  -5   6   3   41.10    8.00
   4  -6  -3   59.09    8.40
  -4   6   3   68.89    9.50
   3  -6  -3   49.90    7.60
  -3   6   3   56.49    8.10
   2  -6  -3   21.80    4.50
  -2   6   3   33.80    5.40
   1  -6  -3   13.90    3.70
   0  -6  -3   10.90    3.10
  -1  -6  -3   36.50    5.10
  -2  -6  -3   92.19    9.00
  -3  -6  -3   33.20    5.10
  -3  -6  -3   30.80    4.60
  -4  -6  -3   18.10    3.40
  -4  -6  -3   14.00    3.50
  -4  -6  -3   13.80    3.40
  -5  -6  -3   24.50    3.80
  -5  -6  -3   20.70    4.70
  -5  -6  -3   17.60    4.00
  -6  -6  -3  160.18   15.60
  -6  -6  -3  150.88   14.20
  -7  -6  -3    7.70    4.90
  -7  -6  -3    5.10    3.10
  -8  -6  -3    4.30    3.50
  -8  -6  -3    8.60    5.50
  -9  -6  -3    8.30    6.00
  -9  -6  -3    5.00    4.00
  -9  -6  -3   11.50    4.10
 -10  -6  -3   29.20    8.40
 -11  -6  -3    5.00    6.90
   7  -7  -3   -2.80    5.50
  -7   7   3   19.10    7.90
   6  -7  -3    7.30    5.00
  -6   7   3   10.30    6.50
   5  -7  -3    3.20    4.90
  -5   7   3    7.80    6.10
   4  -7  -3    3.60    4.00
  -4   7   3   10.10    5.90
   3  -7  -3   -0.80    3.30
  -3   7   3   20.30    5.20
   2  -7  -3   -0.50    3.10
  -2   7   3    8.60    3.70
   1  -7  -3   61.39    7.70
   0  -7  -3   14.70    3.60
  -1  -7  -3   42.60    5.90
  -2  -7  -3   -0.30    2.20
  -3  -7  -3    9.20    3.00
  -4  -7  -3   -1.70    2.60
  -4  -7  -3    1.60    2.60
  -5  -7  -3    0.10    2.80
  -6  -7  -3    0.10    3.20
  -7  -7  -3   -0.70    3.40
  -7  -7  -3   -7.20    3.70
  -8  -7  -3   10.20    5.20
  -8  -7  -3    1.00    3.60
  -9  -7  -3   19.10    6.40
  -9  -7  -3   20.10    5.20
  -9  -7  -3   10.10    4.60
 -10  -7  -3    8.30    6.40
 -10  -7  -3    7.90    4.50
   6  -8  -3    3.50    5.40
  -6   8   3   16.90    7.30
   5  -8  -3   -4.20    4.40
  -5   8   3   10.00    6.60
   4  -8  -3   19.60    5.70
  -4   8   3   26.90    7.00
   3  -8  -3    1.80    3.90
  -3   8   3    9.60    4.70
   2  -8  -3   21.50    5.20
   1  -8  -3    4.50    3.40
   0  -8  -3   35.70    6.10
  -1  -8  -3    1.40    2.50
  -2  -8  -3   39.80    6.20
  -3  -8  -3  119.49   11.70
  -4  -8  -3   18.30    4.30
  -5  -8  -3    0.90    3.30
  -6  -8  -3   -1.00    3.40
  -6  -8  -3   -4.30    2.80
  -7  -8  -3   48.20    7.80
  -7  -8  -3   43.10    7.20
  -8  -8  -3   16.70    5.70
  -8  -8  -3    7.90    4.20
  -9  -8  -3   -2.70    4.60
  -9  -8  -3   -4.40    3.70
  -9  -8  -3    5.00    5.00
 -10  -8  -3   13.70    5.10
 -10  -8  -3   22.60    7.20
   5  -9  -3   -1.10    5.20
   4  -9  -3    3.80    4.50
   3  -9  -3   12.50    4.90
   2  -9  -3   14.10    4.70
   1  -9  -3    2.90    3.70
   0  -9  -3   -0.20    3.20
  -1  -9  -3    7.90    3.60
  -2  -9  -3   -0.10    2.90
  -3  -9  -3   23.60    4.90
  -4  -9  -3    0.10    3.10
  -5  -9  -3   21.20    5.00
  -6  -9  -3   13.50    4.80
  -7  -9  -3    0.80    3.80
  -8  -9  -3    0.80    4.10
  -9  -9  -3   -1.50    4.20
  -9  -9  -3    6.80    5.20
   3 -10  -3   -0.60    4.40
   2 -10  -3   -3.40    3.70
   1 -10  -3    1.60    4.40
   0 -10  -3   93.89   10.70
  -1 -10  -3   31.60    6.10
  -2 -10  -3   49.60    7.50
  -3 -10  -3    2.50    4.00
  -4 -10  -3   84.19   10.20
  -5 -10  -3   36.70    6.40
  -6 -10  -3   19.40    5.80
  -7 -10  -3   -0.70    4.30
  -8 -10  -3   10.00    4.80
   1 -11  -3    6.70    4.50
   0 -11  -3   -2.00    3.90
  -1 -11  -3    3.30    4.20
  -2 -11  -3   -3.60    4.10
  -3 -11  -3   29.60    5.90
  -4 -11  -3   12.80    5.10
  -5 -11  -3  109.99   12.20
  -6 -11  -3   -2.20    3.90
  -4 -10   4   -2.00    4.10
  -3 -10   4    0.60    4.00
  -3 -10   4   -4.60    4.30
  -2 -10   4    0.70    4.30
  -2 -10   4    4.30    4.30
  -2 -10   4    1.60    4.40
  -1 -10   4   29.10    6.20
  -1 -10   4   16.00    4.80
  -1 -10   4   25.40    6.30
  -6  -9   4    2.40    4.20
  -6  -9   4    6.30    4.90
  -5  -9   4    3.10    4.30
  -5  -9   4   -4.10    3.70
  -4  -9   4    8.90    4.80
  -4  -9   4   -0.20    4.30
  -4  -9   4    5.40    3.70
  -3  -9   4    1.00    3.50
  -3  -9   4   -4.20    4.00
  -3  -9   4   -1.50    3.50
  -2  -9   4   -4.00    3.20
  -2  -9   4    5.90    4.00
  -2  -9   4   -5.20    3.70
  -1  -9   4   -3.20    4.00
  -1  -9   4    4.10    4.10
  -1  -9   4    2.80    3.40
   0  -9   4    1.50    3.30
   0  -9   4    0.70    3.70
   0  -9   4    4.00    4.50
   1  -9   4   -3.00    3.30
   1  -9   4    4.30    4.50
   1  -9   4   -0.60    4.50
  -2   9  -4   21.90    7.40
   2  -9   4   11.10    3.60
   2  -9   4   10.50    5.10
   2  -9   4   17.60    5.20
  -8  -8   4   -5.10    4.60
  -8  -8   4   -8.20    6.60
  -7  -8   4   56.19    7.10
  -7  -8   4   31.50    7.10
  -6  -8   4    0.40    3.60
  -6  -8   4   -6.80    4.00
  -5  -8   4    2.70    3.30
  -5  -8   4   -4.90    3.60
  -5  -8   4   -3.60    3.40
  -4  -8   4   11.70    5.20
  -4  -8   4   17.00    4.70
  -4  -8   4   13.60    4.00
  -3  -8   4  118.59   10.40
  -3  -8   4  114.59   10.90
  -3  -8   4   85.99   10.90
  -2  -8   4    0.50    3.80
  -2  -8   4   -0.10    3.40
  -2  -8   4    5.50    3.90
  -1  -8   4   -2.60    2.80
  -1  -8   4    1.10    3.30
  -1  -8   4   -0.40    3.80
   0  -8   4   22.00    5.10
   0  -8   4   20.20    5.20
   0  -8   4   19.90    5.30
  -1   8  -4   21.30    6.50
   1  -8   4   20.00    4.90
   1  -8   4   14.90    4.80
   1  -8   4    7.80    4.60
  -2   8  -4   -3.20    5.40
   2  -8   4   -1.90    2.90
   2  -8   4   -0.10    3.90
   2  -8   4    2.80    4.00
  -3   8  -4   -8.00    5.80
   3  -8   4    2.20    4.00
   3  -8   4   -6.90    4.10
   3  -8   4   -0.60    4.10
  -4   8  -4   -9.40    6.70
   4  -8   4   -7.50    4.10
   4  -8   4    2.70    4.30
   4  -8   4   -1.50    3.40
  -9  -7   4    5.60    7.50
  -9  -7   4  -11.10    4.30
  -8  -7   4   -8.60    6.40
  -8  -7   4   -4.60    4.30
  -7  -7   4    4.30    2.70
  -7  -7   4   -8.00    3.60
  -7  -7   4   -2.90    4.10
  -6  -7   4   -0.70    3.80
  -6  -7   4   -0.40    2.40
  -6  -7   4    1.10    3.10
  -5  -7   4   -0.40    3.00
  -5  -7   4   -3.80    2.00
  -5  -7   4   -3.10    4.00
  -4  -7   4    1.90    3.20
  -4  -7   4    7.90    4.10
  -4  -7   4    4.40    2.70
  -3  -7   4   10.90    3.60
  -3  -7   4   22.20    3.80
  -3  -7   4   15.90    4.90
  -2  -7   4    0.70    4.00
  -2  -7   4    1.30    2.70
  -2  -7   4    0.30    3.20
  -1  -7   4   14.30    4.60
  -1  -7   4   18.60    4.80
  -1  -7   4   20.80    4.30
   0  -7   4   17.00    4.70
   0  -7   4   20.70    4.40
   0  -7   4   17.30    4.40
  -1   7  -4   46.60    8.00
   1  -7   4   36.30    6.40
   1  -7   4   50.79    6.60
   1  -7   4   53.39    7.40
  -2   7  -4    0.40    5.10
   2  -7   4    1.00    3.70
   2  -7   4   -3.80    3.50
   2  -7   4    1.00    2.90
  -3   7  -4    3.00    5.80
   3  -7   4    5.40    4.20
   3  -7   4    2.90    3.80
   3  -7   4   -0.40    2.80
  -4   7  -4   -1.30    6.10
   4  -7   4   -3.80    4.10
   4  -7   4    5.60    4.20
   4  -7   4    0.30    3.60
  -5   7  -4    3.60    6.90
   5  -7   4   -1.80    3.90
   5  -7   4    2.60    3.70
   5  -7   4   -6.40    4.10
 -10  -6   4   13.10    8.60
  -9  -6   4   -4.20    6.30
  -9  -6   4   -4.70    4.50
  -8  -6   4   -1.90    2.30
  -8  -6   4   -5.80    4.10
  -8  -6   4   -1.20    4.20
  -8  -6   4  -10.30    6.00
  -7  -6   4    1.20    4.00
  -7  -6   4    1.30    3.50
  -7  -6   4    4.40    2.50
  -6  -6   4  183.78   14.80
  -6  -6   4  146.59   15.30
  -6  -6   4  181.88   13.80
  -5  -6   4   10.70    4.70
  -5  -6   4   19.60    3.80
  -5  -6   4   26.50    3.70
  -4  -6   4   39.80    6.70
  -4  -6   4   44.50    5.40
  -4  -6   4   46.50    5.80
  -3  -6   4    4.80    2.40
  -3  -6   4    4.20    3.00
  -3  -6   4   -3.20    3.20
   2   6  -4   10.20    2.50
  -2  -6   4    6.80    4.00
  -2  -6   4    7.60    3.10
  -2  -6   4   10.40    3.00
   1   6  -4    0.90    1.60
  -1  -6   4    2.80    2.40
  -1  -6   4   -4.60    2.60
  -1  -6   4   -3.60    3.20
   0   6  -4   15.30    5.40
   0  -6   4   24.80    4.30
   0  -6   4   17.50    4.00
   0  -6   4   17.00    4.40
  -1   6  -4   15.10    5.50
   1  -6   4   16.70    4.50
   1  -6   4   16.70    3.90
   1  -6   4   18.20    4.50
  -2   6  -4    3.20    5.10
   2  -6   4    6.60    3.60
   2  -6   4    4.20    3.50
   2  -6   4    4.80    3.10
  -3   6  -4   23.80    7.00
   3  -6   4   20.30    4.70
   3  -6   4   25.50    4.60
   3  -6   4   16.30    4.90
  -4   6  -4    7.50    6.00
   4  -6   4    3.90    3.30
   4  -6   4    6.20    3.60
   4  -6   4    7.90    4.10
  -5   6  -4   14.30    6.80
   5  -6   4   10.90    4.30
   5  -6   4    3.00    4.40
   5  -6   4   12.50    4.20
  -6   6  -4    2.80    6.50
   6  -6   4    0.60    3.10
   6  -6   4    0.20    4.00
  -7   6  -4   11.00    7.50
   7  -6   4    6.10    4.00
 -10  -5   4   -5.50    5.20
 -10  -5   4   -2.50    6.50
  -9  -5   4   11.30    6.80
  -9  -5   4    2.20    2.90
  -9  -5   4   -5.10    4.70
  -8  -5   4    1.50    2.40
  -8  -5   4    3.30    6.70
  -8  -5   4    2.00    3.80
  -8  -5   4    2.60    4.30
  -7  -5   4    8.80    4.30
  -7  -5   4   19.70    4.80
  -7  -5   4   14.40    3.10
  -6  -5   4   10.30    2.60
  -6  -5   4   11.80    4.50
  -6  -5   4   16.80    4.10
  -5  -5   4    3.60    3.80
  -5  -5   4    3.90    2.00
  -5  -5   4   -2.70    2.20
  -4  -5   4    7.70    3.60
  -4  -5   4    8.30    2.70
  -4  -5   4    6.20    2.10
  -3  -5   4  115.89    9.80
  -3  -5   4  116.89   10.70
  -3  -5   4  103.79    9.40
   2   5  -4  100.49    9.80
  -2  -5   4  138.09   10.30
  -2  -5   4   99.99    9.50
  -2  -5   4  129.89   10.80
   1   5  -4   84.59    8.20
  -1  -5   4   98.99    8.50
  -1  -5   4   88.79    9.20
  -1  -5   4  107.09    8.80
   0   5  -4   -0.90    1.20
   0   5  -4   -2.20    3.40
   0  -5   4    0.60    2.20
   0  -5   4   -3.50    2.70
   0  -5   4    0.30    2.20
  -1   5  -4    6.90    3.90
   1  -5   4   10.90    3.40
   1  -5   4    7.50    2.70
   1  -5   4    0.90    2.40
  -2   5  -4   50.29    7.30
   2  -5   4   27.50    4.90
   2  -5   4   28.30    4.90
   2  -5   4   33.10    5.20
  -3   5  -4    1.30    4.80
   3  -5   4    0.40    2.60
   3  -5   4   -0.30    3.10
   3  -5   4    0.90    3.10
  -4   5  -4    0.10    4.80
   4  -5   4    6.90    3.30
   4  -5   4    0.30    3.10
   4  -5   4    0.10    3.30
  -5   5  -4    0.80    5.20
   5  -5   4    0.70    3.20
   5  -5   4    5.90    3.50
  -6   5  -4   -1.80    5.60
   6  -5   4    0.80    3.40
   6  -5   4    0.70    3.20
  -7   5  -4    7.30    6.40
   7  -5   4    4.00    3.90
 -10  -4   4    2.40    7.50
 -10  -4   4   -6.90    5.40
  -9  -4   4   -1.50    4.50
  -9  -4   4    5.50    6.60
  -8  -4   4   -2.40    3.70
  -8  -4   4    4.80    6.10
  -8  -4   4    3.70    4.60
  -7  -4   4    6.40    3.80
  -7  -4   4    4.20    4.00
  -6  -4   4    7.80    3.70
  -6  -4   4    6.90    3.10
  -6  -4   4    8.60    3.40
  -6  -4   4    9.80    2.40
  -5  -4   4   31.60    4.60
  -5  -4   4   31.30    3.80
  -5  -4   4   30.50    5.40
  -4  -4   4   47.10    5.20
  -4  -4   4   42.60    6.10
  -3  -4   4    1.10    1.90
  -3  -4   4    3.50    2.90
  -2  -4   4   10.60    3.40
  -2  -4   4   10.60    2.60
   1   4  -4    1.50    1.20
  -1  -4   4    1.10    2.10
  -1  -4   4   -0.60    2.60
  -1  -4   4    0.30    1.70
   0   4  -4   11.20    2.10
   0   4  -4   12.50    4.00
   0  -4   4   17.20    3.60
   0  -4   4   16.90    3.30
   0  -4   4   16.20    2.90
  -1   4  -4  172.98   14.80
  -1   4  -4  176.78   17.20
   1  -4   4  187.08   15.10
   1  -4   4  191.38   13.80
   1  -4   4  171.98   14.50
  -2   4  -4   93.09   10.60
   2  -4   4   97.29    8.90
   2  -4   4   89.69    9.00
   2  -4   4   96.19    8.40
  -3   4  -4   61.69    9.00
   3  -4   4   59.29    6.60
   3  -4   4   61.09    6.90
   3  -4   4   63.49    7.40
  -4   4  -4  132.79   13.60
   4  -4   4  126.69   10.70
   4  -4   4  113.49   10.20
   4  -4   4  101.79   11.60
  -5   4  -4    9.60    5.40
   5  -4   4    5.30    2.90
   5  -4   4   10.10    3.40
  -6   4  -4   57.59    9.70
   6  -4   4   43.00    6.30
   6  -4   4   47.80    6.20
  -7   4  -4   20.40    7.20
   7  -4   4   17.00    4.30
  -8   4  -4    6.90    6.00
   8  -4   4   10.30    4.30
 -10  -3   4    0.00    5.90
 -10  -3   4    5.50    6.70
  -9  -3   4    6.30    6.30
  -9  -3   4    7.30    5.60
  -9  -3   4   26.00    5.10
  -8  -3   4    8.80    3.90
  -8  -3   4   16.90    6.20
  -8  -3   4   12.20    5.30
  -7  -3   4   50.09    6.40
  -7  -3   4   53.49    6.50
  -7  -3   4   39.10    6.70
   6   3  -4  112.89   11.00
  -6  -3   4  147.99   11.50
  -6  -3   4  152.18   12.20
  -6  -3   4  137.99   12.50
   5   3  -4    6.50    2.50
  -5  -3   4    8.10    3.10
  -5  -3   4   12.80    2.80
   4   3  -4  100.29    8.60
  -4  -3   4  122.79   10.30
  -4  -3   4  103.39    8.90
   3   3  -4   -0.80    1.70
  -3  -3   4   -1.50    2.20
  -3  -3   4    0.90    1.90
  -2  -3   4   98.09    8.50
  -2  -3   4  115.59    9.70
  -1  -3   4  153.88   11.70
   0   3  -4  267.77   24.30
   0   3  -4  231.88   21.10
   0  -3   4  267.17   19.40
   0  -3   4  281.27   20.70
   0  -3   4  299.77   21.30
  -1   3  -4   25.50    3.40
  -1   3  -4   23.60    5.00
   1  -3   4   22.40    3.90
   1  -3   4   29.50    4.30
   1  -3   4   23.80    3.70
  -2   3  -4   13.10    4.20
  -2   3  -4    5.30    2.00
   2  -3   4   10.70    2.90
   2  -3   4    9.70    2.90
   2  -3   4    7.40    2.40
  -3   3  -4   15.30    4.70
   3  -3   4   12.30    3.10
   3  -3   4   15.50    3.30
  -4   3  -4    4.30    4.30
   4  -3   4    0.70    2.30
   4  -3   4   -0.10    2.50
  -5   3  -4   22.10    5.70
   5  -3   4   25.90    4.10
   5  -3   4   22.80    4.20
  -6   3  -4    3.50    5.00
   6  -3   4    3.80    3.10
   6  -3   4    1.30    3.10
  -7   3  -4   72.19   11.70
   7  -3   4   77.29    7.90
  -8   3  -4   13.60    6.90
   8  -3   4   13.20    4.10
  -9   3  -4  129.59   16.80
   9  -3   4  145.89   12.40
 -10  -2   4   84.39   12.60
  -9  -2   4    4.30    5.70
  -9  -2   4    4.60    5.20
  -8  -2   4   26.40    7.10
  -8  -2   4   40.20    5.80
  -8  -2   4   30.60    6.50
  -7  -2   4   -3.90    3.40
  -7  -2   4   -9.60    4.10
  -7  -2   4    1.00    4.70
   6   2  -4    9.80    3.30
  -6  -2   4   13.40    4.30
  -6  -2   4   23.60    4.20
  -6  -2   4   15.70    3.20
   5   2  -4   15.10    3.00
  -5  -2   4   19.30    3.90
  -5  -2   4   16.80    3.00
  -5  -2   4   18.50    4.10
   4   2  -4  388.16   27.80
  -4  -2   4  406.36   30.30
  -4  -2   4  403.06   28.10
   3   2  -4  542.65   38.30
  -3  -2   4  560.94   38.60
  -3  -2   4  566.04   41.30
   2   2  -4   94.79    7.40
   2   2  -4   92.19    8.00
  -2  -2   4   73.19    9.00
  -2  -2   4   89.49    7.50
  -2  -2   4   97.49    8.40
   1   2  -4  808.92   59.09
   1   2  -4  826.22   55.39
  -1  -2   4  731.53   69.69
  -1  -2   4  828.62   59.19
  -1  -2   4  856.81   55.49
   0   2  -4  455.25   33.00
   0   2  -4  386.46   38.90
   0   2  -4  478.75   31.00
   0   2  -4  460.05   34.50
   0  -2   4  406.46   38.90
   0  -2   4  479.05   31.10
   0  -2   4  454.35   33.10
  -1   2  -4   95.29   10.80
  -1   2  -4  108.89    8.90
  -1   2  -4   98.59    8.20
  -1   2  -4  108.39    8.90
   1  -2   4  102.49   10.50
   1  -2   4  106.49    8.40
   1  -2   4  101.79    9.00
  -2   2  -4 2462.25  186.08
  -2   2  -4 2464.45  207.58
   2  -2   4 2438.36  164.28
   2  -2   4 2345.57  174.78
  -3   2  -4  247.48   23.60
   3  -2   4  258.77   18.50
   3  -2   4  258.67   19.50
  -4   2  -4   53.29    8.20
   4  -2   4   49.00    5.60
   4  -2   4   49.70    5.70
  -5   2  -4  139.89   16.10
   5  -2   4  179.08   12.90
   5  -2   4  147.09   12.20
  -6   2  -4  301.87   28.20
   6  -2   4  293.47   21.60
  -7   2  -4   40.00    8.10
   7  -2   4   21.80    4.60
  -8   2  -4   20.90    7.70
   8  -2   4   15.70    4.10
  -9   2  -4   22.00    7.90
   9  -2   4   13.10    4.30
 -10  -1   4    3.80    6.30
  -9  -1   4   15.80    6.60
  -9  -1   4   12.30    5.90
  -8  -1   4   22.90    5.80
  -8  -1   4   16.60    5.90
  -8  -1   4   27.30    4.80
  -7  -1   4  536.25   33.90
  -7  -1   4  408.56   42.80
  -7  -1   4  489.35   36.40
  -6  -1   4   79.19    9.30
  -6  -1   4   78.59    8.10
  -6  -1   4   93.79    8.30
   5   1  -4   -0.90    1.90
  -5  -1   4   -0.80    2.90
  -5  -1   4    0.10    2.50
  -5  -1   4    3.50    1.80
   4   1  -4   52.79    4.90
  -4  -1   4   50.09    5.50
  -4  -1   4   36.90    5.80
   3   1  -4  560.04   38.20
   3   1  -4  512.05   40.80
  -3  -1   4  609.84   38.50
  -3  -1   4  537.85   41.00
   2   1  -4    5.90    2.00
   2   1  -4    8.10    2.10
  -2  -1   4    5.50    2.20
  -2  -1   4    6.50    2.30
   1   1  -4    9.30    2.10
   1   1  -4    9.80    2.40
  -1  -1   4    6.30    2.40
  -1  -1   4   14.50    3.20
  -1  -1   4   16.90    2.70
   0   1  -4    6.30    1.40
   0   1  -4    6.70    2.10
   0   1  -4    8.00    2.90
   0   1  -4    9.10    2.30
   0  -1   4    6.20    2.30
   0  -1   4    6.00    1.80
   0  -1   4   11.10    2.80
  -1   1  -4   11.50    2.10
  -1   1  -4    9.90    2.50
  -1   1  -4   13.20    2.30
  -1   1  -4   13.40    3.70
   1  -1   4   14.70    3.30
   1  -1   4   13.20    2.50
   1  -1   4   13.40    2.70
  -2   1  -4   61.09    7.90
  -2   1  -4   47.70    5.80
  -2   1  -4   54.39    5.40
  -2   1  -4   72.59    6.10
   2  -1   4   74.79    6.00
   2  -1   4   58.79    7.10
   2  -1   4   70.89    6.20
  -3   1  -4   10.50    2.40
  -3   1  -4    5.20    1.80
   3  -1   4    7.20    2.30
   3  -1   4    9.60    2.30
  -4   1  -4   39.30    7.00
   4  -1   4   41.60    5.10
   4  -1   4   50.29    5.30
   5  -1   4  638.44   47.30
   5  -1   4  657.53   44.70
  -6   1  -4  209.18   20.90
  -7   1  -4  298.17   29.30
   7  -1   4  311.27   22.10
  -8   1  -4    3.00    6.50
   8  -1   4    1.40    3.20
  -9   1  -4  113.19   15.30
   9  -1   4  109.69   10.30
 -10   1  -4   88.59   14.60
 -10   0   4   45.60   10.10
  -9   0   4   14.80    5.70
  -9   0   4    3.00    5.80
  -8   0   4    1.00    4.30
  -8   0   4    6.70    4.90
  -7   0   4   81.79    9.70
  -7   0   4   83.29    8.50
  -7   0   4   75.89   10.40
  -6   0   4    3.90    3.30
  -6   0   4   -4.60    3.50
  -6   0   4    3.90    4.20
  -5   0   4   13.80    2.70
  -5   0   4   17.90    4.20
  -5   0   4   17.60    3.60
   4   0  -4  919.51   71.39
   4   0  -4  972.70   66.99
   4   0  -4 1119.79   75.79
  -4   0   4  988.50   71.59
  -4   0   4  922.01   75.49
  -4   0   4  966.60   67.09
   3   0  -4 1137.99   88.79
   3   0  -4 1309.17   94.09
   3   0  -4 1233.88   83.39
  -3   0   4 1279.37   83.59
  -3   0   4 1191.88   93.99
  -3   0   4 1206.88   89.09
   2   0  -4  311.47   22.00
   2   0  -4  304.97   23.60
  -2   0   4  314.97   23.90
  -2   0   4  326.87   22.30
   1   0  -4  240.68   17.40
   1   0  -4  236.58   18.70
  -1   0   4  265.57   17.70
  -1   0   4  265.17   19.00
  -1   0   4  230.58   22.00
   0   0  -4 1727.13  116.49
   0   0  -4 1689.53  124.09
   0   0  -4 1759.92  131.59
   0   0  -4 1623.04  146.99
   0   0   4 1584.04  146.99
   0   0   4 1757.92  124.29
   0   0   4 1905.11  116.69
  -1   0  -4  259.97   18.10
  -1   0  -4  250.27   19.30
  -1   0  -4  235.78   23.00
   1   0   4  244.28   22.90
   1   0   4  279.87   19.60
   1   0   4  270.57   18.30
  -2   0  -4  309.17   23.80
  -2   0  -4  320.77   22.40
  -2   0  -4  314.37   28.60
   2   0   4  336.97   22.60
   2   0   4  318.67   28.50
   2   0   4  325.57   24.00
  -3   0  -4 1317.77   91.39
  -3   0  -4 1273.17  108.89
  -3   0  -4 1150.28   85.79
   3   0   4 1332.57   86.09
   3   0   4 1317.77   91.49
   3   0   4 1205.88  108.79
  -4   0  -4 1138.29   79.09
  -4   0  -4 1047.20   94.49
   4   0   4 1106.59   74.59
   4   0   4 1085.29   79.09
  -5   0  -4   23.60    5.80
   5   0   4   21.90    3.50
  -6   0  -4   12.20    5.60
   6   0   4    8.40    2.80
  -7   0  -4   87.79   12.50
   7   0   4   94.79    8.50
  -8   0  -4   -1.20    5.20
   8   0   4    4.10    3.20
  -9   0  -4   25.40    8.30
   9   0   4   23.70    4.70
 -10   0  -4   48.00   11.00
 -10   1   4   41.40    9.60
  -9   1   4  115.19   11.60
  -9   1   4   84.59   13.40
  -8   1   4   -3.80    4.10
  -8   1   4   -0.40    5.00
  -7   1   4  272.37   21.60
  -7   1   4  260.77   25.40
   6  -1  -4  275.07   25.80
  -6   1   4  328.07   24.90
  -6   1   4  318.47   29.30
  -6   1   4  352.36   23.30
   5  -1  -4  400.76   35.90
  -5   1   4  498.55   34.40
  -5   1   4  530.95   32.20
  -5   1   4  402.26   35.70
   4  -1  -4   62.79    6.60
   4  -1  -4   55.69    6.40
  -4   1   4   59.89    6.00
  -4   1   4   65.49    7.00
  -4   1   4   64.19    6.20
   3  -1  -4    0.80    1.80
   3  -1  -4    1.90    2.30
   3  -1  -4    1.00    1.70
  -3   1   4    1.60    2.60
  -3   1   4    1.40    1.40
  -3   1   4    3.20    2.40
   2  -1  -4   87.19    7.80
   2  -1  -4   77.69    6.90
   2  -1  -4   86.99    7.50
  -2   1   4   87.19    7.40
  -2   1   4   81.49    7.30
  -2   1   4   92.59    8.20
   1  -1  -4    4.30    1.70
   1  -1  -4    4.40    1.30
   1  -1  -4    4.90    2.10
  -1   1   4    2.80    1.20
  -1   1   4    5.40    2.50
  -1   1   4    2.90    1.90
   0  -1  -4   57.49    5.80
   0  -1  -4   50.49    5.00
   0  -1  -4   60.99    5.20
   0   1   4   66.39    6.40
   0   1   4   65.09    6.30
   0   1   4   47.10    5.20
  -1  -1  -4    5.20    1.60
  -1  -1  -4    3.30    2.70
  -1  -1  -4    5.70    2.10
   1   1   4    4.60    1.70
   1   1   4    8.90    2.40
   1   1   4    8.10    2.50
  -2  -1  -4  300.47   25.70
  -2  -1  -4  310.27   21.60
  -2  -1  -4  261.67   20.10
   2   1   4  278.17   20.20
   2   1   4  314.97   21.70
   2   1   4  262.27   25.50
  -3  -1  -4  419.26   36.20
  -3  -1  -4  382.06   28.20
  -3  -1  -4  413.46   30.10
   3   1   4  409.86   28.40
   3   1   4  415.56   30.20
   3   1   4  416.76   36.10
  -4  -1  -4  382.66   35.00
   4   1   4  388.66   27.30
   4   1   4  406.06   28.90
  -5  -1  -4    7.00    4.60
   5   1   4    7.80    2.40
  -6  -1  -4  295.47   28.20
   6   1   4  308.17   21.50
  -7  -1  -4  282.47   28.00
   7   1   4  305.87   21.30
  -8  -1  -4  300.67   29.40
   8   1   4  308.17   22.10
  -9  -1  -4   40.70    9.30
   9   1   4   45.90    5.90
 -10  -1  -4   25.00    8.80
 -11  -1  -4    6.10    7.90
 -10   2   4   10.70    7.20
  -9   2   4   11.60    6.70
  -8   2   4   36.00    8.90
  -8   2   4   41.90    6.80
   7  -2  -4  125.09   12.90
  -7   2   4  152.98   12.80
  -7   2   4  127.19   14.80
   6  -2  -4  126.59   12.10
  -6   2   4  118.59   13.70
  -6   2   4  135.89   12.00
   5  -2  -4  121.49   11.40
  -5   2   4  118.39   12.90
  -5   2   4  116.59   10.30
  -5   2   4  126.69   11.10
   4  -2  -4   19.20    3.60
  -4   2   4   27.00    5.40
  -4   2   4   19.10    3.10
  -4   2   4   14.30    3.60
  -4   2   4   19.20    4.00
   3  -2  -4 1637.74  120.29
   3  -2  -4 1755.52  127.89
  -3   2   4 1610.34  112.89
  -3   2   4 1687.73  120.49
  -3   2   4 1625.24  127.69
   2  -2  -4  453.45   35.30
   2  -2  -4  465.55   33.20
   2  -2  -4  524.65   37.40
  -2   2   4  434.86   33.10
  -2   2   4  504.75   37.20
  -2   2   4  473.55   35.50
   1  -2  -4 1744.03  130.19
   1  -2  -4 1631.64  122.09
   1  -2  -4 1878.31  138.29
  -1   2   4 1805.72  122.19
  -1   2   4 1943.71  138.19
  -1   2   4 1818.72  130.39
   0  -2  -4   72.69    6.80
   0  -2  -4   71.59    6.50
   0  -2  -4   72.49    6.10
   0   2   4   70.99    7.40
   0   2   4   74.39    6.40
   0   2   4   73.49    7.10
   0   2   4   69.89    6.30
  -1  -2  -4  325.07   23.90
  -1  -2  -4  330.17   25.10
  -1  -2  -4  303.37   27.80
  -1  -2  -4  318.97   22.20
   1   2   4  331.97   22.40
   1   2   4  325.17   24.00
   1   2   4  296.77   27.80
  -2  -2  -4    1.70    2.60
  -2  -2  -4    1.30    1.50
  -2  -2  -4    3.40    2.00
   2   2   4    1.80    1.70
   2   2   4    1.40    2.20
   2   2   4    1.40    2.00
  -3  -2  -4   70.09    6.30
  -3  -2  -4   64.39    7.70
  -3  -2  -4   64.19    5.50
   3   2   4   64.29    6.40
   3   2   4   64.29    7.30
   3   2   4   68.19    5.80
  -4  -2  -4    3.10    1.50
  -4  -2  -4   -0.90    3.40
  -4  -2  -4    3.50    2.00
   4   2   4    0.90    2.00
   4   2   4    4.90    1.90
   4   2   4    1.50    2.70
  -5  -2  -4   16.10    5.30
  -5  -2  -4   16.50    2.70
   5   2   4   15.20    2.80
  -6  -2  -4   49.70    8.70
   6   2   4   62.69    5.60
  -7  -2  -4  303.97   28.70
  -8  -2  -4   44.50    9.10
  -9  -2  -4    3.60    6.60
 -10  -2  -4   30.40    9.20
 -11  -2  -4  117.29   16.40
  -9   3   4   51.29   10.20
   8  -3  -4   72.79    9.50
   7  -3  -4    4.40    3.90
  -7   3   4   10.10    4.50
  -7   3   4    9.40    5.90
   6  -3  -4   22.60    4.80
  -6   3   4   27.80    5.60
  -6   3   4   30.20    6.70
   5  -3  -4    9.80    3.40
  -5   3   4    7.80    4.70
  -5   3   4   13.00    4.10
   4  -3  -4   20.50    4.10
  -4   3   4   26.10    4.10
  -4   3   4   33.60    5.90
  -4   3   4   36.30    5.00
   3  -3  -4    2.90    2.30
  -3   3   4    8.30    3.60
  -3   3   4    6.00    2.80
  -3   3   4    8.80    2.50
   2  -3  -4   13.20    3.00
   2  -3  -4   13.20    2.80
  -2   3   4   12.50    2.30
  -2   3   4   12.90    3.00
  -2   3   4   16.80    3.40
   1  -3  -4    5.20    2.30
   1  -3  -4    3.70    1.70
   1  -3  -4    4.10    2.00
  -1   3   4    1.30    1.40
  -1   3   4    6.60    2.40
  -1   3   4    3.40    1.80
   0  -3  -4  394.16   31.80
   0  -3  -4  441.96   33.50
   0  -3  -4  388.76   29.70
   0   3   4  407.36   29.70
   0   3   4  479.05   37.00
   0   3   4  456.25   33.40
   0   3   4  409.86   31.80
  -2  -3  -4  327.17   24.60
  -2  -3  -4  349.96   27.10
  -2  -3  -4  259.97   21.50
  -2  -3  -4  291.07   23.30
   2   3   4  305.07   23.30
   2   3   4  336.77   27.10
   2   3   4  285.27   21.60
  -3  -3  -4    0.70    1.70
  -3  -3  -4    3.80    2.10
  -3  -3  -4   -2.00    2.70
  -3  -3  -4    1.30    1.40
   3   3   4   -1.20    2.30
   3   3   4    3.00    2.50
   3   3   4    2.10    1.70
  -4  -3  -4  336.57   25.80
  -4  -3  -4  366.96   30.70
  -4  -3  -4  314.27   23.70
   4   3   4  364.66   23.90
   4   3   4  335.97   30.40
  -5  -3  -4   76.49    6.80
  -5  -3  -4   58.89    8.60
   5   3   4   71.79    5.90
  -6  -3  -4   67.69    6.50
  -6  -3  -4   70.29    9.40
  -7  -3  -4    2.90    4.80
  -8  -3  -4   81.19   11.90
  -9  -3  -4    8.20    6.60
 -10  -3  -4    2.90    7.60
 -11  -3  -4   15.50    8.10
  -9   4   4   16.60    7.50
  -8   4   4   28.70    8.60
   7  -4  -4   22.60    5.60
  -7   4   4   21.40    7.40
   6  -4  -4   20.50    5.10
  -6   4   4   31.10    7.20
   5  -4  -4  304.97   26.30
  -5   4   4  321.97   29.40
  -5   4   4  320.37   24.90
   4  -4  -4   31.70    5.70
  -4   4   4   60.99    7.10
  -4   4   4   43.00    7.00
   3  -4  -4   12.00    3.30
  -3   4   4   20.00    4.70
  -3   4   4   18.30    4.30
   2  -4  -4  176.68   14.70
  -2   4   4  187.38   16.00
  -2   4   4  155.98   14.20
  -2   4   4  157.48   13.10
   1  -4  -4  238.18   18.40
  -1   4   4  219.78   17.70
  -1   4   4  203.98   16.20
   0  -4  -4   93.59    9.30
   0  -4  -4  114.99    8.70
   0   4   4  100.89    8.60
   0   4   4  110.09    9.70
   0   4   4  101.39    9.20
   0   4   4  101.59    9.70
  -1  -4  -4    3.00    2.00
  -1  -4  -4    1.60    2.10
  -1  -4  -4    5.50    2.50
   1   4   4    2.30    1.60
   1   4   4    4.10    1.70
   1   4   4    4.70    2.30
   1   4   4    1.50    2.70
  -2  -4  -4    1.30    1.90
  -2  -4  -4    1.60    2.40
  -2  -4  -4    2.20    1.80
  -2  -4  -4    5.40    2.40
   2   4   4    1.30    2.10
   2   4   4    0.70    2.00
   2   4   4   -1.30    2.60
  -3  -4  -4   15.90    3.00
  -3  -4  -4   18.40    3.80
  -3  -4  -4   16.20    3.40
   3   4   4   15.90    3.40
   3   4   4   19.40    3.00
  -4  -4  -4   41.20    4.00
  -4  -4  -4   37.10    6.20
  -4  -4  -4   54.69    5.90
  -4  -4  -4   40.10    5.20
   4   4   4   43.80    4.50
   4   4   4   37.30    5.70
  -5  -4  -4   61.69    7.80
   5   4   4   50.49    7.20
  -6  -4  -4    3.20    3.90
  -6  -4  -4    9.30    2.90
  -7  -4  -4   81.49   11.00
  -7  -4  -4   87.99    8.30
  -8  -4  -4   68.09   11.00
  -9  -4  -4  127.79   15.80
 -10  -4  -4    3.50    6.80
 -11  -4  -4   10.60    8.30
   8  -5  -4    8.60    4.90
  -8   5   4   15.20    7.70
   7  -5  -4   -3.50    4.30
  -7   5   4    5.00    6.30
   6  -5  -4   -1.50    3.80
  -6   5   4   -4.80    5.40
   5  -5  -4    8.20    4.20
  -5   5   4   16.40    5.90
   4  -5  -4   -0.10    2.80
  -4   5   4    6.20    5.00
   3  -5  -4   10.20    3.50
  -3   5   4   15.80    4.70
   2  -5  -4   49.90    7.10
  -2   5   4   73.09    7.80
   1  -5  -4   80.39    8.90
  -1   5   4   95.99    9.10
   0  -5  -4    0.70    1.80
  -1  -5  -4   75.49    7.60
  -2  -5  -4   98.09    9.60
  -2  -5  -4  110.89    8.80
   2   5   4  101.19    8.60
  -3  -5  -4  175.28   16.00
  -3  -5  -4  159.28   15.10
  -3  -5  -4  191.98   13.50
   3   5   4  188.08   16.20
  -4  -5  -4    9.90    2.60
  -4  -5  -4   12.90    3.60
  -4  -5  -4    7.90    2.70
   4   5   4    9.30    3.30
  -5  -5  -4    9.10    2.80
  -5  -5  -4    7.40    4.00
  -5  -5  -4    4.60    1.70
   5   5   4    7.10    3.30
  -6  -5  -4    0.80    3.00
  -6  -5  -4   -0.90    3.80
  -6  -5  -4    0.70    2.40
  -7  -5  -4    1.20    2.90
  -7  -5  -4   -0.60    4.60
  -8  -5  -4    4.60    5.60
  -9  -5  -4   17.60    7.00
 -10  -5  -4    7.80    6.90
 -11  -5  -4   13.90    8.00
  -8   6   4   13.40    7.60
   7  -6  -4    2.10    4.70
  -7   6   4   11.20    6.90
   6  -6  -4   -0.20    4.40
  -6   6   4    7.70    6.30
   5  -6  -4    6.50    4.40
  -5   6   4   20.00    6.50
   4  -6  -4   54.39    8.40
  -4   6   4   73.19    9.70
   3  -6  -4   28.60    5.80
  -3   6   4   45.10    7.00
   2  -6  -4   43.70    6.90
  -2   6   4   52.79    7.00
   1  -6  -4    9.10    3.30
   0  -6  -4   23.40    4.10
  -1  -6  -4    4.40    2.30
  -2  -6  -4   57.09    6.60
  -3  -6  -4    4.00    2.60
  -3  -6  -4   -0.60    2.40
  -4  -6  -4   23.80    4.00
  -4  -6  -4   24.10    4.20
  -4  -6  -4   26.50    4.30
  -5  -6  -4  117.29    8.90
  -5  -6  -4   94.59   10.30
  -5  -6  -4  102.79   10.90
  -6  -6  -4  112.79   11.70
  -6  -6  -4  128.79   12.90
  -7  -6  -4   24.30    6.30
  -7  -6  -4   17.00    4.20
  -8  -6  -4    1.40    3.30
  -8  -6  -4   11.50    5.90
  -9  -6  -4   11.60    6.40
  -9  -6  -4    9.30    4.40
 -10  -6  -4   29.00    8.60
 -11  -6  -4    9.70    7.10
   7  -7  -4    6.40    5.70
  -7   7   4    7.20    7.20
   6  -7  -4   -5.00    4.30
  -6   7   4    2.80    6.40
   5  -7  -4   -0.10    4.50
  -5   7   4   20.20    6.40
   4  -7  -4    8.30    4.10
  -4   7   4   16.10    6.00
   3  -7  -4    5.50    3.80
  -3   7   4   14.80    5.20
   2  -7  -4   -3.00    2.80
  -2   7   4    5.10    3.60
   1  -7  -4   49.50    7.10
   0  -7  -4   65.79    8.00
  -1  -7  -4   23.30    4.10
  -2  -7  -4    0.60    2.30
  -3  -7  -4    1.60    2.50
  -4  -7  -4    3.20    2.90
  -5  -7  -4    4.30    3.10
  -5  -7  -4   -1.90    2.80
  -5  -7  -4    4.20    3.10
  -6  -7  -4    2.90    3.20
  -6  -7  -4    0.10    3.60
  -7  -7  -4    1.80    4.30
  -7  -7  -4   -1.60    3.20
  -8  -7  -4    4.90    4.00
  -8  -7  -4   11.00    5.10
  -9  -7  -4   18.30    6.40
  -9  -7  -4    6.40    4.20
 -10  -7  -4   28.00    8.00
   6  -8  -4    2.70    5.30
  -6   8   4   22.00    7.70
   5  -8  -4    0.40    4.90
  -5   8   4   17.70    7.10
   4  -8  -4    4.90    5.10
  -4   8   4   12.10    6.30
   3  -8  -4    6.80    4.80
  -3   8   4   16.80    5.30
   2  -8  -4    5.00    4.10
   1  -8  -4    3.60    3.30
   0  -8  -4   17.40    4.40
  -1  -8  -4    5.00    3.00
  -2  -8  -4   11.10    3.70
  -3  -8  -4  232.78   20.10
  -4  -8  -4   16.60    4.50
  -5  -8  -4   19.80    4.90
  -6  -8  -4    7.90    3.90
  -6  -8  -4   14.70    4.10
  -7  -8  -4   51.99    8.20
  -7  -8  -4   64.39    8.50
  -8  -8  -4   11.10    5.40
  -8  -8  -4   -0.10    3.60
  -9  -8  -4    8.20    5.30
  -9  -8  -4   -6.70    3.80
 -10  -8  -4    9.20    6.10
 -10  -8  -4    2.20    4.30
   4  -9  -4    1.20    5.20
   3  -9  -4    3.90    4.40
   2  -9  -4   25.30    5.50
   1  -9  -4   -3.90    2.80
   0  -9  -4    4.00    3.80
  -1  -9  -4    0.00    3.20
  -2  -9  -4    5.40    3.20
  -3  -9  -4   -1.40    2.70
  -4  -9  -4   -1.80    2.80
  -5  -9  -4    3.00    3.80
  -6  -9  -4   15.40    4.60
  -7  -9  -4    2.60    3.90
  -8  -9  -4    2.60    4.50
  -9  -9  -4   -3.30    3.90
   3 -10  -4   -2.50    4.40
   2 -10  -4   -0.40    3.80
   1 -10  -4    5.40    5.00
   0 -10  -4    9.60    4.30
  -1 -10  -4   13.90    4.80
  -2 -10  -4   -5.10    2.90
  -3 -10  -4    2.20    3.50
  -4 -10  -4   19.30    5.60
  -5 -10  -4   15.40    5.50
  -6 -10  -4    9.70    4.60
  -7 -10  -4   -4.70    3.70
  -8 -10  -4   -0.50    4.40
   1 -11  -4    3.30    4.20
   0 -11  -4    2.00    4.10
  -1 -11  -4    0.00    3.90
  -2 -11  -4   -0.10    4.20
  -3 -11  -4    1.90    3.90
  -4 -11  -4   -1.40    3.90
  -5 -11  -4    3.10    4.00
  -6 -11  -4   -6.30    4.20
  -5  -9   5   -1.30    4.20
  -5  -9   5   -3.20    4.20
  -4  -9   5    1.60    4.30
  -4  -9   5    4.00    4.90
  -3  -9   5    8.20    4.90
  -3  -9   5   -1.90    3.50
  -2  -9   5   -0.10    3.90
  -2  -9   5    0.10    4.60
  -1  -9   5    6.10    4.30
  -1  -9   5    9.50    4.80
  -1  -9   5    2.30    3.90
   0  -9   5    0.50    3.40
   0  -9   5    6.00    4.30
   0  -9   5    2.40    4.50
   1  -9   5   -0.80    4.40
   1  -9   5   -3.20    3.00
   1  -9   5    0.20    4.40
  -7  -8   5   18.80    5.80
  -7  -8   5   11.30    5.50
  -6  -8   5    8.50    4.30
  -6  -8   5   15.90    5.60
  -5  -8   5   -3.40    3.90
  -5  -8   5   -1.30    3.50
  -4  -8   5   36.80    7.10
  -4  -8   5   50.19    7.30
  -3  -8   5   46.20    7.00
  -3  -8   5   52.69    8.00
  -3  -8   5   49.99    7.10
  -2  -8   5   21.50    4.50
  -2  -8   5   10.80    4.20
  -2  -8   5   18.20    5.70
  -1  -8   5    6.10    4.50
  -1  -8   5   13.30    4.50
  -1  -8   5    4.20    3.70
   0  -8   5   20.80    5.10
   0  -8   5   15.00    4.30
   0  -8   5   24.00    5.60
  -1   8  -5    7.20    5.70
   1  -8   5    9.10    4.20
   1  -8   5    1.20    3.90
   1  -8   5    4.40    3.50
  -2   8  -5  -11.90    5.50
   2  -8   5   -1.90    4.00
   2  -8   5   -1.80    3.30
   2  -8   5    0.80    4.30
  -3   8  -5   -7.40    6.20
   3  -8   5    3.70    4.70
   3  -8   5   -2.90    3.00
   3  -8   5   -2.00    4.40
  -8  -7   5   -6.40    4.20
  -7  -7   5   -3.00    4.10
  -7  -7   5    0.20    4.40
  -6  -7   5   -0.10    4.20
  -6  -7   5    5.80    4.20
  -5  -7   5   -5.30    3.80
  -5  -7   5    1.00    3.40
  -4  -7   5    6.30    4.10
  -4  -7   5   -0.60    3.30
  -4  -7   5    0.70    2.70
  -3  -7   5    5.50    4.20
  -3  -7   5    2.00    3.60
  -3  -7   5   11.90    3.40
  -2  -7   5    2.60    2.60
  -2  -7   5   -0.30    3.80
  -2  -7   5    1.10    3.00
  -1  -7   5   13.30    4.40
  -1  -7   5   10.30    3.60
  -1  -7   5   16.50    4.00
   0  -7   5   16.80    4.00
   0  -7   5   19.00    4.70
   0  -7   5   15.60    4.20
  -1   7  -5   35.20    6.90
   1  -7   5   20.80    4.20
   1  -7   5   23.80    5.00
   1  -7   5   22.80    5.00
  -2   7  -5    1.10    5.50
   2  -7   5    1.00    3.40
   2  -7   5    2.40    4.00
   2  -7   5    0.90    3.40
  -3   7  -5   -2.50    5.80
   3  -7   5   -1.50    3.60
   3  -7   5   -3.10    3.60
   3  -7   5   -0.80    3.90
  -4   7  -5    2.80    6.80
   4  -7   5    5.60    3.30
   4  -7   5    5.10    4.20
   4  -7   5   -4.60    4.30
  -5   7  -5   -1.90    6.90
   5  -7   5    1.80    3.50
   5  -7   5    2.00    4.10
  -9  -6   5    1.70    7.00
  -9  -6   5   -6.70    4.50
  -8  -6   5   -5.70    4.10
  -8  -6   5   -1.40    4.60
  -7  -6   5   18.50    4.90
  -7  -6   5    9.90    4.60
  -6  -6   5   55.39    8.10
  -5  -6   5   36.70    6.40
  -5  -6   5   48.90    6.20
  -4  -6   5   46.50    6.10
  -4  -6   5   40.40    6.50
  -3  -6   5   27.40    4.60
  -3  -6   5   28.60    5.70
   2   6  -5    1.20    1.90
  -2  -6   5    0.80    2.20
  -2  -6   5   -1.30    2.70
  -2  -6   5    0.40    3.40
  -1  -6   5   13.20    3.30
  -1  -6   5    5.30    4.20
  -1  -6   5   12.40    4.00
   0  -6   5    1.50    2.70
   0  -6   5    1.50    3.40
   0  -6   5    4.80    3.20
  -1   6  -5   13.10    5.70
   1  -6   5   16.10    4.00
   1  -6   5   13.90    4.60
   1  -6   5   17.70    4.40
  -2   6  -5   -2.40    4.60
   2  -6   5   -0.70    2.70
   2  -6   5   -5.10    2.90
   2  -6   5   -2.90    3.30
  -3   6  -5   -2.60    5.60
   3  -6   5   -4.30    3.40
   3  -6   5    0.70    3.60
   3  -6   5    7.90    3.70
  -4   6  -5    5.30    6.20
   4  -6   5    6.80    4.10
   4  -6   5   10.40    3.60
  -5   6  -5   -0.60    6.10
   5  -6   5   -5.80    3.40
   5  -6   5   -1.50    3.10
  -6   6  -5   -1.70    6.80
   6  -6   5   -7.70    3.00
   6  -6   5   -6.60    4.10
  -9  -5   5   -4.60    5.70
  -9  -5   5    0.80    5.00
  -8  -5   5   -6.80    3.90
  -8  -5   5   -5.80    3.80
  -7  -5   5   -1.00    3.90
  -7  -5   5   -6.00    3.60
  -6  -5   5   14.10    4.40
  -6  -5   5   13.30    4.60
  -5  -5   5    1.10    4.00
  -5  -5   5    4.00    3.10
  -4  -5   5   26.70    4.40
  -4  -5   5   13.20    4.80
  -3  -5   5    9.10    2.90
  -3  -5   5    7.20    3.50
  -2  -5   5  212.38   16.40
  -2  -5   5  222.58   17.90
   1   5  -5    2.60    1.80
  -1  -5   5    8.40    2.50
  -1  -5   5    3.20    2.70
  -1  -5   5    5.50    3.50
   0   5  -5    1.10    1.50
   0   5  -5   -4.40    4.10
   0  -5   5    4.50    2.90
   0  -5   5    4.80    2.70
   0  -5   5    0.60    3.30
  -1   5  -5   25.40    5.80
   1  -5   5   18.50    3.70
   1  -5   5   28.30    4.40
   1  -5   5   24.00    4.70
  -2   5  -5   96.69   11.60
   2  -5   5   84.19    9.70
   2  -5   5   97.89    9.60
   2  -5   5  107.09    9.20
  -3   5  -5   -0.90    5.00
   3  -5   5   -0.50    2.70
   3  -5   5   -3.60    3.00
   3  -5   5   -0.80    3.10
  -4   5  -5   -2.70    5.40
   4  -5   5   -1.30    3.10
   4  -5   5   -0.10    3.10
  -5   5  -5    7.60    6.20
   5  -5   5   -3.10    3.30
   5  -5   5   -2.00    3.00
  -6   5  -5   -4.50    5.70
   6  -5   5   -6.50    3.60
   6  -5   5   -7.40    3.30
  -7   5  -5    3.90    6.70
   7  -5   5    2.30    3.50
 -10  -4   5    8.70    6.20
 -10  -4   5   -1.90    6.90
  -9  -4   5   26.80    6.90
  -9  -4   5   51.29   10.70
  -8  -4   5    8.40    4.40
  -8  -4   5    8.00    2.90
  -8  -4   5    0.60    4.40
  -7  -4   5   38.70    5.90
  -7  -4   5   19.90    5.40
  -7  -4   5   29.20    4.40
  -6  -4   5   13.50    4.10
  -6  -4   5   11.20    4.30
  -5  -4   5   99.39   10.20
  -5  -4   5  100.19    9.10
  -4  -4   5   34.10    6.00
  -4  -4   5   36.50    5.00
  -3  -4   5   35.30    5.70
  -3  -4   5   35.00    4.70
  -2  -4   5    9.80    3.40
  -2  -4   5    8.10    2.70
   1   4  -5   28.00    3.40
  -1  -4   5   29.70    4.20
  -1  -4   5   33.80    5.30
   0   4  -5   16.30    2.50
   0   4  -5   22.60    5.60
   0  -4   5   20.80    3.60
   0  -4   5   13.90    3.70
   0  -4   5   18.30    3.40
  -1   4  -5  285.37   27.30
  -1   4  -5  275.17   23.90
   1  -4   5  305.07   23.20
   1  -4   5  306.37   21.90
   1  -4   5  330.77   24.30
  -2   4  -5   47.50    7.50
   2  -4   5   29.20    4.60
   2  -4   5   22.40    4.20
  -3   4  -5   14.70    5.70
   3  -4   5    9.80    3.40
   3  -4   5   11.40    3.50
  -4   4  -5   41.80    8.20
   4  -4   5   24.00    4.40
   4  -4   5   24.70    4.60
  -5   4  -5   62.19   10.00
   5  -4   5   58.49    7.10
   5  -4   5   63.69    7.70
  -6   4  -5    2.70    5.60
   6  -4   5    2.20    3.30
   6  -4   5   -1.60    3.80
  -7   4  -5   -4.10    5.70
   7  -4   5    0.60    3.30
  -8   4  -5   16.10    7.30
   8  -4   5    5.80    4.10
 -10  -3   5   -5.40    6.60
 -10  -3   5   -5.40    5.80
  -9  -3   5    3.80    6.10
  -9  -3   5   -0.40    4.30
  -9  -3   5   -0.30    5.00
  -8  -3   5   -4.90    4.20
  -8  -3   5   -5.30    5.20
  -8  -3   5    1.20    4.30
  -7  -3   5   -1.10    3.60
  -7  -3   5   -1.10    3.60
  -6  -3   5   65.69    7.60
  -6  -3   5   67.59    8.50
  -5  -3   5  110.79    9.50
  -5  -3   5  105.39   10.60
  -4  -3   5   66.79    6.70
  -4  -3   5   62.89    7.60
  -3  -3   5    0.20    2.40
  -3  -3   5    3.00    2.50
  -2  -3   5   57.39    6.00
  -2  -3   5   64.59    7.10
  -1  -3   5  191.88   15.00
  -1  -3   5  174.58   13.70
   0   3  -5   75.69    6.80
   0   3  -5   85.29    9.20
   0  -3   5   86.29    7.90
   0  -3   5   75.29    7.20
  -1   3  -5    6.00    3.60
  -1   3  -5    3.00    1.50
   1  -3   5    7.80    2.60
   1  -3   5    8.80    2.70
  -2   3  -5    5.70    2.10
  -2   3  -5   16.20    4.60
   2  -3   5    7.40    2.60
   2  -3   5    9.20    2.80
  -3   3  -5    7.90    4.80
   3  -3   5   11.40    3.20
   3  -3   5   10.20    3.20
  -4   3  -5   -2.00    3.90
   4  -3   5   -0.80    2.50
   4  -3   5    0.00    2.80
  -5   3  -5   19.10    6.10
   5  -3   5   12.50    4.00
   5  -3   5   17.80    4.00
  -6   3  -5    1.70    5.00
   6  -3   5   -5.70    3.50
   6  -3   5    1.60    3.20
  -7   3  -5    1.80    5.50
   7  -3   5   -2.10    3.10
  -8   3  -5    4.50    6.40
   8  -3   5   -0.30    3.60
  -9   3  -5    5.50    6.20
   9  -3   5   -1.00    4.20
 -10  -2   5   17.50    7.30
 -10  -2   5    4.10    6.70
  -9  -2   5    1.80    6.10
  -9  -2   5   -7.80    4.10
  -9  -2   5   -1.80    5.10
  -8  -2   5    4.70    5.00
  -8  -2   5   13.00    6.20
  -8  -2   5   12.10    4.50
  -7  -2   5   14.20    5.20
  -7  -2   5    8.10    4.40
  -6  -2   5    1.80    3.50
  -6  -2   5    1.60    2.00
  -6  -2   5   -1.60    3.30
  -5  -2   5   13.00    3.80
  -5  -2   5   12.00    4.10
  -4  -2   5   36.60    5.70
  -4  -2   5   49.50    5.40
  -3  -2   5    8.50    2.70
  -3  -2   5    6.80    3.20
  -2  -2   5  175.48   13.20
  -2  -2   5  172.78   14.30
  -1  -2   5    6.20    2.90
  -1  -2   5    4.90    2.20
   0   2  -5   18.30    4.90
   0  -2   5   15.90    2.80
   0  -2   5   20.60    3.50
  -1   2  -5   23.20    3.30
  -1   2  -5   27.20    5.50
   1  -2   5   24.70    3.60
   1  -2   5   22.70    3.90
  -2   2  -5  772.42   69.09
  -2   2  -5  802.22   61.69
   2  -2   5  798.52   58.19
   2  -2   5  804.52   54.69
  -3   2  -5   61.39    8.70
   3  -2   5   56.09    6.30
   3  -2   5   68.59    6.80
  -4   2  -5  179.38   17.90
   4  -2   5  186.98   14.70
   4  -2   5  172.78   13.80
  -5   2  -5    4.60    4.90
   5  -2   5    3.80    2.90
   5  -2   5    2.20    3.10
  -6   2  -5   10.00    5.10
   6  -2   5    1.60    3.10
   6  -2   5    2.70    3.40
  -7   2  -5    7.30    5.30
   7  -2   5    1.90    3.60
  -8   2  -5    8.20    6.50
   8  -2   5    7.20    4.00
  -9   2  -5    9.80    6.40
   9  -2   5   -0.90    3.90
 -10  -1   5   -2.30    6.70
  -9  -1   5   -0.60    4.10
  -9  -1   5   -5.60    5.10
  -9  -1   5   -3.60    5.30
  -8  -1   5    8.30    4.20
  -8  -1   5    2.40    5.20
  -8  -1   5    3.50    4.60
  -7  -1   5   25.70    6.90
  -7  -1   5   17.00    5.10
  -7  -1   5   32.70    5.00
  -6  -1   5   -3.10    3.20
  -6  -1   5    1.40    1.80
  -6  -1   5    0.40    3.90
  -5  -1   5   56.19    7.80
  -5  -1   5   67.39    7.10
  -5  -1   5   64.59    6.00
  -4  -1   5   23.40    4.10
  -4  -1   5   17.50    4.00
  -3  -1   5  148.99   13.00
  -3  -1   5  165.68   12.30
  -2  -1   5    0.70    1.70
  -2  -1   5    0.00    1.80
  -1  -1   5    0.90    2.00
  -1  -1   5    2.60    2.10
   0   1  -5   18.20    3.20
   0   1  -5   31.20    5.20
   0  -1   5   20.10    3.50
   0  -1   5   24.40    3.70
  -1   1  -5   -1.50    2.70
  -1   1  -5    1.20    1.40
  -1   1  -5   -1.50    1.70
   1  -1   5    0.30    1.80
   1  -1   5    0.20    1.90
  -2   1  -5    5.10    1.90
  -2   1  -5    8.30    3.60
  -2   1  -5   12.00    2.70
   2  -1   5    4.90    2.30
   2  -1   5    5.70    2.20
  -3   1  -5    9.00    2.40
  -3   1  -5   13.60    4.20
  -3   1  -5   14.60    2.90
   3  -1   5   15.20    3.10
   3  -1   5   16.10    2.90
  -4   1  -5   13.50    4.70
   4  -1   5    9.50    3.00
   4  -1   5   16.80    3.30
  -5   1  -5    1.70    4.00
   5  -1   5    3.00    2.60
   5  -1   5    7.00    2.80
  -6   1  -5   -0.50    4.70
   6  -1   5    4.90    3.00
  -7   1  -5    0.00    4.90
   7  -1   5    4.80    3.40
  -8   1  -5    2.00    5.30
   8  -1   5    4.80    3.80
  -9   1  -5   13.60    7.00
   9  -1   5    9.70    4.40
 -10   1  -5    3.70    7.20
 -10   0   5    8.20    7.30
  -9   0   5    1.50    5.50
  -9   0   5    4.00    5.80
  -8   0   5    0.80    4.80
  -8   0   5    8.30    4.20
  -8   0   5    0.00    4.80
  -7   0   5    2.60    4.50
  -7   0   5    2.10    3.80
  -7   0   5    9.70    5.30
  -6   0   5   10.10    4.40
  -6   0   5    9.50    3.60
  -5   0   5   71.29    8.10
  -5   0   5   66.09    7.30
  -5   0   5   64.99    6.40
  -4   0   5   13.50    3.30
  -4   0   5   10.10    3.50
  -4   0   5   10.80    2.00
  -3   0   5   73.89    6.30
  -3   0   5   75.19    7.90
  -3   0   5   66.99    6.70
   2   0  -5  268.37   18.70
  -2   0   5  254.17   20.20
  -2   0   5  254.57   18.80
   1   0  -5  530.85   36.60
   1   0  -5  535.95   39.10
  -1   0   5  464.35   39.20
  -1   0   5  599.14   37.00
  -1   0   5  521.45   46.10
   0   0  -5  368.26   36.80
   0   0  -5  406.36   31.20
   0   0  -5  408.36   29.20
   0   0  -5  454.55   32.50
   0   0   5  445.56   29.50
   0   0   5  391.56   36.70
   0   0   5  463.95   31.50
  -1   0  -5  557.34   49.10
  -1   0  -5  543.05   41.30
  -1   0  -5  570.04   38.90
   1   0   5  598.74   41.60
   1   0   5  568.64   39.00
   1   0   5  542.55   49.00
  -2   0  -5  247.48   19.80
  -2   0  -5  246.08   23.80
  -2   0  -5  259.67   18.70
   2   0   5  278.87   18.90
   2   0   5  279.17   20.20
  -3   0  -5   70.69    6.40
  -3   0  -5   78.49    9.00
  -3   0  -5   77.49    7.10
   3   0   5   74.79    6.80
   3   0   5   79.99    7.50
  -4   0  -5   14.30    2.80
  -4   0  -5   14.90    4.40
   4   0   5   12.50    3.00
   4   0   5    8.60    2.70
  -5   0  -5   79.69   10.20
  -5   0  -5   86.99    7.40
   5   0   5   86.59    7.60
   5   0   5   77.59    7.70
  -6   0  -5   13.90    5.40
   6   0   5   14.10    3.60
  -7   0  -5    7.50    5.90
   7   0   5   11.90    3.70
  -8   0  -5    2.90    6.00
   8   0   5   -1.60    3.40
  -9   0  -5   10.70    7.20
   9   0   5    8.70    4.20
 -10   0  -5    6.60    7.40
 -10   1   5    2.10    6.70
  -9   1   5   12.10    7.20
  -9   1   5   19.60    6.40
  -8   1   5   -1.40    4.40
  -8   1   5   -0.20    5.20
  -7   1   5    1.10    3.50
  -7   1   5    1.40    4.50
  -7   1   5   -1.30    4.30
   6  -1  -5   13.30    3.50
  -6   1   5   13.30    3.90
  -6   1   5   11.90    5.40
  -6   1   5   11.10    4.50
   5  -1  -5   53.89    6.30
  -5   1   5   45.90    5.70
  -5   1   5   45.20    6.20
  -5   1   5   65.59    7.40
   4  -1  -5    5.90    2.50
  -4   1   5    5.30    1.80
  -4   1   5    5.40    3.20
  -4   1   5    6.40    2.80
   3  -1  -5    3.30    1.80
  -3   1   5    3.40    1.60
  -3   1   5    3.60    3.00
  -3   1   5    4.70    2.60
   2  -1  -5    6.00    1.70
  -2   1   5    6.20    1.50
  -2   1   5    1.70    3.00
  -2   1   5    6.10    2.70
   1  -1  -5    1.70    1.70
   1  -1  -5    2.70    2.30
   1  -1  -5    2.00    1.40
  -1   1   5    3.20    2.80
  -1   1   5    1.90    2.60
  -1   1   5    2.80    2.10
  -1   1   5    2.10    1.20
   0  -1  -5    6.10    1.90
   0  -1  -5    9.70    2.70
   0  -1  -5   10.90    1.90
   0   1   5    9.80    2.40
   0   1   5   11.10    3.10
   0   1   5   12.60    3.10
  -1  -1  -5   16.30    3.60
  -1  -1  -5   10.70    2.90
  -1  -1  -5   12.90    2.20
  -1  -1  -5   14.60    2.70
   1   1   5   20.50    3.90
   1   1   5   14.20    2.90
   1   1   5   16.00    3.40
  -2  -1  -5   47.70    6.50
  -2  -1  -5   40.20    4.50
  -2  -1  -5   48.30    5.30
   2   1   5   42.60    5.00
   2   1   5   44.30    5.60
   2   1   5   42.40    5.60
  -3  -1  -5  136.39   13.20
  -3  -1  -5  151.28   11.00
   3   1   5  133.29   11.00
   3   1   5  109.29   10.20
  -4  -1  -5  225.18   16.30
  -4  -1  -5  186.88   15.10
  -4  -1  -5  218.88   20.00
   4   1   5  214.28   15.50
   4   1   5  209.38   16.30
  -5  -1  -5   29.60    3.80
  -5  -1  -5   19.70    5.60
   5   1   5   32.10    4.20
   5   1   5   23.70    3.40
  -6  -1  -5   20.00    5.90
  -7  -1  -5  327.57   32.50
   7   1   5  366.76   25.00
  -8  -1  -5    5.50    6.10
   8   1   5    6.50    3.30
  -9  -1  -5    3.50    6.70
   9   1   5    8.50    3.90
 -10  -1  -5   11.70    8.10
  -9   2   5   22.30    6.40
  -9   2   5   10.20    7.30
  -8   2   5    9.40    6.40
  -8   2   5   10.10    5.10
   7  -2  -5   32.20    5.40
  -7   2   5   27.60    6.00
  -7   2   5   27.90    7.10
   6  -2  -5  276.57   24.10
  -6   2   5  308.47   23.50
  -6   2   5  273.87   27.30
  -6   2   5  311.77   21.80
   5  -2  -5  140.29   12.90
  -5   2   5  143.49   14.80
  -5   2   5  150.68   12.90
  -5   2   5  133.29   11.70
   4  -2  -5   39.30    5.50
  -4   2   5   57.69    6.60
  -4   2   5   31.40    4.60
  -4   2   5   38.90    4.90
   3  -2  -5  260.97   19.70
  -3   2   5  231.48   19.20
  -3   2   5  233.88   17.80
  -3   2   5  239.38   19.50
   2  -2  -5 2354.06  177.78
  -2   2   5 2405.46  177.68
  -2   2   5 2277.27  167.58
  -2   2   5 2244.78  157.18
   1  -2  -5   86.29    7.90
   1  -2  -5   98.69    9.00
   1  -2  -5   98.29    8.60
  -1   2   5  101.49    8.50
  -1   2   5   91.49    9.80
  -1   2   5  115.09    9.30
  -1   2   5  100.09    8.30
   0  -2  -5  430.46   32.40
   0  -2  -5  415.06   30.20
   0  -2  -5  486.25   34.00
   0   2   5  458.05   33.90
   0   2   5  418.46   30.40
   0   2   5  413.96   32.50
   0   2   5  414.26   37.80
  -1  -2  -5  771.62   55.19
  -1  -2  -5  849.91   62.49
  -1  -2  -5  789.22   58.99
  -1  -2  -5  779.12   69.59
   1   2   5  847.22   59.29
   1   2   5  835.22   55.39
   1   2   5  789.42   69.59
  -2  -2  -5   88.29    7.90
  -2  -2  -5   84.99    9.10
  -2  -2  -5   80.89    6.80
  -2  -2  -5   88.39    7.80
   2   2   5   74.89    8.60
   2   2   5   89.69    7.30
   2   2   5   92.39    8.20
  -3  -2  -5  537.65   36.40
  -3  -2  -5  483.55   46.00
  -3  -2  -5  545.75   38.90
   3   2   5  516.95   46.00
   3   2   5  542.45   39.00
   3   2   5  537.45   36.50
  -4  -2  -5  388.76   35.80
  -4  -2  -5  391.26   28.00
  -4  -2  -5  416.66   30.00
   4   2   5  429.96   28.30
   4   2   5  390.06   30.00
  -5  -2  -5   17.60    2.80
  -5  -2  -5   22.70    3.50
  -5  -2  -5   19.90    5.30
   5   2   5   18.10    3.40
   5   2   5   21.80    3.40
  -6  -2  -5   25.10    6.50
   6   2   5   17.20    3.60
  -7  -2  -5    2.50    5.90
   7   2   5   10.40    3.30
  -8  -2  -5   42.60    9.60
   8   2   5   44.60    5.60
  -9  -2  -5    5.70    7.40
 -10  -2  -5  118.49   16.00
 -11  -2  -5   21.80    9.40
  -9   3   5  127.09   16.40
   8  -3  -5    5.80    4.20
  -8   3   5   15.10    7.20
  -8   3   5   13.00    5.20
  -7   3   5   71.39   10.90
  -7   3   5   65.79    9.00
   6  -3  -5    4.00    3.50
  -6   3   5    1.50    4.00
  -6   3   5    8.80    5.00
   5  -3  -5   22.20    4.50
  -5   3   5   32.00    4.80
  -5   3   5   41.20    7.10
  -5   3   5   22.20    4.90
   4  -3  -5    1.70    2.50
  -4   3   5    1.50    3.90
  -4   3   5   -0.70    3.00
  -4   3   5    2.80    2.50
   3  -3  -5    1.80    2.30
  -3   3   5   11.60    3.60
  -3   3   5    5.00    2.40
   2  -3  -5   21.20    3.60
  -2   3   5   26.50    4.50
  -2   3   5   24.30    3.90
  -2   3   5   29.00    3.80
   1  -3  -5   12.30    2.60
  -1   3   5    9.00    2.20
  -1   3   5   16.60    3.60
  -1   3   5   10.60    2.80
   0  -3  -5  117.29   10.00
   0  -3  -5   90.59    8.90
   0   3   5  103.99    9.60
   0   3   5  105.69    9.10
   0   3   5  134.59   11.00
   0   3   5  130.19   10.40
  -1  -3  -5  670.13   53.99
  -1  -3  -5  794.72   57.19
  -1  -3  -5  632.54   50.39
   1   3   5  798.42   63.39
   1   3   5  754.42   50.59
   1   3   5  767.02   54.19
  -2  -3  -5    4.10    1.80
  -2  -3  -5   13.90    3.50
  -2  -3  -5    7.70    2.20
  -2  -3  -5    9.50    2.60
   2   3   5   10.10    2.80
   2   3   5    9.60    2.50
   2   3   5    6.70    2.80
  -3  -3  -5    0.80    2.00
  -3  -3  -5    0.60    1.50
  -3  -3  -5    1.10    2.90
  -3  -3  -5    2.60    2.30
   3   3   5    3.70    2.30
   3   3   5    1.30    2.40
   3   3   5   -0.10    2.10
  -5  -3  -5  258.27   18.50
  -5  -3  -5  205.78   16.80
  -5  -3  -5  259.07   22.40
   5   3   5  236.48   17.20
  -6  -3  -5   52.59    8.80
  -6  -3  -5   49.20    6.00
   6   3   5   55.59    5.50
  -7  -3  -5   73.09   10.70
  -8  -3  -5  160.78   17.90
  -9  -3  -5  114.29   15.20
 -10  -3  -5   14.00    8.10
 -11  -3  -5   16.20    8.90
  -9   4   5    9.20    7.30
   8  -4  -5   -0.60    4.10
  -8   4   5    8.00    6.70
   7  -4  -5    4.30    4.10
  -7   4   5   14.10    6.90
   6  -4  -5  436.66   39.20
  -6   4   5  522.25   37.30
  -6   4   5  502.95   44.10
   5  -4  -5  413.16   35.50
  -5   4   5  466.55   39.80
  -5   4   5  437.76   33.60
   4  -4  -5  770.22   61.09
  -4   4   5  778.42   57.59
  -4   4   5  727.73   53.89
  -4   4   5  833.32   67.99
   3  -4  -5   98.19    9.10
  -3   4   5   94.59   10.00
  -3   4   5   79.09    8.70
  -3   4   5   70.09    7.90
   2  -4  -5  177.98   14.20
  -2   4   5  156.38   13.70
  -2   4   5  149.19   12.50
   1  -4  -5  327.97   27.20
  -1   4   5  330.67   24.20
  -1   4   5  360.26   26.10
   0  -4  -5  762.12   56.79
   0   4   5  767.92   62.59
   0   4   5  673.43   50.09
   0   4   5  706.63   53.69
  -1  -4  -5  157.98   13.30
   1   4   5  147.19   11.80
   1   4   5  154.58   14.10
   1   4   5  163.18   13.10
  -2  -4  -5  226.58   16.60
  -2  -4  -5  233.18   20.30
  -2  -4  -5  235.68   18.70
   2   4   5  227.58   17.90
   2   4   5  214.78   20.20
   2   4   5  225.88   16.60
  -3  -4  -5  357.66   28.70
  -3  -4  -5  353.76   27.80
  -3  -4  -5  353.76   31.50
  -3  -4  -5  357.96   25.10
   3   4   5  382.46   25.30
   3   4   5  360.46   31.50
   3   4   5  342.27   27.20
  -4  -4  -5 1053.29   91.69
  -4  -4  -5  968.30   72.49
  -4  -4  -5 1108.59   77.89
  -4  -4  -5 1075.69   82.79
   4   4   5 1167.38   72.69
   4   4   5 1028.70   91.69
  -5  -4  -5  432.56   32.70
  -5  -4  -5  429.36   38.50
  -5  -4  -5  408.66   30.00
   5   4   5  467.05   30.30
  -6  -4  -5   63.39    6.90
  -6  -4  -5   63.69    9.10
  -7  -4  -5   19.80    6.90
  -7  -4  -5   17.80    3.70
  -8  -4  -5  332.57   31.50
  -9  -4  -5   80.99   12.50
 -10  -4  -5    1.40    7.00
 -11  -4  -5   31.60    9.80
   8  -5  -5    6.40    4.70
  -8   5   5    5.20    6.80
   7  -5  -5   33.40    6.80
  -7   5   5   40.70    8.90
   6  -5  -5   -0.30    4.00
  -6   5   5   -0.60    5.50
   5  -5  -5    1.30    3.80
  -5   5   5    7.00    5.40
  -4   5   5   58.19    7.90
  -4   5   5   53.59    9.00
   3  -5  -5   89.79   11.30
  -3   5   5  140.49   12.70
  -3   5   5  123.39   11.30
   2  -5  -5  120.59   11.90
  -2   5   5  149.39   12.00
  -2   5   5  116.39   10.50
   1  -5  -5  430.16   35.00
  -1   5   5  411.36   30.90
  -1   5   5  470.45   33.30
   0  -5  -5  130.89   13.10
   0   5   5  158.48   12.00
   0   5   5  142.59   13.10
   0   5   5  168.48   13.80
  -1  -5  -5   18.60    3.60
   1   5   5   22.00    3.30
   1   5   5   26.10    4.70
   1   5   5   18.10    3.40
  -2  -5  -5  101.79   11.30
   2   5   5  146.09   10.40
   2   5   5  136.49   11.80
  -3  -5  -5  232.78   19.90
  -3  -5  -5  215.68   16.40
  -3  -5  -5  204.68   18.50
   3   5   5  215.98   16.30
   3   5   5  236.98   20.00
  -4  -5  -5    4.30    1.80
  -4  -5  -5   10.00    3.40
  -4  -5  -5    3.70    2.50
   4   5   5    5.90    2.50
   4   5   5    7.60    3.10
  -5  -5  -5    1.00    1.60
  -5  -5  -5    3.00    3.50
  -5  -5  -5    5.30    2.90
   5   5   5    0.30    2.40
   5   5   5   -0.50    3.20
  -6  -5  -5   10.80    4.80
  -6  -5  -5    5.90    3.00
  -7  -5  -5   16.70    4.30
  -7  -5  -5   26.60    6.60
  -8  -5  -5   96.09   12.30
  -9  -5  -5   85.59   12.30
 -10  -5  -5   12.70    7.50
 -11  -5  -5    7.70    7.40
   7  -6  -5   31.70    6.80
  -7   6   5   59.09   10.70
   6  -6  -5    3.30    4.40
  -6   6   5    9.40    6.60
   5  -6  -5   76.69   10.60
  -5   6   5  101.69   12.10
   4  -6  -5  249.88   23.30
  -4   6   5  291.27   25.70
   3  -6  -5  312.77   29.50
  -3   6   5  399.76   32.40
   2  -6  -5  190.08   18.50
  -2   6   5  234.28   20.00
   1  -6  -5    5.60    3.30
  -1   6   5   11.10    3.50
   0  -6  -5   48.20    6.20
  -1  -6  -5   19.00    3.70
  -2  -6  -5   36.00    5.50
  -3  -6  -5   18.70    4.10
  -4  -6  -5   31.50    4.70
  -4  -6  -5   19.60    4.00
  -4  -6  -5   18.00    4.40
   4   6   5   32.20    5.00
  -5  -6  -5  578.84   41.90
  -5  -6  -5  620.74   52.89
  -5  -6  -5  581.04   48.20
   5   6   5  649.04   53.09
  -6  -6  -5   88.19   10.10
  -6  -6  -5  100.39   11.00
  -7  -6  -5  142.09   14.50
  -7  -6  -5  168.18   16.40
  -8  -6  -5   -4.70    3.30
  -8  -6  -5    7.30    5.40
  -9  -6  -5  101.59   12.30
  -9  -6  -5   73.19   10.20
 -10  -6  -5   20.70    7.50
   6  -7  -5    5.60    5.00
  -6   7   5   10.60    6.60
   5  -7  -5   13.50    5.20
  -5   7   5   28.60    7.80
   4  -7  -5   85.19   10.40
   3  -7  -5    2.90    3.80
  -3   7   5    3.50    4.80
   2  -7  -5    8.50    4.50
  -2   7   5   23.40    5.00
   1  -7  -5   37.90    5.90
   0  -7  -5  310.77   25.70
  -1  -7  -5   58.49    7.30
  -2  -7  -5   18.10    3.90
  -3  -7  -5   10.40    3.50
  -4  -7  -5    3.30    3.30
  -5  -7  -5    6.90    3.50
  -5  -7  -5    9.70    3.70
  -5  -7  -5    4.10    3.50
  -6  -7  -5    5.00    3.40
  -6  -7  -5   11.20    4.10
  -7  -7  -5   -3.80    4.20
  -7  -7  -5   -0.70    3.30
  -8  -7  -5   44.10    7.80
  -8  -7  -5   25.40    5.80
  -9  -7  -5    9.90    4.50
  -9  -7  -5   24.80    6.50
 -10  -7  -5   35.90    6.80
   5  -8  -5    3.60    4.80
  -5   8   5   19.80    7.50
   4  -8  -5    2.40    4.40
  -4   8   5   25.50    6.90
  -3   8   5   33.10    6.70
   2  -8  -5   11.20    4.90
   1  -8  -5   -0.80    3.20
   0  -8  -5   27.80    5.20
  -1  -8  -5   13.70    3.80
  -2  -8  -5   12.40    3.60
  -3  -8  -5  202.38   17.90
  -4  -8  -5   26.20    5.50
  -5  -8  -5   13.50    4.20
  -6  -8  -5   27.60    5.80
  -6  -8  -5   39.10    6.30
  -7  -8  -5   19.60    5.30
  -8  -8  -5    7.20    4.30
  -8  -8  -5   23.10    6.00
  -9  -8  -5    1.40    4.40
  -9  -8  -5    4.60    5.60
   4  -9  -5   11.80    5.30
   3  -9  -5    9.30    5.20
   2  -9  -5   34.50    7.10
   1  -9  -5   -3.10    3.30
   0  -9  -5    2.90    3.60
  -1  -9  -5    1.50    3.10
  -2  -9  -5    5.40    3.60
  -3  -9  -5    3.40    3.50
  -4  -9  -5   -0.70    3.10
  -5  -9  -5    3.70    3.70
  -6  -9  -5   11.90    4.60
  -7  -9  -5    1.00    3.90
  -8  -9  -5    0.50    4.10
  -9  -9  -5    5.20    4.40
   3 -10  -5    1.70    4.40
   2 -10  -5    4.10    5.20
   1 -10  -5    0.40    3.90
   0 -10  -5   12.70    4.80
  -1 -10  -5   25.60    6.00
  -2 -10  -5    7.00    3.80
  -3 -10  -5    1.20    3.90
  -4 -10  -5   21.20    5.20
  -5 -10  -5    6.80    4.60
  -6 -10  -5    5.10    4.30
  -7 -10  -5   -0.30    4.20
  -8 -10  -5   -0.20    4.10
   0 -11  -5    3.50    4.40
  -1 -11  -5    9.00    4.70
  -2 -11  -5    2.00    3.80
  -3 -11  -5    6.80    4.10
  -4 -11  -5   -0.90    3.70
  -5 -11  -5   -0.20    4.30
  -6 -11  -5   -3.40    4.20
  -2  -9   6    7.10    4.00
  -6  -8   6   18.50    5.60
  -6  -8   6   -0.60    4.60
  -5  -8   6   12.80    4.50
  -5  -8   6    9.30    5.90
  -4  -8   6   12.00    5.60
  -4  -8   6   19.90    4.90
  -3  -8   6  122.59   10.80
  -3  -8   6   89.19   11.50
  -2  -8   6   24.30    6.30
  -2  -8   6   34.80    6.20
  -1  -8   6   13.50    5.40
  -1  -8   6   21.50    5.60
   0  -8   6    2.70    3.20
   0  -8   6    1.50    3.80
   0  -8   6    8.00    4.80
   1  -8   6   34.30    5.80
   1  -8   6   53.19    7.70
   1  -8   6   48.30    7.90
  -2   8  -6    7.70    7.00
   2  -8   6    0.40    4.60
   2  -8   6    6.70    4.50
   2  -8   6    2.60    4.30
  -7  -7   6    9.80    5.20
  -7  -7   6   -1.30    4.30
  -6  -7   6   -7.50    3.70
  -6  -7   6   -0.10    4.40
  -5  -7   6   -2.10    3.80
  -5  -7   6    2.70    3.30
  -4  -7   6   32.80    5.50
  -4  -7   6   33.90    6.10
  -3  -7   6    1.90    3.60
  -3  -7   6   -0.20    3.30
  -2  -7   6   -4.00    3.70
  -2  -7   6    0.10    2.90
  -1  -7   6    0.50    3.00
  -1  -7   6    4.20    3.80
  -1  -7   6    5.10    3.80
   0  -7   6  102.89   11.30
   0  -7   6  146.09   12.80
   0  -7   6  144.99   12.90
  -1   7  -6    9.00    5.60
   1  -7   6    4.80    3.80
   1  -7   6    5.00    3.60
   1  -7   6    1.00    3.60
  -2   7  -6    3.30    5.60
   2  -7   6   -3.50    3.60
   2  -7   6    1.30    3.60
   2  -7   6    0.40    3.40
  -3   7  -6    5.10    6.70
   3  -7   6    1.70    3.70
   3  -7   6    0.50    3.90
  -4   7  -6   31.00    8.50
   4  -7   6   12.90    4.10
   4  -7   6   18.10    5.20
  -8  -6   6    2.80    5.20
  -8  -6   6   -6.90    4.30
  -7  -6   6   94.69    9.80
  -7  -6   6   71.49   10.20
  -6  -6   6    5.10    4.10
  -6  -6   6    1.80    3.90
  -5  -6   6  179.18   16.60
  -5  -6   6  194.68   15.10
  -4  -6   6   18.90    4.90
  -4  -6   6   23.80    4.60
  -3  -6   6   41.40    6.00
  -3  -6   6   32.50    5.70
  -2  -6   6   30.30    4.90
  -2  -6   6   24.80    5.60
  -1  -6   6   20.70    5.00
  -1  -6   6   15.80    3.90
  -1  -6   6   24.00    4.20
   0  -6   6   -1.60    2.40
   0  -6   6    1.90    2.90
   0  -6   6    2.50    3.60
  -1   6  -6   18.80    6.20
   1  -6   6   13.00    4.40
   1  -6   6   10.70    3.80
   1  -6   6   17.80    4.40
  -2   6  -6   -0.90    5.30
   2  -6   6   -1.50    3.30
   2  -6   6    0.90    3.20
  -3   6  -6   18.10    7.00
   3  -6   6   11.00    4.20
   3  -6   6   13.30    3.90
  -4   6  -6    1.90    6.30
   4  -6   6    3.60    3.90
   4  -6   6   -0.90    3.20
  -5   6  -6   -6.10    6.70
   5  -6   6    2.40    3.50
   5  -6   6   -0.10    4.10
  -9  -5   6    1.50    7.20
  -9  -5   6   -2.20    5.30
  -8  -5   6   -6.70    4.50
  -8  -5   6   -1.70    4.50
  -7  -5   6   -4.80    3.90
  -7  -5   6   -4.10    3.70
  -6  -5   6    9.60    4.30
  -6  -5   6   12.20    4.60
  -5  -5   6   11.20    4.00
  -5  -5   6    3.60    3.80
  -4  -5   6   23.10    4.40
  -4  -5   6   25.00    5.40
  -3  -5   6   32.90    5.10
  -3  -5   6   52.49    7.20
  -2  -5   6  148.49   13.00
  -2  -5   6  135.09   11.70
  -1  -5   6    4.40    3.40
  -1  -5   6    6.70    3.20
   0   5  -6   -0.80    1.30
   0  -5   6    1.20    2.70
   0  -5   6   -0.40    2.70
  -1   5  -6   97.09   11.20
   1  -5   6   87.49    9.30
   1  -5   6   84.49    8.50
  -2   5  -6   37.50    7.20
   2  -5   6   27.60    4.90
   2  -5   6   27.80    4.90
  -3   5  -6   -0.20    5.90
   3  -5   6    2.80    2.90
   3  -5   6   -0.40    3.10
  -4   5  -6    5.50    6.20
   4  -5   6    3.10    3.20
   4  -5   6    2.00    3.50
  -5   5  -6    8.60    6.70
   5  -5   6    6.10    4.30
   5  -5   6    7.60    3.60
  -6   5  -6    0.10    6.30
   6  -5   6  -11.00    4.70
   6  -5   6   -5.00    3.20
  -9  -4   6   23.20    6.70
  -9  -4   6   34.50    9.20
  -8  -4   6   26.50    5.90
  -7  -4   6    4.70    4.30
  -7  -4   6   -3.50    3.80
  -6  -4   6    6.20    4.40
  -6  -4   6   11.40    4.30
  -5  -4   6   16.40    4.70
  -5  -4   6   17.30    4.40
  -4  -4   6   52.59    7.80
  -4  -4   6   63.29    6.90
  -3  -4   6   34.10    5.70
  -3  -4   6   40.30    5.20
  -2  -4   6   -1.10    2.50
  -2  -4   6    0.90    3.20
  -1  -4   6   43.10    5.70
  -1  -4   6   51.19    6.90
   0   4  -6   66.99    6.30
   0   4  -6   68.79    9.10
   0  -4   6   71.19    7.30
   0  -4   6   69.09    7.80
  -1   4  -6  103.29   11.80
  -1   4  -6   94.59    9.20
   1  -4   6  109.89    9.40
   1  -4   6  120.79   10.20
  -2   4  -6   83.99   10.90
   2  -4   6   94.29    8.40
   2  -4   6   85.19    9.00
  -3   4  -6   22.00    6.30
   3  -4   6   14.20    4.10
   3  -4   6   10.80    3.50
  -4   4  -6   62.09    9.80
   4  -4   6   49.50    6.40
   4  -4   6   36.30    5.60
  -5   4  -6   19.10    6.70
   5  -4   6   19.70    4.40
   5  -4   6   16.70    4.70
  -6   4  -6   18.30    7.30
   6  -4   6   10.70    4.00
   6  -4   6    5.30    4.90
  -7   4  -6    7.40    7.00
   7  -4   6    4.30    4.30
 -10  -3   6   -1.50    7.10
  -9  -3   6    3.00    5.40
  -9  -3   6    9.50    5.00
  -9  -3   6    6.90    6.90
  -8  -3   6   -6.20    4.20
  -8  -3   6    1.70    4.40
  -7  -3   6   -1.00    4.20
  -7  -3   6   -0.40    3.70
  -6  -3   6    9.30    3.90
  -6  -3   6    7.90    4.20
  -5  -3   6  137.09   13.20
  -5  -3   6  152.28   12.30
  -4  -3   6    4.80    3.40
  -4  -3   6    4.20    2.70
  -3  -3   6   -1.40    2.50
  -3  -3   6    1.70    2.70
  -2  -3   6    9.80    3.30
  -2  -3   6   13.70    3.40
  -1  -3   6  129.29   10.30
  -1  -3   6  120.99   11.20
   0   3  -6   13.70    4.20
   0   3  -6    4.80    1.40
   0  -3   6    4.40    2.20
   0  -3   6    6.00    2.70
  -1   3  -6   13.20    4.60
  -1   3  -6    7.90    2.00
   1  -3   6    6.70    3.00
   1  -3   6   10.90    3.30
  -2   3  -6   26.30    6.10
   2  -3   6   20.50    3.90
   2  -3   6   19.40    4.00
  -3   3  -6   -2.00    4.30
   3  -3   6   -0.70    3.00
   3  -3   6   -4.10    2.30
  -4   3  -6   -7.50    4.40
   4  -3   6   -3.20    2.80
   4  -3   6   -6.00    3.10
  -5   3  -6   -2.30    4.60
   5  -3   6   -2.80    3.60
   5  -3   6    0.00    3.20
  -6   3  -6   -0.20    5.20
   6  -3   6   -9.30    3.90
   6  -3   6   -1.90    3.10
  -7   3  -6   -4.50    5.50
   7  -3   6    6.10    4.10
  -8   3  -6   16.80    7.40
   8  -3   6    9.30    4.50
 -10  -2   6   -0.30    6.30
 -10  -2   6    4.90    7.30
  -9  -2   6   -3.50    6.10
  -9  -2   6    2.00    5.00
  -9  -2   6    2.50    4.60
  -8  -2   6    1.90    5.90
  -8  -2   6    3.90    4.30
  -8  -2   6    8.70    5.00
  -7  -2   6   25.90    5.30
  -7  -2   6   11.30    5.40
  -6  -2   6    4.90    4.00
  -6  -2   6    7.20    4.20
  -5  -2   6    6.40    3.30
  -5  -2   6    1.90    3.10
  -4  -2   6    1.20    2.60
  -4  -2   6    5.60    3.00
  -3  -2   6    5.50    3.10
  -3  -2   6    5.70    2.60
  -2  -2   6   72.09    7.60
  -2  -2   6   76.39    7.20
  -1  -2   6  237.78   17.30
  -1  -2   6  227.98   18.50
   0   2  -6   -1.00    3.60
   0  -2   6    1.90    2.50
   0  -2   6    1.40    2.10
  -1   2  -6   50.89    7.70
  -1   2  -6   60.39    5.50
   1  -2   6   46.70    6.20
   1  -2   6   52.59    5.80
  -2   2  -6  306.07   28.20
  -2   2  -6  305.27   24.50
   2  -2   6  299.47   22.10
   2  -2   6  308.47   23.50
  -3   2  -6  211.48   21.80
   3  -2   6  223.48   17.00
   3  -2   6  245.88   18.20
  -4   2  -6  107.49   13.70
   4  -2   6  118.49   10.50
   4  -2   6  143.99   11.50
  -5   2  -6   14.60    5.60
   5  -2   6   -0.20    3.60
   5  -2   6    3.20    3.00
  -6   2  -6    3.30    5.10
   6  -2   6   -1.30    3.40
   6  -2   6   -0.10    3.20
  -7   2  -6   -0.10    5.70
   7  -2   6   -2.60    3.50
  -8   2  -6    1.80    6.10
   8  -2   6   -4.30    3.60
  -9   2  -6   12.80    7.00
   9  -2   6    4.70    4.30
 -10  -1   6   -5.00    6.20
 -10  -1   6    9.00    7.60
  -9  -1   6   -2.90    4.40
  -9  -1   6   -4.60    5.00
  -9  -1   6   -3.20    6.30
  -8  -1   6   12.30    6.70
  -8  -1   6    6.90    4.50
  -8  -1   6   14.70    5.50
  -7  -1   6    5.90    3.90
  -7  -1   6   -2.10    4.10
  -6  -1   6    4.00    2.10
  -6  -1   6   -0.50    4.00
  -6  -1   6   -0.80    3.60
  -5  -1   6    8.20    3.60
  -5  -1   6   14.70    4.30
  -4  -1   6  201.38   17.40
  -4  -1   6  217.48   16.10
  -3  -1   6   18.40    3.90
  -3  -1   6   14.50    3.30
  -2  -1   6   61.59    6.70
  -2  -1   6   60.49    6.30
  -1  -1   6   14.40    2.90
  -1  -1   6   15.20    3.40
   0   1  -6   27.00    5.10
   0  -1   6   18.10    3.80
   0  -1   6   20.00    3.40
  -1   1  -6    0.20    3.00
  -1   1  -6    2.60    1.60
   1  -1   6    2.30    2.20
   1  -1   6   -0.50    2.10
  -2   1  -6   10.50    2.50
  -2   1  -6   17.40    4.90
   2  -1   6   11.50    2.70
   2  -1   6   13.20    3.20
  -3   1  -6   15.90    4.70
   3  -1   6   10.30    2.90
   3  -1   6   12.20    3.40
  -4   1  -6    0.60    2.30
  -4   1  -6    1.80    4.10
   4  -1   6   -0.60    2.80
   4  -1   6    0.70    2.70
  -5   1  -6    2.60    4.40
   5  -1   6    8.60    3.30
   5  -1   6    1.40    2.90
  -6   1  -6  100.59   13.20
   6  -1   6  107.29    9.90
   6  -1   6  118.09   10.20
  -7   1  -6   -3.10    4.50
   7  -1   6   -2.00    3.30
  -8   1  -6   -0.80    5.40
   8  -1   6   -1.30    3.80
  -9   1  -6    7.10    6.10
   9  -1   6    2.30    4.30
 -10   0   6    1.70    6.90
  -9   0   6   30.00    6.10
  -9   0   6   17.30    7.90
  -9   0   6   18.00    6.80
  -8   0   6   -7.50    4.60
  -8   0   6   -1.60    5.40
  -8   0   6   -2.80    3.70
  -7   0   6    2.70    4.00
  -7   0   6    2.10    4.50
  -7   0   6    6.60    5.50
  -6   0   6    1.90    4.00
  -6   0   6    6.30    3.90
  -6   0   6    6.10    2.10
  -5   0   6   80.19    7.40
  -5   0   6   92.29    8.60
  -5   0   6   71.99    9.10
  -4   0   6   82.29    7.40
  -4   0   6   81.19    9.10
  -4   0   6   95.19    8.50
  -3   0   6  128.69   11.90
  -3   0   6  130.59   10.70
  -2   0   6   44.60    6.40
  -2   0   6   44.80    5.40
  -1   0   6  678.73   49.10
  -1   0   6  647.24   45.90
   0   0  -6   67.09    6.10
   0   0   6   70.49    7.60
   0   0   6   73.59    6.70
  -1   0  -6  638.14   57.69
   1   0   6  710.43   46.00
   1   0   6  641.94   49.00
  -2   0  -6   44.60    6.90
  -2   0  -6   39.90    5.30
   2   0   6   36.70    5.00
   2   0   6   41.80    5.90
  -3   0  -6  138.89   11.60
  -3   0  -6  133.69   14.20
   3   0   6  145.49   12.00
   3   0   6  135.29   11.00
  -4   0  -6   89.99   10.70
  -4   0  -6   91.19    8.40
   4   0   6   93.79    8.90
   4   0   6   88.99    8.30
  -5   0  -6   92.49    8.30
  -5   0  -6   73.69   11.10
   5   0   6  100.59    8.70
   5   0   6   90.29    8.30
  -6   0  -6    9.80    5.50
   6   0   6   12.50    3.30
   6   0   6   16.60    3.90
  -7   0  -6    1.20    5.10
   7   0   6   -2.00    3.30
  -8   0  -6   -4.40    5.20
   8   0   6    0.90    3.90
  -9   0  -6   27.30    8.20
   9   0   6   18.00    5.10
 -10   0  -6    8.70    6.90
  -9   1   6    3.70    5.50
  -9   1   6    2.90    6.80
  -8   1   6   -0.60    4.00
  -8   1   6   -4.60    4.70
  -8   1   6   -7.20    5.00
  -7   1   6    4.10    3.90
  -7   1   6    8.00    5.00
  -7   1   6   -0.60    4.80
  -6   1   6   75.59    8.10
  -6   1   6   72.79    9.40
   5  -1  -6   19.20    4.00
  -5   1   6   26.20    3.80
  -5   1   6   24.50    5.30
  -5   1   6   26.00    5.00
   4  -1  -6    2.80    2.30
  -4   1   6    4.40    3.50
  -4   1   6    1.70    2.70
  -4   1   6    3.90    1.90
   3  -1  -6   23.90    3.50
  -3   1   6   20.40    4.00
  -3   1   6   21.80    4.40
  -3   1   6   23.00    3.20
   2  -1  -6    6.60    1.80
  -2   1   6    4.10    3.00
  -2   1   6    4.60    1.40
  -2   1   6    4.30    3.00
   1  -1  -6    1.60    1.40
  -1   1   6   -0.80    2.50
  -1   1   6   -0.30    2.10
   0  -1  -6    2.40    1.50
   0   1   6    7.10    2.60
   0   1   6    4.60    3.00
  -1  -1  -6   10.00    3.30
  -1  -1  -6    9.40    1.90
   1   1   6    2.70    2.00
   1   1   6    9.20    3.00
  -2  -1  -6   61.49    6.90
  -2  -1  -6   86.69    9.20
   2   1   6   75.29    6.90
   2   1   6   79.19    7.80
  -3  -1  -6  189.08   15.70
  -3  -1  -6  210.48   19.00
   3   1   6  185.78   14.80
   3   1   6  210.78   16.00
  -4  -1  -6   70.09    7.50
  -4  -1  -6   81.39    9.50
   4   1   6   82.49    7.80
   4   1   6   73.59    7.20
  -5  -1  -6   20.40    3.60
  -5  -1  -6   15.60    5.20
   5   1   6   16.20    3.40
   5   1   6   21.40    3.90
  -6  -1  -6   -2.10    4.40
  -6  -1  -6    2.70    2.20
   6   1   6    1.20    3.10
   6   1   6    3.00    2.40
  -7  -1  -6   33.40    7.80
   7   1   6   46.00    5.70
  -8  -1  -6   19.40    7.30
   8   1   6   14.40    4.20
  -9  -1  -6    0.00    6.20
   9   1   6   -1.70    3.50
 -10  -1  -6    8.00    7.10
  -9   2   6    5.60    5.90
  -9   2   6   -0.90    6.40
  -8   2   6   -1.20    5.70
  -8   2   6   -0.40    4.90
   7  -2  -6   -1.00    3.40
  -7   2   6   -1.50    3.90
  -7   2   6    4.80    5.50
  -7   2   6    1.70    4.30
   6  -2  -6   10.50    3.60
  -6   2   6    3.20    3.60
  -6   2   6   11.70    4.80
  -6   2   6    5.10    5.40
   5  -2  -6    2.70    2.90
  -5   2   6    1.70    3.70
  -5   2   6    3.70    3.20
   4  -2  -6  172.08   14.20
  -4   2   6  175.78   13.20
  -4   2   6  166.28   14.40
  -4   2   6  149.69   13.80
   3  -2  -6   66.79    6.30
  -3   2   6   48.50    6.30
  -3   2   6   58.39    7.40
  -3   2   6   57.59    5.90
   2  -2  -6  826.92   59.99
  -2   2   6  805.02   59.89
  -2   2   6  716.93   57.09
  -2   2   6  742.03   53.49
   1  -2  -6   22.90    3.40
  -1   2   6   21.40    3.20
  -1   2   6   24.70    4.30
  -1   2   6   27.60    4.80
  -1   2   6   23.90    3.80
   0  -2  -6   27.40    3.50
   0   2   6   17.00    3.60
   0   2   6   24.10    4.30
   0   2   6   20.10    4.10
  -1  -2  -6    2.60    3.30
  -1  -2  -6    6.20    1.90
   1   2   6    9.20    3.20
   1   2   6    2.60    2.10
   1   2   6    8.50    2.90
  -2  -2  -6  162.08   13.90
  -2  -2  -6  159.48   15.90
   2   2   6  178.88   12.90
   2   2   6  174.38   13.90
  -3  -2  -6   16.50    4.60
  -3  -2  -6   13.60    3.20
   3   2   6   14.90    3.00
   3   2   6   12.50    3.40
  -4  -2  -6   38.50    5.50
  -4  -2  -6   42.90    6.90
  -4  -2  -6   36.00    4.60
   4   2   6   39.00    5.60
   4   2   6   44.00    5.10
  -5  -2  -6   15.50    3.40
  -5  -2  -6    6.60    2.40
  -5  -2  -6   17.70    5.30
   5   2   6   18.50    3.60
   5   2   6   11.30    3.20
  -6  -2  -6   -1.20    3.00
  -6  -2  -6   -5.10    4.40
   6   2   6    2.50    3.10
   6   2   6    7.50    2.80
  -7  -2  -6   10.10    5.80
   7   2   6    3.10    3.20
  -8  -2  -6   15.80    6.90
   8   2   6   11.80    4.10
  -9  -2  -6   -2.30    6.40
 -10  -2  -6    9.40    7.80
  -9   3   6    2.00    5.50
  -9   3   6    7.80    7.50
   8  -3  -6    5.60    4.00
  -8   3   6   -2.40    6.40
  -8   3   6    5.50    4.90
   7  -3  -6    1.70    3.70
  -7   3   6   -4.80    5.20
  -7   3   6   -0.50    4.10
   6  -3  -6    1.00    3.30
  -6   3   6   -7.60    3.80
  -6   3   6    1.90    3.40
  -6   3   6   -1.90    5.00
   5  -3  -6   11.70    3.80
  -5   3   6    9.50    5.50
  -5   3   6   12.80    4.10
  -5   3   6    7.20    4.40
   4  -3  -6   -3.50    2.30
  -4   3   6    0.80    3.30
  -4   3   6   -1.50    2.80
   3  -3  -6    0.00    2.20
  -3   3   6    0.60    2.90
  -3   3   6   -0.80    2.40
   2  -3  -6    5.30    2.30
  -2   3   6    2.80    1.70
  -2   3   6    3.30    2.30
  -2   3   6    7.20    3.10
   1  -3  -6   28.50    4.40
  -1   3   6   35.40    4.10
  -1   3   6   21.90    4.00
  -1   3   6   33.30    5.50
  -1   3   6   25.40    4.40
   0  -3  -6   14.00    2.80
   0   3   6   11.70    3.20
   0   3   6    8.00    2.00
   0   3   6    9.90    2.60
  -1  -3  -6  162.78   13.60
   1   3   6  162.88   12.60
   1   3   6  165.68   15.10
   1   3   6  158.38   13.60
  -2  -3  -6    7.90    2.40
  -2  -3  -6   12.30    3.50
   2   3   6    8.60    2.90
   2   3   6    9.20    2.70
   2   3   6    6.00    2.70
  -3  -3  -6    4.90    2.00
  -3  -3  -6   11.60    4.10
  -3  -3  -6    9.70    2.60
   3   3   6    8.90    3.10
   3   3   6   10.00    2.80
   3   3   6    8.40    3.00
  -4  -3  -6   59.69    7.40
  -4  -3  -6   63.69    6.50
  -4  -3  -6   34.90    4.90
   4   3   6   50.59    6.10
   4   3   6   44.70    5.40
  -5  -3  -6  113.69   10.20
  -5  -3  -6  132.29   11.50
  -5  -3  -6  150.18   14.20
   5   3   6  144.49   10.90
   5   3   6  136.59   11.50
  -6  -3  -6   46.50    5.20
  -6  -3  -6   51.09    8.60
  -6  -3  -6   62.49    6.60
   6   3   6   51.29    6.10
  -7  -3  -6   24.70    6.80
   7   3   6   24.10    4.20
  -8  -3  -6    7.70    6.10
  -9  -3  -6    0.50    6.50
 -10  -3  -6    5.50    7.60
   8  -4  -6   -2.80    4.10
  -8   4   6    0.40    4.70
  -8   4   6    3.30    7.40
   7  -4  -6   20.30    5.30
  -7   4   6   15.90    7.70
  -7   4   6   20.70    5.50
   6  -4  -6   29.20    5.50
  -6   4   6   33.70    7.50
  -6   4   6   29.80    5.80
   5  -4  -6    3.30    3.40
  -5   4   6   -2.90    4.90
  -5   4   6    0.50    3.70
  -5   4   6    2.00    3.10
   4  -4  -6  110.79   10.60
  -4   4   6   90.59    9.50
  -4   4   6  112.59   12.50
  -4   4   6  101.09   10.40
   3  -4  -6   69.29    7.40
  -3   4   6   56.69    7.40
  -3   4   6   51.69    6.50
   2  -4  -6  101.29    9.00
  -2   4   6   82.79    8.10
  -2   4   6   79.19    8.90
   1  -4  -6  192.88   15.50
  -1   4   6  161.48   13.80
  -1   4   6  170.18   15.20
  -1   4   6  199.98   17.00
   0  -4  -6   12.50    3.00
   0   4   6   20.30    4.00
   0   4   6   14.80    3.50
   0   4   6   13.60    3.20
  -1  -4  -6   -0.10    2.00
   1   4   6    1.20    2.50
   1   4   6    2.20    2.70
   1   4   6   -1.80    1.90
  -2  -4  -6   13.60    3.10
  -2  -4  -6   15.90    4.10
   2   4   6   11.90    3.20
   2   4   6   13.10    3.50
   2   4   6   11.20    2.80
  -3  -4  -6    0.10    1.90
  -3  -4  -6   -1.80    3.00
   3   4   6   -0.40    2.60
   3   4   6    3.00    2.60
   3   4   6    0.50    2.20
  -4  -4  -6   37.00    4.50
  -4  -4  -6   44.70    6.60
  -4  -4  -6   38.70    5.80
   4   4   6   50.19    5.40
   4   4   6   57.39    6.40
  -5  -4  -6   33.60    6.10
  -5  -4  -6   23.80    3.40
  -5  -4  -6   23.00    4.40
   5   4   6   33.80    4.30
  -6  -4  -6    9.70    5.00
  -6  -4  -6    8.70    3.20
  -6  -4  -6    5.80    2.40
   6   4   6    9.10    3.00
  -7  -4  -6    4.50    3.80
  -7  -4  -6    6.20    5.60
  -8  -4  -6    3.70    6.30
  -9  -4  -6    4.30    6.70
 -10  -4  -6   13.20    8.30
   8  -5  -6    1.30    4.40
  -8   5   6    5.00    7.30
   7  -5  -6    2.20    4.20
  -7   5   6    6.00    7.00
   6  -5  -6   -3.90    3.70
  -6   5   6    1.70    5.80
  -6   5   6    1.00    4.10
   5  -5  -6    1.90    3.70
  -5   5   6    0.80    5.00
  -5   5   6    3.70    3.90
   4  -5  -6    2.80    3.50
  -4   5   6    0.90    4.90
  -4   5   6    9.50    4.00
   3  -5  -6   -2.60    3.30
  -3   5   6    3.40    2.90
  -3   5   6    2.10    3.40
  -3   5   6    1.70    4.50
   2  -5  -6   34.90    5.40
  -2   5   6   37.80    5.60
  -2   5   6   26.50    5.00
   1  -5  -6   77.09    8.40
  -1   5   6   80.99    8.60
  -1   5   6   61.99    7.30
  -1   5   6   76.29    8.20
   0  -5  -6   11.00    3.20
   0   5   6   13.10    3.80
   0   5   6   15.60    3.60
   0   5   6   18.10    3.60
  -1  -5  -6   36.10    5.60
   1   5   6   42.90    5.30
   1   5   6   52.89    6.80
   1   5   6   40.20    5.40
  -2  -5  -6  254.47   22.30
   2   5   6  267.47   19.80
   2   5   6  272.77   21.50
   2   5   6  288.07   24.10
  -3  -5  -6    5.00    2.50
  -3  -5  -6    5.80    3.20
  -4  -5  -6   51.29    6.70
  -4  -5  -6   59.79    7.50
   4   5   6   56.39    6.00
   4   5   6   49.40    6.90
  -5  -5  -6   -2.30    2.70
  -5  -5  -6    0.50    3.70
  -5  -5  -6   -0.30    1.70
   5   5   6   -0.90    2.70
  -6  -5  -6   14.50    2.90
  -6  -5  -6   16.30    3.90
  -6  -5  -6   25.80    5.80
   6   5   6   28.60    4.00
  -7  -5  -6   34.10    6.90
  -7  -5  -6   19.00    5.00
  -8  -5  -6   37.20    7.70
  -9  -5  -6   94.19   12.90
 -10  -5  -6   27.10    8.60
   7  -6  -6    3.40    5.10
  -7   6   6    6.70    7.20
   6  -6  -6   -1.30    4.40
  -6   6   6   -0.70    6.10
   5  -6  -6   17.30    5.00
  -5   6   6   24.50    7.40
   4  -6  -6  262.97   24.30
  -4   6   6  305.07   27.00
   3  -6  -6   52.79    7.70
  -3   6   6   65.59    9.20
   2  -6  -6  152.98   15.10
  -2   6   6  145.99   14.50
  -2   6   6  191.98   16.30
   1  -6  -6   21.50    4.90
  -1   6   6   25.10    5.20
  -1   6   6   29.10    5.20
  -1   6   6   14.50    3.90
  -1   6   6   31.80    5.20
   0  -6  -6    8.00    2.90
   0   6   6    7.20    2.80
   0   6   6    1.20    2.50
   0   6   6    6.00    3.50
  -1  -6  -6   11.40    3.50
   1   6   6   18.90    4.00
  -2  -6  -6   80.29    9.40
   2   6   6  104.49    9.30
   2   6   6   95.49    8.70
  -3  -6  -6    1.40    3.20
  -3  -6  -6   -0.60    2.70
   3   6   6    4.40    2.90
   3   6   6    3.10    2.70
  -4  -6  -6   55.39    7.80
  -4  -6  -6   74.49    8.00
   4   6   6   76.69    7.30
   4   6   6   67.69    8.10
  -5  -6  -6   24.60    5.00
  -5  -6  -6   32.30    5.60
   5   6   6   28.10    5.70
   5   6   6   30.90    4.80
  -6  -6  -6  376.16   31.60
  -6  -6  -6  315.57   24.50
  -6  -6  -6  357.26   28.90
  -7  -6  -6   14.80    4.40
  -7  -6  -6   18.70    5.90
  -8  -6  -6    1.00    3.60
  -8  -6  -6    1.90    5.10
  -9  -6  -6   17.40    6.50
  -9  -6  -6    0.50    3.90
 -10  -6  -6    4.00    4.40
 -10  -6  -6   18.80    7.30
   6  -7  -6    1.50    4.60
  -6   7   6   13.90    7.50
   5  -7  -6   16.80    5.40
  -5   7   6   25.80    7.60
   4  -7  -6    6.10    4.40
  -4   7   6    5.40    5.90
   3  -7  -6   20.70    5.30
   2  -7  -6    8.70    4.50
  -2   7   6   18.20    5.00
   1  -7  -6  162.78   15.30
   0  -7  -6    2.60    3.20
  -1  -7  -6  296.47   24.80
  -2  -7  -6   38.80    6.30
  -3  -7  -6   16.60    4.50
  -4  -7  -6   35.60    5.80
  -5  -7  -6   27.20    5.70
  -5  -7  -6   48.50    6.60
   5   7   6   31.90    5.70
  -6  -7  -6   48.40    7.90
  -7  -7  -6    3.20    4.60
  -7  -7  -6   -4.00    3.10
  -8  -7  -6   12.20    5.40
  -8  -7  -6   -1.60    3.60
  -9  -7  -6   94.99   11.30
 -10  -7  -6   88.59   12.60
   5  -8  -6    3.40    4.60
   4  -8  -6    8.40    4.80
   3  -8  -6   39.80    7.00
   2  -8  -6   10.30    4.80
   1  -8  -6    2.00    3.40
   0  -8  -6    0.00    3.20
  -1  -8  -6    9.10    3.40
  -2  -8  -6  186.98   16.80
  -3  -8  -6   55.79    7.90
  -4  -8  -6  291.07   24.70
  -5  -8  -6    3.50    3.80
  -6  -8  -6   11.60    4.30
  -6  -8  -6   17.90    4.90
  -7  -8  -6   31.50    6.70
  -8  -8  -6   20.20    5.70
  -8  -8  -6    0.70    4.10
  -9  -8  -6   13.70    5.40
  -9  -8  -6   20.50    6.60
   4  -9  -6   11.40    5.40
   3  -9  -6  141.79   14.70
   2  -9  -6   60.59    9.10
   1  -9  -6   15.70    4.60
   0  -9  -6   -5.80    3.40
  -1  -9  -6   37.30    6.50
  -2  -9  -6   24.70    5.60
  -3  -9  -6   27.00    5.40
  -4  -9  -6   18.60    5.00
  -5  -9  -6   71.59    9.40
  -6  -9  -6   65.19    9.30
  -7  -9  -6   86.29   10.80
  -8  -9  -6    9.10    4.90
   2 -10  -6    1.10    5.10
   1 -10  -6    2.40    4.50
   0 -10  -6   25.50    5.90
  -1 -10  -6   95.89   11.20
  -2 -10  -6    6.90    4.10
  -3 -10  -6   -4.90    3.60
  -4 -10  -6   17.00    5.20
  -5 -10  -6   49.00    8.40
  -6 -10  -6   18.50    5.70
  -7 -10  -6   -1.30    4.30
   0 -11  -6   14.20    5.20
  -1 -11  -6    0.20    3.90
  -2 -11  -6    3.50    3.80
  -3 -11  -6   -1.10    3.80
  -4 -11  -6    0.80    3.80
  -5 -11  -6    4.60    4.80
  -4  -8   7    2.30    3.70
  -4  -8   7    3.40    5.30
  -3  -8   7    7.20    5.10
  -3  -8   7    8.60    4.50
  -2  -8   7    4.00    3.90
  -2  -8   7    9.60    5.30
  -1  -8   7   -3.10    3.20
  -1  -8   7   -2.50    4.10
   0  -8   7    0.20    3.20
   0  -8   7    0.00    4.40
  -6  -7   7   -6.70    4.30
  -6  -7   7    0.40    4.10
  -5  -7   7   -1.80    4.10
  -5  -7   7   -2.90    3.90
  -4  -7   7   16.10    4.40
  -4  -7   7   20.50    6.30
  -3  -7   7   -8.50    3.30
  -3  -7   7    2.70    4.20
  -2  -7   7   34.70    6.70
  -2  -7   7   39.20    6.40
  -1  -7   7    4.30    3.50
  -1  -7   7    2.20    3.80
   0  -7   7    8.90    4.70
   0  -7   7   11.20    4.40
   1  -7   7   -0.80    3.60
   1  -7   7   -1.30    3.70
  -2   7  -7    2.10    6.10
   2  -7   7    3.80    3.10
   2  -7   7    0.30    3.90
  -3   7  -7   28.60    8.30
   3  -7   7    9.40    4.80
   3  -7   7   20.30    4.90
  -7  -6   7   -7.20    4.50
  -7  -6   7    2.10    4.50
  -6  -6   7   42.30    7.60
  -6  -6   7   56.59    7.50
  -5  -6   7    6.40    3.90
  -5  -6   7   12.10    4.50
  -4  -6   7    9.90    4.40
  -4  -6   7   13.30    3.90
  -3  -6   7   58.99    8.30
  -3  -6   7   67.39    7.60
  -2  -6   7   18.70    4.70
  -2  -6   7   17.80    5.60
  -1  -6   7    1.40    3.80
  -1  -6   7    0.90    2.90
   0  -6   7   -2.90    3.30
   0  -6   7   -2.00    2.60
  -1   6  -7   46.70    8.40
   1  -6   7   26.20    5.60
   1  -6   7   36.60    6.10
  -2   6  -7    1.60    5.80
   2  -6   7    5.50    3.70
   2  -6   7    2.30    3.40
  -3   6  -7   34.10    8.60
   3  -6   7   28.10    5.70
   3  -6   7   29.30    5.40
  -4   6  -7    9.90    7.10
   4  -6   7    4.60    4.10
   4  -6   7    1.80    4.20
  -8  -5   7    0.50    4.90
  -8  -5   7   -0.70    4.80
  -7  -5   7   -1.80    4.30
  -7  -5   7   -8.10    4.00
  -6  -5   7   19.10    5.20
  -6  -5   7    4.80    4.20
  -5  -5   7    3.60    3.70
  -5  -5   7   -2.60    3.60
  -4  -5   7    5.60    3.70
  -4  -5   7   13.90    4.10
  -3  -5   7   72.39    8.40
  -3  -5   7   63.09    7.40
  -2  -5   7  128.99   11.50
  -2  -5   7  143.09   12.80
  -1  -5   7   21.40    4.50
  -1  -5   7   15.30    4.30
   0  -5   7   -2.30    3.40
   0  -5   7   -2.10    2.30
  -1   5  -7   36.70    7.70
   1  -5   7   23.40    4.50
   1  -5   7   28.50    5.50
  -2   5  -7   31.40    6.80
   2  -5   7   18.40    3.70
   2  -5   7   14.70    4.40
  -3   5  -7    9.80    6.20
   3  -5   7    7.90    3.80
   3  -5   7    3.00    3.80
  -4   5  -7    6.10    6.60
   4  -5   7    4.50    3.70
   4  -5   7    7.50    4.30
  -5   5  -7    1.30    6.40
   5  -5   7   -0.20    3.00
   5  -5   7   -5.00    4.30
  -6   5  -7   -6.60    6.60
   6  -5   7   -1.30    3.30
  -9  -4   7   55.59   11.70
  -8  -4   7   89.39   10.20
  -8  -4   7   76.59   10.90
  -7  -4   7   32.30    6.60
  -7  -4   7   44.10    7.10
  -6  -4   7   -0.80    3.70
  -6  -4   7   -0.80    4.00
  -5  -4   7   23.10    5.00
  -5  -4   7   17.90    4.90
  -4  -4   7   60.89    7.20
  -4  -4   7   53.19    7.80
  -3  -4   7   41.60    6.70
  -3  -4   7   50.59    6.30
  -2  -4   7   54.59    6.60
  -2  -4   7   48.30    7.00
  -1  -4   7  103.19    9.30
  -1  -4   7  103.59   10.20
   0  -4   7  115.09   11.20
   0  -4   7  127.79   10.50
  -1   4  -7   81.79    7.90
  -1   4  -7  106.69   11.30
   1  -4   7   82.89    9.10
   1  -4   7   86.79    8.50
  -2   4  -7   88.89   11.10
   2  -4   7   84.49    8.40
   2  -4   7   79.59    8.90
  -3   4  -7   10.90    6.10
   3  -4   7    3.80    3.30
   3  -4   7    2.00    3.40
  -4   4  -7   10.60    6.40
   4  -4   7    7.50    4.20
   4  -4   7   15.80    4.10
  -5   4  -7   31.40    8.10
   5  -4   7   24.00    5.00
   5  -4   7   25.70    5.90
  -6   4  -7   23.40    8.40
   6  -4   7   17.30    5.10
   6  -4   7   18.40    6.30
  -7   4  -7   21.20    8.40
   7  -4   7   22.20    5.00
  -9  -3   7   -1.80    6.40
  -9  -3   7   -3.30    4.90
  -9  -3   7   -3.00    5.00
  -8  -3   7    2.60    4.70
  -8  -3   7    8.10    5.30
  -7  -3   7   19.40    5.50
  -7  -3   7   23.30    6.00
  -6  -3   7  126.89   13.10
  -6  -3   7  146.19   12.40
  -5  -3   7   62.79    8.40
  -5  -3   7   62.89    7.80
  -4  -3   7  137.19   13.30
  -4  -3   7  152.08   12.30
  -3  -3   7   -2.70    2.90
  -3  -3   7    1.10    2.80
  -2  -3   7  157.68   14.60
  -2  -3   7  185.18   13.80
  -1  -3   7   11.90    3.50
  -1  -3   7   17.20    3.60
   0  -3   7  152.08   12.00
   0  -3   7  144.09   13.00
  -1   3  -7   46.70    7.50
  -1   3  -7   33.40    4.20
   1  -3   7   26.60    4.90
   1  -3   7   34.80    5.30
  -2   3  -7   21.30    6.00
   2  -3   7   16.30    4.10
   2  -3   7   16.90    4.10
  -3   3  -7   17.10    6.20
   3  -3   7   13.40    4.00
   3  -3   7    8.70    3.80
  -4   3  -7    4.40    5.50
   4  -3   7   -1.20    3.30
   4  -3   7    1.40    2.90
  -5   3  -7    5.60    5.40
   5  -3   7   -2.00    4.10
   5  -3   7    0.50    3.10
  -6   3  -7    2.50    6.10
   6  -3   7   -2.50    4.70
   6  -3   7    1.90    3.40
  -7   3  -7   -2.40    5.60
   7  -3   7    1.00    3.60
  -9  -2   7    2.00    4.80
  -9  -2   7    1.10    5.30
  -9  -2   7    1.80    6.70
  -8  -2   7    5.50    4.30
  -8  -2   7   -1.50    4.70
  -7  -2   7   89.49    9.80
  -7  -2   7   82.79   10.70
  -6  -2   7    3.10    4.60
  -6  -2   7    8.00    4.10
  -5  -2   7    2.40    3.80
  -5  -2   7    4.30    3.40
  -4  -2   7   51.39    6.60
  -4  -2   7   35.20    6.20
  -3  -2   7   70.49    8.30
  -3  -2   7   78.49    7.80
  -2  -2   7    4.80    2.90
  -2  -2   7    1.60    2.60
  -1  -2   7  519.75   40.00
  -1  -2   7  541.75   37.40
   0  -2   7   14.60    3.60
   0  -2   7   13.10    3.70
  -1   2  -7  152.68   15.80
  -1   2  -7  167.08   13.10
   1  -2   7  142.69   13.30
   1  -2   7  152.28   12.50
  -2   2  -7   15.50    3.20
  -2   2  -7   20.50    5.80
   2  -2   7   11.10    3.10
   2  -2   7   16.40    4.00
  -3   2  -7  652.73   60.09
   3  -2   7  649.54   47.50
   3  -2   7  744.53   50.89
  -4   2  -7   41.70    8.30
   4  -2   7   39.70    6.00
   4  -2   7   27.80    4.90
  -5   2  -7    8.80    5.60
   5  -2   7   -1.40    3.80
   5  -2   7   -0.30    3.30
  -6   2  -7   39.40    8.50
   6  -2   7   32.00    6.20
   6  -2   7   30.30    5.30
  -7   2  -7    3.70    5.90
   7  -2   7   -0.10    3.50
  -8   2  -7    6.40    6.40
   8  -2   7   -0.10    4.00
  -9  -1   7   -1.20    5.90
  -9  -1   7   -1.10    5.70
  -9  -1   7    2.70    4.80
  -8  -1   7   23.70    7.60
  -8  -1   7   24.30    6.50
  -8  -1   7   31.80    6.30
  -7  -1   7   15.20    4.90
  -7  -1   7   12.00    5.20
  -6  -1   7   -1.10    3.60
  -6  -1   7   -2.80    3.90
  -5  -1   7    3.30    4.00
  -5  -1   7   -0.40    3.50
  -4  -1   7  244.18   18.30
  -4  -1   7  233.58   19.80
  -3  -1   7   35.80    5.70
  -3  -1   7   30.50    4.60
  -2  -1   7   83.89    8.80
  -2  -1   7   79.29    7.70
  -1  -1   7   22.20    4.40
  -1  -1   7   22.50    4.30
   0  -1   7    3.30    2.40
   0  -1   7    3.20    2.70
  -1   1  -7    2.40    3.80
  -1   1  -7    0.30    1.70
   1  -1   7   -0.20    2.40
   1  -1   7    1.70    2.40
  -2   1  -7    3.40    2.30
  -2   1  -7    7.00    4.30
   2  -1   7    5.40    2.90
   2  -1   7    1.30    2.70
  -3   1  -7   28.80    6.60
   3  -1   7   27.10    5.00
   3  -1   7   26.00    4.50
  -4   1  -7    4.90    5.00
   4  -1   7    7.70    4.10
   4  -1   7    0.10    2.90
  -5   1  -7   23.20    6.60
   5  -1   7   18.50    4.00
   5  -1   7   22.20    4.70
  -6   1  -7   59.29    9.70
   6  -1   7   37.60    5.90
   6  -1   7   58.69    7.60
  -7   1  -7   10.00    6.00
   7  -1   7    7.80    4.00
  -8   1  -7   -3.30    5.60
   8  -1   7   -0.60    4.00
  -9   1  -7   21.20    7.70
   9  -1   7   13.10    5.00
  -9   0   7   14.90    5.40
  -9   0   7   12.90    7.20
  -9   0   7   11.20    6.60
  -8   0   7   -3.20    5.90
  -8   0   7   -1.30    4.70
  -8   0   7   -2.90    3.90
  -7   0   7    8.50    4.80
  -7   0   7    3.10    4.20
  -6   0   7    1.50    4.00
  -6   0   7    4.20    3.70
  -5   0   7   44.30    7.10
  -5   0   7   40.40    6.50
  -4   0   7  190.58   14.80
  -4   0   7  175.38   15.90
  -3   0   7   25.90    5.20
  -3   0   7   13.60    3.50
  -2   0   7   -0.20    2.80
  -2   0   7    0.70    2.30
  -1   0   7   83.19    8.80
  -1   0   7   84.09    7.70
   0   0  -7  619.74   46.10
   0   0   7  577.54   44.50
   0   0   7  589.74   41.70
  -1   0  -7   72.49    9.40
   1   0   7   81.49    7.60
   1   0   7   84.49    8.50
  -2   0  -7    0.80    3.60
   2   0   7    3.30    3.20
   2   0   7    1.30    2.40
  -3   0  -7   27.00    6.00
   3   0   7   23.50    4.60
   3   0   7   21.40    4.30
  -4   0  -7  186.48   19.70
   4   0   7  188.88   15.30
   4   0   7  220.28   16.70
  -5   0  -7   36.70    7.60
   5   0   7   52.19    6.80
   5   0   7   35.30    5.40
  -6   0  -7   -1.00    5.20
   6   0   7   23.50    4.50
   6   0   7   -1.50    3.20
  -7   0  -7    5.60    5.60
   7   0   7    4.90    3.90
  -8   0  -7    0.00    6.10
   8   0   7   -0.20    3.70
  -9   0  -7    4.00    6.70
   9   0   7    3.20    4.20
  -9   1   7   11.20    6.30
  -9   1   7   11.60    7.50
  -8   1   7    7.10    4.30
  -8   1   7   -0.40    5.90
  -8   1   7    6.50    5.20
  -7   1   7    6.90    4.20
  -7   1   7   18.50    6.80
  -7   1   7   14.70    5.90
  -6   1   7   14.80    4.70
  -6   1   7   10.70    4.00
   5  -1  -7   32.30    4.70
  -5   1   7   23.50    4.90
  -5   1   7   27.90    5.50
  -5   1   7   37.40    4.50
   4  -1  -7    0.40    2.40
  -4   1   7    6.50    3.50
  -4   1   7   -0.20    3.10
  -4   1   7    3.00    1.70
   3  -1  -7   14.20    2.50
  -3   1   7   16.00    3.70
  -3   1   7   16.10    4.20
  -3   1   7   12.60    2.20
   2  -1  -7    3.90    1.60
  -2   1   7   -1.10    3.20
  -2   1   7    0.30    2.90
   1  -1  -7   -2.10    1.40
  -1   1   7   -2.20    2.80
  -1   1   7   -1.80    1.70
   0  -1  -7    5.40    1.90
   0   1   7    5.30    2.40
   0   1   7    6.00    3.10
  -1  -1  -7   10.50    3.90
  -1  -1  -7    2.80    1.60
   1   1   7    3.30    2.50
   1   1   7    3.60    3.20
  -2  -1  -7    5.40    3.60
   2   1   7    0.80    2.90
   2   1   7   -0.60    2.40
  -3  -1  -7  192.38   18.60
   3   1   7  201.18   15.80
   3   1   7  176.58   14.50
   4   1   7   57.79    7.20
  -5  -1  -7   11.70    3.80
  -5  -1  -7   12.00    5.20
   5   1   7   17.10    4.00
   5   1   7   16.20    4.00
  -6  -1  -7    4.30    2.60
  -6  -1  -7   -6.80    4.50
   6   1   7   -0.60    3.40
   6   1   7    1.20    2.80
  -7  -1  -7   32.70    7.90
   7   1   7   28.80    5.50
  -8  -1  -7    4.70    5.90
   8   1   7   -2.30    3.80
  -9  -1  -7    7.60    6.70
   9   1   7    0.00    4.20
  -9   2   7    5.50    5.90
  -9   2   7    7.00    7.00
  -8   2   7    4.90    5.00
  -8   2   7   -6.00    5.60
  -8   2   7    0.40    4.20
   7  -2  -7   -3.90    3.20
  -7   2   7    0.70    3.80
  -7   2   7    4.60    4.50
  -7   2   7    0.10    5.60
   6  -2  -7    4.00    3.30
  -6   2   7    2.50    5.70
  -6   2   7    0.60    4.30
  -6   2   7    5.10    3.70
   5  -2  -7    2.30    3.20
  -5   2   7    7.00    4.40
  -5   2   7    7.10    3.50
   4  -2  -7  127.29   11.00
  -4   2   7  115.49   11.60
  -4   2   7  117.29   10.50
  -4   2   7  114.49   10.60
   3  -2  -7  221.08   17.70
  -3   2   7  205.98   17.40
  -3   2   7  226.48   18.00
  -3   2   7  208.28   16.50
   2  -2  -7  315.47   23.40
  -2   2   7  265.87   22.90
  -2   2   7  296.17   23.10
  -2   2   7  278.47   21.40
   1  -2  -7   53.39    5.60
  -1   2   7   47.80    5.00
  -1   2   7   46.10    6.60
  -1   2   7   42.20    5.90
   0  -2  -7    2.30    1.90
   0   2   7    1.30    2.40
   0   2   7    2.70    3.00
  -1  -2  -7  219.18   21.80
  -1  -2  -7  250.37   19.20
   1   2   7  239.28   17.70
   1   2   7  239.58   19.10
  -2  -2  -7   75.09    7.30
  -2  -2  -7   67.09    8.90
   2   2   7   82.19    8.30
   2   2   7   79.99    7.30
  -3  -2  -7   15.40    4.70
   3   2   7    5.90    2.60
   3   2   7   14.50    3.60
  -4  -2  -7    7.30    4.70
   4   2   7    1.20    2.50
   4   2   7    3.60    3.10
  -5  -2  -7    7.40    4.90
   5   2   7    3.20    3.10
   5   2   7   10.10    3.40
  -6  -2  -7   -0.90    3.30
  -6  -2  -7   -1.20    5.00
   6   2   7    4.60    3.40
   6   2   7    3.70    3.20
  -7  -2  -7   27.40    7.50
   7   2   7   20.60    4.90
  -8  -2  -7    0.90    5.80
   8   2   7   -1.10    3.80
  -9  -2  -7    2.30    6.60
 -10  -2  -7   13.90    7.80
   8  -3  -7   -1.40    3.90
  -8   3   7    6.30    6.90
  -8   3   7   15.20    5.50
   7  -3  -7   -6.40    3.20
  -7   3   7    2.90    4.50
  -7   3   7   -9.50    5.40
  -7   3   7    0.80    4.10
   6  -3  -7    1.70    3.50
  -6   3   7   -5.40    5.10
  -6   3   7    2.00    4.20
  -6   3   7   -3.90    3.10
   5  -3  -7    2.60    3.10
  -5   3   7   -2.10    3.10
  -5   3   7    3.40    3.80
   4  -3  -7   -1.80    2.50
  -4   3   7   -3.20    2.60
  -4   3   7   -0.90    3.20
   3  -3  -7    4.10    2.70
  -3   3   7    4.90    3.60
  -3   3   7   -0.30    2.80
   2  -3  -7    4.80    2.50
  -2   3   7    6.80    2.80
  -2   3   7    1.40    3.30
   1  -3  -7   22.60    3.60
  -1   3   7   16.10    2.80
  -1   3   7   15.80    3.70
  -1   3   7   18.30    4.00
   0  -3  -7  154.78   12.90
   0   3   7  139.29   11.90
   0   3   7  149.69   13.10
  -1  -3  -7   16.00    3.20
   1   3   7   17.10    3.80
   1   3   7   14.90    3.70
  -2  -3  -7  107.49   10.30
  -2  -3  -7   89.29    8.70
   2   3   7   82.69    8.30
   2   3   7   94.59    9.40
  -3  -3  -7   -1.10    1.90
  -3  -3  -7   -1.10    3.60
   3   3   7   -0.60    2.20
   3   3   7    1.90    2.90
  -4  -3  -7  177.28   16.50
  -4  -3  -7  161.38   14.40
   4   3   7  145.89   12.80
   4   3   7  175.38   13.90
  -5  -3  -7   21.20    5.40
   5   3   7   14.50    3.70
   5   3   7   17.60    3.80
  -6  -3  -7   81.99    9.40
  -6  -3  -7   85.59   11.30
   6   3   7   76.09    8.50
   6   3   7   98.69    8.60
  -7  -3  -7    9.70    6.10
   7   3   7    9.60    3.90
  -8  -3  -7    1.80    5.80
   8   3   7   -0.50    3.50
  -9  -3  -7    2.50    6.40
 -10  -3  -7    4.90    7.20
   8  -4  -7   -0.70    4.20
  -8   4   7    7.30    5.40
  -8   4   7    8.30    7.90
   7  -4  -7    2.20    4.10
  -7   4   7   -6.40    5.80
  -7   4   7   -2.70    4.10
   6  -4  -7   -3.60    3.30
  -6   4   7    0.90    5.40
  -6   4   7    0.10    3.90
  -6   4   7    3.70    3.60
   5  -4  -7   67.39    7.90
  -5   4   7   63.19   10.00
  -5   4   7   53.39    7.30
  -5   4   7   49.40    7.50
   4  -4  -7   30.10    5.00
  -4   4   7   24.40    4.60
  -4   4   7   22.30    5.10
   3  -4  -7   16.00    3.90
  -3   4   7    8.00    3.90
  -3   4   7   11.20    3.60
   2  -4  -7   30.80    4.80
  -2   4   7   23.30    3.90
  -2   4   7   26.90    5.20
   1  -4  -7  356.86   25.90
  -1   4   7  295.77   24.80
  -1   4   7  295.47   23.00
   0  -4  -7   14.30    3.50
   0   4   7   21.60    4.50
   0   4   7   24.80    4.30
   0   4   7   17.70    4.00
  -1  -4  -7   33.80    5.00
   1   4   7   30.60    5.20
   1   4   7   37.60    5.40
   1   4   7   35.70    5.50
  -2  -4  -7   11.40    4.10
  -2  -4  -7    8.50    2.90
   2   4   7    6.00    3.20
   2   4   7    9.60    3.20
   2   4   7   13.20    3.50
  -3  -4  -7   50.89    6.80
  -3  -4  -7   33.80    5.10
   3   4   7   42.70    5.40
   3   4   7   35.00    5.60
  -4  -4  -7   36.40    5.80
  -4  -4  -7   42.80    7.00
   4   4   7   35.60    5.60
   4   4   7   37.10    5.10
  -5  -4  -7   91.59   10.80
  -5  -4  -7   95.99    9.50
   5   4   7  108.19    8.60
   5   4   7   68.89    9.20
  -6  -4  -7   15.20    6.10
   6   4   7   15.70    3.70
  -7  -4  -7   35.50    7.70
   7   4   7   32.10    5.00
  -8  -4  -7    5.50    6.20
  -9  -4  -7   52.49   10.20
 -10  -4  -7    7.60    7.50
   7  -5  -7   -6.80    3.90
  -7   5   7    4.50    5.00
  -7   5   7   -6.30    6.80
   6  -5  -7   -4.20    3.60
  -6   5   7    4.60    6.20
  -6   5   7   -4.20    3.70
   5  -5  -7    2.30    3.60
  -5   5   7    1.40    4.10
  -5   5   7    3.00    5.40
   4  -5  -7   -4.80    3.10
  -4   5   7   -0.80    3.50
  -4   5   7    1.70    3.00
  -4   5   7   -7.30    4.40
   3  -5  -7   -2.80    3.00
  -3   5   7    0.50    3.40
  -3   5   7   -1.10    2.40
   2  -5  -7   59.89    7.70
  -2   5   7   58.29    7.70
  -2   5   7   56.69    6.70
   1  -5  -7   29.20    5.20
  -1   5   7   38.70    5.80
  -1   5   7   47.50    6.80
  -1   5   7   36.60    5.50
   0  -5  -7   -2.70    2.20
   0   5   7   -1.80    2.50
   0   5   7    1.70    3.10
   0   5   7    1.20    3.10
  -1  -5  -7   10.80    3.40
   1   5   7   14.00    4.00
   1   5   7   22.40    3.80
   1   5   7    9.90    2.90
  -2  -5  -7  165.88   15.50
   2   5   7  184.08   14.10
   2   5   7  198.48   16.70
   2   5   7  167.58   15.30
  -3  -5  -7   54.69    7.20
  -3  -5  -7   75.59    8.30
   3   5   7   60.19    8.10
   3   5   7   76.09    7.10
   3   5   7   57.19    7.50
  -4  -5  -7   17.60    3.90
  -4  -5  -7   21.50    5.00
   4   5   7   23.60    4.20
   4   5   7   19.60    4.70
  -5  -5  -7   21.60    5.60
  -5  -5  -7    7.90    3.40
   5   5   7   16.20    3.80
  -6  -5  -7    6.50    5.30
  -6  -5  -7    3.80    3.20
   6   5   7    3.10    3.30
  -7  -5  -7    7.80    5.50
  -7  -5  -7    1.20    3.40
   7   5   7    4.40    3.10
  -8  -5  -7    8.90    6.00
  -9  -5  -7    9.90    6.70
 -10  -5  -7    4.50    7.10
   6  -6  -7   -1.50    4.20
  -6   6   7   -4.70    6.60
   5  -6  -7   11.10    4.60
  -5   6   7   12.70    6.60
   4  -6  -7    6.80    4.20
  -4   6   7    7.40    4.20
  -4   6   7    7.40    5.80
   3  -6  -7   14.50    4.90
  -3   6   7   23.80    6.80
  -3   6   7   20.10    5.30
   2  -6  -7    1.80    3.50
  -2   6   7    5.00    4.70
  -2   6   7    8.40    4.20
  -2   6   7    5.10    3.50
   1  -6  -7    9.30    3.90
  -1   6   7   21.70    4.90
  -1   6   7   14.80    5.10
  -1   6   7   11.00    3.50
   0  -6  -7   17.30    4.30
   0   6   7   19.40    4.00
   0   6   7    9.50    4.40
   0   6   7   13.90    4.10
  -1  -6  -7   -2.10    2.20
   1   6   7   -5.50    3.00
   1   6   7    1.50    2.40
   1   6   7   -2.20    2.70
  -2  -6  -7    6.20    3.30
   2   6   7   17.00    3.50
   2   6   7   11.70    3.70
   2   6   7    7.80    4.30
  -3  -6  -7   -1.70    2.70
   3   6   7    3.20    3.10
   3   6   7    9.10    3.30
  -4  -6  -7   36.80    6.40
  -4  -6  -7   57.89    7.40
   4   6   7   50.29    6.40
   4   6   7   44.10    6.70
  -5  -6  -7   18.80    5.40
  -5  -6  -7   17.00    4.30
   5   6   7   20.30    4.50
  -6  -6  -7  159.88   17.10
  -6  -6  -7  163.48   15.80
   6   6   7  193.48   13.80
  -7  -6  -7    8.60    3.90
  -7  -6  -7    2.10    5.40
   7   6   7    5.10    3.30
  -8  -6  -7   -3.20    3.70
  -8  -6  -7   -0.30    5.60
  -9  -6  -7    0.00    4.20
  -9  -6  -7    5.90    6.00
 -10  -6  -7   18.90    7.90
   6  -7  -7    0.80    5.00
  -6   7   7   -2.60    7.00
   5  -7  -7   -1.10    4.40
  -5   7   7    1.80    6.40
   4  -7  -7    3.80    4.20
  -4   7   7   -1.50    5.70
   3  -7  -7   -1.60    3.70
  -3   7   7   -6.90    5.00
   2  -7  -7   -1.40    3.50
  -2   7   7    1.70    4.40
   1  -7  -7   26.00    5.70
   0  -7  -7   -0.70    2.90
  -1  -7  -7   -0.30    3.20
   1   7   7    6.70    3.30
  -2  -7  -7   -2.50    2.70
   2   7   7   -0.40    3.10
  -3  -7  -7   29.30    5.50
   3   7   7   32.70    5.70
  -4  -7  -7    7.60    4.30
  -4  -7  -7   -4.00    2.90
   4   7   7    5.60    3.70
  -5  -7  -7    7.70    3.90
  -5  -7  -7   10.70    4.50
  -6  -7  -7    1.60    3.40
  -6  -7  -7   -0.80    5.00
  -7  -7  -7    0.90    5.20
  -7  -7  -7   -1.70    3.30
  -8  -7  -7   -4.00    3.60
  -8  -7  -7    8.60    6.00
  -9  -7  -7    2.00    4.10
  -9  -7  -7   17.10    6.60
   5  -8  -7    8.00    5.50
   4  -8  -7    0.30    4.60
   3  -8  -7   14.80    5.20
   2  -8  -7    7.90    4.80
   1  -8  -7   36.40    6.50
   0  -8  -7    1.90    3.30
  -1  -8  -7    3.80    3.40
  -2  -8  -7    0.10    3.00
  -3  -8  -7   39.90    6.60
  -4  -8  -7    5.80    3.60
  -5  -8  -7   -0.20    3.50
  -6  -8  -7   19.10    5.60
  -6  -8  -7   14.50    5.50
  -7  -8  -7   49.99    8.50
  -7  -8  -7   28.70    6.70
  -8  -8  -7   15.50    5.50
  -8  -8  -7   23.80    7.50
  -9  -8  -7   10.20    4.80
   3  -9  -7   14.10    5.90
   2  -9  -7    1.60    4.50
   1  -9  -7    7.50    4.90
   0  -9  -7   -0.30    3.70
  -1  -9  -7    1.80    3.10
  -2  -9  -7   -1.40    3.00
  -3  -9  -7   10.30    4.70
  -4  -9  -7    3.70    3.60
  -5  -9  -7   19.00    5.30
  -6  -9  -7   -1.20    3.80
  -7  -9  -7   18.50    5.20
  -8  -9  -7   -3.10    4.00
   1 -10  -7   11.70    5.20
   0 -10  -7   38.60    7.60
  -1 -10  -7    3.60    4.50
  -2 -10  -7   34.10    6.20
  -3 -10  -7    2.30    4.10
  -4 -10  -7   11.60    4.90
  -5 -10  -7    6.00    4.60
  -6 -10  -7    9.50    4.70
  -2 -11  -7    3.10    4.20
  -3 -11  -7   -2.70    3.50
  -4 -11  -7    3.70    4.50
  -4  -7   8   -5.80    3.50
  -4  -7   8   -3.90    3.20
  -3  -7   8   -2.40    4.00
  -3  -7   8    1.40    3.60
  -2  -7   8   -2.90    3.10
  -2  -7   8   -3.90    3.70
  -1  -7   8   12.50    4.30
  -1  -7   8   11.00    5.20
   0  -7   8    1.40    4.30
   0  -7   8    4.60    3.30
   1  -7   8   13.60    5.00
   1  -7   8    9.50    3.50
  -6  -6   8   45.50    7.10
  -6  -6   8   22.90    6.30
  -5  -6   8    6.70    4.50
  -5  -6   8    0.90    3.90
  -4  -6   8    0.60    3.90
  -4  -6   8    1.90    4.00
  -3  -6   8    9.90    3.60
  -3  -6   8    3.20    4.20
  -2  -6   8   19.10    4.30
  -2  -6   8   16.70    4.80
  -1  -6   8   -4.90    2.90
  -1  -6   8   -5.90    3.20
   0  -6   8   -1.00    3.50
   0  -6   8   -4.70    3.40
   1  -6   8    2.10    3.60
   1  -6   8   -1.10    3.00
  -2   6  -8    5.00    6.50
   2  -6   8   -0.40    3.80
   2  -6   8    1.50    3.70
  -3   6  -8   14.30    7.20
   3  -6   8    7.30    3.50
   3  -6   8    5.40    4.50
  -7  -5   8   -9.50    4.80
  -7  -5   8   -2.80    4.20
  -6  -5   8    1.10    4.40
  -6  -5   8   -4.90    3.70
  -5  -5   8    1.30    3.60
  -5  -5   8   -4.30    3.90
  -4  -5   8   -0.60    3.40
  -4  -5   8    1.80    3.60
  -3  -5   8   14.20    4.30
  -3  -5   8   16.10    3.90
  -2  -5   8   -2.30    3.00
  -2  -5   8   -5.60    2.90
  -1  -5   8    0.50    2.80
  -1  -5   8    2.10    3.20
   0  -5   8   21.60    4.90
   0  -5   8   13.70    4.60
  -1   5  -8    7.50    5.90
   1  -5   8    2.30    2.70
   1  -5   8   -2.00    3.50
  -2   5  -8   18.70    6.90
   2  -5   8   14.50    4.50
   2  -5   8   11.10    3.50
  -3   5  -8    7.90    6.80
   3  -5   8   15.70    4.80
   3  -5   8    3.60    4.20
  -4   5  -8    1.70    6.30
   4  -5   8    4.60    4.20
   4  -5   8    0.00    4.40
  -5   5  -8    1.00    6.80
  -8  -4   8    7.30    5.50
  -7  -4   8   -0.10    4.20
  -7  -4   8    2.80    4.80
  -6  -4   8    1.90    4.50
  -6  -4   8    0.80    4.30
  -5  -4   8   19.00    4.90
  -5  -4   8   13.70    4.70
  -4  -4   8    3.60    3.50
  -4  -4   8   -3.50    3.50
  -3  -4   8   25.70    5.10
  -3  -4   8   23.30    5.30
  -2  -4   8    1.80    2.70
  -2  -4   8    2.80    3.10
  -1  -4   8    5.60    3.30
  -1  -4   8    9.10    3.20
   0  -4   8    4.20    3.80
   0  -4   8    8.70    4.00
  -1   4  -8    8.90    5.90
   1  -4   8    6.00    3.60
   1  -4   8    5.80    3.60
  -2   4  -8   19.90    6.50
   2  -4   8    9.70    3.80
   2  -4   8    8.60    4.20
  -3   4  -8   46.60    9.10
   3  -4   8   35.00    6.30
   3  -4   8   44.50    6.70
  -4   4  -8    9.60    6.60
   4  -4   8    8.10    4.00
   4  -4   8    5.60    4.50
  -5   4  -8   90.29   12.50
   5  -4   8  112.09   11.40
   5  -4   8   64.89    8.60
  -6   4  -8   -0.50    6.50
   6  -4   8   -1.30    3.70
  -8  -3   8   33.50    7.30
  -8  -3   8   45.20    7.50
  -7  -3   8    2.40    4.60
  -7  -3   8   -1.10    4.30
  -6  -3   8    4.00    4.40
  -6  -3   8    3.90    4.10
  -5  -3   8   11.90    4.50
  -5  -3   8   17.00    4.60
  -4  -3   8    1.10    3.20
  -4  -3   8    1.50    3.00
  -3  -3   8    2.90    3.40
  -3  -3   8    1.50    3.00
  -2  -3   8    3.10    3.20
  -2  -3   8    0.80    3.00
  -1  -3   8   13.60    3.30
  -1  -3   8   13.30    3.90
   0  -3   8   -1.90    2.50
   0  -3   8    1.00    2.60
  -1   3  -8    3.50    5.00
   1  -3   8    1.60    2.90
   1  -3   8    1.00    2.70
  -2   3  -8    0.00    4.70
   2  -3   8   -2.30    2.60
   2  -3   8   -0.10    3.10
  -3   3  -8   -0.30    5.20
   3  -3   8   -4.40    3.20
   3  -3   8   -1.80    3.10
  -4   3  -8   -0.70    5.60
   4  -3   8   -4.50    3.50
   4  -3   8   -4.10    2.70
  -5   3  -8   12.50    6.50
   5  -3   8   15.30    5.50
   5  -3   8    8.40    3.70
  -6   3  -8    1.80    5.90
   6  -3   8   -4.40    4.50
   6  -3   8   -2.60    3.40
  -7   3  -8    2.60    6.50
   7  -3   8   -5.10    3.40
  -8  -2   8   17.40    5.80
  -8  -2   8   24.30    5.90
  -7  -2   8   -0.90    4.50
  -7  -2   8    0.60    4.40
  -6  -2   8   65.09    9.20
  -6  -2   8   62.29    8.10
  -5  -2   8   19.50    5.30
  -5  -2   8   14.40    4.90
  -4  -2   8    6.40    3.90
  -4  -2   8    9.40    4.20
  -3  -2   8   67.09    7.60
  -3  -2   8   70.29    8.60
  -2  -2   8  121.79   11.70
  -2  -2   8  131.09   11.10
  -1  -2   8  240.98   17.70
  -1  -2   8  219.48   18.80
   0  -2   8   25.00    4.20
   0  -2   8   16.80    3.90
  -1   2  -8   80.89   11.40
  -1   2  -8   93.69    8.50
   1  -2   8  102.29    8.90
   1  -2   8   90.29    9.40
  -2   2  -8  184.88   19.60
   2  -2   8  207.98   16.60
   2  -2   8  195.08   15.40
  -3   2  -8   20.20    6.30
   3  -2   8   17.10    4.10
   3  -2   8   15.50    4.50
  -4   2  -8   12.20    6.10
   4  -2   8   10.60    4.60
   4  -2   8   14.60    4.30
  -5   2  -8   10.80    6.20
   5  -2   8    4.30    4.40
   5  -2   8    2.90    3.40
  -6   2  -8   25.70    8.20
   6  -2   8   20.50    4.80
   6  -2   8   31.50    6.30
  -7   2  -8   38.40    8.80
   7  -2   8   25.60    5.50
  -8  -1   8    5.40    4.80
  -8  -1   8    2.80    5.00
  -7  -1   8   30.60    6.20
  -7  -1   8   22.20    6.00
  -6  -1   8   10.60    4.70
  -6  -1   8    8.30    4.60
  -5  -1   8   27.80    5.80
  -5  -1   8   28.40    5.50
  -4  -1   8   45.10    7.30
  -4  -1   8   64.39    7.40
  -3  -1   8  197.48   17.70
  -3  -1   8  216.58   16.40
  -2  -1   8    2.90    2.50
  -2  -1   8    8.50    3.80
  -1  -1   8   15.80    3.50
  -1  -1   8   23.30    5.00
   0  -1   8   32.80    5.20
   0  -1   8   27.60    5.10
  -1   1  -8    3.20    2.20
  -1   1  -8    6.10    4.30
   1  -1   8    2.90    3.60
   1  -1   8    3.00    2.80
  -2   1  -8   12.60    3.10
  -2   1  -8   14.60    5.60
   2  -1   8   17.60    4.10
   2  -1   8   14.10    4.30
  -3   1  -8   11.10    5.00
   3  -1   8    2.30    3.80
   3  -1   8    4.40    3.00
  -4   1  -8    9.30    5.50
   4  -1   8    3.80    3.00
   4  -1   8    1.90    4.10
  -5   1  -8   43.30    9.00
   5  -1   8   60.49    8.50
   5  -1   8   55.69    7.00
  -6   1  -8   31.40    7.60
   6  -1   8   28.70    6.00
   6  -1   8   23.40    4.70
  -7   1  -8   36.60    8.20
   7  -1   8   23.70    5.30
  -8   1  -8    2.30    6.20
   8  -1   8    4.60    4.40
  -8   0   8   -2.50    5.20
  -8   0   8   -1.10    4.50
  -8   0   8    1.10    6.50
  -7   0   8   -1.10    4.50
  -7   0   8    5.70    4.40
  -6   0   8    0.50    4.60
  -6   0   8    9.60    4.60
  -5   0   8    0.40    3.80
  -5   0   8    3.70    4.30
  -4   0   8   63.49    8.10
  -4   0   8   47.50    7.30
  -3   0   8   19.70    5.00
  -3   0   8   18.20    4.20
  -2   0   8   54.79    7.00
  -2   0   8   63.19    8.20
  -1   0   8  933.51   64.39
  -1   0   8  928.01   68.69
   0   0  -8  668.33   46.80
   0   0   8  568.54   42.30
   0   0   8  558.04   45.10
  -1   0  -8  918.31   84.19
  -1   0  -8  998.40   74.79
   1   0   8  982.80   66.99
   1   0   8  977.70   71.49
  -2   0  -8   48.20    8.50
   2   0   8   54.99    6.90
   2   0   8   64.19    8.10
  -3   0  -8   29.60    6.70
   3   0   8   40.10    6.50
   3   0   8   24.20    4.80
  -4   0  -8   52.79    9.20
   4   0   8   71.49    8.40
   4   0   8   46.60    6.60
  -5   0  -8    8.80    5.80
   5   0   8    8.90    4.00
   5   0   8    2.00    4.40
  -6   0  -8   12.60    6.70
   6   0   8    3.90    4.10
   6   0   8    8.60    4.30
  -7   0  -8    6.60    6.10
   7   0   8    3.80    3.80
  -8   0  -8   -1.30    6.10
   8   0   8   -4.00    3.80
  -8   1   8   -8.00    4.90
  -8   1   8    2.30    4.20
  -8   1   8   -3.40    6.30
  -7   1   8   18.10    5.70
  -7   1   8   27.10    5.40
  -6   1   8   60.99    7.80
  -6   1   8   40.50    7.20
   5  -1  -8   22.00    3.90
  -5   1   8   12.40    4.20
  -5   1   8   17.00    5.00
   4  -1  -8    2.40    2.60
  -4   1   8   -1.10    3.80
  -4   1   8   -0.90    3.20
  -4   1   8    2.60    1.70
   3  -1  -8    2.90    2.10
  -3   1   8    0.60    4.00
  -3   1   8    3.20    3.40
   2  -1  -8   32.70    4.00
  -2   1   8   24.90    5.20
  -2   1   8   26.10    4.90
   1  -1  -8   12.10    2.40
  -1   1   8    5.60    3.60
  -1   1   8    6.90    3.70
   0   1   8   26.20    5.00
   0   1   8   20.20    3.80
  -1  -1  -8   78.79    9.30
  -1  -1  -8   62.89    6.40
   1   1   8   54.69    6.80
   1   1   8   61.89    8.40
  -2  -1  -8  110.59   10.20
  -2  -1  -8  123.89   12.80
   2   1   8  122.99   11.50
   2   1   8  109.39   10.10
  -3  -1  -8   75.09   10.30
   3   1   8   83.79    9.10
   3   1   8   74.79    8.00
  -4  -1  -8  423.26   33.20
   4   1   8  344.67   27.80
   4   1   8  306.17   25.90
  -5  -1  -8   15.90    6.10
   5   1   8   15.40    4.60
   5   1   8   21.40    5.20
  -6  -1  -8    9.60    5.90
   6   1   8    4.00    4.30
   6   1   8    5.60    3.70
  -7  -1  -8   10.00    5.90
   7   1   8    6.30    3.80
   7   1   8    5.10    4.20
  -8  -1  -8   30.10    8.30
   8   1   8   25.30    5.70
  -9  -1  -8    4.20    6.70
  -8   2   8   -8.60    5.90
  -8   2   8    2.00    5.10
  -8   2   8    0.60    4.30
  -7   2   8    3.10    4.10
  -7   2   8    0.60    6.00
  -7   2   8    0.20    4.50
   6  -2  -8   33.10    5.20
  -6   2   8   24.00    5.30
  -6   2   8   18.70    5.90
   5  -2  -8    4.40    3.30
  -5   2   8   -0.50    4.00
  -5   2   8    7.30    4.20
   4  -2  -8   45.50    6.00
  -4   2   8   45.10    6.60
  -4   2   8   34.40    6.40
   3  -2  -8  728.53   51.69
  -3   2   8  669.33   51.49
  -3   2   8  638.54   46.50
  -3   2   8  604.74   49.60
   2  -2  -8   18.00    3.20
  -2   2   8   13.10    3.70
  -2   2   8   18.60    4.30
  -2   2   8   14.80    2.70
   1  -2  -8  176.18   13.80
  -1   2   8  147.09   13.00
  -1   2   8  150.48   14.10
   0  -2  -8   20.50    3.70
   0   2   8   19.40    4.60
   0   2   8   17.60    4.00
  -1  -2  -8  590.74   44.10
   1   2   8  560.84   39.70
   1   2   8  534.15   42.40
  -2  -2  -8    9.70    4.40
  -2  -2  -8    4.00    2.30
   2   2   8    3.60    3.60
   2   2   8    1.10    2.50
  -3  -2  -8   75.39    7.80
  -3  -2  -8   73.39    9.90
   3   2   8   81.09    8.10
   3   2   8   79.69    9.00
  -4  -2  -8   51.59    8.80
   4   2   8   57.39    8.00
   4   2   8   57.59    6.90
  -5  -2  -8   11.90    5.90
   5   2   8    9.30    3.90
   5   2   8    1.00    3.30
  -6  -2  -8    6.60    5.50
   6   2   8    8.10    3.90
   6   2   8    1.50    3.80
  -7  -2  -8   88.29   12.30
   7   2   8   84.99    9.10
   7   2   8   97.69    9.90
  -8  -2  -8    4.50    6.50
   8   2   8   -4.90    4.00
  -9  -2  -8    5.90    7.30
  -8   3   8   22.40    8.10
  -8   3   8   23.20    6.40
   7  -3  -8   -2.60    3.80
  -7   3   8   -2.10    4.40
  -7   3   8   -0.40    4.00
  -7   3   8   -1.10    6.10
   6  -3  -8    0.90    3.60
  -6   3   8    1.10    5.70
  -6   3   8    4.90    4.40
  -6   3   8   -1.00    3.80
   5  -3  -8    2.40    3.10
  -5   3   8    2.30    3.20
  -5   3   8   -0.40    3.80
   4  -3  -8    0.40    2.80
  -4   3   8   -0.70    3.00
  -4   3   8   -4.40    3.20
   3  -3  -8   10.70    3.10
  -3   3   8    2.30    3.50
  -3   3   8    5.00    3.20
   2  -3  -8    1.80    2.40
  -2   3   8    5.00    3.40
  -2   3   8   -0.50    2.80
   1  -3  -8   10.40    3.10
  -1   3   8    8.70    3.80
  -1   3   8    8.20    3.50
   0  -3  -8  205.28   16.40
   0   3   8  180.48   16.30
   0   3   8  188.98   15.10
  -1  -3  -8   48.00    5.80
   1   3   8   34.30    6.20
   1   3   8   45.40    6.10
  -2  -3  -8   83.99    8.50
  -2  -3  -8  107.99   10.60
   2   3   8   82.99    8.60
   2   3   8   83.49    9.60
  -3  -3  -8    1.40    4.10
  -3  -3  -8    1.20    2.30
   3   3   8    2.20    3.00
   3   3   8    1.20    3.20
  -4  -3  -8  121.29   11.20
  -4  -3  -8  121.89   13.20
   4   3   8  117.49   10.40
   4   3   8  111.89   11.30
  -5  -3  -8  116.79   12.00
   5   3   8   92.69    9.50
   5   3   8   68.89    8.90
  -6  -3  -8   78.69   10.70
   6   3   8   68.49    8.20
   6   3   8   71.19    8.40
  -7  -3  -8   11.50    6.70
   7   3   8    3.70    4.00
  -8  -3  -8    4.90    6.70
   8   3   8    4.00    4.20
  -9  -3  -8   10.60    7.80
   7  -4  -8   -3.20    3.90
  -7   4   8    7.60    5.00
  -7   4   8   -1.90    6.50
   6  -4  -8   18.10    4.90
  -6   4   8   10.10    4.60
  -6   4   8   10.90    4.50
  -6   4   8   11.50    6.80
   5  -4  -8   31.00    5.60
  -5   4   8   35.30    8.20
  -5   4   8   26.00    5.00
  -5   4   8   32.90    6.40
   4  -4  -8   47.60    6.50
  -4   4   8   41.70    5.90
  -4   4   8   47.50    7.30
   3  -4  -8   17.80    4.10
  -3   4   8   15.00    4.50
  -3   4   8   13.70    3.70
   2  -4  -8  102.19    9.60
  -2   4   8   85.49    8.60
  -2   4   8   80.49    9.80
   1  -4  -8  138.79   11.40
  -1   4   8  101.79   10.20
  -1   4   8  112.59   11.50
   0  -4  -8   80.19    8.10
   0   4   8   62.09    7.50
   0   4   8   75.19    8.70
  -1  -4  -8   52.39    6.50
   1   4   8   50.49    7.50
   1   4   8   57.39    6.40
  -2  -4  -8    3.40    2.50
   2   4   8    3.00    3.00
   2   4   8    3.00    3.40
  -3  -4  -8   54.69    7.80
  -3  -4  -8   39.50    5.90
   3   4   8   41.10    6.60
   3   4   8   49.99    6.10
  -4  -4  -8   62.79    7.40
  -4  -4  -8   62.59    9.00
   4   4   8   54.89    7.70
   4   4   8   72.79    7.40
  -5  -4  -8   27.90    6.60
  -5  -4  -8   21.00    4.80
   5   4   8   25.80    4.70
   5   4   8   21.50    4.90
  -6  -4  -8    2.20    3.50
  -6  -4  -8    8.80    5.80
   6   4   8    7.20    3.70
   6   4   8   12.00    4.10
  -7  -4  -8    3.60    6.00
   7   4   8    4.10    3.60
  -8  -4  -8   60.39   11.10
   8   4   8   61.99    7.70
  -9  -4  -8   27.60    8.80
   7  -5  -8   -1.90    4.70
  -7   5   8    3.60    4.60
  -7   5   8    2.60    7.10
   6  -5  -8   -2.80    3.80
  -6   5   8    0.20    4.10
  -6   5   8    2.10    6.30
   5  -5  -8    0.40    3.70
  -5   5   8    1.20    3.80
  -5   5   8    5.10    4.00
  -5   5   8    4.40    6.00
   4  -5  -8    4.00    3.90
  -4   5   8    2.20    3.60
  -4   5   8    1.50    5.20
  -4   5   8    3.80    3.00
   3  -5  -8    6.10    3.80
  -3   5   8   12.00    4.30
  -3   5   8    1.70    3.00
   2  -5  -8    5.60    3.30
  -2   5   8    2.10    3.40
  -2   5   8    0.90    3.10
   1  -5  -8   54.09    7.60
  -1   5   8   59.99    6.80
   0  -5  -8    0.00    2.90
   0   5   8    1.20    3.30
   0   5   8    0.90    3.10
  -1  -5  -8   47.90    6.40
   1   5   8   33.40    5.40
   1   5   8   50.59    7.10
  -2  -5  -8    9.90    3.10
   2   5   8   12.30    3.70
   2   5   8    7.50    3.20
  -3  -5  -8  112.29   11.40
  -3  -5  -8   90.89    9.90
   3   5   8  106.59    9.60
   3   5   8  102.59   10.40
  -4  -5  -8    0.60    4.30
  -4  -5  -8    2.00    2.80
   4   5   8    2.40    3.00
   4   5   8    5.50    4.00
  -5  -5  -8    5.70    5.20
  -5  -5  -8    7.00    3.50
   5   5   8    5.50    3.30
   5   5   8    1.90    3.50
  -6  -5  -8    1.70    3.40
  -6  -5  -8   17.40    6.00
   6   5   8   -0.90    2.90
  -7  -5  -8    2.80    3.60
  -7  -5  -8    3.20    5.70
   7   5   8    3.40    3.80
  -8  -5  -8    2.20    6.50
  -8  -5  -8    1.10    4.00
  -9  -5  -8    2.20    6.80
   6  -6  -8   -1.80    4.30
  -6   6   8    2.20    4.30
  -6   6   8   -3.40    7.10
   5  -6  -8   -0.40    3.80
  -5   6   8   -2.80    5.70
  -5   6   8    4.20    4.20
   4  -6  -8   14.60    4.80
  -4   6   8   10.20    4.40
  -4   6   8   16.80    6.90
   3  -6  -8    0.20    3.60
  -3   6   8    1.80    2.90
  -3   6   8   -0.60    3.70
  -3   6   8    0.20    4.80
   2  -6  -8   -1.20    3.20
  -2   6   8   -2.10    2.90
  -2   6   8   -2.00    2.90
   1  -6  -8   11.20    4.20
  -1   6   8   16.50    4.40
  -1   6   8   16.20    4.90
   0  -6  -8    0.20    2.70
   0   6   8   -1.20    2.80
   0   6   8    3.60    3.50
   0   6   8    1.90    3.40
  -1  -6  -8    9.40    3.70
   1   6   8   12.10    3.40
   1   6   8    2.60    3.10
   1   6   8    6.90    4.30
  -2  -6  -8   -3.20    2.70
   2   6   8    0.10    3.70
   2   6   8   -5.50    3.10
   2   6   8   10.70    3.30
  -3  -6  -8   27.10    4.90
   3   6   8   28.00    5.50
   3   6   8   29.50    5.20
  -4  -6  -8   40.40    6.10
   4   6   8   46.80    6.50
  -5  -6  -8   52.79    7.80
  -5  -6  -8   68.59    9.30
   5   6   8   58.79    7.50
  -6  -6  -8   87.39   10.00
  -6  -6  -8   78.29   11.20
   6   6   8   97.09    9.10
  -7  -6  -8   24.30    7.10
  -7  -6  -8   16.10    4.90
   7   6   8   17.40    4.40
  -8  -6  -8    1.20    6.20
  -8  -6  -8   -2.20    3.90
  -9  -6  -8    4.10    4.60
  -9  -6  -8   17.10    7.70
   5  -7  -8    8.80    5.00
  -5   7   8    0.30    6.70
   4  -7  -8    4.30    4.50
  -4   7   8    6.40    6.40
   3  -7  -8   -0.50    3.70
  -3   7   8   -5.30    4.90
   2  -7  -8   -3.50    3.50
  -2   7   8   -1.40    4.50
  -2   7   8   -1.20    3.50
   1  -7  -8   17.90    5.00
  -1   7   8   26.20    5.70
  -1   7   8   12.80    4.10
  -1   7   8   16.60    4.50
   0  -7  -8   24.70    5.00
   0   7   8   28.10    5.60
   0   7   8   30.30    5.30
  -1  -7  -8   -2.80    3.20
   1   7   8    4.90    3.40
  -2  -7  -8   -0.30    3.20
   2   7   8   -1.20    3.10
  -3  -7  -8   -0.20    2.90
   3   7   8    0.70    3.40
  -4  -7  -8    8.10    3.80
   4   7   8   10.00    4.40
  -5  -7  -8   -1.20    4.40
  -5  -7  -8    1.80    3.30
   5   7   8   -1.20    3.40
  -6  -7  -8   -2.60    4.60
  -6  -7  -8   -1.80    3.30
   6   7   8    1.00    3.60
  -7  -7  -8   -4.30    5.80
  -7  -7  -8    2.10    4.00
  -8  -7  -8    4.30    5.90
  -8  -7  -8   -5.90    3.80
  -9  -7  -8    4.30    7.20
   4  -8  -8    1.30    4.80
   3  -8  -8    1.50    4.40
   2  -8  -8    2.00    4.20
   1  -8  -8   13.90    4.80
   0  -8  -8   15.20    4.50
  -1  -8  -8   -2.90    3.10
  -2  -8  -8   -1.20    3.00
  -3  -8  -8  102.49   11.10
  -4  -8  -8   14.20    4.90
  -5  -8  -8   -2.40    3.80
  -6  -8  -8    3.60    4.00
  -7  -8  -8   44.60    7.90
  -8  -8  -8    2.40    4.80
   2  -9  -8    5.30    4.60
   1  -9  -8   -6.90    3.40
   0  -9  -8   -0.20    4.00
  -1  -9  -8   -1.20    3.30
  -2  -9  -8   -0.20    3.30
  -3  -9  -8   -3.30    3.50
  -4  -9  -8   -1.90    3.30
  -5  -9  -8   -1.30    4.20
  -6  -9  -8    4.10    4.60
  -7  -9  -8    3.40    4.30
   0 -10  -8    8.40    5.00
  -1 -10  -8   10.60    4.90
  -2 -10  -8    4.00    4.20
  -3 -10  -8   -4.20    3.80
  -4 -10  -8    4.50    4.50
  -5 -10  -8    0.40    4.40
  -4  -6   9   -3.60    3.60
  -4  -6   9   -1.50    4.00
  -3  -6   9   11.20    4.90
  -3  -6   9    5.30    4.30
  -2  -6   9   -1.20    3.10
  -2  -6   9   -3.60    3.50
  -1  -6   9   10.30    4.30
  -1  -6   9    4.50    4.20
   0  -6   9    1.90    3.00
   0  -6   9    0.70    3.70
   1  -6   9   -2.60    3.60
   1  -6   9    1.60    3.60
  -5  -5   9   -4.20    3.60
  -5  -5   9    0.40    3.80
  -4  -5   9   -3.50    3.40
  -4  -5   9   -0.70    3.40
  -3  -5   9   -0.60    3.50
  -3  -5   9    0.30    3.60
  -2  -5   9   30.70    5.50
  -2  -5   9   18.70    4.90
  -1  -5   9   -2.20    2.70
  -1  -5   9    0.10    3.60
   0  -5   9   -1.50    3.40
   0  -5   9   -0.70    2.70
   1  -5   9    8.10    4.40
   1  -5   9    8.30    4.20
  -2   5  -9   34.10    8.40
   2  -5   9   13.20    4.80
   2  -5   9   21.70    5.20
  -3   5  -9   -0.70    6.10
   3  -5   9   -2.50    4.10
   3  -5   9    1.90    3.00
  -6  -4   9   -2.30    4.50
  -6  -4   9   -3.80    3.80
  -5  -4   9    9.50    4.30
  -5  -4   9    6.20    4.50
  -4  -4   9    4.20    3.90
  -4  -4   9    2.90    4.00
  -3  -4   9   17.00    4.60
  -3  -4   9    5.10    4.20
  -2  -4   9   24.20    5.20
  -2  -4   9   19.10    5.00
  -1  -4   9   16.50    3.70
  -1  -4   9   10.30    4.70
   0  -4   9   -3.20    2.70
   0  -4   9   -2.90    3.10
   1  -4   9   40.60    6.60
   1  -4   9   34.30    5.30
  -2   4  -9    3.90    6.30
   2  -4   9   -2.60    3.50
   2  -4   9    4.00    3.00
  -3   4  -9   -1.20    5.70
   3  -4   9   -2.00    4.00
   3  -4   9    2.10    3.00
  -4   4  -9   36.00    8.60
   4  -4   9   46.00    7.50
   4  -4   9   23.70    4.90
  -5   4  -9   20.10    7.60
  -7  -3   9    4.20    4.70
  -7  -3   9    9.90    5.00
  -6  -3   9   15.00    5.10
  -6  -3   9   12.10    4.80
  -5  -3   9   27.90    6.40
  -5  -3   9   36.40    6.60
  -4  -3   9    5.60    3.50
  -4  -3   9    4.80    3.90
  -3  -3   9   -3.10    2.70
  -3  -3   9    2.10    3.20
  -2  -3   9    2.60    3.60
  -2  -3   9    3.30    3.10
  -1  -3   9   69.19    7.70
  -1  -3   9   68.79    8.40
   0  -3   9    6.90    3.60
   0  -3   9    7.70    3.20
  -1   3  -9   -0.90    5.10
   1  -3   9   -0.60    2.90
   1  -3   9   -0.80    2.70
  -2   3  -9   23.40    6.70
   2  -3   9    6.70    3.40
   2  -3   9    4.00    3.70
  -3   3  -9   11.50    6.00
   3  -3   9    4.80    4.30
   3  -3   9    3.60    3.10
  -4   3  -9    0.40    5.90
   4  -3   9   -1.00    3.60
   4  -3   9    0.40    4.30
  -5   3  -9    1.10    6.00
   5  -3   9   -1.60    4.60
   5  -3   9    3.30    3.80
  -6   3  -9    0.90    6.20
   6  -3   9   -1.70    3.60
  -7  -2   9   -3.20    4.20
  -7  -2   9    1.00    4.60
  -6  -2   9   -1.30    3.90
  -6  -2   9   10.70    5.00
  -5  -2   9    5.90    4.20
  -5  -2   9   11.20    5.10
  -4  -2   9    1.90    3.70
  -4  -2   9   -3.70    3.00
  -3  -2   9   21.50    4.50
  -3  -2   9   18.80    5.00
  -2  -2   9   81.19    8.30
  -2  -2   9   75.39    9.40
  -1  -2   9    0.00    2.60
  -1  -2   9   -0.10    3.00
   0  -2   9   33.60    5.80
   0  -2   9   27.40    5.70
  -1   2  -9    2.10    5.30
   1  -2   9   -2.30    2.80
   1  -2   9   -4.50    3.00
  -2   2  -9  125.39   15.40
   2  -2   9  145.09   12.10
   2  -2   9  146.29   13.30
  -3   2  -9   23.40    7.00
   3  -2   9   19.10    4.90
   3  -2   9   24.20    5.70
  -4   2  -9   26.50    7.80
   4  -2   9   41.50    6.80
   4  -2   9   28.00    5.10
  -5   2  -9   61.79   10.90
   5  -2   9   61.29    7.90
   5  -2   9   78.59   10.20
  -6   2  -9   15.30    7.20
   6  -2   9   21.60    6.70
   6  -2   9   10.30    4.40
  -7  -1   9    5.00    5.30
  -7  -1   9   12.30    5.20
  -6  -1   9   29.50    6.10
  -6  -1   9   15.10    5.90
  -5  -1   9    3.20    4.00
  -5  -1   9    9.50    4.70
  -4  -1   9   -0.40    3.60
  -4  -1   9    2.70    4.00
  -3  -1   9   18.60    5.20
  -3  -1   9   24.40    5.20
  -2  -1   9   -0.70    2.70
  -2  -1   9   -1.80    3.10
  -1  -1   9   -0.80    2.40
  -1  -1   9   -2.50    3.10
   0  -1   9    4.40    3.70
   0  -1   9    4.80    3.50
  -1   1  -9    2.00    5.10
  -1   1  -9    3.00    2.20
  -1   1  -9   -0.30    1.60
   1  -1   9   -1.20    2.50
   1  -1   9    0.30    3.50
  -2   1  -9   -3.50    4.70
   2  -1   9    7.80    4.10
   2  -1   9   -2.10    2.70
  -3   1  -9   -3.40    4.40
   3  -1   9    0.50    3.70
   3  -1   9   -4.50    2.70
  -4   1  -9    4.10    5.60
   4  -1   9   -1.70    3.00
   4  -1   9    3.40    4.40
  -5   1  -9   -0.70    5.80
   5  -1   9    3.20    4.80
   5  -1   9   -2.40    3.10
  -6   1  -9   15.90    6.80
   6  -1   9   18.90    6.00
   6  -1   9    9.70    4.00
  -7   1  -9   -8.70    5.60
   7  -1   9    0.90    3.90
  -8   0   9    4.50    4.60
  -7   0   9   27.20    5.80
  -7   0   9   22.70    6.80
  -6   0   9   19.80    5.50
  -6   0   9   11.80    5.60
  -5   0   9   -3.50    3.60
  -5   0   9    4.20    4.00
  -4   0   9   11.30    4.70
  -4   0   9   13.70    4.80
  -3   0   9   75.39    8.50
  -3   0   9   83.09    9.50
  -2   0   9   -5.50    3.20
  -2   0   9    6.00    3.40
  -1   0   9    6.60    3.80
  -1   0   9    5.40    4.00
   0   0   9   -0.40    2.90
   0   0   9    1.00    3.60
  -1   0  -9    7.40    5.20
  -1   0  -9    4.00    2.10
   1   0   9    2.30    3.90
   1   0   9    0.60    2.50
  -2   0  -9   -4.20    4.20
   2   0   9    0.50    3.40
   2   0   9   -1.50    2.50
  -3   0  -9   79.09   11.20
   3   0   9   88.99    9.10
   3   0   9   98.69   10.50
  -4   0  -9    5.80    5.90
   4   0   9    7.30    4.30
   4   0   9   11.00    5.30
  -5   0  -9    5.20    6.00
   5   0   9   -2.20    4.40
   5   0   9   -1.40    3.60
  -6   0  -9   19.50    7.30
   6   0   9   17.50    5.40
   6   0   9   13.00    5.40
  -7   0  -9   42.80    9.50
   7   0   9   26.30    5.80
  -8   0  -9    2.30    6.90
   8   0   9   -0.50    4.50
  -8   1   9    7.50    7.40
  -7   1   9   -5.90    4.50
  -7   1   9    4.60    4.40
  -6   1   9   12.30    5.40
  -6   1   9   15.30    4.70
  -5   1   9    8.40    4.20
  -5   1   9    2.50    4.10
  -4   1   9    3.30    3.60
  -4   1   9    2.80    3.60
  -3   1   9   -1.70    3.10
  -3   1   9   -1.80    3.50
  -2   1   9   -4.20    3.30
  -2   1   9   -1.70    3.50
   1  -1  -9    1.50    1.90
  -1   1   9    0.40    3.40
  -1   1   9   -0.60    2.50
   0  -1  -9    2.40    2.30
   0   1   9   -0.20    2.40
   0   1   9   -4.20    3.40
  -1  -1  -9    1.00    2.00
   1   1   9   -5.30    3.60
   1   1   9    0.60    3.30
  -2  -1  -9    2.60    2.20
  -2  -1  -9   -0.50    4.60
   2   1   9    2.30    4.10
   2   1   9    3.10    3.30
  -3  -1  -9  130.39   13.40
   3   1   9  100.79   11.70
  -4  -1  -9    9.00    5.60
   4   1   9    3.10    4.20
   4   1   9    0.20    3.10
  -5  -1  -9    6.10    5.50
   5   1   9    1.30    3.70
   5   1   9    0.80    4.30
  -6  -1  -9   28.00    7.60
   6   1   9   34.60    6.30
   6   1   9   29.40    6.10
  -7  -1  -9   28.80    8.30
   7   1   9   29.10    6.00
  -8  -1  -9   24.70    8.30
   8   1   9   15.50    5.50
  -7   2   9   34.90    7.40
  -7   2   9   42.40    9.90
  -7   2   9   33.00    6.10
   6  -2  -9   28.10    5.20
  -6   2   9   22.00    5.40
  -6   2   9   15.00    5.80
   5  -2  -9    6.70    3.60
  -5   2   9    6.80    4.50
  -5   2   9    8.90    4.20
   4  -2  -9   13.60    3.40
  -4   2   9    9.00    4.00
  -4   2   9    8.90    4.50
   3  -2  -9   16.90    3.50
  -3   2   9   22.70    4.90
  -3   2   9   13.30    4.90
   2  -2  -9  220.58   16.90
  -2   2   9  193.58   16.10
  -2   2   9  184.58   17.30
   1  -2  -9  113.19    9.30
  -1   2   9   84.69    9.40
  -1   2   9   76.79    9.90
   0  -2  -9   28.40    4.60
   0   2   9   25.40    5.30
   0   2   9   26.90    6.00
  -1  -2  -9  283.67   21.60
   1   2   9  252.27   21.60
   1   2   9  247.08   19.90
  -2  -2  -9  128.09   11.20
  -2  -2  -9  105.39   13.40
   2   2   9  136.09   11.20
   2   2   9  128.69   12.40
  -3  -2  -9   63.79   10.00
  -3  -2  -9   70.79    7.70
   3   2   9   89.69    9.70
   3   2   9   78.09    8.40
  -4  -2  -9    7.00    5.50
  -4  -2  -9    6.80    3.20
   4   2   9    3.10    4.30
   4   2   9    7.90    4.10
  -5  -2  -9   24.80    7.10
   5   2   9   12.80    4.80
   5   2   9   12.80    4.40
  -6  -2  -9   73.49   11.60
   6   2   9   61.89    8.60
   6   2   9   69.09    8.70
  -7  -2  -9   11.40    7.10
   7   2   9   11.00    5.00
   7   2   9    8.40    4.30
  -8  -2  -9   31.20    9.20
   8   2   9   33.30    6.70
   7  -3  -9   -2.30    4.10
  -7   3   9   -1.20    4.40
  -7   3   9   -2.60    3.70
  -7   3   9    6.50    6.50
   6  -3  -9    1.90    3.60
  -6   3   9   -1.90    4.10
  -6   3   9    3.00    4.00
   5  -3  -9   14.40    4.00
  -5   3   9   11.50    4.30
  -5   3   9    5.90    4.20
   4  -3  -9   -2.70    2.80
  -4   3   9    2.40    3.80
  -4   3   9    4.40    3.80
   3  -3  -9    1.80    2.70
  -3   3   9    4.00    3.30
  -3   3   9    0.60    3.90
   2  -3  -9    8.60    3.10
  -2   3   9    0.20    3.70
  -2   3   9    2.60    3.10
   1  -3  -9   17.70    3.90
  -1   3   9   11.00    4.30
  -1   3   9   14.90    4.30
   0  -3  -9   16.10    3.60
   0   3   9   12.90    3.50
   0   3   9   10.20    4.00
  -1  -3  -9  102.09    9.70
   1   3   9   91.39   10.60
   1   3   9   95.89    9.60
  -2  -3  -9   39.10    5.30
   2   3   9   24.60    4.90
   2   3   9   29.70    5.70
  -3  -3  -9   15.80    5.80
  -3  -3  -9   14.00    3.60
   3   3   9   19.90    4.90
   3   3   9   20.30    5.00
  -4  -3  -9   44.50    6.70
   4   3   9   43.50    6.80
   4   3   9   73.89    8.40
  -5  -3  -9  177.08   17.00
  -5  -3  -9  140.89   14.50
   5   3   9  166.58   14.50
   5   3   9  155.28   13.60
   6   3   9   83.29    9.50
   6   3   9   84.79    9.50
  -7  -3  -9   14.10    6.90
   7   3   9   10.30    4.30
   7   3   9    5.00    4.40
  -8  -3  -9   17.80    7.60
   8   3   9    8.40    4.80
  -9  -3  -9   -1.30    7.50
  -7   4   9   38.70   10.10
   6  -4  -9   31.30    5.90
  -6   4   9   22.50    6.10
  -6   4   9   15.90    4.70
  -6   4   9   23.40    8.40
   5  -4  -9   24.80    5.10
  -5   4   9   16.90    4.70
  -5   4   9   28.00    5.90
   4  -4  -9   13.70    4.20
  -4   4   9   11.90    4.10
  -4   4   9   11.10    4.30
   3  -4  -9    5.80    3.60
  -3   4   9    7.90    4.30
  -3   4   9    2.70    3.20
  -2   4   9   79.69    9.40
  -2   4   9   75.19    8.30
   1  -4  -9  112.09   10.30
  -1   4   9   82.89   10.30
  -1   4   9   92.79    9.30
   0  -4  -9  150.48   12.90
   0   4   9  123.49   12.90
   0   4   9  134.29   11.80
  -1  -4  -9  117.19   11.20
   1   4   9  115.49   11.80
   1   4   9  115.79   10.50
  -2  -4  -9   46.50    6.90
   2   4   9   67.19    8.30
   2   4   9   58.99    7.20
  -3  -4  -9   53.59    8.20
  -3  -4  -9   41.50    6.50
   3   4   9   48.30    6.50
   3   4   9   67.59    8.50
  -4  -4  -9   49.40    8.50
  -4  -4  -9   51.89    7.10
   4   4   9   60.39    7.40
   4   4   9   55.99    8.00
  -5  -4  -9   22.70    4.80
  -5  -4  -9   25.30    6.80
   5   4   9   26.90    5.50
   5   4   9   25.50    5.60
  -6  -4  -9   -1.50    3.30
  -6  -4  -9   10.10    6.20
   6   4   9   -1.70    3.80
   6   4   9    1.00    4.00
  -7  -4  -9   39.40    6.60
  -7  -4  -9   56.09   10.10
   7   4   9   46.70    6.70
  -8  -4  -9  105.39   14.20
  -9  -4  -9   51.99   11.00
   6  -5  -9   -0.90    4.20
  -6   5   9   -4.80    6.40
  -6   5   9   -6.60    3.50
  -6   5   9    2.20    4.30
   5  -5  -9    1.80    4.10
  -5   5   9    2.00    4.00
  -5   5   9   -3.40    5.90
  -5   5   9    2.10    3.80
   4  -5  -9    2.00    3.80
  -4   5   9   -0.30    3.60
  -4   5   9    0.40    3.30
   3  -5  -9   17.90    4.70
  -3   5   9    8.10    3.50
  -3   5   9    8.70    4.10
   2  -5  -9   68.49    8.40
  -2   5   9   57.79    8.20
   1  -5  -9    4.70    3.60
  -1   5   9   10.90    4.00
  -1   5   9    4.80    3.00
   0  -5  -9   -2.90    2.80
   0   5   9    2.70    2.70
   0   5   9    0.70    3.50
  -1  -5  -9   35.90    5.50
   1   5   9   32.40    5.40
   1   5   9   31.00    5.60
  -2  -5  -9  264.57   22.60
   2   5   9  277.57   20.50
   2   5   9  271.87   22.10
  -3  -5  -9   46.90    6.80
  -3  -5  -9   62.49    8.80
   3   5   9   51.49    7.00
   3   5   9   41.60    6.90
  -4  -5  -9   30.70    6.60
  -4  -5  -9   22.00    4.40
   4   5   9   21.20    4.80
   4   5   9   22.40    5.20
  -5  -5  -9    4.60    5.20
  -5  -5  -9    2.60    3.50
   5   5   9    1.70    3.80
   5   5   9   10.20    4.40
  -6  -5  -9   47.60    8.30
  -6  -5  -9   20.70    5.50
   6   5   9   30.70    5.50
  -7  -5  -9    9.30    6.50
  -7  -5  -9   -1.80    3.60
   7   5   9   -0.90    3.70
  -8  -5  -9   15.10    7.50
  -8  -5  -9   -0.20    3.90
   5  -6  -9    4.60    4.40
  -5   6   9   -1.20    4.00
  -5   6   9   -1.90    6.50
   4  -6  -9    0.90    4.20
  -4   6   9   11.80    4.80
  -4   6   9   11.00    4.60
  -4   6   9    6.60    6.40
   3  -6  -9   20.10    5.50
  -3   6   9   16.10    4.60
  -3   6   9   12.90    4.70
   2  -6  -9    1.30    3.80
  -2   6   9    1.50    3.30
  -2   6   9   -0.10    3.70
   1  -6  -9   15.60    4.90
  -1   6   9   17.50    4.90
  -1   6   9   14.60    4.10
   0  -6  -9    2.70    3.30
   0   6   9    3.50    3.70
   0   6   9   -0.30    3.40
  -1  -6  -9   23.10    5.00
   1   6   9   20.80    5.20
   1   6   9   27.40    5.60
  -2  -6  -9   34.30    5.50
   2   6   9   34.30    5.80
   2   6   9   30.50    6.40
  -3  -6  -9   28.70    5.50
   3   6   9   41.30    7.20
   3   6   9   44.20    6.70
  -4  -6  -9   21.90    5.00
  -4  -6  -9   32.10    7.00
   4   6   9   26.60    5.60
   4   6   9   44.20    6.40
  -5  -6  -9  196.68   18.30
  -5  -6  -9  194.48   20.10
   5   6   9  236.48   16.90
  -6  -6  -9    4.60    5.50
  -6  -6  -9    2.90    3.90
   6   6   9    4.00    3.90
  -7  -6  -9   95.99   12.80
  -7  -6  -9   87.99   11.00
   7   6   9  114.09   10.30
  -8  -6  -9    3.90    4.30
  -8  -6  -9    4.60    7.20
   4  -7  -9   18.40    5.60
  -4   7   9   29.90    8.40
  -4   7   9   12.50    4.70
   3  -7  -9    2.90    4.20
  -3   7   9    6.60    4.00
  -3   7   9    2.20    5.80
   2  -7  -9    2.20    3.90
  -2   7   9    5.20    3.90
  -2   7   9    7.50    3.90
  -2   7   9   10.90    5.80
   1  -7  -9   -6.80    3.70
  -1   7   9    3.20    3.70
  -1   7   9    5.70    3.90
   0  -7  -9   92.39   10.30
   0   7   9   88.59    9.40
   0   7   9   96.59   10.30
  -1  -7  -9    1.90    3.40
   1   7   9    7.10    4.10
   1   7   9    1.70    3.20
  -2  -7  -9    0.20    3.30
   2   7   9   -1.80    3.50
   2   7   9    1.70    3.70
  -3  -7  -9    0.90    3.10
   3   7   9   -0.90    3.70
  -4  -7  -9   18.40    5.00
   4   7   9   23.70    5.30
  -5  -7  -9   -0.60    3.70
  -5  -7  -9    2.10    5.50
   5   7   9    3.20    4.00
  -6  -7  -9   -5.50    5.00
  -6  -7  -9   -2.20    3.60
   6   7   9   -4.10    3.70
  -7  -7  -9    6.10    6.30
  -7  -7  -9    1.20    4.40
  -8  -7  -9    2.80    7.20
  -8  -7  -9    2.30    4.40
   3  -8  -9   -0.20    4.40
   2  -8  -9    2.20    4.50
   1  -8  -9    4.80    4.30
   0  -8  -9   14.90    4.70
  -1  -8  -9    3.90    3.70
   1   8   9   10.10    4.50
  -2  -8  -9   13.20    4.80
   2   8   9   23.00    5.20
  -3  -8  -9   35.00    6.60
   3   8   9   45.50    6.90
  -4  -8  -9   35.10    6.40
   4   8   9   53.09    7.70
  -5  -8  -9   -3.70    3.60
   5   8   9    1.70    3.90
  -6  -8  -9    6.30    4.30
  -7  -8  -9   20.00    6.10
   1  -9  -9    2.80    4.00
   0  -9  -9    1.20    3.90
  -1  -9  -9    0.00    3.50
  -2  -9  -9    2.20    4.00
  -3  -9  -9   -2.80    3.20
  -4  -9  -9    0.80    3.80
  -5  -9  -9   -4.00    3.50
  -6  -9  -9   -0.70    3.80
  -2 -10  -9    4.40    4.20
  -3 -10  -9   -0.30    3.80
  -4 -10  -9    6.20    4.10
  -3  -5  10    9.40    4.60
  -3  -5  10   15.00    4.90
  -2  -5  10    7.80    3.80
  -2  -5  10   10.00    4.50
  -1  -5  10   -3.80    3.70
  -1  -5  10    1.00    3.30
   0  -5  10   -4.90    3.70
   0  -5  10    1.90    2.80
   1  -5  10   18.00    5.10
   1  -5  10   10.60    4.00
  -5  -4  10   -1.90    4.00
  -5  -4  10   -4.20    4.10
  -4  -4  10   -0.80    4.10
  -4  -4  10    3.90    4.30
  -3  -4  10   -0.70    3.30
  -3  -4  10    1.70    3.70
  -2  -4  10    5.90    3.80
  -2  -4  10   10.30    4.00
  -1  -4  10   12.40    4.90
  -1  -4  10   11.10    4.70
   0  -4  10    2.90    3.90
   0  -4  10    0.80    3.60
   1  -4  10    9.30    4.50
   1  -4  10    3.90    3.40
  -2   4 -10   20.90    7.40
   2  -4  10    8.10    3.60
   2  -4  10   13.60    5.20
  -3   4 -10    4.70    6.70
   3  -4  10    3.60    4.50
   3  -4  10   10.10    4.40
  -6  -3  10    3.80    4.70
  -6  -3  10    3.90    4.90
  -5  -3  10   21.10    5.70
  -5  -3  10   29.00    5.80
  -4  -3  10   -2.60    3.80
  -4  -3  10   -2.10    3.60
  -3  -3  10   -1.40    3.80
  -3  -3  10   -2.80    3.30
  -2  -3  10    7.70    4.10
  -2  -3  10    9.70    4.40
  -1  -3  10   21.30    4.40
  -1  -3  10   18.50    5.00
   0  -3  10    1.60    3.20
   0  -3  10    1.00    3.40
   1  -3  10    3.30    3.30
   1  -3  10    4.60    4.00
  -2   3 -10   13.90    7.00
   2  -3  10    4.80    3.50
   2  -3  10    3.80    4.10
  -3   3 -10   -4.20    5.40
   3  -3  10   -2.90    4.20
   3  -3  10   -1.60    3.10
  -4   3 -10   -0.20    5.90
   4  -3  10   -3.00    4.30
   4  -3  10   -2.90    3.10
  -6  -2  10   -5.40    4.00
  -6  -2  10   -5.90    3.90
  -5  -2  10   -2.50    3.80
  -5  -2  10   -0.50    4.20
  -4  -2  10    9.90    4.70
  -4  -2  10   15.20    5.20
  -3  -2  10   -1.40    3.40
  -3  -2  10   -1.80    3.30
  -2  -2  10   21.60    4.70
  -2  -2  10   11.60    4.40
  -1  -2  10   33.90    6.10
  -1  -2  10   25.70    4.80
   0  -2  10    0.50    3.70
   0  -2  10    4.30    3.90
   1  -2  10   21.30    5.60
   1  -2  10   21.90    5.00
  -2   2 -10   28.20    7.60
   2  -2  10   15.10    4.70
   2  -2  10   18.70    5.50
  -3   2 -10   41.50    8.90
   3  -2  10   35.60    6.60
   3  -2  10   46.70    7.40
  -4   2 -10   27.90    7.90
   4  -2  10   30.10    6.50
   4  -2  10   25.50    5.20
  -5   2 -10   18.70    7.70
   5  -2  10   24.00    6.50
   5  -2  10   15.30    4.70
  -6  -1  10    3.70    4.50
  -6  -1  10   10.90    5.00
  -5  -1  10    1.20    4.30
  -5  -1  10   14.70    5.30
  -4  -1  10   35.20    6.70
  -4  -1  10   25.60    5.80
  -3  -1  10    2.40    3.90
  -3  -1  10    3.90    3.50
  -2  -1  10   15.40    4.50
  -2  -1  10   10.20    4.10
  -1  -1  10    1.20    3.60
  -1  -1  10    6.90    3.20
   0  -1  10    0.90    3.00
   0  -1  10    2.10    3.70
   1  -1  10   -5.50    3.30
   1  -1  10    0.10    3.00
  -2   1 -10    1.50    5.70
   2  -1  10   -1.40    3.40
   2  -1  10    1.30    4.10
  -3   1 -10    5.00    5.70
   3  -1  10    9.90    4.40
   3  -1  10   -0.10    4.10
  -4   1 -10   -1.40    5.40
   4  -1  10    1.60    3.70
   4  -1  10   -1.90    4.70
  -5   1 -10    0.40    6.00
   5  -1  10   11.80    6.00
   5  -1  10   10.20    4.30
  -6   1 -10   18.10    7.30
   6  -1  10   13.50    5.00
   6  -1  10   25.00    7.60
  -7   0  10    6.50    4.90
  -6   0  10   23.50    5.50
  -6   0  10    7.90    5.60
  -5   0  10   17.30    5.40
  -5   0  10   12.30    4.90
  -4   0  10   17.60    4.90
  -4   0  10   14.00    4.80
  -3   0  10    9.80    5.00
  -3   0  10    9.10    4.20
  -2   0  10   -1.00    3.00
  -2   0  10    1.80    4.20
  -1   0  10  114.79   11.90
  -1   0  10  117.69   11.00
   0   0  10  143.39   13.90
   0   0  10  147.69   12.70
  -1   0 -10  144.99   11.70
   1   0  10  123.79   13.10
   1   0  10  120.59   11.70
  -2   0 -10    1.80    5.70
  -2   0 -10    2.70    2.20
   2   0  10    0.30    4.00
   2   0  10   -2.70    3.00
  -3   0 -10    4.00    5.60
   3   0  10   10.50    5.40
   3   0  10    5.20    4.30
  -4   0 -10   19.00    7.10
   4   0  10   26.60    6.60
   4   0  10   13.70    4.80
  -5   0 -10   20.50    7.30
   5   0  10   15.10    5.40
   5   0  10   20.30    6.50
  -6   0 -10   11.90    7.40
   6   0  10   18.50    5.40
   6   0  10   14.70    6.40
  -7   0 -10    4.90    6.90
   7   0  10    2.20    5.00
  -6   1  10    8.90    6.30
  -6   1  10   17.90    5.20
  -5   1  10    5.30    4.60
  -5   1  10    5.50    4.50
  -4   1  10   -6.20    3.40
  -4   1  10   -0.90    3.80
  -3   1  10    9.00    3.90
  -3   1  10    7.90    4.70
  -2   1  10    1.40    3.50
  -2   1  10   -6.80    3.40
  -1   1  10    1.10    3.60
  -1   1  10   -0.50    2.70
   0  -1 -10    5.40    2.80
   0   1  10    5.30    3.80
   0   1  10    9.10    4.60
  -1  -1 -10    4.50    2.70
   1   1  10   -1.40    4.00
   1   1  10    3.60    3.50
  -2  -1 -10   28.30    7.50
  -2  -1 -10   22.00    3.70
   2   1  10   25.30    5.80
   2   1  10   17.90    4.90
  -3  -1 -10   59.59    7.30
  -3  -1 -10   79.29   10.50
   3   1  10   83.39    9.80
   3   1  10   65.09    8.10
  -4  -1 -10   20.60    7.00
   4   1  10   22.90    5.60
   4   1  10   23.70    6.30
  -5  -1 -10   -1.80    6.10
   5   1  10   -0.40    4.70
   5   1  10    2.60    3.70
  -6  -1 -10    9.60    6.40
   6   1  10    4.70    4.70
   6   1  10   11.00    5.20
  -7  -1 -10   32.90    8.50
   7   1  10   16.20    5.50
  -6   2  10   11.90    6.10
  -6   2  10   21.00    5.80
  -5   2  10   54.79    8.90
  -5   2  10   67.99    8.60
   4  -2 -10   38.20    5.50
  -4   2  10   26.60    6.50
  -4   2  10   39.60    6.90
   3  -2 -10   30.20    4.30
  -3   2  10   20.90    5.60
  -3   2  10   22.40    5.00
   2  -2 -10  174.98   13.30
  -2   2  10  128.79   14.00
  -2   2  10  135.09   12.90
   1  -2 -10   -3.00    2.30
  -1   2  10   -2.90    3.60
  -1   2  10    0.40    3.70
   0   2  10   21.50    4.30
   0   2  10   19.20    5.10
  -1  -2 -10    5.80    2.90
   1   2  10    2.00    2.80
   1   2  10    3.40    4.30
  -2  -2 -10   70.49   11.30
  -2  -2 -10   88.19    8.60
   2   2  10   98.09   10.80
   2   2  10   85.29    9.10
  -3  -2 -10   30.80    7.00
  -3  -2 -10   22.80    4.20
   3   2  10   28.70    6.50
   3   2  10   16.30    4.80
  -4  -2 -10    3.20    2.70
  -4  -2 -10    4.10    5.80
   4   2  10    1.60    4.80
   4   2  10    2.30    3.90
  -5  -2 -10    8.80    6.50
   5   2  10    8.80    4.70
   5   2  10    7.10    4.90
  -6  -2 -10    2.30    6.50
   6   2  10    2.20    4.30
   6   2  10    3.20    4.70
  -7  -2 -10   -4.80    6.80
   7   2  10    2.20    4.70
  -6   3  10    0.50    3.80
  -6   3  10   -0.60    4.50
   5  -3 -10    4.40    3.80
  -5   3  10    7.20    5.10
  -5   3  10    3.20    4.40
   4  -3 -10    1.50    3.20
  -4   3  10   -2.90    3.60
  -4   3  10   -1.10    4.10
   3  -3 -10    0.80    2.80
  -3   3  10    2.00    4.10
  -3   3  10    3.80    3.70
   2  -3 -10    7.30    3.30
  -2   3  10   15.40    4.60
  -2   3  10   12.60    5.00
   1  -3 -10    5.70    3.20
  -1   3  10    5.30    3.50
  -1   3  10    3.40    3.90
   0  -3 -10   -2.20    2.70
   0   3  10    2.00    3.70
   0   3  10    3.70    3.40
  -1  -3 -10   52.79    6.60
   1   3  10   43.50    7.80
   1   3  10   42.80    6.30
  -2  -3 -10   -1.10    2.30
   2   3  10   -2.60    3.50
   2   3  10    5.10    4.90
  -3  -3 -10    1.40    2.50
  -3  -3 -10   -3.70    4.70
   3   3  10   -5.90    3.00
   3   3  10    1.00    4.60
  -4  -3 -10    4.60    3.10
  -4  -3 -10   -1.30    5.40
   4   3  10    4.60    4.60
   4   3  10    2.10    4.20
  -5  -3 -10   16.60    4.20
  -5  -3 -10   19.40    6.60
   5   3  10   21.40    5.70
   5   3  10   18.40    5.20
  -6  -3 -10   12.10    7.10
  -6  -3 -10   13.10    4.30
   6   3  10   13.40    5.00
   6   3  10    8.80    4.90
  -7  -3 -10   -4.40    6.90
   7   3  10   -1.70    4.30
   7   3  10    2.10    4.40
  -8  -3 -10   53.99   10.70
   8   3  10   37.60    7.30
  -6   4  10    7.20    4.30
  -6   4  10   -1.00    4.50
  -6   4  10    7.10    7.40
   5  -4 -10  103.89   10.40
  -5   4  10   85.89    9.60
  -5   4  10   60.99    9.50
   4  -4 -10   11.80    4.10
  -4   4  10   14.10    4.50
  -4   4  10    8.80    4.60
   3  -4 -10   50.59    7.40
  -3   4  10   55.69    7.90
  -3   4  10   36.40    6.90
   2  -4 -10   22.00    4.50
  -2   4  10    8.50    4.70
  -2   4  10    6.80    3.80
   1  -4 -10    6.40    3.70
  -1   4  10    0.60    4.40
  -1   4  10    2.90    3.40
   0  -4 -10    8.90    3.60
   0   4  10    8.70    3.90
   0   4  10   10.60    4.90
  -1  -4 -10   16.00    4.00
   1   4  10    6.70    4.70
   1   4  10    4.90    3.80
  -2  -4 -10    2.30    3.00
   2   4  10   10.20    5.30
   2   4  10    5.80    3.90
  -3  -4 -10   33.20    7.40
  -3  -4 -10   28.00    5.00
   3   4  10   25.00    5.60
   3   4  10   30.80    6.50
  -4  -4 -10   -4.60    2.50
  -4  -4 -10   -3.70    5.20
   4   4  10    0.40    3.50
   4   4  10    0.00    4.20
  -5  -4 -10   25.70    7.10
  -5  -4 -10   20.60    4.70
   5   4  10   17.10    5.00
   5   4  10   25.70    5.90
  -6  -4 -10    6.60    3.70
  -6  -4 -10   -1.20    6.20
   6   4  10   11.90    4.50
   6   4  10   10.30    4.90
  -7  -4 -10    1.80    6.80
  -7  -4 -10    3.40    3.80
   7   4  10    2.00    4.20
   7   4  10    2.50    4.10
  -8  -4 -10    7.40    8.00
  -8  -4 -10    2.50    4.50
   5  -5 -10    3.50    4.40
  -5   5  10    5.00    6.80
  -5   5  10   -1.40    3.80
  -5   5  10    7.30    5.00
   4  -5 -10    7.40    4.30
  -4   5  10    5.00    4.60
  -4   5  10    4.40    3.90
   3  -5 -10    4.70    4.30
  -3   5  10    2.10    3.70
  -3   5  10    6.30    4.10
   2  -5 -10   30.80    5.80
  -2   5  10   20.40    5.60
  -2   5  10   24.80    5.40
   1  -5 -10   -2.70    3.40
  -1   5  10   -2.60    3.30
  -1   5  10    1.20    3.30
   0  -5 -10    7.10    3.70
   0   5  10    7.80    4.10
   0   5  10    6.40    3.90
  -1  -5 -10    1.00    3.20
   1   5  10   -4.90    3.00
   1   5  10    1.50    3.70
  -2  -5 -10   -0.80    2.80
   2   5  10   -1.90    3.30
   2   5  10    0.10    3.60
  -3  -5 -10   -1.30    2.90
   3   5  10    4.80    3.90
   3   5  10    1.80    3.90
  -4  -5 -10   -0.60    3.10
  -4  -5 -10    4.20    5.30
   4   5  10   -0.70    3.70
   4   5  10    2.10    4.00
  -5  -5 -10   -4.20    4.90
  -5  -5 -10    2.00    3.50
   5   5  10    5.10    4.40
   5   5  10   -5.00    3.70
  -6  -5 -10    3.20    5.90
  -6  -5 -10   -7.30    3.00
   6   5  10    2.80    4.20
   6   5  10   -1.90    3.70
  -7  -5 -10   -0.60    4.10
  -7  -5 -10  -10.30    6.10
   7   5  10   -4.70    3.90
  -8  -5 -10   11.60    7.70
   4  -6 -10   13.30    5.20
  -4   6  10    8.20    4.30
  -4   6  10   10.90    7.60
  -4   6  10    0.70    4.20
   3  -6 -10   41.20    7.20
  -3   6  10   38.50    6.50
  -3   6  10   33.60    6.90
   2  -6 -10    4.80    4.30
  -2   6  10    8.90    4.30
  -2   6  10    7.10    4.20
   1  -6 -10   41.80    7.00
  -1   6  10   33.10    5.70
  -1   6  10   41.80    7.60
   0  -6 -10   -2.60    3.20
   0   6  10    1.80    4.20
   0   6  10   -3.40    3.80
  -1  -6 -10   -3.40    3.00
   1   6  10   -3.50    3.50
   1   6  10    0.00    3.60
  -2  -6 -10   17.80    4.80
   2   6  10   18.70    4.80
   2   6  10   17.80    5.70
  -3  -6 -10   48.70    7.90
   3   6  10   63.99    8.90
   3   6  10   88.29    9.80
  -4  -6 -10    7.10    3.70
   4   6  10   10.20    5.00
   4   6  10   12.80    4.80
  -5  -6 -10    7.20    3.80
  -5  -6 -10   13.20    6.50
   5   6  10   12.50    4.70
   5   6  10   12.10    4.90
  -6  -6 -10   46.70    7.60
  -6  -6 -10   71.19   10.40
   6   6  10   73.99    8.80
  -7  -6 -10   -3.60    4.00
  -7  -6 -10   -2.00    6.60
   7   6  10    1.60    4.30
   3  -7 -10    6.80    4.80
  -3   7  10    1.70    3.60
  -3   7  10    8.30    4.70
   2  -7 -10   -1.20    4.00
  -2   7  10    2.90    4.10
  -2   7  10    3.20    4.00
   1  -7 -10   12.30    5.00
  -1   7  10    8.30    4.70
  -1   7  10    6.50    4.00
   0  -7 -10   11.70    4.30
   0   7  10    6.70    3.70
   0   7  10    9.50    4.60
  -1  -7 -10   13.30    4.30
   1   7  10   12.50    5.10
   1   7  10   19.10    5.30
  -2  -7 -10   19.10    5.00
   2   7  10   32.00    5.40
   2   7  10   20.10    5.70
  -3  -7 -10    4.30    3.80
   3   7  10   -1.90    3.90
   3   7  10    8.40    4.40
  -4  -7 -10   17.60    4.80
   4   7  10   30.50    6.00
  -5  -7 -10   -2.40    3.40
  -5  -7 -10    1.40    6.00
   5   7  10   -5.90    3.50
  -6  -7 -10   -0.70    3.70
  -6  -7 -10   -2.80    6.20
   6   7  10   -1.60    3.90
  -7  -7 -10   -2.40    6.20
  -7  -7 -10   -0.50    3.90
   2  -8 -10    8.90    5.00
   1  -8 -10   59.19    9.00
  -1   8  10   49.20    7.40
   0  -8 -10    4.00    4.00
   0   8  10    4.40    4.30
  -1  -8 -10   18.50    5.20
   1   8  10   19.60    5.00
  -2  -8 -10   16.70    5.00
   2   8  10   22.10    5.30
  -3  -8 -10   92.39   11.30
   3   8  10  124.39   11.10
  -4  -8 -10   13.50    4.80
   4   8  10   21.40    5.70
  -5  -8 -10   15.50    5.30
   5   8  10   18.20    5.40
  -6  -8 -10   10.20    5.10
   6   8  10   22.90    5.60
   0  -9 -10   -1.60    4.20
  -1  -9 -10   -3.10    3.50
  -2  -9 -10   -0.80    3.80
  -3  -9 -10   -3.20    3.80
  -4  -9 -10   21.80    5.70
  -1  -4  11    0.50    3.10
  -4  -3  11    9.20    4.90
  -3  -3  11   -3.90    3.20
  -3  -3  11    1.60    3.80
  -2  -3  11   11.10    4.50
  -2  -3  11   22.90    5.40
  -1  -3  11    0.40    3.90
  -1  -3  11    0.10    3.10
   0  -3  11   15.00    5.00
   0  -3  11   18.30    4.30
   1  -3  11    4.10    3.80
   1  -3  11    8.40    4.30
   2  -3  11   -1.30    3.80
   2  -3  11   -1.10    3.80
  -5  -2  11    1.90    4.40
  -4  -2  11   15.70    5.40
  -4  -2  11   16.00    5.70
  -3  -2  11   10.20    4.40
  -3  -2  11    6.30    4.40
  -2  -2  11    9.10    4.30
  -2  -2  11    2.00    4.00
  -1  -2  11   52.69    8.20
  -1  -2  11   43.90    6.80
   0  -2  11    7.40    4.10
   0  -2  11   -1.90    3.90
   1  -2  11   15.40    4.20
   1  -2  11   24.50    6.10
  -2   2 -11   40.30    8.60
   2  -2  11   26.30    6.30
   2  -2  11   18.60    4.80
  -3   2 -11  112.79   13.70
   3  -2  11   87.79   11.50
   3  -2  11   88.39   10.00
  -4   2 -11    1.80    6.00
   4  -2  11    5.30    5.30
   4  -2  11    4.70    4.00
  -5  -1  11   -1.20    3.70
  -5  -1  11   -2.80    4.40
  -4  -1  11   18.80    5.20
  -4  -1  11   15.60    4.70
  -3  -1  11   15.20    5.10
  -3  -1  11   15.50    5.40
  -2  -1  11   18.10    5.20
  -2  -1  11   14.60    5.20
  -1  -1  11    9.20    4.20
  -1  -1  11    6.70    3.60
   0  -1  11    4.20    4.10
   0  -1  11    1.90    3.30
   1  -1  11   -0.20    3.10
   1  -1  11   -4.40    3.80
  -2   1 -11    3.30    6.30
   2  -1  11   -1.60    3.00
   2  -1  11   -0.90    4.20
  -3   1 -11   16.50    6.90
   3  -1  11   -1.50    4.80
   3  -1  11    1.70    3.70
  -4   1 -11   -3.00    5.60
   4  -1  11   -4.10    5.40
   4  -1  11    5.70    4.60
  -5   1 -11    5.90    6.60
   5  -1  11    3.50    4.60
   5  -1  11   17.80    7.10
  -5   0  11    2.00    4.40
  -5   0  11    2.60    4.50
  -4   0  11   27.00    6.30
  -4   0  11   32.60    6.40
  -3   0  11   14.40    5.40
  -3   0  11   13.10    5.20
  -2   0  11    9.20    5.00
  -2   0  11   11.30    4.80
  -1   0  11   39.00    6.70
  -1   0  11   20.00    4.80
   0   0  11  268.27   21.00
   0   0  11  267.97   22.50
   1   0  11   26.30    5.00
   1   0  11   24.90    6.10
  -2   0 -11   10.50    3.10
  -2   0 -11   11.80    6.60
   2   0  11   16.10    5.60
   2   0  11    9.40    4.90
  -3   0 -11   13.30    6.60
  -3   0 -11   11.30    3.40
   3   0  11   19.70    6.10
   3   0  11   11.60    5.00
  -4   0 -11   44.20    9.50
   4   0  11   29.20    5.90
   4   0  11   42.20    8.30
  -5   0 -11   -1.20    6.00
   5   0  11    1.30    4.40
   5   0  11    1.60    6.10
  -5   1  11    7.10    5.00
  -5   1  11   -6.60    4.30
  -4   1  11   -1.40    4.00
  -4   1  11   -0.80    4.10
  -3   1  11    1.40    3.90
  -3   1  11   -0.80    3.50
  -2   1  11    0.60    3.70
  -2   1  11   -2.50    3.40
  -1   1  11   -2.00    3.80
  -1   1  11   -0.70    3.40
   0   1  11    2.20    3.70
   0   1  11    7.20    4.70
  -1  -1 -11   -1.20    2.80
   1   1  11   -1.40    3.30
   1   1  11    0.60    4.20
  -2  -1 -11    0.10    2.30
   2   1  11    1.00    3.60
   2   1  11   -1.10    4.10
  -3  -1 -11   24.60    8.00
  -3  -1 -11   20.20    4.00
   3   1  11   18.70    5.00
   3   1  11   10.70    5.80
  -4  -1 -11    4.40    5.90
  -4  -1 -11    2.10    2.90
   4   1  11    0.20    3.90
   4   1  11   -5.00    4.70
  -5  -1 -11   -1.30    6.10
   5   1  11    4.80    4.30
   5   1  11    0.90    5.30
  -6  -1 -11   10.10    7.20
   6   1  11    6.90    5.20
   6   1  11   17.90    6.50
  -5   2  11   20.40    6.30
  -5   2  11   34.00    6.70
  -4   2  11   26.40    5.90
  -4   2  11   28.00    6.40
  -3   2  11   40.90    7.90
  -3   2  11   40.30    6.80
  -2   2  11   15.50    5.40
  -2   2  11   13.30    5.60
   1  -2 -11   33.10    5.00
  -1   2  11   28.30    5.80
  -1   2  11   29.80    6.40
   0  -2 -11    2.50    2.90
   0   2  11    3.20    4.40
   0   2  11    2.80    3.80
  -1  -2 -11   44.00    6.30
   1   2  11   41.10    8.20
   1   2  11   27.30    5.80
  -2  -2 -11   24.00    4.50
   2   2  11   26.80    6.70
   2   2  11   29.50    6.30
  -3  -2 -11    2.10    6.40
  -3  -2 -11   -2.00    2.50
   3   2  11   -1.00    4.90
   3   2  11    1.80    4.20
  -4  -2 -11    4.60    3.20
  -4  -2 -11    4.10    6.00
   4   2  11   10.40    5.90
   4   2  11    8.20    4.70
  -5  -2 -11    0.10    6.00
  -5  -2 -11   -2.80    2.90
   5   2  11   -1.20    4.00
   5   2  11    6.80    5.30
  -6  -2 -11  -11.60    6.40
  -6  -2 -11   -5.70    3.40
   6   2  11   -7.40    4.60
   6   2  11    0.70    4.80
  -5   3  11    4.40    4.70
  -5   3  11    6.80    5.60
  -4   3  11   -1.40    4.10
  -4   3  11   -1.20    3.90
  -3   3  11   -1.60    3.60
  -3   3  11   -1.40    4.10
   2  -3 -11    1.20    3.10
  -2   3  11    4.60    3.90
  -2   3  11   -7.10    3.70
   1  -3 -11    6.60    3.60
  -1   3  11    4.60    4.70
  -1   3  11    8.30    4.20
   0  -3 -11   27.90    5.10
   0   3  11   26.10    5.30
   0   3  11   23.10    5.80
  -1  -3 -11    1.90    3.00
   1   3  11   -3.60    4.20
   1   3  11    1.30    4.00
  -2  -3 -11   10.40    3.70
   2   3  11   16.60    5.70
   2   3  11    4.20    4.10
  -3  -3 -11   -2.90    2.50
  -3  -3 -11    0.80    5.80
   3   3  11   -0.80    5.20
   3   3  11   -3.10    3.70
  -4  -3 -11   30.50    7.90
  -4  -3 -11   20.70    4.60
   4   3  11   33.80    6.70
   4   3  11   27.20    6.50
  -5  -3 -11    9.10    6.00
  -5  -3 -11    5.00    3.60
   5   3  11    2.50    4.70
   5   3  11   12.80    5.20
  -6  -3 -11    4.90    3.90
  -6  -3 -11    3.90    6.60
   6   3  11   14.70    5.50
   6   3  11    6.50    5.10
  -4   4  11   29.50    6.30
  -4   4  11   30.40    5.80
   3  -4 -11    0.30    3.60
  -3   4  11    4.50    4.50
  -3   4  11   -3.50    3.70
   2  -4 -11    3.80    3.70
  -2   4  11    1.20    4.30
  -2   4  11   -1.30    3.60
  -1   4  11   41.00    7.20
  -1   4  11   37.20    6.30
   0  -4 -11   -0.70    3.30
   0   4  11   -1.80    3.60
   0   4  11    3.30    4.20
  -1  -4 -11   17.20    4.40
   1   4  11   12.20    4.50
   1   4  11   14.00    5.30
  -2  -4 -11   27.10    5.10
   2   4  11   22.10    6.00
   2   4  11   30.90    6.00
  -3  -4 -11   15.60    4.20
   3   4  11   14.20    5.40
   3   4  11   12.30    4.80
  -4  -4 -11    2.20    3.30
  -4  -4 -11    5.20    5.80
   4   4  11    4.80    5.20
   4   4  11   12.80    5.20
  -5  -4 -11   17.80    7.30
  -5  -4 -11    7.60    3.80
   5   4  11    9.70    5.10
   5   4  11    6.30    5.10
  -6  -4 -11   -1.80    6.30
  -6  -4 -11   -0.40    3.50
   6   4  11    0.10    4.50
   6   4  11   -6.20    4.10
  -7  -4 -11    3.80    8.20
   7   4  11    9.40    5.20
   4  -5 -11    6.30    4.80
  -4   5  11    5.40    4.50
  -4   5  11    8.00    4.60
   3  -5 -11   -1.20    4.10
  -3   5  11    1.10    3.70
  -3   5  11   -4.30    4.00
   2  -5 -11   11.00    4.90
  -2   5  11   10.50    4.80
  -2   5  11   10.60    4.10
   1  -5 -11   29.60    5.90
  -1   5  11   19.10    5.70
  -1   5  11   23.80    5.60
   0  -5 -11   -0.10    3.50
   0   5  11   -6.40    3.20
   0   5  11   -2.70    3.80
  -1  -5 -11    1.80    3.60
   1   5  11   -0.10    4.20
   1   5  11    5.30    4.40
  -2  -5 -11   30.90    5.20
   2   5  11   15.50    5.50
   2   5  11   24.10    5.60
  -3  -5 -11   21.60    4.70
   3   5  11   14.70    4.70
   3   5  11   27.70    5.90
  -4  -5 -11   12.00    6.50
  -4  -5 -11    4.80    3.60
   4   5  11    8.60    4.80
   4   5  11    3.30    4.40
  -5  -5 -11   -0.60    6.10
  -5  -5 -11    8.50    3.90
   5   5  11    1.00    4.40
   5   5  11    5.00    4.80
  -6  -5 -11   -0.10    3.90
  -6  -5 -11   -8.20    5.70
   6   5  11    0.00    4.20
   6   5  11   -2.80    4.00
   3  -6 -11   11.00    5.30
  -3   6  11    2.50    4.00
  -3   6  11    5.10    4.40
   2  -6 -11    8.90    4.90
  -2   6  11    7.00    4.60
  -2   6  11    8.70    4.20
   1  -6 -11    7.30    4.50
  -1   6  11    4.80    4.40
  -1   6  11    6.20    4.40
   0  -6 -11   -2.20    3.60
   0   6  11   -1.70    3.60
   0   6  11    0.40    4.40
  -1  -6 -11   -0.90    3.70
   1   6  11   -2.20    3.60
   1   6  11    3.80    4.30
  -2  -6 -11   32.20    5.90
   2   6  11   28.60    6.40
   2   6  11   27.20    6.80
  -3  -6 -11    8.60    3.80
   3   6  11    5.00    4.30
   3   6  11    8.20    4.90
  -4  -6 -11    0.20    3.50
   4   6  11   -3.20    4.10
   4   6  11    1.50    4.40
  -5  -6 -11    8.20    6.70
  -5  -6 -11    4.60    4.10
   5   6  11    0.80    4.50
   5   6  11    7.90    4.90
  -6  -6 -11   64.49   10.90
  -6  -6 -11   41.40    7.10
   6   6  11   59.49    8.50
   2  -7 -11   -0.30    4.80
  -2   7  11    0.80    4.40
  -2   7  11    0.80    3.70
   1  -7 -11   32.50    6.70
  -1   7  11   23.00    5.70
  -1   7  11   24.40    5.90
   0  -7 -11    0.80    4.00
   0   7  11    4.60    4.50
   0   7  11    3.10    4.10
  -1  -7 -11   11.30    4.40
   1   7  11   10.00    5.00
   1   7  11   12.40    4.50
  -2  -7 -11    6.30    3.90
   2   7  11    2.30    4.30
   2   7  11    8.40    4.80
  -3  -7 -11    0.20    3.50
   3   7  11    1.60    4.60
   3   7  11    2.90    4.50
  -4  -7 -11    4.20    3.90
   4   7  11    3.70    4.30
   4   7  11   -0.30    4.20
  -5  -7 -11   -2.10    3.60
   5   7  11    2.10    4.60
   0  -8 -11    6.80    4.70
   0   8  11    4.10    4.40
   0   8  11    3.80    4.50
  -1  -8 -11    0.20    3.90
   1   8  11   10.10    4.80
   1   8  11    6.30    4.20
  -2  -8 -11    9.30    4.60
   2   8  11   13.30    4.50
  -3  -8 -11    6.10    4.10
   3   8  11    5.70    5.00
  -4  -8 -11   -0.30    3.60
   4   8  11   -3.90    4.30
  -1  -2  12   24.50    6.50
  -1  -2  12   26.90    6.10
   0  -2  12   19.60    5.80
   0  -2  12   16.30    5.00
   1  -2  12   20.50    5.50
  -3  -1  12    9.30    5.00
  -3  -1  12    1.90    3.90
  -2  -1  12   -8.20    3.60
  -2  -1  12    1.10    4.10
  -1  -1  12    1.90    4.50
  -1  -1  12    2.30    4.30
   0  -1  12    7.70    5.00
   0  -1  12   17.60    5.60
   1  -1  12   -3.40    3.30
   1  -1  12    1.10    4.40
   2  -1  12   -6.60    3.00
   2  -1  12   -3.40    4.20
  -3   1 -12    7.60    6.40
  -3   0  12   53.79    7.90
  -3   0  12   45.10    8.30
  -2   0  12   30.70    6.20
  -2   0  12   35.90    7.40
  -1   0  12    6.30    4.40
  -1   0  12   10.00    5.00
   0   0  12   71.19   10.00
   0   0  12   63.99    8.50
   1   0  12   14.50    4.90
   1   0  12   10.10    5.80
   2   0  12   31.80    6.30
   2   0  12   39.40    8.20
  -3   0 -12   76.09   11.90
   3   0  12   47.40    8.90
   3   0  12   50.89    8.20
  -4   0 -12    6.30    6.70
   4   0  12    0.10    3.90
  -4   1  12    6.40    5.00
  -4   1  12    0.00    4.30
  -3   1  12   -1.80    4.40
  -3   1  12   -2.20    4.10
  -2   1  12   -2.00    3.90
  -2   1  12   -2.30    4.20
  -1   1  12    0.80    4.00
  -1   1  12   -1.30    3.90
   0   1  12    7.40    4.70
   0   1  12    0.40    4.20
   1   1  12    4.00    5.20
   1   1  12    1.70    4.00
   2   1  12   12.80    5.00
   2   1  12   17.10    6.30
  -3  -1 -12   14.10    7.30
   3   1  12    3.30    5.30
   3   1  12   -1.10    4.20
  -4  -1 -12   41.00    8.70
  -4  -1 -12   13.30    4.20
   4   1  12   22.30    7.40
   4   1  12   20.60    6.00
  -4   2  12    3.90    4.80
  -3   2  12   91.89   10.10
  -3   2  12   75.29   11.00
  -2   2  12   33.20    7.60
  -2   2  12   38.50    6.50
  -1   2  12   22.40    5.40
  -1   2  12   19.40    6.20
   0   2  12    7.30    4.60
   0   2  12    6.40    4.90
   1   2  12   66.19    9.50
   1   2  12   66.99   10.10
  -2  -2 -12    5.10    3.60
   2   2  12   10.10    5.50
   2   2  12    4.80    4.50
  -3  -2 -12   12.70    3.90
   3   2  12   20.70    7.40
   3   2  12   21.00    6.20
  -4  -2 -12   15.00    4.50
  -4  -2 -12   38.40    9.20
   4   2  12   27.00    6.30
   4   2  12   21.20    7.10
  -5  -2 -12   -1.50    6.80
  -5  -2 -12    0.10    3.40
   5   2  12    3.60    5.10
   5   2  12    6.10    6.10
  -3   3  12   -1.40    4.10
  -3   3  12   -3.70    4.30
  -2   3  12   -1.40    4.20
  -2   3  12    0.50    4.40
  -1   3  12   -1.10    4.40
  -1   3  12    4.40    4.50
   0   3  12   15.70    5.80
   0   3  12   26.90    6.10
  -1  -3 -12   35.80    5.70
   1   3  12   15.20    6.20
   1   3  12   23.40    5.50
  -2  -3 -12    1.50    3.50
   2   3  12    5.00    5.50
   2   3  12   -5.10    3.90
  -3  -3 -12    1.80    3.30
   3   3  12   -2.50    4.30
   3   3  12    1.70    5.20
  -4  -3 -12   11.30    4.00
  -4  -3 -12   23.50    8.10
   4   3  12   13.20    6.60
   4   3  12   15.10    5.50
  -5  -3 -12   20.20    7.70
  -5  -3 -12   13.40    4.30
   5   3  12   11.70    5.60
   5   3  12   28.60    6.80
  -3   4  12   12.20    4.90
  -3   4  12    9.40    5.60
  -2   4  12   11.30    4.90
  -2   4  12   12.70    5.70
   1  -4 -12   16.30    5.00
  -1   4  12    6.80    5.40
  -1   4  12   12.70    4.90
   0  -4 -12    6.60    4.10
   0   4  12    6.50    5.40
   0   4  12   -0.50    4.80
  -1  -4 -12   12.50    4.40
   1   4  12   11.90    5.40
   1   4  12   11.30    4.70
  -2  -4 -12    7.00    4.10
   2   4  12    7.60    5.40
   2   4  12    8.40    4.60
  -3  -4 -12    0.70    3.40
   3   4  12    5.80    5.10
   3   4  12    1.20    5.20
  -4  -4 -12    7.70    4.00
  -4  -4 -12   11.50    7.40
   4   4  12    5.10    5.40
   4   4  12    1.40    4.70
  -5  -4 -12    0.00    3.80
  -5  -4 -12    5.70    6.60
   5   4  12    0.90    5.20
   5   4  12    2.80    5.10
   2  -5 -12   -1.00    4.60
  -2   5  12    5.40    4.80
  -2   5  12    4.70    4.40
   1  -5 -12   12.60    4.80
  -1   5  12   15.00    5.40
  -1   5  12    9.40    4.60
   0  -5 -12    3.80    4.30
   0   5  12    4.50    4.60
   0   5  12    3.00    4.60
  -1  -5 -12   13.40    4.60
   1   5  12   12.40    5.70
   1   5  12   11.10    4.80
  -2  -5 -12   -0.40    3.40
   2   5  12    3.60    4.80
   2   5  12    3.60    4.70
  -3  -5 -12   17.20    4.70
   3   5  12   27.10    6.70
   3   5  12   20.40    5.50
  -4  -5 -12   -0.10    3.50
   4   5  12   -1.10    4.50
   4   5  12    0.30    5.20
  -5  -5 -12   -0.30    3.50
  -5  -5 -12   -1.90    7.00
   5   5  12    5.50    5.30
   5   5  12    5.10    5.10
   1  -6 -12    2.60    4.60
  -1   6  12    1.50    4.30
  -1   6  12    1.30    4.60
   0  -6 -12   -2.00    4.10
   0   6  12    4.50    4.60
   0   6  12   -0.20    4.00
  -1  -6 -12   13.60    5.00
   1   6  12   12.70    5.40
   1   6  12   16.20    5.80
  -2  -6 -12    0.50    3.80
   2   6  12    3.60    4.30
   2   6  12    0.60    4.50
  -3  -6 -12   10.70    4.60
   3   6  12   10.70    5.70
   3   6  12   12.20    5.60
  -4  -6 -12    3.30    3.90
   4   6  12    7.50    4.90
   4   6  12    5.40    5.00
   1   7  12    0.70    4.40
   2   7  12    0.40    4.00
   2   7  12    1.50    4.60
   0   2  13   19.10    7.10
   0   2  13   23.30    6.40
   1   2  13   31.60    6.50
   1   2  13   24.70    7.10
   2   2  13   43.10    7.10
   0   3  13    1.60    5.30
   0   3  13    1.40    5.40
   1   3  13    8.00    5.60
   1   3  13   15.70    5.20
   2   3  13   -1.20    5.50
   2   3  13    6.00    4.60
   1   4  13   -0.80    4.70
   1   4  13   -1.10    5.20
   0   0   0    0.00    0.00

_computing_structure_solution     'SHELXT 2014/5 (Sheldrick, 2014)'
;
_shelx_hkl_checksum              32254
_olex2_submission_special_instructions 'No special instructions were received'
loop_
_space_group_symop_operation_xyz
'x, y, z'
'-x, -y, -z'
loop_
_atom_site_label
_atom_site_type_symbol
_atom_site_fract_x
_atom_site_fract_y
_atom_site_fract_z
_atom_site_U_iso_or_equiv
_atom_site_adp_type
_atom_site_occupancy
_atom_site_site_symmetry_order
_atom_site_calc_flag
_atom_site_refinement_flags_posn
_atom_site_refinement_flags_adp
_atom_site_refinement_flags_occupancy
_atom_site_disorder_assembly
_atom_site_disorder_group
S2 S 0.0960(2) 0.7292(2) 0.85841(17) 0.0561(6) Uani 0.829(4) 1 d . . P A 1
S1 S 0.3954(2) 0.6011(2) 0.85941(17) 0.0568(6) Uani 0.829(4) 1 d . . P A 1
S3 S 0.1743(3) 0.3089(2) 0.86870(18) 0.0693(7) Uani 0.829(4) 1 d . . P B 1
S4 S 0.3191(3) 0.0142(2) 0.86987(18) 0.0694(7) Uani 0.829(4) 1 d . . P B 1
N1 N 0.2415(12) 0.640(2) 0.9481(18) 0.063(3) Uani 0.829(4) 1 d D . P A 1
C13 C 0.2835(5) 0.1789(6) 0.4795(5) 0.0299(12) Uani 0.829(4) 1 d . . P B 1
C18 C 0.2178(5) 0.3317(6) 0.4787(5) 0.0333(12) Uani 0.829(4) 1 d . . P B 1
C10 C 0.1712(6) 0.7367(6) 0.7025(5) 0.0351(13) Uani 0.829(4) 1 d . . P A 1
C3 C 0.3268(6) 0.7234(6) 0.4672(5) 0.0315(12) Uani 0.829(4) 1 d . . P A 1
C8 C 0.1740(6) 0.7927(6) 0.4675(5) 0.0319(12) Uani 0.829(4) 1 d . . P A 1
C11 C 0.2826(6) 0.1228(6) 0.7135(6) 0.0389(14) Uani 0.829(4) 1 d . . P B 1
C1 C 0.3240(6) 0.6673(6) 0.7031(6) 0.0370(13) Uani 0.829(4) 1 d . . P A 1
C2 C 0.3995(6) 0.6627(6) 0.5881(5) 0.0340(12) Uani 0.829(4) 1 d . . P A 1
H2 H 0.500731 0.618629 0.589534 0.041 Uiso 0.829(4) 1 calc R . P A 1
C20 C 0.2127(6) 0.2751(7) 0.7115(6) 0.0400(14) Uani 0.829(4) 1 d . . P B 1
C9 C 0.0963(6) 0.7956(6) 0.5870(5) 0.0338(12) Uani 0.829(4) 1 d . . P A 1
H9 H -0.005322 0.837369 0.587204 0.041 Uiso 0.829(4) 1 calc R . P A 1
C4 C 0.4006(6) 0.7200(6) 0.3468(6) 0.0382(13) Uani 0.829(4) 1 d . . P A 1
H4 H 0.501676 0.675366 0.345977 0.046 Uiso 0.829(4) 1 calc R . P A 1
C12 C 0.3165(6) 0.0761(6) 0.6000(5) 0.0360(13) Uani 0.829(4) 1 d . . P B 1
H12 H 0.362044 -0.024731 0.601564 0.043 Uiso 0.829(4) 1 calc R . P B 1
C19 C 0.1811(6) 0.3769(6) 0.5980(5) 0.0355(12) Uani 0.829(4) 1 d . . P B 1
H19 H 0.135068 0.477082 0.598515 0.043 Uiso 0.829(4) 1 calc R . P B 1
N2 N 0.2459(13) 0.1404(13) 0.9564(11) 0.076(3) Uani 0.829(4) 1 d . . P B 1
C7 C 0.1024(6) 0.8530(6) 0.3450(6) 0.0388(13) Uani 0.829(4) 1 d . . P A 1
H7 H 0.001261 0.897470 0.342814 0.047 Uiso 0.829(4) 1 calc R . P A 1
C17 C 0.1879(6) 0.4331(6) 0.3577(6) 0.0404(14) Uani 0.829(4) 1 d . . P B 1
H17 H 0.143403 0.534024 0.356486 0.048 Uiso 0.829(4) 1 calc R . P B 1
C5 C 0.3284(7) 0.7801(7) 0.2319(6) 0.0483(16) Uani 0.829(4) 1 d . . P A 1
H5 H 0.379573 0.776492 0.152905 0.058 Uiso 0.829(4) 1 calc R . P A 1
C6 C 0.1775(8) 0.8475(7) 0.2312(6) 0.0485(16) Uani 0.829(4) 1 d . . P A 1
H6 H 0.128138 0.889108 0.151616 0.058 Uiso 0.829(4) 1 calc R . P A 1
C16 C 0.2216(7) 0.3894(8) 0.2426(6) 0.0520(18) Uani 0.829(4) 1 d . . P B 1
H16 H 0.203220 0.459689 0.163316 0.062 Uiso 0.829(4) 1 calc R . P B 1
C14 C 0.3161(6) 0.1349(7) 0.3585(6) 0.0399(13) Uani 0.829(4) 1 d . . P B 1
H14 H 0.359861 0.034228 0.357839 0.048 Uiso 0.829(4) 1 calc R . P B 1
C15 C 0.2853(7) 0.2351(8) 0.2442(6) 0.0500(17) Uani 0.829(4) 1 d . . P B 1
H15 H 0.305867 0.203027 0.165429 0.060 Uiso 0.829(4) 1 calc R . P B 1
S8 S 0.4176(9) 0.0778(9) 0.8590(7) 0.048(3) Uani 0.171(4) 1 d . . P B 2
S7 S 0.1178(10) 0.2015(10) 0.8638(7) 0.055(3) Uani 0.171(4) 1 d . . P B 2
S5 S 0.3375(12) 0.4953(10) 0.8691(8) 0.065(3) Uani 0.171(4) 1 d . U P A 2
S6 S 0.1910(12) 0.7891(11) 0.8741(8) 0.060(3) Uani 0.171(4) 1 d D U P A 2
C22 C 0.318(2) 0.5758(15) 0.5851(15) 0.055(5) Uiso 0.171(4) 1 d . U P A 2
H22 H 0.360650 0.476094 0.580602 0.066 Uiso 0.171(4) 1 calc R . P A 2
C21 C 0.294(2) 0.615(2) 0.7053(13) 0.054(5) Uiso 0.171(4) 1 d G U P A 2
C30 C 0.230(2) 0.763(2) 0.7120(12) 0.052(5) Uiso 0.171(4) 1 d G U P A 2
C29 C 0.191(2) 0.8707(18) 0.5986(14) 0.053(5) Uiso 0.171(4) 1 d G U P A 2
H29 H 0.147770 0.970379 0.603141 0.064 Uiso 0.171(4) 1 calc R . P A 2
C28 C 0.2146(15) 0.8311(14) 0.4785(12) 0.053(4) Uiso 0.171(4) 1 d G U P A 2
C23 C 0.2781(16) 0.6837(14) 0.4717(12) 0.053(4) Uiso 0.171(4) 1 d G U P A 2
C24 C 0.302(2) 0.6441(18) 0.3516(14) 0.055(5) Uiso 0.171(4) 1 d G U P A 2
H24 H 0.344896 0.544415 0.347049 0.067 Uiso 0.171(4) 1 calc R . P A 2
C25 C 0.262(3) 0.752(2) 0.2382(12) 0.055(5) Uiso 0.171(4) 1 d G U P A 2
H25 H 0.278473 0.725248 0.156930 0.066 Uiso 0.171(4) 1 calc R . P A 2
C26 C 0.199(3) 0.899(2) 0.2449(12) 0.054(5) Uiso 0.171(4) 1 d G U P A 2
H26 H 0.172033 0.972391 0.168194 0.065 Uiso 0.171(4) 1 calc R . P A 2
C27 C 0.175(2) 0.9390(15) 0.3650(14) 0.053(5) Uiso 0.171(4) 1 d G U P A 2
H27 H 0.132016 1.038704 0.369575 0.063 Uiso 0.171(4) 1 calc R . P A 2
C32 C 0.4041(16) 0.157(2) 0.5777(14) 0.053(5) Uiso 0.171(4) 1 d . U P B 2
H32 H 0.504704 0.111500 0.572964 0.064 Uiso 0.171(4) 1 calc R . P B 2
C31 C 0.335(2) 0.155(2) 0.6980(12) 0.049(5) Uiso 0.171(4) 1 d G U P B 2
C40 C 0.186(2) 0.222(2) 0.7050(11) 0.050(5) Uiso 0.171(4) 1 d G U P B 2
C39 C 0.1066(17) 0.290(2) 0.5916(13) 0.051(5) Uiso 0.171(4) 1 d G U P B 2
H39 H 0.005989 0.334942 0.596321 0.061 Uiso 0.171(4) 1 calc R . P B 2
C38 C 0.1757(14) 0.2914(15) 0.4713(11) 0.050(4) Uiso 0.171(4) 1 d G U P B 2
C33 C 0.3244(14) 0.2247(15) 0.4643(11) 0.050(4) Uiso 0.171(4) 1 d G U P B 2
C34 C 0.3935(16) 0.226(2) 0.3439(13) 0.047(5) Uiso 0.171(4) 1 d G U P B 2
H34 H 0.494110 0.181135 0.339231 0.056 Uiso 0.171(4) 1 calc R . P B 2
C35 C 0.314(2) 0.294(2) 0.2306(11) 0.048(5) Uiso 0.171(4) 1 d G U P B 2
H35 H 0.360554 0.295359 0.149165 0.058 Uiso 0.171(4) 1 calc R . P B 2
C36 C 0.165(2) 0.361(2) 0.2375(12) 0.050(5) Uiso 0.171(4) 1 d G U P B 2
H36 H 0.111197 0.407081 0.160838 0.060 Uiso 0.171(4) 1 calc R . P B 2
C37 C 0.0960(16) 0.360(2) 0.3579(13) 0.050(5) Uiso 0.171(4) 1 d G U P B 2
H37 H -0.004605 0.404580 0.362575 0.059 Uiso 0.171(4) 1 calc R . P B 2
N3 N 0.284(9) 0.637(13) 0.943(10) 0.063(3) Uani 0.171(4) 1 d . . P A 2
N4 N 0.293(8) 0.099(8) 0.950(7) 0.076(3) Uani 0.171(4) 1 d . . P B 2
loop_
_atom_site_aniso_label
_atom_site_aniso_U_11
_atom_site_aniso_U_22
_atom_site_aniso_U_33
_atom_site_aniso_U_23
_atom_site_aniso_U_13
_atom_site_aniso_U_12
S2 0.0486(11) 0.0719(13) 0.0521(10) -0.0183(8) 0.0083(7) -0.0201(9)
S1 0.0510(11) 0.0624(12) 0.0538(10) 0.0008(8) -0.0168(8) -0.0159(9)
S3 0.0886(16) 0.0763(15) 0.0554(11) -0.0293(10) 0.0125(10) -0.0322(12)
S4 0.0911(17) 0.0617(13) 0.0536(11) 0.0041(9) -0.0140(10) -0.0271(12)
N1 0.068(9) 0.071(4) 0.054(3) -0.013(3) 0.003(7) -0.027(8)
C13 0.012(3) 0.029(3) 0.051(3) -0.012(2) -0.001(2) -0.006(2)
C18 0.010(3) 0.034(3) 0.055(3) -0.005(2) -0.003(2) -0.008(2)
C10 0.024(3) 0.034(3) 0.050(3) -0.012(2) 0.004(2) -0.009(2)
C3 0.021(3) 0.022(3) 0.052(3) -0.007(2) -0.003(2) -0.005(2)
C8 0.021(3) 0.024(3) 0.053(3) -0.011(2) -0.006(2) -0.008(2)
C11 0.030(3) 0.033(3) 0.054(3) 0.000(2) -0.009(2) -0.012(3)
C1 0.025(3) 0.030(3) 0.052(3) -0.005(2) -0.013(2) -0.001(2)
C2 0.014(3) 0.025(3) 0.060(3) -0.007(2) -0.007(2) 0.001(2)
C20 0.027(3) 0.047(4) 0.053(3) -0.020(3) 0.007(2) -0.017(3)
C9 0.016(3) 0.033(3) 0.053(3) -0.013(2) -0.002(2) -0.003(2)
C4 0.028(3) 0.029(3) 0.055(3) -0.006(2) 0.002(2) -0.005(2)
C12 0.023(3) 0.027(3) 0.056(3) -0.004(2) -0.007(2) -0.004(2)
C19 0.022(3) 0.030(3) 0.058(3) -0.017(2) 0.003(2) -0.006(2)
N2 0.095(10) 0.083(9) 0.048(3) -0.014(4) -0.003(5) -0.016(6)
C7 0.028(3) 0.028(3) 0.060(4) -0.011(2) -0.014(3) -0.002(2)
C17 0.025(3) 0.032(3) 0.057(4) 0.001(2) -0.004(2) -0.003(2)
C5 0.044(4) 0.049(4) 0.055(4) -0.011(3) 0.002(3) -0.018(3)
C6 0.057(5) 0.043(4) 0.049(4) -0.006(3) -0.010(3) -0.019(3)
C16 0.031(4) 0.072(5) 0.048(4) 0.007(3) -0.008(3) -0.018(3)
C14 0.028(3) 0.039(3) 0.054(3) -0.016(3) -0.002(2) -0.005(3)
C15 0.033(4) 0.074(5) 0.050(4) -0.024(3) 0.003(3) -0.017(3)
S8 0.049(5) 0.048(5) 0.043(4) -0.007(3) -0.005(3) -0.007(4)
S7 0.059(6) 0.065(6) 0.041(4) -0.022(4) 0.007(3) -0.009(4)
S5 0.084(6) 0.048(5) 0.056(5) 0.007(3) -0.014(4) -0.018(4)
S6 0.076(6) 0.059(5) 0.048(4) -0.024(3) 0.002(4) -0.010(4)
N3 0.068(9) 0.071(4) 0.054(3) -0.013(3) 0.003(7) -0.027(8)
N4 0.095(10) 0.083(9) 0.048(3) -0.014(4) -0.003(5) -0.016(6)
loop_
_atom_type_symbol
_atom_type_description
_atom_type_scat_dispersion_real
_atom_type_scat_dispersion_imag
_atom_type_scat_source
C C 0.0033 0.0016 'International Tables Vol C Tables 4.2.6.8 and 6.1.1.4'
H H 0.0000 0.0000 'International Tables Vol C Tables 4.2.6.8 and 6.1.1.4'
N N 0.0061 0.0033 'International Tables Vol C Tables 4.2.6.8 and 6.1.1.4'
S S 0.1246 0.1234 'International Tables Vol C Tables 4.2.6.8 and 6.1.1.4'
loop_
_geom_angle_atom_site_label_1
_geom_angle_atom_site_label_2
_geom_angle_atom_site_label_3
_geom_angle
N1 S2 C10 100.9(6)
N1 S1 C1 100.3(7)
N2 S3 C20 99.9(4)
N2 S4 C11 100.0(5)
S2 N1 S1 113.0(10)
C18 C13 C14 118.6(5)
C12 C13 C18 119.3(5)
C12 C13 C14 122.1(5)
C19 C18 C13 119.5(5)
C17 C18 C13 118.5(5)
C17 C18 C19 122.0(5)
C1 C10 S2 112.9(4)
C9 C10 S2 126.4(4)
C9 C10 C1 120.6(5)
C2 C3 C8 118.5(5)
C4 C3 C8 118.9(5)
C4 C3 C2 122.5(5)
C3 C8 C7 117.8(5)
C9 C8 C3 120.2(5)
C9 C8 C7 121.9(5)
C20 C11 S4 113.3(5)
C12 C11 S4 126.6(5)
C12 C11 C20 120.1(5)
C10 C1 S1 112.7(4)
C2 C1 S1 127.1(4)
C2 C1 C10 120.2(5)
C3 C2 H2 119.6
C1 C2 C3 120.9(5)
C1 C2 H2 119.6
C11 C20 S3 112.3(5)
C19 C20 S3 126.4(5)
C19 C20 C11 121.3(5)
C10 C9 C8 119.5(5)
C10 C9 H9 120.3
C8 C9 H9 120.3
C3 C4 H4 119.3
C5 C4 C3 121.3(6)
C5 C4 H4 119.3
C13 C12 H12 119.9
C11 C12 C13 120.2(5)
C11 C12 H12 119.9
C18 C19 H19 120.2
C20 C19 C18 119.7(5)
C20 C19 H19 120.2
S4 N2 S3 114.4(7)
C8 C7 H7 119.3
C6 C7 C8 121.4(5)
C6 C7 H7 119.3
C18 C17 H17 118.9
C16 C17 C18 122.1(6)
C16 C17 H17 118.9
C4 C5 H5 119.9
C4 C5 C6 120.1(6)
C6 C5 H5 119.9
C7 C6 C5 120.3(6)
C7 C6 H6 119.8
C5 C6 H6 119.8
C17 C16 H16 120.5
C17 C16 C15 119.0(6)
C15 C16 H16 120.5
C13 C14 H14 119.3
C15 C14 C13 121.3(6)
C15 C14 H14 119.3
C16 C15 H15 119.8
C14 C15 C16 120.4(6)
C14 C15 H15 119.8
N4 S8 C31 104(3)
C40 S7 N4 98(2)
N3 S5 C21 93(4)
N3 S6 C30 97(4)
C21 C22 H22 120.0
C21 C22 C23 120.0
C23 C22 H22 120.0
C22 C21 S5 128.6(10)
C22 C21 C30 120.0
C30 C21 S5 111.4(10)
C21 C30 S6 113.7(10)
C29 C30 S6 126.0(10)
C29 C30 C21 120.0
C30 C29 H29 120.0
C28 C29 C30 120.0
C28 C29 H29 120.0
C29 C28 C23 120.0
C29 C28 C27 120.0
C23 C28 C27 120.0
C28 C23 C22 120.0
C24 C23 C22 120.0
C24 C23 C28 120.0
C23 C24 H24 120.0
C23 C24 C25 120.0
C25 C24 H24 120.0
C24 C25 H25 120.0
C26 C25 C24 120.0
C26 C25 H25 120.0
C25 C26 H26 120.0
C25 C26 C27 120.0
C27 C26 H26 120.0
C28 C27 H27 120.0
C26 C27 C28 120.0
C26 C27 H27 120.0
C31 C32 H32 120.0
C31 C32 C33 120.0
C33 C32 H32 120.0
C32 C31 S8 127.8(9)
C40 C31 S8 112.2(9)
C40 C31 C32 120.0
C31 C40 S7 113.3(10)
C31 C40 C39 120.0
C39 C40 S7 126.7(10)
C40 C39 H39 120.0
C38 C39 C40 120.0
C38 C39 H39 120.0
C39 C38 C33 120.0
C39 C38 C37 120.0
C33 C38 C37 120.0
C38 C33 C32 120.0
C34 C33 C32 120.0
C34 C33 C38 120.0
C33 C34 H34 120.0
C33 C34 C35 120.0
C35 C34 H34 120.0
C34 C35 H35 120.0
C34 C35 C36 120.0
C36 C35 H35 120.0
C35 C36 H36 120.0
C37 C36 C35 120.0
C37 C36 H36 120.0
C38 C37 H37 120.0
C36 C37 C38 120.0
C36 C37 H37 120.0
S6 N3 S5 122(7)
S8 N4 S7 112(4)
loop_
_geom_bond_atom_site_label_1
_geom_bond_atom_site_label_2
_geom_bond_distance
S2 N1 1.645(17)
S2 C10 1.744(6)
S1 N1 1.684(13)
S1 C1 1.739(6)
S3 C20 1.757(6)
S3 N2 1.654(11)
S4 C11 1.741(6)
S4 N2 1.653(10)
C13 C18 1.422(7)
C13 C12 1.415(7)
C13 C14 1.423(7)
C18 C19 1.414(8)
C18 C17 1.411(7)
C10 C1 1.425(8)
C10 C9 1.377(8)
C3 C8 1.424(7)
C3 C2 1.416(7)
C3 C4 1.414(7)
C8 C9 1.421(8)
C8 C7 1.427(7)
C11 C20 1.424(8)
C11 C12 1.360(8)
C1 C2 1.372(8)
C2 H2 0.9400
C20 C19 1.355(8)
C9 H9 0.9400
C4 H4 0.9400
C4 C5 1.362(8)
C12 H12 0.9400
C19 H19 0.9400
C7 H7 0.9400
C7 C6 1.360(8)
C17 H17 0.9400
C17 C16 1.363(9)
C5 H5 0.9400
C5 C6 1.404(9)
C6 H6 0.9400
C16 H16 0.9400
C16 C15 1.431(10)
C14 H14 0.9400
C14 C15 1.353(9)
C15 H15 0.9400
S8 C31 1.829(13)
S8 N4 1.48(7)
S7 C40 1.746(13)
S7 N4 1.86(7)
S5 C21 1.850(14)
S5 N3 1.65(11)
S6 C30 1.786(14)
S6 N3 1.53(11)
C22 H22 0.9400
C22 C21 1.3900
C22 C23 1.3900
C21 C30 1.3900
C30 C29 1.3900
C29 H29 0.9400
C29 C28 1.3900
C28 C23 1.3900
C28 C27 1.3900
C23 C24 1.3900
C24 H24 0.9400
C24 C25 1.3900
C25 H25 0.9400
C25 C26 1.3900
C26 H26 0.9400
C26 C27 1.3900
C27 H27 0.9400
C32 H32 0.9400
C32 C31 1.3900
C32 C33 1.3900
C31 C40 1.3900
C40 C39 1.3900
C39 H39 0.9400
C39 C38 1.3900
C38 C33 1.3900
C38 C37 1.3900
C33 C34 1.3900
C34 H34 0.9400
C34 C35 1.3900
C35 H35 0.9400
C35 C36 1.3900
C36 H36 0.9400
C36 C37 1.3900
C37 H37 0.9400
