#------------------------------------------------------------------------------
#$Date: 2019-11-25 21:30:06 +0200 (Mon, 25 Nov 2019) $
#$Revision: 241859 $
#$URL: file:///home/coder/svn-repositories/cod/cif/4/13/16/4131687.cif $
#------------------------------------------------------------------------------
#
# This file is available in the Crystallography Open Database (COD),
# http://www.crystallography.net/
#
# All data on this site have been placed in the public domain by the
# contributors.
#
data_4131687
loop_
_publ_author_name
'Jordan, Robert S.'
'Li, Yolanda L.'
'Lin, Cheng-Wei'
'McCurdy, Ryan D.'
'Lin, Janice B.'
'Brosmer, Jonathan L.'
'Marsh, Kristofer L.'
'Khan, Saeed I.'
'Houk, K. N.'
'Kaner, Richard B.'
'Rubin, Yves'
_publ_section_title
;
 Synthesis of N = 8 Armchair Graphene Nanoribbons from Four Distinct
 Polydiacetylenes.
;
_journal_issue                   44
_journal_name_full               'Journal of the American Chemical Society'
_journal_page_first              15878
_journal_page_last               15890
_journal_paper_doi               10.1021/jacs.7b08800
_journal_volume                  139
_journal_year                    2017
_chemical_formula_moiety         'C20 H14 O2'
_chemical_formula_sum            'C20 H14 O2'
_chemical_formula_weight         286.31
_space_group_crystal_system      monoclinic
_space_group_IT_number           14
_space_group_name_Hall           '-P 2ybc'
_space_group_name_H-M_alt        'P 1 21/c 1'
_atom_sites_solution_hydrogens   geom
_audit_creation_method           SHELXL-2014/6
_cell_angle_alpha                90
_cell_angle_beta                 90.2187(16)
_cell_angle_gamma                90
_cell_formula_units_Z            2
_cell_length_a                   5.38500(10)
_cell_length_b                   4.94320(10)
_cell_length_c                   27.2148(7)
_cell_measurement_reflns_used    3080
_cell_measurement_temperature    100(2)
_cell_measurement_theta_max      70.45
_cell_measurement_theta_min      3.25
_cell_volume                     724.43(3)
_computing_cell_refinement       'Bruker SAINT'
_computing_data_collection       'Bruker APEX2'
_computing_data_reduction        'Bruker SAINT'
_computing_molecular_graphics    'Bruker SHELXTL'
_computing_publication_material  'Bruker SHELXTL'
_computing_structure_refinement  'SHELXL-2014/6 (Sheldrick, 2014)'
_computing_structure_solution    'SHELXS-97 (Sheldrick 2008)'
_diffrn_ambient_temperature      100(2)
_diffrn_detector_area_resol_mean 8.3333
_diffrn_measured_fraction_theta_full 0.982
_diffrn_measured_fraction_theta_max 0.959
_diffrn_measurement_device_type  'Bruker APEX-II CCD'
_diffrn_measurement_method       '\f and \w scans'
_diffrn_radiation_type           CuK\a
_diffrn_radiation_wavelength     1.54178
_diffrn_reflns_av_R_equivalents  0.0246
_diffrn_reflns_av_unetI/netI     0.0213
_diffrn_reflns_Laue_measured_fraction_full 0.982
_diffrn_reflns_Laue_measured_fraction_max 0.959
_diffrn_reflns_limit_h_max       6
_diffrn_reflns_limit_h_min       -5
_diffrn_reflns_limit_k_max       4
_diffrn_reflns_limit_k_min       -5
_diffrn_reflns_limit_l_max       29
_diffrn_reflns_limit_l_min       -33
_diffrn_reflns_number            6678
_diffrn_reflns_point_group_measured_fraction_full 0.982
_diffrn_reflns_point_group_measured_fraction_max 0.959
_diffrn_reflns_theta_full        67.679
_diffrn_reflns_theta_max         70.977
_diffrn_reflns_theta_min         3.248
_diffrn_source                   'I\mS micro--focus source'
_exptl_absorpt_coefficient_mu    0.667
_exptl_absorpt_correction_T_max  0.75
_exptl_absorpt_correction_T_min  0.66
_exptl_absorpt_correction_type   multi-scan
_exptl_absorpt_process_details   'SADABS V2014/2 (Bruker AXS Inc.)'
_exptl_crystal_colour            colorless
_exptl_crystal_density_diffrn    1.313
_exptl_crystal_description       needle
_exptl_crystal_F_000             300
_exptl_crystal_size_max          0.300
_exptl_crystal_size_mid          0.050
_exptl_crystal_size_min          0.050
_refine_diff_density_max         0.154
_refine_diff_density_min         -0.224
_refine_diff_density_rms         0.037
_refine_ls_extinction_method     none
_refine_ls_goodness_of_fit_ref   1.057
_refine_ls_hydrogen_treatment    constr
_refine_ls_matrix_type           full
_refine_ls_number_parameters     101
_refine_ls_number_reflns         1328
_refine_ls_number_restraints     0
_refine_ls_restrained_S_all      1.057
_refine_ls_R_factor_all          0.0374
_refine_ls_R_factor_gt           0.0324
_refine_ls_shift/su_max          0.000
_refine_ls_shift/su_mean         0.000
_refine_ls_structure_factor_coef Fsqd
_refine_ls_weighting_details
'w=1/[\s^2^(Fo^2^)+(0.0488P)^2^+0.1669P] where P=(Fo^2^+2Fc^2^)/3'
_refine_ls_weighting_scheme      calc
_refine_ls_wR_factor_gt          0.0867
_refine_ls_wR_factor_ref         0.0891
_reflns_Friedel_coverage         0.000
_reflns_number_gt                1141
_reflns_number_total             1328
_reflns_threshold_expression     'I > 2\s(I)'
_cod_data_source_file            ja7b08800_si_002.cif
_cod_data_source_block           cu_yr1708s
_cod_original_sg_symbol_H-M      'P 21/c'
_cod_database_code               4131687
_shelx_space_group_comment
; 
The symmetry employed for this shelxl refinement is uniquely defined 
by the following loop, which should always be used as a source of 
symmetry information in preference to the above space-group names. 
They are only intended as comments. 
;
_shelx_estimated_absorpt_t_min   0.825
_shelx_estimated_absorpt_t_max   0.967
_shelxl_version_number           2014/6
_shelx_res_file
; 
TITL cu_yr1708s in P2(1)/c 
CELL 1.54178   5.38500   4.94320  27.21480  90.0000  90.2187  90.0000 
ZERR    2.00   0.00010   0.00010   0.00070   0.0000   0.0016   0.0000 
LATT 1 
SYMM -X, 0.5+Y, 0.5-Z 
SFAC C  H  O 
UNIT 40 28 4 
L.S. 20 
BOND $H 
FMAP 2 
PLAN 10 
acta 
size .3 .05 .05 
temp -173 
WGHT    0.048800    0.166900 
FVAR       0.31359 
O1    3   -0.120005    0.684825    0.320800    11.00000    0.01893    0.02724 = 
         0.02569    0.00349    0.00025    0.00591 
C1    1    0.378680   -0.230701    0.456764    11.00000    0.02262    0.01963 = 
         0.02247   -0.00247   -0.00350   -0.00173 
C2    1    0.456913   -0.401933    0.484272    11.00000    0.02389    0.01964 = 
         0.02263   -0.00123   -0.00310   -0.00042 
C3    1    0.084199    0.578390    0.317713    11.00000    0.01681    0.01647 = 
         0.01969   -0.00359   -0.00307   -0.00135 
C4    1    0.256379    0.649656    0.276161    11.00000    0.02064    0.02119 = 
         0.02106    0.00193    0.00001    0.00031 
AFIX 137 
H4A   2    0.248662    0.508151    0.250981    11.00000   -1.50000 
H4B   2    0.426674    0.664244    0.288710    11.00000   -1.50000 
H4C   2    0.205783    0.822920    0.261769    11.00000   -1.50000 
AFIX   0 
C5    1    0.300425   -0.029344    0.422163    11.00000    0.02099    0.01551 = 
         0.02082   -0.00108   -0.00578   -0.00250 
C6    1    0.449822    0.022571    0.381293    11.00000    0.01741    0.01832 = 
         0.02578   -0.00190   -0.00157    0.00147 
AFIX  43 
H6    2    0.597870   -0.078324    0.376451    11.00000   -1.20000 
AFIX   0 
C7    1    0.382241    0.220586    0.347933    11.00000    0.01812    0.01958 = 
         0.02087   -0.00106    0.00128   -0.00077 
AFIX  43 
H7    2    0.485903    0.256526    0.320531    11.00000   -1.20000 
AFIX   0 
C8    1    0.163718    0.368236    0.354020    11.00000    0.01618    0.01638 = 
         0.01935   -0.00253   -0.00228   -0.00191 
C9    1    0.013371    0.313835    0.394667    11.00000    0.01579    0.02073 = 
         0.02144   -0.00085   -0.00053    0.00146 
AFIX  43 
H9    2   -0.136093    0.412765    0.399135    11.00000   -1.20000 
AFIX   0 
C10   1    0.080275    0.117535    0.428372    11.00000    0.02115    0.02409 = 
         0.01901    0.00055    0.00075   -0.00161 
AFIX  43 
H10   2   -0.023270    0.082125    0.455815    11.00000   -1.20000 
AFIX   0 
HKLF 4 
  
REM  cu_yr1708s in P2(1)/c 
REM R1 =  0.0324 for    1141 Fo > 4sig(Fo)  and  0.0374 for all    1328 data 
REM    101 parameters refined using      0 restraints 
  
END 
  
WGHT      0.0484      0.1692 
  
REM Highest difference peak  0.154,  deepest hole -0.224,  1-sigma level  0.037 
Q1    1   0.1672  0.5139  0.2412  11.00000  0.05    0.15 
Q2    1   0.1740 -0.0110  0.4177  11.00000  0.05    0.14 
Q3    1   0.1489  0.4704  0.3381  11.00000  0.05    0.14 
Q4    1   0.4071  0.0736  0.4100  11.00000  0.05    0.14 
Q5    1   0.1242  0.3964  0.3793  11.00000  0.05    0.13 
Q6    1   0.0906  0.3332  0.3692  11.00000  0.05    0.12 
Q7    1   0.1002  0.4279  0.3317  11.00000  0.05    0.12 
Q8    1   0.3014  0.3617  0.3595  11.00000  0.05    0.12 
Q9    1   0.2275  0.2569  0.3415  11.00000  0.05    0.12 
Q10   1   0.2630  0.2982  0.3506  11.00000  0.05    0.11 
;
_shelx_res_checksum              6920
_shelx_hkl_file
; 
   1   0   0    6.91    0.21 
   2   0   0   59.13    1.75 
   2   0   0   60.39    1.75 
  -2   0   0   60.60    1.76 
  -3   0   0    1.07    0.10 
  -4   0   0   18.66    0.65 
   4   0   0   19.58    0.68 
   5   0   0    4.17    0.30 
   5   0   0    3.21    0.30 
   6   0   0    3.85    0.29 
   6   0   0    4.25    0.33 
   0  -1   0   -0.01    0.03 
  -1  -1   0    5.03    0.18 
  -1  -1   0    4.97    0.18 
   1  -1   0    4.94    0.17 
  -1   1   0    5.23    0.17 
   2  -1   0  115.96    3.39 
  -2  -1   0  116.22    3.39 
  -2  -1   0  118.20    3.40 
   2  -1   0  116.47    3.39 
  -2  -1   0  113.50    3.40 
  -2   1   0  119.93    3.39 
   2   1   0  115.30    3.39 
   3  -1   0   43.20    1.28 
  -3  -1   0   42.96    1.29 
   3  -1   0   43.37    1.27 
  -3   1   0   39.70    1.32 
  -3   1   0   42.98    1.28 
   3   1   0   42.32    1.27 
  -4  -1   0    0.06    0.16 
   4  -1   0   -0.01    0.20 
   4  -1   0    0.03    0.18 
  -4   1   0    0.06    0.20 
   4   1   0    0.00    0.18 
  -4   1   0    0.11    0.14 
   5  -1   0    9.47    0.51 
  -5  -1   0    9.14    0.44 
   5  -1   0    9.13    0.49 
   5  -1   0    9.13    0.61 
   5   1   0    9.45    0.47 
   5   1   0    9.31    0.43 
   6  -1   0    0.03    0.24 
   6  -1   0    0.09    0.19 
   6   1   0   -0.07    0.19 
   6   1   0    0.04    0.14 
   0  -2   0   19.73    0.60 
   0  -2   0   20.04    0.59 
   0  -2   0   19.32    0.60 
   0  -2   0   19.34    0.60 
   0  -2   0   19.81    0.61 
   1  -2   0    9.55    0.32 
  -1  -2   0    9.66    0.33 
   1  -2   0    9.90    0.32 
  -1  -2   0    9.66    0.33 
  -1  -2   0    9.65    0.34 
   1  -2   0    9.99    0.33 
  -1   2   0   10.07    0.32 
  -2  -2   0    0.29    0.10 
  -2  -2   0    0.29    0.09 
  -2  -2   0    0.26    0.08 
   2  -2   0    0.42    0.09 
   2  -2   0    0.38    0.09 
  -2   2   0    0.38    0.07 
   2   2   0    0.38    0.08 
   3  -2   0    6.98    0.30 
  -3  -2   0    7.35    0.32 
  -3  -2   0    6.63    0.32 
   3  -2   0    7.15    0.29 
  -3   2   0    6.98    0.29 
   3   2   0    6.73    0.29 
   4  -2   0   14.99    0.73 
   4  -2   0   15.34    0.65 
   4  -2   0   12.63    0.88 
  -4  -2   0   14.54    0.61 
   4  -2   0   14.83    0.57 
  -4  -2   0   16.44    0.59 
   4   2   0   15.30    0.57 
   4   2   0   14.74    0.54 
   5  -2   0   17.30    0.66 
  -5  -2   0   17.54    0.63 
   5  -2   0   17.30    0.76 
   5  -2   0   17.32    0.70 
  -5   2   0   17.72    0.65 
   5   2   0   17.42    0.62 
   5   2   0   17.53    0.66 
   6  -2   0    0.61    0.25 
   6   2   0    0.37    0.13 
   0  -3   0    0.01    0.10 
  -1  -3   0    4.92    0.26 
  -1  -3   0    5.14    0.26 
   1  -3   0    5.36    0.23 
   1  -3   0    5.19    0.25 
  -1  -3   0    5.31    0.25 
   1   3   0    5.06    0.24 
  -2  -3   0    0.12    0.17 
   2  -3   0   -0.01    0.12 
  -2  -3   0    0.02    0.12 
   2  -3   0   -0.01    0.12 
  -2  -3   0    0.05    0.13 
   2   3   0    0.07    0.11 
   3  -3   0    0.38    0.29 
  -3  -3   0    0.54    0.33 
   3  -3   0    0.45    0.30 
   3  -3   0    0.76    0.17 
  -3  -3   0    0.48    0.19 
   3  -3   0    0.56    0.19 
  -3  -3   0    0.49    0.22 
  -3   3   0    0.69    0.17 
   3   3   0    1.01    0.18 
  -4  -3   0    2.68    0.31 
  -4  -3   0    3.03    0.29 
  -4  -3   0    4.33    0.28 
   4  -3   0    4.12    0.38 
   4  -3   0    3.14    0.27 
   4  -3   0    3.70    0.39 
   4  -3   0    3.86    0.38 
   5  -3   0    3.30    0.25 
   5  -3   0    3.86    0.32 
  -5  -3   0    3.72    0.25 
   5  -3   0    4.01    0.30 
   5  -3   0    3.94    0.30 
   5   3   0    3.35    0.24 
  -5   3   0    3.30    0.27 
   1  -4   0   35.94    1.14 
  -2  -4   0   -0.03    0.22 
  -2  -4   0    0.10    0.22 
   2  -4   0    0.09    0.28 
   2  -4   0    0.03    0.27 
  -2  -4   0    0.17    0.21 
   2  -4   0    0.03    0.18 
   2  -4   0    0.08    0.21 
  -2   4   0    0.13    0.18 
  -3  -4   0   15.46    0.58 
   3  -4   0   15.72    0.71 
  -3  -4   0   15.33    0.62 
   3  -4   0   15.49    0.60 
  -3  -4   0   14.32    0.64 
   3  -4   0   15.05    0.66 
   4  -4   0    1.49    0.19 
  -4  -4   0    1.68    0.21 
  -4  -4   0    1.25    0.17 
   4  -4   0    1.20    0.26 
  -4  -4   0    1.33    0.19 
   4  -4   0    1.60    0.24 
   4   4   0    1.45    0.17 
  -4   4   0    1.47    0.19 
   2  -5   0    7.88    0.49 
  -2  -5   0    8.36    0.41 
  -2  -5   0    8.34    0.42 
  -3  -5   0    4.22    0.27 
  -3  -5   0    4.78    0.29 
   3  -5   0    4.42    0.33 
   6   0  -1    0.08    0.16 
   6   0  -1    0.04    0.19 
   5   0  -1   -0.06    0.22 
   5   0  -1    0.03    0.20 
   4   0  -1    0.02    0.15 
  -4   0   1   -0.02    0.12 
  -3   0   1    0.00    0.07 
   2   0  -1    0.03    0.04 
  -2   0   1    0.03    0.04 
   2   0  -1    0.04    0.04 
   1   0  -1   -0.22    0.02 
   0   0  -1    0.00    0.01 
   0   0   1    0.00    0.01 
   1   0   1   -0.01    0.02 
   2   0   1    0.02    0.04 
  -2   0  -1    0.04    0.04 
   2   0   1   -0.02    0.04 
  -3   0  -1    0.04    0.07 
   3   0   1   -0.03    0.06 
  -4   0  -1   -0.08    0.13 
   4   0   1    0.03    0.15 
   5   0   1    0.07    0.30 
   5   0   1   -0.11    0.21 
   5   0   1    0.03    0.19 
   6   0   1   -0.12    0.18 
   6   0   1    0.19    0.16 
   6  -1  -1    0.03    0.19 
   6  -1  -1    0.05    0.16 
   6   1  -1    0.08    0.14 
   6   1  -1    0.24    0.20 
   5  -1  -1    0.79    0.31 
   5  -1  -1    0.96    0.25 
  -5  -1   1    0.80    0.22 
   5  -1  -1    0.71    0.25 
   5   1  -1    0.81    0.22 
   5   1  -1    1.02    0.21 
   4  -1  -1    0.16    0.18 
   4  -1  -1    0.27    0.19 
  -4  -1   1    0.19    0.15 
   4   1  -1    0.18    0.17 
  -4   1   1    0.42    0.19 
  -4   1   1    0.25    0.14 
   3  -1  -1    5.15    0.22 
  -3  -1   1    5.32    0.24 
  -3   1   1    5.04    0.22 
   3   1  -1    5.22    0.21 
   2  -1  -1    3.74    0.16 
  -2  -1   1    3.33    0.16 
   2  -1  -1    3.61    0.16 
  -2  -1   1    3.74    0.16 
  -2  -1   1    4.00    0.16 
   2   1  -1    3.96    0.15 
  -2   1   1    3.86    0.15 
   1  -1  -1    5.43    0.19 
  -1  -1   1    5.60    0.19 
   1  -1  -1    5.58    0.19 
  -1  -1   1    5.63    0.19 
   1   1  -1    5.63    0.17 
  -1   1   1    5.75    0.19 
   0  -1  -1    4.48    0.14 
   0  -1   1    4.34    0.14 
  -1  -1  -1   33.77    0.97 
   1  -1   1   32.76    0.97 
  -1  -1  -1   32.21    0.97 
   1   1   1   32.59    0.97 
  -2  -1  -1   33.46    1.00 
  -2  -1  -1   32.13    1.00 
   2  -1   1   33.49    0.99 
   2  -1   1   32.71    0.99 
  -2   1  -1   35.06    0.99 
   2   1   1   32.86    0.99 
   3  -1   1   42.01    1.27 
   3  -1   1   42.96    1.28 
  -3  -1  -1   41.95    1.29 
  -3   1  -1   43.89    1.28 
   3   1   1   42.75    1.28 
  -3   1  -1   41.62    1.27 
  -4  -1  -1    0.17    0.15 
   4  -1   1    0.24    0.21 
   4  -1   1    0.20    0.20 
   4   1   1    0.22    0.13 
  -4   1  -1    0.31    0.15 
   4   1   1    0.21    0.18 
   5  -1   1    2.72    0.30 
   5  -1   1    2.77    0.36 
  -5  -1  -1    3.28    0.27 
   5   1   1    3.35    0.26 
   5   1   1    2.99    0.28 
   6  -1   1    5.54    0.43 
   6  -1   1    5.98    0.37 
   6   1   1    5.85    0.30 
   6   1   1    5.69    0.36 
   6   2  -1   22.44    0.71 
   5  -2  -1    0.20    0.25 
   5  -2  -1    0.44    0.29 
   5  -2  -1    0.33    0.21 
  -5  -2   1    0.46    0.19 
   5   2  -1    0.18    0.21 
   5   2  -1    0.10    0.17 
  -5   2   1    0.13    0.19 
   4  -2  -1    2.22    0.35 
  -4  -2   1    2.13    0.27 
  -4  -2   1    1.85    0.24 
   4  -2  -1    2.17    0.30 
   4  -2  -1    1.85    0.22 
   4  -2  -1    2.10    0.47 
   4   2  -1    1.61    0.19 
   4   2  -1    1.68    0.22 
  -4   2   1    1.56    0.20 
  -3  -2   1   10.00    0.41 
  -3  -2   1    9.80    0.41 
   3  -2  -1   10.30    0.38 
   3  -2  -1    9.66    0.38 
  -3   2   1    9.78    0.37 
   3   2  -1   10.29    0.37 
   2  -2  -1    1.04    0.11 
   2  -2  -1    1.19    0.11 
  -2  -2   1    1.16    0.13 
  -2  -2   1    1.14    0.11 
  -2  -2   1    1.19    0.12 
   2   2  -1    0.88    0.10 
  -2   2   1    0.97    0.09 
  -1  -2   1    1.46    0.11 
   1  -2  -1    1.71    0.12 
   1  -2  -1    1.49    0.11 
   1  -2  -1    1.63    0.11 
  -1  -2   1    1.56    0.12 
  -1  -2   1    1.74    0.11 
  -1   2   1    1.72    0.12 
   0  -2  -1   72.95    2.18 
   0  -2  -1   74.22    2.18 
   0  -2   1   74.40    2.18 
   0  -2   1   75.69    2.18 
   0  -2  -1   76.33    2.17 
   0  -2   1   72.66    2.18 
   0  -2   1   72.13    2.17 
   0  -2   1   75.98    2.18 
   0  -2  -1   75.19    2.18 
   0  -2  -1   75.77    2.18 
   1  -2   1    2.97    0.14 
  -1  -2  -1    3.00    0.16 
   1  -2   1    2.92    0.15 
   1  -2   1    3.07    0.14 
  -1  -2  -1    2.85    0.15 
  -1  -2  -1    2.95    0.14 
   1   2   1    2.83    0.14 
  -1   2  -1    3.14    0.14 
  -2  -2  -1    5.85    0.24 
   2  -2   1    5.80    0.24 
  -2  -2  -1    5.41    0.23 
   2  -2   1    5.86    0.23 
  -2  -2  -1    5.85    0.26 
   2   2   1    5.42    0.23 
  -2   2  -1    5.76    0.22 
  -3  -2  -1   19.94    0.68 
   3  -2   1   19.91    0.66 
  -3  -2  -1   20.00    0.69 
   3  -2   1   20.72    0.67 
  -3   2  -1   20.49    0.66 
  -3   2  -1   21.06    0.67 
   3   2   1   21.20    0.67 
  -4  -2  -1    0.83    0.21 
  -4  -2  -1    1.13    0.24 
   4  -2   1    1.14    0.30 
   4  -2   1    1.44    0.41 
   4  -2   1    1.11    0.26 
   4  -2   1    1.03    0.21 
   4   2   1    1.42    0.21 
   4   2   1    1.07    0.17 
   5  -2   1   48.22    1.50 
  -5  -2  -1   46.83    1.47 
   5  -2   1   46.70    1.56 
   5  -2   1   48.70    1.54 
   5  -2   1   47.75    1.58 
   5   2   1   48.18    1.47 
  -5   2  -1   49.31    1.50 
   5   2   1   46.35    1.49 
   6  -2   1   12.49    0.57 
   6   2   1   13.53    0.46 
   5  -3  -1    8.27    0.46 
  -5  -3   1    9.11    0.38 
   5  -3  -1    9.39    0.46 
  -5  -3   1    9.29    0.44 
   5  -3  -1    9.40    0.41 
   5  -3  -1    8.51    0.48 
  -5   3   1    9.00    0.39 
   5   3  -1    9.31    0.38 
  -4  -3   1   11.60    0.56 
  -4  -3   1   10.53    0.47 
   4  -3  -1   11.43    0.58 
   4  -3  -1   10.92    0.58 
   4  -3  -1   12.21    0.50 
  -4  -3   1   10.76    0.53 
   4  -3  -1   10.49    0.62 
   3  -3  -1    7.01    0.39 
   3  -3  -1    6.84    0.55 
  -3  -3   1    7.13    0.43 
  -3  -3   1    7.30    0.57 
  -3  -3   1    6.96    0.39 
   3  -3  -1    6.59    0.48 
  -3  -3   1    5.18    0.45 
   3  -3  -1    7.23    0.36 
   3   3  -1    7.03    0.33 
   2  -3  -1    9.62    0.39 
  -2  -3   1   10.60    0.41 
   2  -3  -1    9.92    0.38 
  -2  -3   1    9.51    0.41 
  -2  -3   1    9.57    0.42 
   2   3  -1   10.51    0.40 
  -1  -3   1    0.47    0.11 
  -1  -3   1    0.72    0.13 
   1  -3  -1    0.52    0.11 
   1  -3  -1    0.70    0.12 
   1  -3  -1    0.37    0.11 
   1   3  -1    0.46    0.10 
  -1   3   1    0.71    0.12 
   0  -3  -1   46.53    1.40 
   1  -3   1    3.53    0.20 
   1  -3   1    3.51    0.19 
  -1  -3  -1    3.79    0.23 
  -1  -3  -1    3.80    0.20 
  -1  -3  -1    3.45    0.21 
   1   3   1    3.73    0.19 
   2  -3   1    5.29    0.27 
   2  -3   1    5.92    0.29 
  -2  -3  -1    6.04    0.31 
  -2  -3  -1    5.74    0.28 
  -2  -3  -1    5.94    0.31 
   2   3   1    5.78    0.27 
   3  -3   1   22.35    0.88 
  -3  -3  -1   23.31    0.98 
  -3  -3  -1   20.60    0.84 
   3  -3   1   22.84    0.78 
  -3  -3  -1   22.18    0.78 
   3  -3   1   22.24    0.75 
  -3  -3  -1   22.45    0.78 
  -3   3  -1   21.59    0.75 
   3   3   1   21.93    0.75 
  -4  -3  -1    1.55    0.29 
  -4  -3  -1    1.02    0.25 
   4  -3   1    1.78    0.34 
   4  -3   1    1.75    0.32 
   4  -3   1    1.64    0.32 
   4  -3   1    1.09    0.21 
  -4  -3  -1    0.75    0.19 
   4   3   1    1.15    0.23 
   5  -3   1    3.96    0.36 
   5  -3   1    4.25    0.32 
   5  -3   1    4.12    0.33 
  -5  -3  -1    4.11    0.27 
   5   3   1    3.94    0.26 
  -5   3  -1    4.27    0.29 
  -4  -4   1    0.19    0.16 
  -4  -4   1    0.24    0.15 
  -4  -4   1    0.44    0.18 
   4  -4  -1    0.27    0.17 
   4  -4  -1    0.18    0.21 
   4  -4  -1    0.20    0.24 
   4   4  -1    0.08    0.14 
  -4   4   1    0.29    0.17 
   3  -4  -1   17.55    0.75 
   3  -4  -1   15.95    0.71 
  -3  -4   1   17.19    0.67 
  -3  -4   1   16.19    0.67 
   3  -4  -1   16.71    0.64 
   2  -4  -1   25.26    0.85 
  -2  -4   1   27.05    0.90 
  -2  -4   1   25.05    0.87 
  -2  -4   1   24.58    0.91 
   2  -4  -1   25.03    0.93 
   2  -4  -1   23.28    0.90 
   2  -4  -1   24.64    0.95 
   1  -4  -1    5.87    0.33 
  -1  -4  -1    0.23    0.21 
  -2  -4  -1    2.51    0.29 
   2  -4   1    2.01    0.22 
  -2  -4  -1    1.60    0.26 
   2  -4   1    2.23    0.33 
  -2  -4  -1    2.11    0.24 
   2  -4   1    2.17    0.27 
  -2   4  -1    1.75    0.21 
   3  -4   1   10.59    0.56 
  -3  -4  -1    9.78    0.53 
  -3  -4  -1   11.00    0.46 
   3  -4   1   10.91    0.48 
  -3  -4  -1   10.01    0.51 
  -4  -4  -1    7.12    0.39 
  -4  -4  -1    6.37    0.32 
   4  -4   1    6.99    0.36 
  -4  -4  -1    6.63    0.35 
   4  -4   1    6.98    0.41 
   4  -4   1    6.50    0.44 
  -3  -5   1   12.94    0.48 
   3  -5  -1   12.03    0.50 
  -3  -5   1   12.06    0.46 
  -2  -5   1    0.50    0.18 
   2  -5  -1    0.52    0.25 
  -2  -5   1    0.51    0.19 
  -2  -5  -1   -0.04    0.18 
  -2  -5  -1    0.14    0.20 
  -3  -5  -1    2.37    0.19 
   3  -5   1    2.24    0.23 
  -3  -5  -1    2.51    0.20 
   6   0  -2    0.22    0.16 
   6   0  -2    0.06    0.19 
   5   0  -2    3.09    0.29 
   5   0  -2    3.62    0.29 
   4   0  -2    0.60    0.18 
  -4   0   2    0.70    0.16 
  -3   0   2    2.62    0.15 
  -2   0   2  243.44    7.05 
   2   0  -2  241.98    7.05 
   2   0  -2  246.45    7.05 
   1   0  -2  928.13   26.80 
   0   0  -2    0.22    0.03 
   0   0  -2    0.24    0.03 
   0   0   2    0.21    0.03 
   0   0   2    0.22    0.03 
   1   0   2   75.23    2.18 
   2   0   2    1.92    0.10 
  -2   0  -2    1.82    0.10 
   2   0   2    1.78    0.08 
  -3   0  -2  116.15    3.41 
   3   0   2  116.93    3.40 
   4   0   2    3.43    0.25 
  -4   0  -2    2.56    0.20 
   5   0   2   14.08    0.69 
   5   0   2   15.69    0.61 
   5   0   2   14.12    0.57 
   6   0   2    7.02    0.38 
   6   0   2    7.21    0.36 
   6  -1  -2    5.71    0.32 
   6  -1  -2    5.16    0.36 
   6   1  -2    5.56    0.30 
   6   1  -2    5.37    0.36 
   5  -1  -2   49.37    1.60 
   5  -1  -2   51.76    1.69 
   5  -1  -2   51.03    1.62 
  -5   1   2   53.00    1.61 
   5   1  -2   51.17    1.60 
   5   1  -2   50.88    1.58 
   4  -1  -2   18.21    0.65 
   4  -1  -2   18.27    0.68 
  -4  -1   2   18.11    0.64 
   4   1  -2   17.99    0.65 
  -4   1   2   18.13    0.63 
  -4   1   2   17.46    0.65 
  -3  -1   2    9.47    0.35 
   3  -1  -2    9.18    0.33 
  -3   1   2    9.25    0.33 
   3   1  -2    9.66    0.34 
   2  -1  -2   72.56    2.12 
   2  -1  -2   72.16    2.12 
  -2  -1   2   68.90    2.12 
  -2  -1   2   73.12    2.12 
  -2  -1   2   73.18    2.12 
   2   1  -2   71.59    2.12 
  -2   1   2   74.29    2.11 
  -1  -1   2    0.17    0.05 
  -1  -1   2    0.14    0.04 
   1  -1  -2    0.05    0.04 
   1  -1  -2    0.16    0.04 
  -1   1   2    0.08    0.04 
   1   1  -2    0.07    0.02 
   0  -1   2   24.80    0.73 
   0  -1  -2   24.68    0.72 
   1  -1   2   26.31    0.78 
  -1  -1  -2   26.69    0.79 
  -1  -1  -2   26.70    0.79 
   1   1   2   25.90    0.78 
   2  -1   2    0.35    0.06 
   2  -1   2    0.25    0.06 
  -2  -1  -2    0.22    0.07 
  -2  -1  -2    0.29    0.06 
  -2   1  -2    0.25    0.05 
   2   1   2    0.22    0.05 
   3  -1   2   60.17    1.84 
   3  -1   2   61.55    1.84 
  -3  -1  -2   62.16    1.86 
  -3   1  -2   63.39    1.84 
   3   1   2   64.54    1.84 
  -3   1  -2   61.24    1.84 
   4  -1   2    0.43    0.21 
  -4  -1  -2    0.50    0.18 
  -4   1  -2    0.30    0.14 
   4   1   2    0.40    0.18 
   4   1   2    0.52    0.14 
  -5  -1  -2    0.43    0.20 
   5  -1   2    0.36    0.25 
   5  -1   2    0.10    0.30 
   5   1   2    0.32    0.19 
   5   1   2    0.17    0.21 
   6  -1   2    3.04    0.29 
   6  -1   2    3.63    0.27 
   6   1   2    2.60    0.24 
   6   1   2    2.82    0.21 
   6   2  -2   20.23    0.65 
  -5  -2   2   13.39    0.53 
   5  -2  -2   13.40    0.56 
   5  -2  -2   12.77    0.65 
   5  -2  -2   13.27    0.59 
   5   2  -2   12.94    0.52 
   5   2  -2   13.21    0.54 
  -5   2   2   13.43    0.54 
   4  -2  -2    0.12    0.18 
   4  -2  -2   -0.06    0.49 
   4  -2  -2    0.02    0.24 
  -4  -2   2    0.10    0.20 
   4  -2  -2    0.06    0.30 
  -4  -2   2    0.10    0.20 
  -4  -2   2   -0.12    0.25 
   4   2  -2   -0.01    0.20 
   4   2  -2    0.00    0.17 
   4   2  -2    0.04    0.18 
  -4   2   2   -0.07    0.17 
   3  -2  -2    6.92    0.30 
  -3  -2   2    6.54    0.33 
   3  -2  -2    6.84    0.30 
  -3  -2   2    7.35    0.33 
  -3   2   2    6.56    0.28 
   3   2  -2    6.99    0.30 
   2  -2  -2   29.99    0.93 
   2  -2  -2   30.69    0.93 
  -2  -2   2   29.45    0.95 
  -2  -2   2   31.63    0.94 
  -2  -2   2   30.31    0.94 
   2   2  -2   30.21    0.93 
  -2   2   2   30.38    0.92 
   1  -2  -2    7.47    0.27 
  -1  -2   2    7.56    0.27 
   1  -2  -2    7.73    0.27 
   1  -2  -2    7.70    0.27 
  -1  -2   2    7.59    0.27 
  -1  -2   2    7.78    0.29 
  -1   2   2    7.74    0.27 
   0  -2   2   18.92    0.57 
   0  -2   2   18.99    0.59 
   0  -2   2   19.04    0.59 
   0  -2  -2   19.05    0.58 
   0  -2  -2   19.51    0.57 
   0  -2  -2   18.64    0.58 
   0  -2   2   19.26    0.58 
   0  -2  -2   18.81    0.59 
   0  -2  -2   18.00    0.58 
   0  -2   2   19.16    0.58 
  -1  -2  -2    2.65    0.15 
  -1  -2  -2    2.59    0.14 
   1  -2   2    2.35    0.13 
  -1  -2  -2    2.40    0.13 
   1  -2   2    2.59    0.12 
   1  -2   2    2.53    0.13 
   1   2   2    2.54    0.13 
  -1   2  -2    2.65    0.13 
  -2  -2  -2    9.54    0.34 
   2  -2   2    9.63    0.33 
   2  -2   2    8.91    0.33 
  -2  -2  -2    9.43    0.35 
  -2  -2  -2    9.31    0.33 
  -2   2  -2    8.93    0.31 
   2   2   2    9.45    0.33 
  -3  -2  -2    1.85    0.19 
   3  -2   2    1.82    0.17 
  -3  -2  -2    1.98    0.18 
   3  -2   2    1.20    0.14 
   3   2   2    2.08    0.16 
  -3   2  -2    1.63    0.15 
  -4  -2  -2    2.15    0.25 
  -4  -2  -2    2.63    0.25 
   4  -2   2    3.20    0.40 
   4  -2   2    3.22    0.41 
   4  -2   2    3.65    0.34 
  -4  -2  -2    2.03    0.24 
   4  -2   2    2.79    0.26 
   4   2   2    2.13    0.23 
   4   2   2    2.37    0.20 
   5  -2   2   -0.03    0.27 
   5  -2   2   -0.06    0.20 
   5  -2   2    0.18    0.26 
   5  -2   2    0.08    0.28 
  -5  -2  -2   -0.02    0.16 
   5   2   2   -0.05    0.15 
   5   2   2    0.10    0.20 
  -5   2  -2   -0.06    0.20 
   6  -2   2   20.74    0.76 
   6   2   2   21.30    0.67 
   5  -3  -2    0.68    0.22 
   5  -3  -2    0.47    0.23 
  -5  -3   2    0.63    0.16 
   5  -3  -2    0.48    0.21 
  -5  -3   2    0.55    0.18 
   5  -3  -2    0.47    0.18 
  -5   3   2    0.41    0.15 
   5   3  -2    0.65    0.15 
  -4  -3   2    1.18    0.21 
   4  -3  -2    1.52    0.30 
  -4  -3   2    1.90    0.28 
   4  -3  -2    1.90    0.32 
   4  -3  -2    1.77    0.23 
   4  -3  -2    1.95    0.35 
  -4  -3   2    1.27    0.24 
   3  -3  -2    0.60    0.17 
   3  -3  -2    0.52    0.19 
   3  -3  -2    0.64    0.30 
  -3  -3   2    0.37    0.23 
  -3  -3   2    0.40    0.26 
  -3  -3   2    0.65    0.20 
   3  -3  -2    0.59    0.26 
   3   3  -2    0.61    0.16 
   2  -3  -2    1.15    0.15 
  -2  -3   2    1.63    0.19 
   2  -3  -2    1.41    0.16 
  -2  -3   2    1.20    0.16 
   2   3  -2    1.55    0.16 
  -2   3   2    1.61    0.15 
  -1  -3   2   20.43    0.68 
   1  -3  -2   20.31    0.66 
  -1  -3   2   21.91    0.67 
   1  -3  -2   20.24    0.66 
   1  -3  -2   20.24    0.67 
  -1   3   2   20.16    0.66 
   0  -3  -2    0.25    0.11 
   0  -3  -2    0.21    0.10 
  -1  -3  -2    1.54    0.14 
   1  -3   2    1.43    0.12 
   1  -3   2    1.54    0.14 
  -1  -3  -2    1.23    0.14 
  -1  -3  -2    0.94    0.12 
   1   3   2    1.23    0.12 
   2  -3   2    2.79    0.20 
   2  -3   2    2.24    0.18 
  -2  -3  -2    2.59    0.21 
  -2  -3  -2    2.46    0.20 
   2   3   2    2.33    0.18 
  -3  -3  -2   38.09    1.16 
   3  -3   2   34.74    1.17 
  -3  -3  -2   36.22    1.26 
  -3  -3  -2   29.54    1.22 
   3  -3   2   36.57    1.29 
  -3  -3  -2   38.23    1.18 
   3  -3   2   36.64    1.14 
  -3  -3  -2   35.82    1.21 
  -3  -3  -2   38.02    1.19 
   3   3   2   36.31    1.16 
   3   3   2   36.41    1.14 
  -3   3  -2   36.55    1.14 
   4  -3   2   13.57    0.56 
  -4  -3  -2   13.66    0.53 
  -4  -3  -2   14.04    0.63 
   4  -3   2   13.64    0.68 
  -4  -3  -2   13.48    0.56 
  -4  -3  -2   13.90    0.60 
   4  -3   2   13.20    0.65 
   4   3   2   12.81    0.54 
   5  -3   2    0.25    0.23 
   5  -3   2    0.04    0.21 
  -5  -3  -2    0.16    0.14 
   5  -3   2    0.31    0.18 
  -5   3  -2    0.25    0.16 
   5   3   2    0.01    0.13 
   5   3   2    0.18    0.23 
   4  -4  -2    0.48    0.17 
   4  -4  -2    0.52    0.24 
   4  -4  -2    0.19    0.20 
  -4  -4   2    0.75    0.19 
  -4  -4   2    0.58    0.17 
  -4   4   2    0.45    0.17 
  -3  -4   2    0.56    0.20 
   3  -4  -2    0.57    0.20 
   3  -4  -2    0.71    0.29 
   3  -4  -2    0.81    0.27 
  -3  -4   2    0.98    0.23 
  -2  -4   2    7.46    0.46 
  -2  -4   2    7.34    0.42 
   2  -4  -2    7.25    0.47 
   2  -4  -2    7.45    0.52 
  -2  -4   2    7.45    0.45 
   2  -4  -2    7.39    0.39 
   1  -4  -2    0.01    0.18 
  -1  -4  -2    0.10    0.20 
   1   4   2    0.15    0.18 
  -2  -4  -2   95.90    2.75 
  -2  -4  -2   92.52    2.82 
  -2  -4  -2   90.11    2.80 
  -2  -4  -2   97.37    2.78 
   2  -4   2   88.51    2.75 
   2  -4   2   92.65    2.78 
   2  -4   2   88.83    2.82 
  -2   4  -2   91.09    2.75 
   3  -4   2    3.09    0.34 
  -3  -4  -2    1.59    0.24 
  -3  -4  -2    2.94    0.24 
   3  -4   2    2.33    0.32 
  -3  -4  -2    2.21    0.25 
   3  -4   2    2.85    0.26 
  -4  -4  -2    1.20    0.20 
   4  -4   2    1.08    0.23 
   4  -4   2    1.10    0.27 
   4  -4   2    1.05    0.18 
  -4  -4  -2    1.05    0.19 
  -4  -4  -2    1.26    0.16 
   3  -5  -2   -0.07    0.19 
  -3  -5   2    0.06    0.13 
  -3  -5   2    0.16    0.14 
   3  -5  -2    0.09    0.17 
   2  -5  -2   10.33    0.49 
  -2  -5   2    9.80    0.45 
  -2  -5   2    9.65    0.46 
  -2  -5  -2    4.31    0.36 
  -2  -5  -2    4.43    0.34 
   3  -5   2    3.47    0.31 
  -3  -5  -2    3.47    0.26 
  -3  -5  -2    3.70    0.26 
   6   0  -3   -0.10    0.15 
   6   0  -3    0.06    0.20 
   5   0  -3   -0.01    0.23 
   5   0  -3    0.00    0.20 
  -4   0   3   -0.04    0.13 
   4   0  -3    0.01    0.17 
  -3   0   3   -0.05    0.07 
  -2   0   3   -0.17    0.04 
   2   0  -3   -0.15    0.04 
   2   0  -3   -0.18    0.04 
   1   0  -3   -0.14    0.02 
   0   0   3   -0.02    0.02 
   0   0  -3   -0.05    0.02 
   0   0  -3   -0.05    0.02 
   0   0   3    0.00    0.02 
   1   0   3   -0.01    0.02 
   2   0   3   -0.04    0.04 
  -2   0  -3    0.01    0.05 
   2   0   3   -0.02    0.04 
  -3   0  -3   -0.04    0.08 
   3   0   3    0.05    0.06 
  -4   0  -3    0.04    0.15 
   4   0   3    0.02    0.17 
   5   0   3   -0.06    0.20 
   5   0   3    0.13    0.28 
   5   0   3    0.02    0.21 
   6   0   3    0.03    0.34 
   6   0   3    0.00    0.18 
   6  -1  -3    1.88    0.22 
   6  -1  -3    2.58    0.20 
   6   1  -3    2.86    0.35 
   6   1  -3    2.56    0.20 
   5  -1  -3   18.12    0.80 
   5  -1  -3   18.81    0.72 
   5  -1  -3   18.52    0.70 
   5   1  -3   18.23    0.66 
   5   1  -3   17.80    0.70 
  -5   1   3   18.22    0.68 
  -4  -1   3   30.46    0.98 
   4  -1  -3   30.25    1.01 
   4  -1  -3   30.70    0.99 
   4   1  -3   30.74    0.99 
  -4   1   3   30.38    0.99 
  -4   1   3   29.77    0.97 
   3  -1  -3    0.19    0.10 
  -3  -1   3    0.29    0.10 
   3   1  -3    0.23    0.08 
  -3   1   3    0.25    0.09 
   2  -1  -3    3.24    0.14 
  -2  -1   3    3.28    0.16 
  -2  -1   3    3.05    0.16 
   2  -1  -3    3.14    0.15 
  -2  -1   3    3.49    0.15 
  -2   1   3    3.33    0.14 
   2   1  -3    3.30    0.15 
   1  -1  -3   41.67    1.23 
   1  -1  -3   42.05    1.23 
  -1  -1   3   42.60    1.23 
  -1   1   3   41.62    1.23 
   1   1  -3   41.50    1.22 
   0  -1   3   59.36    1.70 
   0  -1  -3   58.18    1.70 
   0   1  -3   58.23    1.70 
   1  -1   3  706.57   21.37 
  -1  -1  -3  759.63   21.42 
  -1  -1  -3  738.52   21.41 
   1   1   3  756.63   21.41 
   2  -1   3   43.54    1.28 
   2  -1   3   42.58    1.28 
  -2  -1  -3   43.54    1.29 
   2  -1   3   41.51    1.28 
  -2  -1  -3   43.83    1.29 
  -2   1  -3   43.61    1.28 
  -2   1  -3   43.81    1.27 
   2   1   3   42.93    1.28 
   3  -1   3    0.17    0.07 
  -3  -1  -3    0.27    0.10 
   3  -1   3    0.22    0.09 
  -3   1  -3    0.16    0.09 
  -3   1  -3    0.04    0.08 
   3   1   3    0.14    0.08 
  -4  -1  -3    0.13    0.17 
   4  -1   3    0.09    0.20 
   4   1   3    0.02    0.16 
   4   1   3    0.11    0.14 
  -4   1  -3    0.16    0.16 
   5  -1   3    0.92    0.30 
   5  -1   3    1.18    0.28 
  -5  -1  -3    0.86    0.20 
   5   1   3    0.68    0.19 
   5   1   3    0.96    0.22 
   6  -1   3    3.90    0.31 
   6  -1   3    2.57    0.25 
   6   1   3    3.91    0.26 
   6   1   3    4.12    0.31 
   6   2  -3   10.67    0.39 
   5  -2  -3    7.99    0.46 
   5  -2  -3    6.86    0.51 
   5  -2  -3    7.65    0.41 
   5  -2  -3    7.28    0.44 
  -5  -2   3    7.58    0.39 
  -5   2   3    8.09    0.41 
   5   2  -3    8.17    0.38 
  -4  -2   3   20.85    0.75 
   4  -2  -3   19.95    0.76 
   4  -2  -3   19.32    0.77 
   4  -2  -3   15.85    0.87 
   4  -2  -3   19.41    0.70 
  -4  -2   3   20.41    0.70 
   4  -2  -3   19.49    0.84 
  -4   2   3   20.25    0.70 
   4   2  -3   20.37    0.69 
   4   2  -3   19.42    0.68 
  -4   2   3   18.23    0.68 
   3  -2  -3   -0.08    0.11 
  -3  -2   3    0.14    0.12 
   3  -2  -3   -0.04    0.11 
  -3  -2   3   -0.02    0.13 
  -3  -2   3   -0.08    0.14 
   3   2  -3    0.00    0.11 
  -3   2   3    0.00    0.11 
  -2  -2   3   96.14    2.83 
   2  -2  -3   92.60    2.82 
  -2  -2   3   99.15    2.82 
   2  -2  -3   96.83    2.81 
  -2  -2   3   94.12    2.82 
   2   2  -3   93.55    2.82 
  -2   2   3   98.48    2.81 
   1  -2  -3    0.13    0.06 
   1  -2  -3    0.03    0.07 
  -1  -2   3    0.06    0.07 
  -1  -2   3    0.13    0.07 
  -1  -2   3    0.02    0.07 
   1  -2  -3    0.03    0.06 
  -1   2   3   -0.04    0.06 
   0  -2  -3   34.22    1.05 
   0  -2   3   35.63    1.04 
   0  -2  -3   34.21    1.05 
   0  -2  -3   34.69    1.05 
   0  -2   3   35.49    1.05 
   0  -2   3   34.68    1.05 
   0  -2  -3   35.02    1.04 
   0  -2   3   36.53    1.04 
   0   2   3   35.72    1.04 
   0   2  -3   34.88    1.04 
   1  -2   3   16.76    0.51 
  -1  -2  -3   15.80    0.51 
  -1  -2  -3   16.29    0.52 
   1  -2   3   16.58    0.51 
  -1  -2  -3   15.89    0.52 
   1  -2   3   16.56    0.51 
   1   2   3   16.30    0.51 
   2  -2   3    1.33    0.11 
  -2  -2  -3    1.39    0.13 
   2  -2   3    1.36    0.11 
  -2  -2  -3    1.29    0.13 
   2   2   3    1.21    0.10 
   3  -2   3   10.93    0.40 
  -3  -2  -3   10.62    0.42 
   3  -2   3   11.07    0.41 
  -3  -2  -3   12.26    0.44 
   3   2   3   11.46    0.40 
  -3   2  -3   10.92    0.41 
   4  -2   3    1.90    0.30 
  -4  -2  -3    2.55    0.26 
  -4  -2  -3    2.57    0.26 
   4  -2   3    2.32    0.24 
   4  -2   3    1.46    0.33 
   4  -2   3    2.47    0.39 
  -4  -2  -3    2.20    0.30 
   4   2   3    2.88    0.25 
   4   2   3    2.19    0.20 
   5  -2   3    0.69    0.28 
   5  -2   3    0.84    0.28 
  -5  -2  -3    0.52    0.17 
   5  -2   3    0.38    0.21 
   5  -2   3    0.75    0.30 
   5   2   3    0.37    0.16 
   5   2   3    0.60    0.21 
  -5   2  -3    0.48    0.21 
   6  -2   3    0.81    0.21 
   6   2   3    0.74    0.13 
  -5  -3   3    0.84    0.16 
   5  -3  -3    0.71    0.24 
   5  -3  -3    0.96    0.23 
   5  -3  -3    0.56    0.22 
   5  -3  -3    0.76    0.18 
  -5  -3   3    0.86    0.18 
   5   3  -3    0.68    0.15 
  -5   3   3    0.83    0.17 
  -4  -3   3    2.21    0.27 
   4  -3  -3    2.77    0.26 
   4  -3  -3    3.41    0.37 
  -4  -3   3    2.34    0.23 
   4  -3  -3    2.75    0.32 
   4  -3  -3    2.44    0.31 
  -4  -3   3    2.46    0.26 
  -4   3   3    3.52    0.28 
   4   3  -3    2.28    0.22 
  -3  -3   3    4.62    0.42 
   3  -3  -3    3.85    0.33 
  -3  -3   3    4.47    0.33 
  -3  -3   3    4.03    0.29 
   3  -3  -3    3.20    0.35 
  -3  -3   3    4.31    0.33 
   3  -3  -3    3.99    0.30 
   3  -3  -3    4.31    0.28 
  -3   3   3    3.69    0.26 
   3   3  -3    4.39    0.30 
  -2  -3   3    0.00    0.14 
  -2  -3   3    0.14    0.14 
   2  -3  -3    0.10    0.14 
   2  -3  -3    0.10    0.12 
   2  -3  -3    0.14    0.26 
  -2   3   3    0.00    0.11 
   2   3  -3    0.06    0.13 
   1  -3  -3   30.98    0.96 
   1  -3  -3   30.24    0.95 
  -1  -3   3   30.97    0.97 
  -1  -3   3   30.32    0.96 
   1  -3  -3   30.49    0.95 
  -1   3   3   30.55    0.95 
   0  -3   3   69.15    1.96 
   0  -3  -3   67.63    1.94 
   0  -3  -3   62.40    1.93 
   0  -3   3   63.82    1.94 
   0   3  -3   62.79    1.92 
   1  -3   3    8.52    0.32 
  -1  -3  -3    8.25    0.32 
   1  -3   3    8.44    0.33 
  -1  -3  -3    8.83    0.35 
  -1  -3  -3    8.80    0.35 
   1   3   3    8.01    0.31 
  -2  -3  -3    0.07    0.16 
   2  -3   3    0.05    0.12 
  -2  -3  -3    0.06    0.14 
   2  -3   3    0.00    0.11 
  -2   3  -3    0.02    0.12 
   2   3   3   -0.01    0.11 
   3  -3   3   13.26    0.69 
  -3  -3  -3   13.51    0.54 
  -3  -3  -3   12.43    0.52 
  -3  -3  -3   11.96    0.63 
   3  -3   3   12.69    0.53 
   3  -3   3   13.28    0.50 
  -3  -3  -3   12.33    0.58 
  -3  -3  -3   13.06    0.56 
  -3  -3  -3   13.40    0.53 
  -3   3  -3   13.06    0.50 
   3   3   3   12.78    0.52 
   3   3   3   12.57    0.49 
  -4  -3  -3    0.10    0.21 
  -4  -3  -3    0.05    0.25 
  -4  -3  -3    0.02    0.22 
   4  -3   3   -0.07    0.19 
   4  -3   3    0.33    0.30 
  -4  -3  -3   -0.01    0.17 
   4  -3   3    0.18    0.26 
   4   3   3   -0.10    0.19 
   5  -3   3    0.01    0.18 
   5  -3   3    0.14    0.23 
   5  -3   3    0.16    0.21 
  -5  -3  -3    0.04    0.13 
   5   3   3   -0.07    0.13 
  -5   3  -3    0.00    0.16 
   5   3   3    0.24    0.19 
   4  -4  -3    0.09    0.17 
   4  -4  -3    0.11    0.23 
  -4  -4   3    0.13    0.16 
  -4  -4   3    0.03    0.15 
   4  -4  -3    0.14    0.23 
   4  -4  -3    0.05    0.20 
  -4   4   3    0.08    0.16 
   3  -4  -3    4.09    0.34 
  -3  -4   3    3.66    0.28 
   3  -4  -3    4.44    0.36 
  -3  -4   3    2.61    0.26 
   3  -4  -3    3.33    0.34 
   3  -4  -3    3.30    0.34 
   2  -4  -3    8.23    0.42 
  -2  -4   3    9.73    0.49 
  -2  -4   3   10.08    0.47 
   2  -4  -3    9.76    0.57 
  -2  -4   3    9.18    0.49 
   2  -4  -3    9.17    0.53 
   2  -4  -3    8.88    0.52 
   1  -4  -3    0.02    0.18 
   1  -4  -3    0.34    0.28 
  -1  -4  -3    4.24    0.36 
  -1  -4  -3    5.30    0.34 
   1   4   3    5.29    0.32 
  -2  -4  -3   66.78    2.10 
  -2  -4  -3   68.71    2.06 
   2  -4   3   67.23    2.07 
   2  -4   3   68.93    2.13 
   2  -4   3   63.77    2.04 
  -2  -4  -3   66.40    2.12 
  -2  -4  -3   67.29    2.04 
  -2   4  -3   69.17    2.04 
   2   4   3   67.28    2.04 
  -3  -4  -3    2.90    0.29 
   3  -4   3    2.19    0.33 
   3  -4   3    3.20    0.27 
   3  -4   3    3.38    0.35 
  -3  -4  -3    3.00    0.24 
  -3  -4  -3    3.24    0.29 
  -4  -4  -3    9.61    0.42 
  -4  -4  -3    9.32    0.37 
   4  -4   3    8.78    0.49 
   4  -4   3    9.71    0.49 
  -4  -4  -3    8.74    0.44 
   4  -4   3    9.25    0.41 
   3  -5  -3    0.21    0.17 
   3  -5  -3    0.20    0.20 
  -3  -5   3    0.30    0.14 
  -3  -5   3    0.25    0.13 
   2  -5  -3   14.73    0.70 
   2  -5  -3   17.61    0.66 
  -2  -5   3   18.74    0.65 
  -2  -5  -3    7.80    0.43 
  -2  -5  -3    7.55    0.40 
  -3  -5  -3    0.48    0.14 
   3  -5   3    0.78    0.21 
  -3  -5  -3    0.90    0.17 
   6   0  -4   -0.03    0.15 
   6   0  -4   -0.20    0.19 
   5   0  -4    0.54    0.21 
   5   0  -4    0.92    0.25 
  -4   0   4    0.37    0.14 
   4   0  -4    0.27    0.17 
  -3   0   4   33.34    1.02 
  -2   0   4   39.67    1.14 
  -2   0   4   37.00    1.14 
   2   0  -4   38.64    1.14 
   1   0  -4  183.61    5.30 
   0   0  -4  213.04    6.16 
  -1   0  -4    5.43    0.17 
   1   0   4    5.51    0.17 
   2   0   4   34.17    1.02 
  -2   0  -4   35.65    1.01 
  -2   0  -4   33.33    1.02 
  -3   0  -4   17.98    0.59 
   3   0   4   18.20    0.57 
  -4   0  -4   33.83    1.09 
   4   0   4   35.05    1.11 
   5   0   4    4.96    0.41 
   5   0   4    4.73    0.32 
   5   0   4    5.28    0.35 
   6   0   4   19.78    0.69 
   6   0   4   18.99    0.76 
   6  -1  -4    7.64    0.36 
   6  -1  -4    7.21    0.40 
   6   1  -4    8.06    0.35 
   5  -1  -4   19.73    0.76 
   5  -1  -4   21.37    0.78 
   5   1  -4   20.75    0.73 
   5   1  -4   20.41    0.76 
  -5   1   4   21.55    0.75 
  -4  -1   4    8.77    0.39 
   4  -1  -4    8.32    0.43 
   4  -1  -4    8.86    0.41 
   4   1  -4    9.04    0.41 
  -4   1   4    8.87    0.37 
  -4   1   4    8.77    0.40 
  -3  -1   4   43.41    1.36 
  -3  -1   4   43.85    1.32 
   3  -1  -4   43.40    1.31 
   3   1  -4   43.82    1.31 
  -3   1   4   43.13    1.31 
  -2  -1   4   20.87    0.65 
  -2  -1   4   20.59    0.64 
   2  -1  -4   20.78    0.64 
  -2  -1   4   20.93    0.64 
   2  -1  -4   21.26    0.65 
  -2   1   4   21.18    0.64 
   2   1  -4   20.57    0.64 
  -1  -1   4   28.69    0.86 
   1  -1  -4   28.85    0.85 
   1  -1  -4   28.18    0.86 
   1  -1  -4   28.79    0.85 
   1   1  -4   28.90    0.84 
  -1   1   4   28.08    0.85 
   0  -1   4   48.43    1.37 
   0  -1  -4   48.20    1.38 
   0  -1  -4   45.52    1.37 
   0   1  -4   46.36    1.37 
   1  -1   4  955.03   28.26 
   1  -1   4  985.10   28.21 
  -1  -1  -4  973.52   28.23 
   1  -1   4  966.71   28.24 
   1   1   4  985.11   28.27 
  -1   1  -4 1000.00   28.24 
  -2  -1  -4    0.02    0.06 
  -2  -1  -4    0.03    0.06 
   2  -1   4    0.00    0.05 
   2  -1   4    0.01    0.05 
   2  -1   4    0.00    0.05 
  -2   1  -4    0.02    0.06 
   2   1   4    0.00    0.05 
  -2   1  -4   -0.01    0.04 
  -3  -1  -4    3.30    0.19 
   3  -1   4    3.18    0.17 
   3   1   4    3.63    0.18 
  -3   1  -4    3.39    0.18 
  -3   1  -4    3.25    0.18 
  -4  -1  -4    1.26    0.20 
   4  -1   4    1.00    0.21 
   4  -1   4    1.09    0.30 
   4   1   4    1.10    0.16 
   4   1   4    0.88    0.18 
  -5  -1  -4   13.06    0.53 
   5  -1   4   12.88    0.68 
   5  -1   4   13.18    0.60 
   5   1   4   13.40    0.53 
   5   1   4   13.33    0.56 
   6  -1   4    1.18    0.21 
   6  -1   4    1.73    0.26 
   6   1   4    1.51    0.17 
   6   1   4    2.01    0.21 
   6   2  -4    2.63    0.20 
  -5  -2   4    0.19    0.18 
   5  -2  -4    0.12    0.19 
   5  -2  -4    0.23    0.22 
   5  -2  -4    0.60    0.25 
   5  -2  -4    0.42    0.26 
   5   2  -4    0.33    0.18 
  -5   2   4    0.32    0.18 
   4  -2  -4    0.07    0.24 
   4  -2  -4    0.26    0.17 
   4  -2  -4   -0.03    0.31 
   4  -2  -4    0.15    0.28 
  -4  -2   4    0.12    0.21 
  -4  -2   4   -0.02    0.23 
  -4  -2   4    0.15    0.31 
   4   2  -4    0.18    0.19 
  -4   2   4    0.06    0.23 
   4   2  -4    0.12    0.18 
  -4   2   4    0.21    0.18 
   3  -2  -4   40.34    1.33 
  -3  -2   4   39.41    1.18 
  -3  -2   4   37.93    1.19 
   3  -2  -4   37.18    1.18 
  -3  -2   4   36.70    1.20 
   3  -2  -4   37.93    1.18 
   3   2  -4   39.18    1.18 
  -3   2   4   36.92    1.16 
  -2  -2   4   59.38    1.78 
   2  -2  -4   59.35    1.78 
   2  -2  -4   59.01    1.78 
  -2  -2   4   59.17    1.78 
  -2  -2   4   60.77    1.80 
  -2   2   4   61.11    1.77 
   1  -2  -4   22.84    0.71 
   1  -2  -4   23.20    0.71 
   1  -2  -4   22.53    0.72 
  -1  -2   4   22.40    0.72 
  -1  -2   4   22.63    0.72 
  -1   2   4   23.75    0.72 
   1   2  -4   24.52    0.70 
   0  -2   4    0.92    0.09 
   0  -2   4    0.83    0.08 
   0  -2   4    0.71    0.07 
   0  -2  -4    0.60    0.08 
   0  -2  -4    0.86    0.08 
   0  -2  -4    0.79    0.09 
   0  -2   4    0.84    0.09 
   0  -2  -4    0.80    0.07 
   0   2   4    0.84    0.08 
   0   2  -4    0.90    0.07 
  -1  -2  -4   22.91    0.70 
   1  -2   4   22.88    0.69 
  -1  -2  -4   21.88    0.70 
   1  -2   4   22.55    0.69 
  -1  -2  -4   22.98    0.69 
   1  -2   4   22.16    0.69 
   1   2   4   21.98    0.69 
   2  -2   4   19.32    0.60 
  -2  -2  -4   19.00    0.62 
   2  -2   4   19.29    0.61 
  -2  -2  -4   18.89    0.62 
  -2   2  -4   18.29    0.60 
   2   2   4   19.29    0.60 
   3  -2   4   11.55    0.41 
   3  -2   4   11.76    0.43 
  -3  -2  -4   11.28    0.44 
  -3  -2  -4   11.37    0.44 
   3   2   4   11.20    0.41 
  -3   2  -4   11.33    0.41 
   4  -2   4    0.37    0.20 
   4  -2   4    0.55    0.29 
   4  -2   4    0.64    0.29 
   4  -2   4    0.55    0.30 
  -4  -2  -4    0.74    0.22 
  -4  -2  -4    0.50    0.21 
   4   2   4    0.60    0.20 
   4   2   4    0.63    0.18 
  -5  -2  -4    7.35    0.37 
   5  -2   4    7.19    0.55 
   5  -2   4    7.01    0.47 
   5  -2   4    7.25    0.49 
   5   2   4    7.62    0.36 
   5   2   4    7.17    0.40 
   6  -2   4    0.18    0.23 
   6   2   4    0.12    0.12 
   5  -3  -4    1.81    0.24 
   5  -3  -4    2.69    0.28 
  -5  -3   4    2.42    0.21 
   5  -3  -4    2.51    0.21 
   5  -3  -4    2.11    0.25 
   5   3  -4    2.64    0.19 
  -5   3   4    2.43    0.20 
  -4  -3   4    0.01    0.22 
  -4  -3   4   -0.02    0.19 
   4  -3  -4   -0.01    0.28 
   4  -3  -4   -0.02    0.25 
  -4  -3   4   -0.03    0.20 
   4  -3  -4    0.11    0.27 
   4  -3  -4   -0.16    0.18 
  -4   3   4   -0.07    0.19 
   4   3  -4   -0.24    0.17 
   3  -3  -4    2.75    0.25 
   3  -3  -4    4.11    0.40 
   3  -3  -4    3.67    0.28 
   3  -3  -4    3.45    0.32 
  -3  -3   4    4.27    0.29 
  -3  -3   4    3.85    0.34 
  -3  -3   4    4.15    0.31 
  -3  -3   4    3.29    0.30 
  -3   3   4    3.53    0.28 
   3   3  -4    4.22    0.28 
  -2  -3   4    0.46    0.16 
   2  -3  -4    0.27    0.14 
   2  -3  -4    0.33    0.23 
   2  -3  -4    0.33    0.14 
  -2  -3   4    0.31    0.16 
  -2   3   4    0.29    0.12 
   2   3  -4    0.48    0.15 
   1  -3  -4    0.43    0.12 
   1  -3  -4    0.43    0.12 
   1  -3  -4    0.48    0.12 
  -1  -3   4    0.45    0.12 
  -1  -3   4    0.32    0.12 
  -1   3   4    0.45    0.12 
   0  -3  -4   23.25    0.74 
   0  -3   4   23.52    0.74 
   0  -3  -4   23.25    0.73 
   0  -3   4   21.72    0.71 
   0   3  -4   22.90    0.71 
  -1  -3  -4    0.76    0.14 
  -1  -3  -4    0.78    0.12 
   1  -3   4    0.82    0.12 
   1  -3   4    1.07    0.13 
  -1   3  -4    0.82    0.13 
  -1   3  -4    1.04    0.13 
   2  -3   4   13.65    0.48 
  -2  -3  -4   13.55    0.52 
  -2  -3  -4   13.17    0.50 
  -2  -3  -4   13.14    0.53 
   2  -3   4   13.38    0.47 
  -2   3  -4   13.26    0.47 
   2   3   4   12.99    0.47 
  -3  -3  -4    2.92    0.26 
  -3  -3  -4    3.38    0.26 
  -3  -3  -4    3.14    0.36 
  -3  -3  -4    3.31    0.28 
  -3  -3  -4    3.40    0.33 
   3  -3   4    3.40    0.29 
  -3  -3  -4    2.99    0.29 
   3  -3   4    3.34    0.39 
   3  -3   4    2.31    0.21 
   3   3   4    3.74    0.26 
  -3   3  -4    2.50    0.22 
   3   3   4    2.87    0.22 
  -4  -3  -4   29.01    0.93 
   4  -3   4   28.19    1.06 
   4  -3   4   27.64    0.95 
  -4  -3  -4   28.75    1.02 
   4  -3   4   28.02    1.04 
  -4  -3  -4   27.89    0.98 
  -4  -3  -4   27.13    0.94 
   4   3   4   28.25    0.94 
   5  -3   4    4.84    0.33 
  -5  -3  -4    5.30    0.27 
   5  -3   4    5.13    0.38 
   5  -3   4    5.33    0.42 
  -5   3  -4    4.96    0.31 
   5   3   4    5.19    0.33 
   5   3   4    4.97    0.26 
  -4  -4   4    5.05    0.33 
  -4  -4   4    5.21    0.31 
   4  -4  -4    5.28    0.35 
   4  -4  -4    5.42    0.41 
   4  -4  -4    5.24    0.32 
   4  -4  -4    5.30    0.39 
  -4   4   4    5.19    0.31 
   3  -4  -4    2.34    0.32 
  -3  -4   4    2.20    0.25 
  -3  -4   4    2.12    0.26 
   3  -4  -4    2.18    0.30 
   3  -4  -4    1.70    0.32 
   3  -4  -4    1.69    0.23 
   2  -4  -4    0.14    0.28 
   2  -4  -4    0.01    0.23 
  -2  -4   4    0.02    0.21 
   2  -4  -4    0.09    0.27 
  -2  -4   4    0.12    0.22 
  -2  -4   4    0.03    0.21 
   1  -4  -4    3.94    0.28 
   1  -4  -4    2.43    0.33 
   1  -4  -4    3.71    0.33 
   0  -4  -4    6.57    0.43 
  -1  -4  -4   50.89    1.63 
  -1  -4  -4   49.22    1.55 
  -1  -4  -4   52.09    1.56 
  -1  -4  -4   47.33    1.55 
   1  -4   4   48.70    1.59 
  -1  -4  -4   49.75    1.54 
   1   4   4   51.27    1.54 
  -2  -4  -4    6.45    0.47 
  -2  -4  -4    6.41    0.39 
   2  -4   4    6.33    0.53 
  -2  -4  -4    6.05    0.37 
   2  -4   4    6.19    0.42 
  -2  -4  -4    5.95    0.48 
  -2  -4  -4    6.53    0.39 
  -2   4  -4    5.18    0.44 
   2   4   4    6.27    0.35 
  -3  -4  -4    5.50    0.43 
   3  -4   4    5.44    0.49 
   3  -4   4    5.57    0.38 
  -3  -4  -4    5.88    0.41 
  -3  -4  -4    6.29    0.35 
   3   4   4    5.49    0.44 
  -4  -4  -4    4.65    0.34 
   4  -4   4    3.35    0.32 
  -4  -4  -4    4.72    0.30 
   4  -4   4    4.22    0.30 
   4  -4   4    4.68    0.39 
  -4  -4  -4    4.04    0.24 
   3  -5  -4   16.98    0.64 
  -3  -5   4   17.29    0.60 
  -3  -5   4   17.43    0.60 
   3  -5  -4   18.36    0.62 
   2  -5  -4   14.26    0.59 
  -2  -5   4   15.18    0.57 
   2  -5  -4   14.94    0.62 
  -2  -5  -4    2.52    0.23 
  -2  -5  -4    2.47    0.25 
  -3  -5  -4   -0.09    0.14 
  -3  -5  -4   -0.02    0.15 
   3  -5   4   -0.18    0.21 
  -3  -5  -4   -0.01    0.13 
   6   0  -5    0.06    0.20 
   6   0  -5   -0.02    0.14 
   5   0  -5    0.02    0.21 
   5   0  -5    0.19    0.23 
  -4   0   5   -0.07    0.13 
   4   0  -5    0.03    0.19 
  -4   0   5    0.04    0.20 
  -3   0   5    0.02    0.07 
  -2   0   5   -0.22    0.04 
   2   0  -5   -0.26    0.04 
   1   0  -5   -0.07    0.03 
   0   0  -5    0.03    0.02 
   1   0   5   -0.02    0.02 
  -1   0  -5   -0.06    0.03 
   1   0   5    0.03    0.03 
  -2   0  -5   -0.01    0.05 
  -2   0  -5    0.00    0.05 
   2   0   5   -0.02    0.04 
  -3   0  -5    0.06    0.08 
   3   0   5    0.05    0.07 
   4   0   5   -0.09    0.18 
  -4   0  -5   -0.04    0.16 
   5   0   5   -0.07    0.28 
   5   0   5   -0.03    0.22 
   6   0   5   -0.07    0.18 
   6   0   5   -0.14    0.24 
   6  -1  -5    3.97    0.27 
   6  -1  -5    3.64    0.31 
   6   1  -5    3.94    0.26 
   5  -1  -5   34.88    1.17 
   5  -1  -5   33.86    1.19 
   5   1  -5   36.97    1.14 
   5   1  -5   35.59    1.17 
  -5   1   5   36.56    1.16 
  -4  -1   5    8.92    0.42 
   4  -1  -5    9.51    0.42 
   4  -1  -5    9.44    0.45 
   4   1  -5    9.00    0.43 
  -4   1   5    9.20    0.41 
  -4   1   5    8.65    0.38 
  -3  -1   5    3.24    0.21 
  -3  -1   5    3.62    0.21 
   3  -1  -5    3.64    0.20 
  -3  -1   5    3.27    0.22 
  -3   1   5    3.70    0.18 
   3   1  -5    3.51    0.19 
  -2  -1   5   48.16    1.47 
   2  -1  -5   49.57    1.47 
  -2  -1   5   48.81    1.48 
   2  -1  -5   49.51    1.47 
  -2  -1   5   52.07    1.47 
  -2   1   5   50.09    1.47 
   1  -1  -5    3.43    0.13 
  -1  -1   5    3.60    0.15 
   1  -1  -5    3.27    0.14 
   1  -1  -5    3.25    0.13 
  -1   1   5    3.50    0.14 
   1   1  -5    3.49    0.12 
   0  -1   5  435.92   12.53 
   0  -1  -5  432.46   12.53 
   0  -1  -5  437.65   12.56 
   0  -1   5  439.39   12.55 
   0   1  -5  425.10   12.53 
   1  -1   5   65.92    1.91 
   1  -1   5   65.48    1.92 
  -1  -1  -5   65.66    1.92 
   1  -1   5   65.23    1.91 
   1   1   5   65.69    1.91 
  -1   1  -5   65.51    1.91 
   2  -1   5    7.28    0.24 
   2  -1   5    6.87    0.24 
   2  -1   5    6.74    0.25 
  -2  -1  -5    6.80    0.26 
  -2  -1  -5    6.81    0.26 
  -2   1  -5    7.18    0.25 
  -2   1  -5    6.81    0.24 
   2   1   5    6.68    0.24 
  -3  -1  -5    7.01    0.30 
  -3   1  -5    6.86    0.27 
  -3   1  -5    7.18    0.28 
   3   1   5    7.59    0.28 
  -4  -1  -5   13.82    0.55 
   4  -1   5   14.75    0.68 
   4  -1   5   14.15    0.59 
   4   1   5   14.39    0.51 
   4   1   5   12.69    0.76 
   4   1   5   13.86    0.53 
  -5  -1  -5    4.83    0.35 
   5  -1   5    5.18    0.43 
   5  -1   5    5.28    0.50 
   5   1   5    5.36    0.48 
   5   1   5    5.19    0.37 
   5   1   5    5.20    0.34 
   6  -1   5   11.99    0.67 
   6  -1   5   10.86    0.53 
   6   1   5   11.10    0.43 
   6   1   5   11.14    0.46 
   6   2  -5    0.24    0.13 
   5  -2  -5    9.46    0.47 
   5  -2  -5    9.78    0.46 
   5  -2  -5    9.05    0.50 
   5  -2  -5   10.13    0.56 
   5   2  -5    9.38    0.41 
  -5   2   5    9.66    0.45 
  -4  -2   5    6.87    0.43 
   4  -2  -5    6.66    0.47 
   4  -2  -5    6.96    0.45 
   4  -2  -5    6.87    0.53 
  -4  -2   5    7.28    0.40 
   4  -2  -5    6.92    0.39 
  -4   2   5    7.05    0.39 
   4   2  -5    7.34    0.39 
   4   2  -5    5.76    0.44 
   3  -2  -5   17.59    0.59 
  -3  -2   5   17.86    0.61 
   3  -2  -5   16.13    0.63 
  -3  -2   5   16.65    0.59 
  -3  -2   5   17.40    0.59 
   3  -2  -5   17.12    0.59 
   3   2  -5   16.84    0.58 
  -3   2   5   17.03    0.57 
   2  -2  -5   16.06    0.52 
  -2  -2   5   15.81    0.53 
  -2  -2   5   16.70    0.55 
   2  -2  -5   15.85    0.53 
  -2  -2   5   13.83    0.60 
  -2   2   5   16.64    0.52 
   1  -2  -5   17.80    0.57 
  -1  -2   5   18.86    0.57 
   1  -2  -5   17.90    0.56 
  -1  -2   5   17.90    0.58 
   1  -2  -5   17.59    0.56 
   1   2  -5   17.60    0.54 
  -1   2   5   18.05    0.57 
   0  -2  -5   17.81    0.56 
   0  -2  -5   17.97    0.54 
   0  -2  -5   17.28    0.55 
   0  -2   5   17.93    0.54 
   0  -2   5   16.98    0.56 
   0  -2  -5   18.19    0.56 
   0  -2   5   17.59    0.56 
   0  -2   5   18.02    0.54 
   0   2   5   16.97    0.55 
   0   2  -5   17.90    0.54 
   0   2  -5   17.92    0.54 
   1  -2   5    0.05    0.06 
   1  -2   5    0.00    0.06 
  -1  -2  -5    0.05    0.08 
  -1  -2  -5    0.03    0.06 
   1  -2   5    0.04    0.06 
   1   2   5    0.00    0.05 
  -1   2  -5   -0.03    0.07 
  -2  -2  -5    7.78    0.32 
  -2  -2  -5    7.98    0.31 
   2  -2   5    8.24    0.30 
   2  -2   5    8.31    0.30 
  -2   2  -5    8.69    0.31 
   2   2   5    8.03    0.29 
   3  -2   5    0.11    0.11 
  -3  -2  -5    0.18    0.12 
   3  -2   5    0.14    0.11 
  -3  -2  -5    0.18    0.19 
  -3  -2  -5    0.10    0.13 
   3   2   5    0.14    0.12 
   3   2   5    0.27    0.11 
  -3   2  -5    0.13    0.13 
   4  -2   5    5.90    0.38 
  -4  -2  -5    5.80    0.34 
  -4  -2  -5    5.27    0.37 
   4  -2   5    4.70    0.41 
   4  -2   5    5.45    0.45 
   4   2   5    5.80    0.36 
   4   2   5    5.24    0.34 
   5  -2   5    4.98    0.41 
   5  -2   5    4.35    0.49 
   5  -2   5    5.08    0.46 
  -5  -2  -5    4.68    0.31 
   5   2   5    5.10    0.36 
   5   2   5    4.81    0.31 
   6   2   5    0.25    0.12 
  -5  -3   5    4.15    0.29 
   5  -3  -5    4.08    0.28 
   5  -3  -5    3.83    0.35 
   5  -3  -5    2.95    0.26 
   5   3  -5    4.10    0.27 
  -5   3   5    4.35    0.26 
   4  -3  -5   16.12    0.71 
  -4  -3   5   17.09    0.64 
  -4  -3   5   16.04    0.61 
  -4  -3   5   15.41    0.66 
   4  -3  -5   16.26    0.75 
   4  -3  -5   16.30    0.69 
   4  -3  -5   17.93    0.85 
   4  -3  -5   16.83    0.63 
   4   3  -5   16.81    0.60 
  -4   3   5   16.10    0.63 
  -3  -3   5    2.62    0.30 
  -3  -3   5    2.35    0.23 
   3  -3  -5    2.05    0.28 
   3  -3  -5    2.67    0.25 
   3  -3  -5    2.79    0.36 
   3  -3  -5    2.33    0.37 
   3  -3  -5    1.93    0.21 
   3  -3  -5    2.45    0.35 
  -3  -3   5    2.48    0.27 
  -3  -3   5    2.66    0.27 
   3   3  -5    2.09    0.21 
  -3   3   5    1.80    0.20 
   2  -3  -5    1.01    0.16 
  -2  -3   5    1.48    0.18 
   2  -3  -5    0.90    0.23 
   2  -3  -5    0.98    0.16 
  -2  -3   5    1.22    0.17 
   2   3  -5    1.25    0.17 
  -2   3   5    1.09    0.14 
  -1  -3   5    0.07    0.11 
   1  -3  -5    0.12    0.11 
   1  -3  -5    0.11    0.12 
   1  -3  -5    0.12    0.10 
  -1  -3   5    0.07    0.13 
  -1   3   5    0.11    0.12 
   0  -3  -5    0.26    0.10 
   0  -3   5    0.20    0.08 
   0  -3  -5    0.26    0.12 
   0  -3   5    0.38    0.12 
   0   3  -5    0.24    0.08 
   1  -3   5   12.13    0.42 
  -1  -3  -5   12.12    0.44 
   1  -3   5   12.10    0.43 
  -1  -3  -5   12.00    0.44 
  -1   3  -5   11.83    0.43 
   1   3   5   12.09    0.43 
  -1   3  -5   12.49    0.42 
   2  -3   5   16.88    0.63 
  -2  -3  -5   13.14    0.50 
  -2  -3  -5   13.33    0.55 
  -2  -3  -5   13.78    0.52 
   2  -3   5   14.32    0.49 
   2  -3   5   13.17    0.49 
   2   3   5   13.99    0.48 
   2   3   5   13.62    0.50 
  -2   3  -5   13.60    0.50 
  -2   3  -5   13.77    0.49 
   3  -3   5   19.88    0.68 
  -3  -3  -5   21.08    0.72 
   3  -3   5   18.70    0.88 
  -3  -3  -5   20.43    0.74 
   3  -3   5   20.46    0.73 
  -3  -3  -5   20.32    0.71 
  -3  -3  -5   18.81    0.82 
  -3  -3  -5   19.65    0.80 
   3  -3   5   18.57    0.86 
  -3  -3  -5   21.04    0.71 
  -3   3  -5   20.41    0.69 
   3   3   5   20.88    0.71 
   3   3   5   21.03    0.69 
  -4  -3  -5   -0.01    0.20 
   4  -3   5    0.02    0.19 
  -4  -3  -5    0.07    0.25 
  -4  -3  -5    0.01    0.23 
   4  -3   5    0.25    0.27 
   4  -3   5    0.06    0.27 
  -4  -3  -5    0.36    0.18 
   4   3   5    0.04    0.19 
   5  -3   5    2.94    0.23 
  -5  -3  -5    2.91    0.23 
   5  -3   5    3.67    0.29 
   5  -3   5    2.94    0.30 
   5   3   5    3.06    0.23 
   5   3   5    3.07    0.24 
  -5   3  -5    3.09    0.26 
   4  -4  -5    3.05    0.26 
   4  -4  -5    2.66    0.27 
   4  -4  -5    2.98    0.28 
  -4  -4   5    3.07    0.23 
   4  -4  -5    2.48    0.22 
  -4  -4   5    3.14    0.28 
  -4   4   5    2.23    0.20 
  -3  -4   5    2.17    0.23 
  -3  -4   5    2.12    0.24 
   3  -4  -5    3.52    0.27 
   3  -4  -5    3.31    0.33 
   3  -4  -5    2.17    0.30 
   3  -4  -5    2.97    0.34 
  -3   4   5    3.30    0.26 
   2  -4  -5    7.79    0.48 
  -2  -4   5    7.97    0.44 
  -2  -4   5    8.11    0.45 
  -2  -4   5    8.40    0.45 
   2  -4  -5    7.90    0.51 
   1  -4  -5    0.77    0.20 
   1  -4  -5    0.33    0.25 
  -1  -4   5    0.72    0.22 
   1  -4  -5    0.94    0.26 
   1  -4  -5    0.76    0.27 
   1  -4  -5    0.41    0.26 
   1   4  -5    0.77    0.20 
  -1   4   5    0.60    0.22 
   0  -4  -5    0.98    0.25 
   0  -4  -5    1.07    0.28 
   0  -4  -5    1.48    0.22 
   0   4   5    0.97    0.21 
  -1  -4  -5    7.82    0.56 
  -1  -4  -5    6.98    0.40 
  -1  -4  -5    7.64    0.42 
   1  -4   5    7.54    0.48 
  -1  -4  -5    7.37    0.40 
  -1  -4  -5    7.98    0.44 
   1   4   5    7.73    0.37 
  -2  -4  -5    0.99    0.29 
   2  -4   5    0.58    0.23 
  -2  -4  -5    0.76    0.21 
  -2  -4  -5    1.22    0.29 
  -2  -4  -5    0.46    0.21 
  -2  -4  -5    1.26    0.24 
   2   4   5    1.05    0.22 
  -3  -4  -5    4.57    0.42 
   3  -4   5    3.79    0.37 
   3  -4   5    5.04    0.37 
  -3  -4  -5    5.04    0.33 
  -3  -4  -5    4.52    0.39 
  -3  -4  -5    5.06    0.35 
   3   4   5    5.33    0.37 
   4  -4   5   14.55    0.64 
   4  -4   5   14.68    0.61 
  -4  -4  -5   14.75    0.51 
   4  -4   5   14.24    0.54 
  -4  -4  -5   14.12    0.55 
  -4  -4  -5   14.60    0.58 
  -3  -5   5   13.23    0.46 
   3  -5  -5   13.32    0.53 
  -3  -5   5   12.51    0.47 
   3  -5  -5   12.64    0.48 
   2  -5  -5   30.57    0.98 
  -2  -5   5   29.48    0.97 
   2  -5  -5   28.37    1.00 
  -2  -5  -5   -0.06    0.19 
  -2  -5  -5    0.09    0.17 
  -2  -5  -5   -0.01    0.16 
  -3  -5  -5    1.48    0.15 
  -3  -5  -5    1.63    0.17 
  -3  -5  -5    1.79    0.19 
   6   0  -6    1.07    0.23 
   6   0  -6    1.16    0.17 
   5   0  -6    4.18    0.32 
   5   0  -6    3.06    0.27 
  -4   0   6  115.24    3.45 
  -4   0   6  116.45    3.44 
   4   0  -6  117.76    3.46 
  -3   0   6   43.63    1.31 
  -2   0   6   96.43    2.81 
   2   0  -6   96.72    2.81 
  -1   0   6   54.54    1.54 
   1   0  -6   50.62    1.53 
   0   0  -6   21.19    0.62 
   1   0   6    3.40    0.13 
  -1   0  -6    3.42    0.12 
  -2   0  -6    0.19    0.05 
  -2   0  -6    0.25    0.06 
   2   0   6    0.15    0.05 
   3   0   6  112.44    3.26 
  -3   0  -6  110.89    3.27 
   4   0   6   18.63    0.66 
  -4   0  -6   18.14    0.64 
   5   0   6    4.59    0.34 
   5   0   6    5.15    0.42 
   6   0   6    0.94    0.25 
   6   0   6    0.54    0.19 
   6  -1  -6    0.69    0.16 
   6   1  -6    0.64    0.15 
   5  -1  -6   33.22    1.14 
   5   1  -6   33.82    1.09 
  -5   1   6   34.10    1.10 
   4  -1  -6    0.03    0.20 
  -4  -1   6    0.01    0.16 
   4  -1  -6    0.06    0.18 
  -4   1   6    0.03    0.14 
  -4   1   6   -0.07    0.18 
   3  -1  -6    2.94    0.18 
  -3  -1   6    2.79    0.22 
  -3  -1   6    3.20    0.21 
  -3  -1   6    3.35    0.19 
   3   1  -6    2.73    0.19 
  -3   1   6    4.28    0.18 
  -2  -1   6    0.02    0.06 
   2  -1  -6    0.02    0.06 
  -2  -1   6    0.05    0.07 
   2  -1  -6    0.01    0.07 
  -2  -1   6    0.02    0.07 
   2   1  -6    0.00    0.04 
  -2   1   6    0.14    0.06 
  -1  -1   6  110.06    3.19 
   1  -1  -6  109.09    3.18 
   1  -1  -6  106.40    3.18 
  -1  -1   6  110.40    3.18 
   1  -1  -6  109.34    3.18 
  -1   1   6  109.37    3.18 
   1   1  -6  111.12    3.17 
   0  -1  -6  525.50   15.32 
   0  -1   6  537.38   15.30 
   0  -1  -6  547.21   15.35 
   0   1  -6  511.68   15.31 
  -1  -1  -6   71.93    2.10 
   1  -1   6   71.85    2.09 
   1  -1   6   71.84    2.10 
  -1  -1  -6   72.52    2.10 
   1  -1   6   72.31    2.09 
  -1   1  -6   70.13    2.09 
  -1   1  -6   71.33    2.09 
   1   1   6   71.91    2.09 
   1   1   6   71.56    2.10 
   2  -1   6    0.88    0.08 
  -2  -1  -6    1.04    0.10 
   2  -1   6    0.99    0.09 
  -2  -1  -6    1.09    0.10 
   2  -1   6    1.01    0.08 
   2   1   6    1.05    0.09 
   2   1   6    1.02    0.09 
  -2   1  -6    0.85    0.08 
  -3  -1  -6    0.07    0.10 
  -3   1  -6   -0.04    0.09 
   3   1   6    0.00    0.08 
   4  -1   6   14.28    0.60 
  -4  -1  -6   14.34    0.55 
   4  -1   6   14.15    0.69 
   4   1   6   14.40    0.52 
   4   1   6   14.68    0.65 
   4   1   6   15.15    0.56 
   5  -1   6    3.54    0.33 
   5  -1   6    3.20    0.37 
  -5  -1  -6    2.94    0.25 
   5  -1   6    3.05    0.37 
   5   1   6    2.82    0.24 
   5   1   6    2.99    0.33 
   5   1   6    3.30    0.27 
   6  -1   6    0.22    0.21 
   6   1   6    0.00    0.16 
   6   1   6    0.23    0.20 
   6   2  -6    0.04    0.13 
   5  -2  -6    4.60    0.35 
   5  -2  -6    5.17    0.40 
   5  -2  -6    4.66    0.40 
  -5   2   6    4.85    0.34 
   5   2  -6    4.80    0.31 
   4  -2  -6    0.54    0.33 
   4  -2  -6    0.63    0.26 
  -4  -2   6    0.33    0.23 
   4  -2  -6    0.48    0.20 
  -4  -2   6    0.25    0.22 
   4  -2  -6    0.31    0.27 
  -4   2   6    0.48    0.20 
   4   2  -6    0.45    0.21 
   3  -2  -6    0.07    0.13 
   3  -2  -6   -0.04    0.13 
   3  -2  -6    0.21    0.20 
  -3  -2   6    0.07    0.16 
  -3  -2   6    0.21    0.15 
  -3   2   6    0.05    0.12 
   3   2  -6    0.15    0.14 
  -2  -2   6    3.33    0.20 
   2  -2  -6    3.23    0.18 
  -2  -2   6    3.60    0.22 
   2  -2  -6    2.92    0.19 
  -2   2   6    3.20    0.17 
   1  -2  -6   13.14    0.41 
   1  -2  -6   12.17    0.41 
   1  -2  -6   12.03    0.41 
  -1  -2   6   12.15    0.41 
  -1  -2   6   12.01    0.42 
  -1   2   6   12.12    0.41 
   1   2  -6   11.91    0.38 
   0  -2  -6   50.55    1.49 
   0  -2  -6   50.64    1.51 
   0  -2  -6   50.35    1.50 
   0  -2   6   52.72    1.49 
   0  -2   6   50.99    1.51 
   0  -2  -6   48.12    1.50 
   0  -2   6   53.37    1.49 
   0  -2   6   49.91    1.50 
   0   2  -6   50.77    1.49 
   0   2  -6   50.18    1.49 
   0   2   6   49.72    1.49 
   1  -2   6    9.11    0.32 
   1  -2   6    9.32    0.31 
  -1  -2  -6    8.83    0.32 
  -1  -2  -6    9.09    0.33 
   1  -2   6    9.24    0.31 
   1   2   6    9.15    0.30 
   1   2   6    8.81    0.31 
  -1   2  -6    9.11    0.31 
  -1   2  -6    8.71    0.31 
  -2  -2  -6   66.85    2.03 
  -2  -2  -6   68.70    2.04 
   2  -2   6   70.59    2.02 
   2  -2   6   68.84    2.02 
   2   2   6   68.84    2.02 
  -2   2  -6   69.56    2.02 
   2   2   6   65.59    2.03 
  -3  -2  -6    0.21    0.18 
   3  -2   6    0.03    0.11 
   3  -2   6    0.07    0.11 
  -3  -2  -6    0.23    0.14 
  -3  -2  -6    0.09    0.15 
  -3   2  -6    0.11    0.12 
   3   2   6    0.18    0.13 
   3   2   6    0.34    0.11 
  -3   2  -6    0.17    0.12 
  -4  -2  -6   28.93    0.95 
   4  -2   6   28.66    1.07 
   4  -2   6   29.20    1.08 
   4  -2   6   29.64    0.98 
  -4  -2  -6   29.64    0.96 
   4   2   6   24.34    1.15 
   4   2   6   29.85    0.96 
   5  -2   6    0.43    0.29 
   5  -2   6    0.42    0.28 
  -5  -2  -6    0.15    0.16 
   5   2   6    0.20    0.20 
   5   2   6    0.00    0.15 
   5  -3  -6    0.07    0.21 
  -5  -3   6    0.13    0.15 
   5  -3  -6    0.06    0.19 
   5   3  -6    0.07    0.15 
  -5   3   6    0.17    0.15 
   4  -3  -6    7.10    0.48 
   4  -3  -6    7.08    0.40 
   4  -3  -6    6.95    0.46 
   4  -3  -6    7.09    0.53 
   4  -3  -6    7.19    0.47 
  -4  -3   6    6.33    0.43 
  -4  -3   6    7.92    0.41 
  -4   3   6    7.25    0.40 
   3  -3  -6    5.41    0.46 
   3  -3  -6    5.57    0.47 
   3  -3  -6    6.25    0.43 
   3  -3  -6    5.49    0.35 
  -3  -3   6    5.59    0.42 
  -3  -3   6    5.54    0.40 
   3  -3  -6    6.39    0.37 
  -3  -3   6    6.18    0.39 
   3  -3  -6    6.45    0.48 
  -3  -3   6    5.36    0.37 
   3   3  -6    6.31    0.36 
  -3   3   6    5.29    0.32 
   2  -3  -6    0.22    0.15 
  -2  -3   6    0.12    0.15 
  -2  -3   6    0.15    0.16 
   2  -3  -6    0.16    0.14 
   2  -3  -6    0.11    0.20 
  -2   3   6    0.21    0.13 
   2   3  -6    0.25    0.15 
   1  -3  -6    2.92    0.20 
  -1  -3   6    3.17    0.22 
   1  -3  -6    2.77    0.21 
   1  -3  -6    3.44    0.22 
  -1  -3   6    3.13    0.24 
  -1   3   6    3.07    0.22 
   0  -3  -6   -0.04    0.11 
   0  -3   6    0.06    0.12 
   0  -3  -6   -0.05    0.12 
   0   3  -6    0.10    0.09 
  -1  -3  -6    2.43    0.18 
   1  -3   6    2.07    0.16 
  -1  -3  -6    2.19    0.18 
   1  -3   6    2.40    0.17 
  -1   3  -6    2.69    0.18 
  -1   3  -6    2.42    0.18 
   1   3   6    2.64    0.18 
  -2  -3  -6    0.95    0.16 
   2  -3   6    1.10    0.22 
  -2  -3  -6    0.74    0.17 
   2  -3   6    1.20    0.16 
   2  -3   6    0.99    0.14 
  -2  -3  -6    1.22    0.22 
  -2   3  -6    1.39    0.16 
  -2   3  -6    1.20    0.16 
   2   3   6    1.26    0.16 
   2   3   6    0.93    0.14 
   3  -3   6  103.94    3.20 
  -3  -3  -6  101.38    3.19 
   3  -3   6  104.70    3.22 
  -3  -3  -6  105.03    3.17 
  -3  -3  -6   98.82    3.15 
   3  -3   6  106.65    3.10 
  -3  -3  -6  101.97    3.10 
  -3  -3  -6  105.78    3.11 
   3  -3   6  106.47    3.14 
   3   3   6  107.76    3.11 
  -3   3  -6  105.02    3.09 
   3   3   6  105.04    3.09 
   4  -3   6    3.28    0.38 
   4  -3   6    3.20    0.34 
  -4  -3  -6    2.76    0.25 
  -4  -3  -6    2.49    0.31 
  -4  -3  -6    2.89    0.29 
  -4  -3  -6    2.59    0.22 
   4  -3   6    2.45    0.25 
   4   3   6    2.24    0.24 
   5  -3   6   14.10    0.54 
   5  -3   6   14.91    0.63 
  -5  -3  -6   14.88    0.51 
   5  -3   6   14.86    0.59 
  -5   3  -6   13.92    0.53 
   5   3   6   14.30    0.54 
   5   3   6   14.44    0.50 
  -4  -4   6    0.21    0.16 
   4  -4  -6    0.21    0.20 
   4  -4  -6    0.15    0.16 
   4  -4  -6    0.18    0.19 
   4  -4  -6    0.16    0.21 
  -4  -4   6    0.21    0.15 
  -4   4   6    0.25    0.16 
   3  -4  -6    8.69    0.49 
  -3  -4   6    8.15    0.43 
  -3  -4   6    8.02    0.42 
   3  -4  -6    7.95    0.48 
   3  -4  -6    7.99    0.52 
  -3   4   6    6.26    0.52 
   2  -4  -6    0.00    0.26 
  -2  -4   6    0.06    0.19 
  -2  -4   6   -0.08    0.23 
   2  -4  -6    0.09    0.27 
  -2  -4   6   -0.17    0.20 
   2  -4  -6    0.06    0.22 
   1  -4  -6    1.09    0.29 
   1  -4  -6    1.99    0.30 
   1  -4  -6    1.84    0.29 
   1  -4  -6    1.60    0.28 
   1  -4  -6    1.80    0.27 
   1  -4  -6    1.86    0.23 
   1   4  -6    1.66    0.23 
  -1   4   6    2.55    0.26 
   0  -4  -6    1.53    0.27 
   0  -4  -6    1.89    0.23 
   0  -4  -6    2.09    0.29 
   0  -4  -6    1.68    0.25 
   0   4   6    1.40    0.22 
  -1  -4  -6    0.52    0.22 
   1  -4   6    0.39    0.25 
  -1  -4  -6    0.52    0.31 
  -1  -4  -6    0.45    0.23 
  -1  -4  -6    0.45    0.35 
  -1  -4  -6    0.19    0.19 
   1   4   6    0.42    0.18 
  -2  -4  -6    1.12    0.22 
   2  -4   6    2.17    0.27 
  -2  -4  -6    1.54    0.23 
  -2  -4  -6    1.05    0.21 
  -2  -4  -6    1.24    0.27 
  -2  -4  -6    1.42    0.29 
   2   4   6    1.67    0.23 
   3  -4   6    0.88    0.31 
  -3  -4  -6    0.78    0.24 
   3  -4   6    0.76    0.22 
  -3  -4  -6    0.68    0.23 
  -3  -4  -6    0.39    0.17 
  -3  -4  -6    0.62    0.20 
   3   4   6    0.71    0.21 
  -4  -4  -6    0.13    0.13 
  -4  -4  -6    0.06    0.17 
   4  -4   6    0.29    0.21 
  -4  -4  -6    0.14    0.16 
   4  -4   6    0.01    0.16 
   4   4   6    0.21    0.18 
  -3  -5   6    0.82    0.14 
  -3  -5   6    1.04    0.15 
   3  -5  -6    0.91    0.20 
   3  -5  -6    0.96    0.16 
   2  -5  -6   21.39    0.76 
  -2  -5   6   22.41    0.76 
   2  -5  -6   22.27    0.79 
   1  -5  -6    3.91    0.36 
  -1  -5  -6    8.16    0.39 
  -2  -5  -6    0.19    0.20 
  -2  -5  -6    0.32    0.18 
  -2  -5  -6    0.21    0.15 
   2  -5   6    0.34    0.20 
  -3  -5  -6    1.22    0.16 
  -3  -5  -6    0.77    0.13 
  -3  -5  -6    1.16    0.17 
   6   0  -7    0.05    0.14 
   5   0  -7   -0.12    0.20 
   5   0  -7    0.01    0.24 
  -4   0   7   -0.02    0.14 
  -4   0   7    0.02    0.16 
   4   0  -7    0.13    0.21 
   3   0  -7    0.02    0.08 
  -3   0   7    0.11    0.09 
   2   0  -7    0.00    0.05 
  -2   0   7    0.05    0.07 
  -2   0   7    0.00    0.05 
  -1   0   7   -0.08    0.03 
   1   0  -7   -0.07    0.03 
   0   0  -7    0.00    0.03 
  -1   0  -7   -0.11    0.03 
   1   0   7   -0.08    0.04 
  -1   0  -7   -0.13    0.04 
   2   0   7    0.01    0.05 
  -2   0  -7   -0.01    0.06 
  -2   0  -7   -0.03    0.05 
   3   0   7    0.06    0.08 
  -3   0  -7    0.07    0.09 
   4   0   7    0.01    0.27 
  -4   0  -7   -0.16    0.16 
   4   0   7    0.00    0.19 
   5   0   7    0.06    0.28 
   5   0   7   -0.02    0.22 
   6   0   7   -0.07    0.23 
   6   0   7   -0.02    0.18 
   6  -1  -7    9.65    0.38 
   6   1  -7    9.45    0.38 
   5  -1  -7   19.50    0.71 
   5  -1  -7   18.15    0.74 
  -5   1   7   19.05    0.70 
   5   1  -7   18.95    0.68 
   4  -1  -7   -0.04    0.21 
  -4  -1   7   -0.07    0.19 
   4  -1  -7   -0.03    0.18 
  -4   1   7    0.04    0.18 
  -4   1   7    0.08    0.16 
  -3  -1   7   18.02    0.59 
   3  -1  -7   17.20    0.58 
  -3  -1   7   17.50    0.60 
  -3   1   7   17.42    0.57 
  -2  -1   7    0.19    0.08 
  -2  -1   7    0.29    0.09 
   2  -1  -7    0.15    0.08 
  -2  -1   7    0.26    0.08 
   2  -1  -7    0.29    0.07 
  -2   1   7    0.14    0.06 
   2   1  -7    0.18    0.06 
  -1  -1   7    2.69    0.13 
   1  -1  -7    2.62    0.12 
   1  -1  -7    2.81    0.13 
   1  -1  -7    2.85    0.12 
  -1  -1   7    2.69    0.13 
   1   1  -7    2.58    0.10 
  -1   1   7    2.73    0.12 
   0  -1  -7   58.13    1.69 
   0  -1   7   57.86    1.70 
   0  -1  -7   58.90    1.70 
   0  -1  -7   57.51    1.70 
   0   1  -7   57.17    1.69 
  -1  -1  -7   20.31    0.60 
   1  -1   7   21.78    0.61 
  -1  -1  -7   19.13    0.61 
  -1  -1  -7   19.25    0.61 
   1  -1   7   19.33    0.60 
  -1   1  -7   20.45    0.60 
  -1   1  -7   19.69    0.60 
   1   1   7   19.37    0.60 
   1   1   7   19.51    0.60 
   2  -1   7    3.34    0.17 
   2  -1   7    3.02    0.15 
  -2  -1  -7    3.65    0.17 
  -2  -1  -7    3.21    0.16 
  -2   1  -7    3.27    0.15 
   2   1   7    3.53    0.16 
  -2   1  -7    3.29    0.15 
   2   1   7    3.20    0.16 
  -3  -1  -7   12.16    0.43 
   3  -1   7   10.35    0.47 
   3   1   7   11.94    0.40 
  -3   1  -7   11.94    0.41 
   4  -1   7    4.81    0.41 
  -4  -1  -7    4.21    0.29 
   4  -1   7    3.60    0.32 
   4   1   7    3.71    0.30 
   4   1   7    3.44    0.25 
   4   1   7    4.22    0.36 
   5  -1   7    0.38    0.26 
  -5  -1  -7    0.18    0.20 
   5  -1   7    0.20    0.29 
   5  -1   7    0.35    0.32 
   5   1   7    0.12    0.19 
   5   1   7    0.48    0.22 
   5   1   7    0.32    0.26 
   6  -1   7    0.23    0.21 
   5  -2  -7    2.13    0.24 
   5  -2  -7    2.16    0.27 
   5  -2  -7    1.73    0.30 
   5   2  -7    2.03    0.21 
  -5   2   7    2.09    0.23 
  -4  -2   7    7.50    0.42 
   4  -2  -7    8.27    0.46 
   4  -2  -7    7.19    0.39 
   4  -2  -7    7.46    0.55 
  -4  -2   7    7.38    0.46 
   4  -2  -7    7.84    0.47 
  -4   2   7    7.75    0.39 
   4   2  -7    7.72    0.41 
   3  -2  -7    0.14    0.14 
  -3  -2   7    0.55    0.18 
   3  -2  -7    0.21    0.15 
   3  -2  -7    0.29    0.21 
  -3  -2   7    0.28    0.14 
   3   2  -7    0.22    0.13 
  -3   2   7    0.31    0.12 
   2  -2  -7    7.55    0.31 
   2  -2  -7    7.60    0.29 
  -2  -2   7    7.65    0.31 
  -2  -2   7    7.55    0.31 
  -2   2   7    7.36    0.28 
   1  -2  -7    4.30    0.19 
  -1  -2   7    4.11    0.19 
  -1  -2   7    4.03    0.20 
   1  -2  -7    3.68    0.19 
   1  -2  -7    4.54    0.19 
   1   2  -7    3.97    0.16 
  -1   2   7    4.21    0.20 
   0  -2  -7  109.68    3.22 
   0  -2   7  111.23    3.20 
   0  -2   7  106.26    3.21 
   0  -2  -7  109.62    3.22 
   0  -2   7  111.71    3.22 
   0  -2  -7  111.62    3.21 
   0   2   7  110.95    3.21 
   0   2  -7  109.54    3.20 
   0   2  -7  109.55    3.20 
   1  -2   7  123.27    3.59 
   1  -2   7  123.66    3.59 
  -1  -2  -7  125.52    3.60 
  -1  -2  -7  121.93    3.60 
   1  -2   7  121.87    3.60 
  -1  -2  -7  120.99    3.59 
  -1   2  -7  123.15    3.59 
   1   2   7  122.72    3.58 
   1   2   7  121.55    3.59 
  -1   2  -7  127.23    3.59 
   2  -2   7  169.52    4.87 
  -2  -2  -7  171.18    4.90 
   2  -2   7  166.96    4.87 
  -2  -2  -7  162.91    4.88 
   2   2   7  164.61    4.88 
  -2   2  -7  166.97    4.87 
   2   2   7  167.37    4.87 
  -2   2  -7  170.00    4.88 
   3  -2   7    2.17    0.18 
  -3  -2  -7    2.09    0.20 
  -3  -2  -7    2.01    0.18 
  -3  -2  -7    2.31    0.22 
  -3   2  -7    2.57    0.18 
   3   2   7    2.14    0.17 
  -3   2  -7    2.39    0.20 
   3   2   7    2.27    0.18 
   4  -2   7    0.15    0.21 
   4  -2   7    0.16    0.31 
  -4  -2  -7    0.05    0.20 
  -4  -2  -7   -0.05    0.21 
   4  -2   7   -0.06    0.31 
   4   2   7    0.04    0.26 
  -4   2  -7    0.18    0.18 
   4   2   7    0.06    0.19 
   5  -2   7    2.57    0.32 
   5  -2   7    2.55    0.34 
  -5  -2  -7    1.94    0.20 
   5   2   7    1.91    0.19 
   5   2   7    2.41    0.25 
  -5  -3   7    1.19    0.17 
   5  -3  -7    0.96    0.23 
   5  -3  -7    1.40    0.20 
   5  -3  -7    1.17    0.22 
  -5   3   7    1.11    0.17 
  -4  -3   7    1.20    0.21 
  -4  -3   7    2.28    0.26 
   4  -3  -7    1.91    0.29 
   4  -3  -7    2.24    0.31 
   4  -3  -7    1.56    0.22 
   4  -3  -7    2.02    0.32 
   4  -3  -7    2.21    0.28 
  -4   3   7    1.91    0.22 
  -3  -3   7    0.21    0.21 
   3  -3  -7    0.09    0.18 
   3  -3  -7    0.05    0.27 
  -3  -3   7    0.07    0.19 
   3  -3  -7    0.15    0.20 
  -3  -3   7    0.14    0.22 
   3  -3  -7   -0.30    0.27 
   3  -3  -7    0.14    0.25 
   3  -3  -7    0.36    0.29 
  -3  -3   7    0.09    0.21 
  -3   3   7    0.15    0.18 
   3   3  -7   -0.01    0.17 
   2  -3  -7   21.94    0.72 
   2  -3  -7   21.24    0.71 
   2  -3  -7   20.05    0.76 
  -2  -3   7   20.15    0.71 
  -2  -3   7   20.91    0.73 
  -2   3   7   21.10    0.70 
  -1  -3   7   45.93    1.43 
   1  -3  -7   47.07    1.42 
   1  -3  -7   47.32    1.41 
   1  -3  -7   43.37    1.40 
  -1  -3   7   46.48    1.42 
  -1   3   7   47.17    1.41 
   0  -3   7    0.21    0.13 
   0  -3  -7    0.21    0.12 
   0  -3  -7    0.17    0.11 
   0   3  -7    0.13    0.09 
   1  -3   7    6.77    0.29 
   1  -3   7    6.34    0.28 
  -1  -3  -7    7.47    0.30 
  -1  -3  -7    7.66    0.33 
  -1   3  -7    6.99    0.29 
   1   3   7    7.03    0.29 
  -1   3  -7    7.07    0.29 
  -2  -3  -7    7.65    0.39 
  -2  -3  -7    8.22    0.36 
   2  -3   7    6.93    0.43 
  -2  -3  -7    7.44    0.37 
   2  -3   7    7.90    0.32 
   2   3   7    7.81    0.35 
   2   3   7    8.06    0.33 
  -2   3  -7    7.60    0.32 
  -3  -3  -7   51.49    1.59 
   3  -3   7   49.19    1.69 
  -3  -3  -7   50.48    1.69 
  -3  -3  -7   51.17    1.65 
  -3  -3  -7   50.46    1.58 
   3  -3   7   51.22    1.62 
  -3  -3  -7   52.28    1.58 
   3   3   7   50.87    1.57 
   3   3   7   51.58    1.58 
  -3   3  -7   52.98    1.57 
  -4  -3  -7    5.43    0.46 
  -4  -3  -7    4.44    0.34 
   4  -3   7    4.48    0.40 
  -4  -3  -7    5.22    0.40 
   4  -3   7    4.92    0.37 
  -4  -3  -7    5.17    0.31 
   4  -3   7    5.28    0.46 
   4   3   7    4.88    0.35 
   5  -3   7    0.15    0.20 
   5  -3   7   -0.05    0.18 
   5  -3   7    0.09    0.22 
  -5  -3  -7    0.01    0.13 
   5   3   7   -0.01    0.16 
  -5   3  -7    0.04    0.15 
   5   3   7   -0.07    0.12 
   4  -4  -7    0.33    0.20 
   4  -4  -7    0.24    0.15 
  -4  -4   7    0.26    0.15 
   4  -4  -7    0.30    0.21 
   4  -4  -7    0.23    0.19 
  -4  -4   7    0.23    0.15 
  -4   4   7    0.28    0.16 
  -3  -4   7    1.76    0.22 
   3  -4  -7    1.84    0.27 
  -3  -4   7    2.53    0.24 
   3  -4  -7    2.66    0.30 
   3  -4  -7    2.69    0.32 
   2  -4  -7    5.28    0.37 
  -2  -4   7    4.55    0.36 
  -2  -4   7    4.15    0.37 
   2  -4  -7    4.75    0.36 
   2  -4  -7    3.99    0.34 
   2  -4  -7    3.55    0.34 
  -1  -4   7    0.47    0.21 
   1  -4  -7    0.35    0.24 
   1  -4  -7    0.49    0.21 
   1  -4  -7    0.51    0.27 
   1  -4  -7    0.63    0.27 
   1  -4  -7    0.86    0.26 
   0  -4  -7    1.46    0.25 
   0  -4  -7    1.56    0.21 
   0  -4  -7    1.97    0.26 
   0  -4  -7    2.68    0.30 
   0   4   7    2.10    0.23 
   1  -4   7   12.61    0.58 
  -1  -4  -7   12.52    0.54 
  -1  -4  -7   12.25    0.52 
  -1  -4  -7   12.63    0.53 
  -1  -4  -7   12.61    0.65 
  -1  -4  -7   12.75    0.60 
   1   4   7   12.75    0.50 
  -2  -4  -7    0.98    0.21 
  -2  -4  -7    0.70    0.29 
  -2  -4  -7    0.79    0.22 
  -2  -4  -7    1.13    0.29 
   2  -4   7    0.88    0.23 
  -3  -4  -7    4.18    0.30 
   3  -4   7    4.22    0.31 
  -3  -4  -7    4.40    0.33 
  -3  -4  -7    4.42    0.31 
   3  -4   7    5.45    0.49 
  -3  -4  -7    3.82    0.33 
   3   4   7    4.18    0.34 
  -4  -4  -7   -0.16    0.17 
  -4  -4  -7   -0.01    0.14 
  -4  -4  -7   -0.13    0.12 
   4  -4   7   -0.04    0.21 
   4  -4   7    0.05    0.16 
   4   4   7    0.05    0.17 
   3  -5  -7   21.55    0.70 
  -3  -5   7   19.95    0.66 
   3  -5  -7   19.67    0.67 
  -3  -5   7   19.05    0.65 
   2  -5  -7    0.38    0.18 
   2  -5  -7    0.08    0.21 
  -2  -5   7    0.32    0.17 
   2  -5  -7    0.46    0.21 
   1  -5  -7    7.05    0.40 
   1  -5  -7    7.85    0.41 
   1  -5  -7    7.37    0.43 
   0  -5  -7    9.26    0.43 
   0  -5  -7    9.21    0.46 
  -1  -5  -7    2.14    0.21 
  -1  -5  -7    2.34    0.27 
  -2  -5  -7   14.85    0.52 
  -2  -5  -7   14.80    0.57 
   2  -5   7   14.63    0.55 
  -2  -5  -7   14.71    0.59 
  -3  -5  -7    1.81    0.15 
  -3  -5  -7    2.06    0.19 
  -3  -5  -7    1.83    0.17 
   6   0  -8    0.08    0.14 
  -5   0   8   92.64    2.87 
   5   0  -8   94.78    2.88 
   5   0  -8   99.16    2.87 
   4   0  -8  128.44    3.88 
  -4   0   8  130.28    3.87 
  -4   0   8  133.73    3.86 
  -3   0   8   57.24    1.70 
   3   0  -8   56.49    1.69 
  -2   0   8   49.98    1.51 
  -2   0   8   51.51    1.50 
   2   0  -8   51.36    1.50 
  -1   0   8  160.41    4.63 
   1   0  -8  160.08    4.64 
   0   0  -8   33.13    0.97 
  -1   0  -8  199.14    5.84 
  -1   0  -8  199.58    5.83 
   1   0   8  206.39    5.84 
   2   0   8   11.02    0.36 
  -2   0  -8   11.20    0.37 
  -2   0  -8   11.16    0.36 
  -3   0  -8    9.38    0.36 
   3   0   8   10.08    0.35 
   4   0   8    3.23    0.36 
   4   0   8    2.74    0.23 
   4   0   8    2.95    0.27 
   5   0   8    2.80    0.34 
   5   0   8    2.84    0.29 
   6   0   8   28.25    0.96 
   6  -1  -8    3.18    0.21 
   6   1  -8    2.99    0.24 
   5  -1  -8   -0.06    0.19 
   5  -1  -8    0.01    0.24 
   5   1  -8   -0.01    0.18 
  -5   1   8    0.03    0.19 
   4  -1  -8   -0.04    0.20 
  -4  -1   8   -0.18    0.20 
   4  -1  -8    0.09    0.17 
  -4   1   8    0.03    0.14 
  -4   1   8    0.14    0.16 
   3  -1  -8    4.50    0.24 
  -3  -1   8    4.33    0.26 
  -3  -1   8    4.55    0.23 
  -3   1   8    4.38    0.21 
   2  -1  -8  203.30    5.93 
  -2  -1   8  200.79    5.92 
   2  -1  -8  210.95    5.92 
  -2  -1   8  197.92    5.93 
  -2  -1   8  200.66    5.92 
   2   1  -8  205.25    5.91 
  -2   1   8  209.71    5.92 
  -1  -1   8   34.55    1.02 
   1  -1  -8   34.23    1.01 
  -1  -1   8   33.13    1.02 
   1  -1  -8   33.84    1.02 
   1  -1  -8   33.66    1.01 
  -1   1   8   35.09    1.01 
   1   1  -8   33.24    1.00 
   0  -1  -8    1.31    0.09 
   0  -1  -8    1.44    0.09 
   0  -1  -8    1.47    0.08 
   0  -1   8    1.52    0.10 
   0   1  -8    1.37    0.08 
   0   1  -8    1.50    0.08 
   0   1   8    1.59    0.09 
  -1  -1  -8   10.28    0.35 
  -1  -1  -8   10.28    0.34 
   1  -1   8   10.54    0.33 
  -1  -1  -8   10.68    0.34 
   1  -1   8   10.51    0.34 
   1   1   8   10.82    0.33 
   1   1   8   10.33    0.34 
  -1   1  -8   10.64    0.33 
  -1   1  -8   10.34    0.34 
  -2  -1  -8    3.24    0.17 
   2  -1   8    3.40    0.17 
   2  -1   8    3.52    0.15 
  -2  -1  -8    3.50    0.16 
  -2   1  -8    3.37    0.16 
  -2   1  -8    3.69    0.16 
   2   1   8    3.55    0.16 
   2   1   8    3.43    0.15 
   3  -1   8    0.26    0.12 
  -3  -1  -8    0.28    0.12 
   3   1   8    0.24    0.09 
  -3   1  -8    0.22    0.10 
  -4  -1  -8    0.20    0.19 
   4  -1   8    0.27    0.28 
   4   1   8    0.54    0.20 
   4   1   8    0.20    0.16 
   4   1   8    0.21    0.27 
   5  -1   8    2.36    0.35 
   5  -1   8    1.78    0.30 
   5  -1   8    2.10    0.35 
  -5  -1  -8    1.65    0.25 
   5   1   8    1.68    0.25 
   5   1   8    2.15    0.31 
   6  -1   8    7.79    0.42 
   6   1   8    7.75    0.53 
   5  -2  -8    2.21    0.24 
  -5  -2   8    1.61    0.27 
   5  -2  -8    1.86    0.26 
  -5   2   8    1.83    0.22 
   5   2  -8    2.12    0.21 
   4  -2  -8    4.36    0.34 
  -4  -2   8    4.62    0.31 
  -4  -2   8    4.58    0.38 
   4  -2  -8    4.15    0.33 
   4  -2  -8    3.91    0.40 
   4  -2  -8    4.26    0.34 
   4   2  -8    4.53    0.29 
  -4   2   8    4.50    0.34 
  -3  -2   8    6.84    0.36 
   3  -2  -8    8.15    0.43 
   3  -2  -8    7.92    0.36 
   3  -2  -8    6.90    0.38 
  -3  -2   8    7.55    0.38 
   3  -2  -8    7.76    0.36 
  -3   2   8    7.48    0.38 
   3   2  -8    8.28    0.36 
  -3   2   8    7.32    0.32 
   2  -2  -8   21.61    0.71 
  -2  -2   8   21.09    0.71 
  -2  -2   8   22.03    0.70 
   2  -2  -8   21.30    0.69 
  -2   2   8   21.70    0.69 
  -1  -2   8    2.59    0.16 
   1  -2  -8    2.58    0.14 
  -1  -2   8    2.57    0.16 
   1  -2  -8    2.55    0.16 
   1  -2  -8    2.66    0.15 
   1   2  -8    2.37    0.12 
  -1   2   8    2.48    0.15 
   0  -2   8    9.49    0.35 
   0  -2  -8   10.01    0.35 
   0  -2  -8    9.99    0.34 
   0  -2   8    9.88    0.35 
   0   2  -8   10.12    0.33 
   0   2   8   10.35    0.33 
   0   2  -8    9.72    0.32 
  -1  -2  -8   77.68    2.24 
   1  -2   8   75.01    2.23 
  -1  -2  -8   75.69    2.23 
   1  -2   8   75.53    2.22 
  -1  -2  -8   76.06    2.23 
   1  -2   8   74.92    2.22 
  -1   2  -8   76.58    2.22 
   1   2   8   74.08    2.21 
   1   2   8   74.36    2.23 
  -1   2  -8   76.51    2.22 
  -2  -2  -8  103.23    3.03 
   2  -2   8  102.76    3.01 
   2  -2   8  102.48    3.01 
  -2  -2  -8  100.84    3.02 
   2  -2   8  100.23    3.02 
   2   2   8  103.52    3.01 
  -2   2  -8  105.97    3.01 
  -2   2  -8  104.33    3.01 
   2   2   8  100.00    3.01 
   3  -2   8   30.56    1.00 
  -3  -2  -8   30.15    0.95 
   3  -2   8   28.01    0.92 
  -3  -2  -8   28.70    0.96 
  -3  -2  -8   29.78    0.96 
  -3   2  -8   29.99    0.93 
   3   2   8   31.01    0.94 
  -3   2  -8   28.34    0.93 
   3   2   8   29.75    0.93 
   4  -2   8    2.05    0.34 
  -4  -2  -8    2.37    0.24 
   4  -2   8    3.06    0.38 
   4  -2   8    2.14    0.26 
  -4  -2  -8    2.49    0.25 
   4   2   8    2.50    0.24 
   4   2   8    2.75    0.31 
  -4   2  -8    2.53    0.24 
  -5  -2  -8    5.15    0.31 
   5  -2   8    4.92    0.44 
   5  -2   8    4.76    0.46 
   5   2   8    4.30    0.29 
   5   2   8    4.93    0.42 
   5   2   8    4.88    0.34 
   5  -3  -8   -0.08    0.20 
   5  -3  -8   -0.01    0.18 
   5  -3  -8   -0.06    0.16 
  -5  -3   8   -0.11    0.14 
  -5   3   8   -0.01    0.14 
  -4  -3   8    1.71    0.23 
   4  -3  -8    2.15    0.30 
  -4  -3   8    2.04    0.25 
   4  -3  -8    2.09    0.23 
   4  -3  -8    1.57    0.31 
   4  -3  -8    1.73    0.28 
   4  -3  -8    2.05    0.28 
  -4   3   8    2.00    0.23 
   3  -3  -8    1.08    0.22 
  -3  -3   8    1.35    0.24 
   3  -3  -8    1.11    0.32 
   3  -3  -8    0.88    0.21 
  -3  -3   8    0.85    0.22 
  -3  -3   8    1.39    0.25 
   3  -3  -8    1.23    0.31 
   3  -3  -8    1.22    0.29 
   3  -3  -8    0.52    0.24 
  -3   3   8    1.09    0.21 
   2  -3  -8   -0.02    0.15 
   2  -3  -8    0.00    0.20 
  -2  -3   8   -0.07    0.17 
  -2  -3   8    0.04    0.16 
  -2   3   8    0.13    0.14 
  -1  -3   8   11.99    0.45 
   1  -3  -8   11.66    0.46 
   1  -3  -8   12.14    0.44 
  -1  -3   8   12.34    0.46 
  -1   3   8   11.40    0.44 
   0  -3   8    0.52    0.14 
   0  -3  -8    0.45    0.14 
   0  -3  -8    0.40    0.12 
   0   3  -8    0.24    0.10 
  -1  -3  -8    1.40    0.16 
   1  -3   8    1.21    0.13 
  -1  -3  -8    1.31    0.16 
   1  -3   8    1.09    0.13 
  -1   3  -8    1.25    0.14 
  -1   3  -8    1.44    0.14 
   1   3   8    1.35    0.15 
   2  -3   8   34.84    1.05 
  -2  -3  -8   34.13    1.08 
  -2  -3  -8   33.90    1.08 
   2  -3   8   32.92    1.12 
  -2  -3  -8   33.87    1.07 
  -2   3  -8   32.05    1.04 
   2   3   8   32.94    1.05 
   2   3   8   33.50    1.04 
  -3  -3  -8    0.89    0.20 
  -3  -3  -8    1.54    0.23 
  -3  -3  -8    1.12    0.20 
  -3  -3  -8    1.25    0.30 
  -3  -3  -8    1.32    0.30 
  -3  -3  -8    1.57    0.27 
   3  -3   8    1.50    0.36 
   3  -3   8    1.35    0.24 
   3   3   8    1.18    0.29 
  -3   3  -8    1.71    0.20 
   3   3   8    1.68    0.20 
  -4  -3  -8    0.60    0.20 
   4  -3   8    0.58    0.21 
   4  -3   8    0.90    0.29 
  -4  -3  -8    0.88    0.27 
  -4  -3  -8    0.88    0.25 
  -4  -3  -8    0.95    0.18 
   4  -3   8    0.55    0.28 
   4   3   8    0.65    0.20 
  -5  -3  -8    0.91    0.14 
   5  -3   8    0.81    0.24 
   5  -3   8    0.82    0.21 
   5  -3   8    0.92    0.32 
   5   3   8    0.62    0.16 
  -5   3  -8    0.71    0.23 
   5   3   8    0.66    0.13 
  -4  -4   8    3.70    0.27 
   4  -4  -8    2.64    0.26 
   4  -4  -8    3.84    0.27 
   4  -4  -8    3.45    0.30 
  -4  -4   8    3.66    0.27 
  -4   4   8    3.51    0.28 
  -3  -4   8    0.58    0.19 
   3  -4  -8    0.86    0.24 
  -3  -4   8    0.56    0.18 
   3  -4  -8    0.78    0.25 
   3  -4  -8    0.71    0.26 
   3  -4  -8    0.93    0.25 
   2  -4  -8   20.57    0.78 
   2  -4  -8   20.59    0.82 
  -2  -4   8   19.45    0.74 
   2  -4  -8   19.72    0.76 
   2  -4  -8   19.84    0.77 
  -2  -4   8   21.09    0.74 
   1  -4  -8    1.82    0.26 
   1  -4  -8    1.59    0.29 
   1  -4  -8    0.98    0.25 
   1  -4  -8    1.19    0.26 
   1  -4  -8    1.33    0.26 
   0  -4  -8   -0.04    0.23 
   0  -4  -8    0.03    0.23 
   0  -4  -8    0.13    0.26 
   0  -4  -8   -0.03    0.23 
  -1  -4  -8    6.42    0.39 
   1  -4   8    6.56    0.46 
  -1  -4  -8    6.55    0.54 
  -1  -4  -8    6.83    0.46 
  -1  -4  -8    6.75    0.40 
   1   4   8    6.53    0.35 
  -2  -4  -8    0.35    0.26 
   2  -4   8    0.15    0.22 
  -2  -4  -8    0.27    0.21 
  -2  -4  -8    0.14    0.27 
  -2  -4  -8    0.25    0.19 
  -3  -4  -8   -0.06    0.15 
   3  -4   8    0.02    0.30 
  -3  -4  -8    0.06    0.18 
  -3  -4  -8    0.01    0.23 
  -3  -4  -8    0.03    0.21 
   3  -4   8   -0.11    0.20 
   3   4   8    0.08    0.20 
  -4  -4  -8    0.88    0.17 
  -4  -4  -8    0.70    0.17 
  -4  -4  -8    0.70    0.19 
   4  -4   8    0.96    0.18 
  -4  -4  -8    0.55    0.13 
   4  -4   8    0.84    0.22 
   4   4   8    0.63    0.17 
   3  -5  -8   12.88    0.47 
  -3  -5   8   13.67    0.55 
   3  -5  -8   12.48    0.51 
  -3  -5   8   13.38    0.47 
   2  -5  -8    0.68    0.18 
  -2  -5   8    0.84    0.17 
   2  -5  -8    0.49    0.21 
   2  -5  -8    0.55    0.21 
   1  -5  -8    7.60    0.43 
   1  -5  -8    7.96    0.43 
   1  -5  -8    8.13    0.42 
   0  -5  -8    1.20    0.20 
   0  -5  -8    1.03    0.23 
   0  -5  -8    1.25    0.23 
  -1  -5  -8    4.63    0.30 
  -1  -5  -8    4.83    0.40 
  -1  -5  -8    4.73    0.34 
  -2  -5  -8    2.46    0.19 
  -2  -5  -8    2.23    0.22 
  -2  -5  -8    2.74    0.25 
   2  -5   8    2.19    0.21 
  -3  -5  -8    0.00    0.14 
  -3  -5  -8    0.08    0.11 
  -3  -5  -8    0.04    0.12 
   6   0  -9   -0.08    0.14 
   5   0  -9   -0.10    0.26 
   5   0  -9    0.08    0.20 
  -5   0   9    0.02    0.23 
  -4   0   9   -0.12    0.17 
  -4   0   9   -0.08    0.17 
  -3   0   9    0.03    0.09 
   3   0  -9   -0.11    0.10 
  -2   0   9    0.04    0.06 
   2   0  -9    0.03    0.05 
  -2   0   9   -0.04    0.08 
   1   0  -9   -0.02    0.04 
   1   0  -9    0.01    0.05 
  -1   0   9   -0.05    0.06 
  -1   0   9    0.01    0.06 
  -1   0   9    0.00    0.04 
   0   0   9    0.02    0.05 
   0   0  -9    0.12    0.05 
   0   0  -9   -0.06    0.03 
  -1   0  -9   -0.04    0.04 
  -1   0  -9    0.01    0.05 
   1   0   9   -0.02    0.05 
   1   0   9   -0.02    0.05 
  -2   0  -9   -0.09    0.06 
   2   0   9    0.05    0.06 
  -2   0  -9    0.01    0.07 
   3   0   9   -0.02    0.09 
   4   0   9   -0.06    0.25 
   4   0   9   -0.02    0.17 
   4   0   9   -0.13    0.21 
   5   0   9    0.03    0.27 
   5   0   9    0.04    0.23 
   6   0   9    0.08    0.22 
   6  -1  -9    2.91    0.23 
   6   1  -9    2.98    0.22 
   5  -1  -9    1.74    0.24 
   5  -1  -9    2.21    0.29 
  -5   1   9    1.86    0.24 
   5   1  -9    1.37    0.21 
  -4  -1   9    4.65    0.44 
   4  -1  -9    6.14    0.41 
   4  -1  -9    5.71    0.40 
  -4   1   9    5.97    0.36 
  -4   1   9    5.57    0.31 
   4   1  -9    5.79    0.38 
  -3  -1   9   21.72    0.73 
   3  -1  -9   22.60    0.72 
  -3  -1   9   20.98    0.71 
  -3   1   9   22.46    0.70 
   2  -1  -9   11.00    0.37 
  -2  -1   9   11.05    0.38 
  -2  -1   9   10.12    0.39 
   2  -1  -9   11.45    0.37 
   2   1  -9   10.43    0.35 
  -2   1   9   11.20    0.37 
  -1  -1   9   47.97    1.44 
   1  -1  -9   47.83    1.43 
  -1  -1   9   49.16    1.44 
   1  -1  -9   48.03    1.44 
   1  -1  -9   48.14    1.42 
   1   1  -9   47.97    1.42 
  -1   1   9   49.04    1.43 
  -1   1   9   48.50    1.42 
   0  -1   9    2.60    0.13 
   0  -1   9    2.66    0.13 
   0  -1  -9    2.56    0.13 
   0  -1  -9    2.62    0.11 
   0  -1  -9    2.59    0.13 
   0   1  -9    2.57    0.11 
   0   1  -9    2.51    0.11 
   0   1   9    2.76    0.12 
   0   1   9    2.77    0.12 
   1  -1   9   56.98    1.70 
   1  -1   9   58.00    1.69 
  -1  -1  -9   57.90    1.70 
  -1  -1  -9   56.54    1.69 
   1   1   9   59.16    1.69 
   1   1   9   57.77    1.69 
  -1   1  -9   56.71    1.69 
  -1   1  -9   57.67    1.69 
   2  -1   9    0.21    0.08 
  -2  -1  -9    0.13    0.08 
  -2  -1  -9    0.23    0.08 
   2  -1   9    0.20    0.07 
   2   1   9    0.18    0.06 
  -2   1  -9    0.21    0.08 
   2   1   9    0.20    0.08 
  -2   1  -9    0.17    0.07 
  -3  -1  -9    7.58    0.33 
   3  -1   9    8.95    0.35 
   3   1   9    7.93    0.31 
  -3   1  -9    7.98    0.31 
   4  -1   9   10.12    0.59 
  -4  -1  -9    9.69    0.47 
   4   1   9   10.18    0.46 
   4   1   9    9.97    0.41 
   4   1   9   10.20    0.54 
   5  -1   9    0.10    0.29 
   5  -1   9    0.31    0.29 
   5   1   9    0.20    0.21 
   5   1   9    0.10    0.24 
   6  -1   9    3.64    0.33 
   5  -2  -9    1.86    0.26 
   5  -2  -9    2.06    0.22 
  -5  -2   9    2.15    0.24 
  -5   2   9    1.69    0.20 
   5   2  -9    2.15    0.22 
   5   2  -9    1.45    0.20 
   4  -2  -9    0.84    0.25 
   4  -2  -9    0.61    0.25 
   4  -2  -9    0.72    0.19 
   4  -2  -9    1.17    0.34 
  -4  -2   9    0.64    0.22 
  -4   2   9    0.96    0.19 
   3  -2  -9    1.11    0.23 
  -3  -2   9    1.31    0.20 
   3  -2  -9    1.32    0.19 
   3  -2  -9    1.12    0.18 
  -3  -2   9    1.86    0.22 
  -3   2   9    1.13    0.19 
   3   2  -9    1.48    0.18 
  -3   2   9    1.38    0.16 
  -2  -2   9    0.16    0.11 
  -2  -2   9    0.13    0.11 
   2  -2  -9    0.06    0.11 
   2  -2  -9    0.09    0.10 
  -2   2   9    0.13    0.09 
  -1  -2   9   13.23    0.46 
   1  -2  -9   13.08    0.44 
   1  -2  -9   14.03    0.47 
  -1  -2   9   13.16    0.46 
   1  -2  -9   14.03    0.45 
   1   2  -9   13.40    0.42 
  -1   2   9   13.17    0.45 
   0  -2   9   25.03    0.79 
   0  -2   9   25.16    0.80 
   0  -2  -9   25.13    0.79 
   0  -2  -9   25.97    0.79 
   0   2  -9   25.67    0.77 
   0   2  -9   25.58    0.77 
   0   2   9   25.69    0.78 
   1  -2   9  197.16    5.74 
  -1  -2  -9  207.45    5.74 
   1  -2   9  196.74    5.72 
  -1  -2  -9  191.77    5.74 
  -1  -2  -9  203.22    5.73 
  -1   2  -9  190.49    5.72 
  -1   2  -9  195.18    5.72 
   1   2   9  192.07    5.73 
   1   2   9  200.90    5.72 
  -2  -2  -9    4.43    0.23 
   2  -2   9    4.54    0.21 
   2  -2   9    4.59    0.26 
  -2  -2  -9    4.66    0.23 
   2   2   9    4.58    0.20 
   2   2   9    4.43    0.22 
  -2   2  -9    4.26    0.21 
  -2   2  -9    4.43    0.21 
  -3  -2  -9   24.10    0.80 
  -3  -2  -9   23.20    0.79 
  -3  -2  -9   23.84    0.76 
   3  -2   9   21.83    0.81 
   3  -2   9   22.41    0.75 
   3   2   9   23.37    0.76 
   3   2   9   23.76    0.75 
  -3   2  -9   23.18    0.75 
  -4  -2  -9   60.74    1.84 
   4  -2   9   57.78    1.95 
   4  -2   9   59.66    1.93 
  -4  -2  -9   61.22    1.83 
   4   2   9   61.16    1.89 
   4   2   9   59.06    1.85 
   5  -2   9    2.82    0.32 
  -5  -2  -9    1.78    0.19 
   5  -2   9    2.83    0.32 
   5   2   9    2.01    0.19 
   5   2   9    2.35    0.24 
   5   2   9    1.77    0.27 
   5  -3  -9    3.93    0.34 
   5  -3  -9    2.74    0.31 
  -5  -3   9    3.74    0.27 
   5  -3  -9    3.56    0.28 
  -5   3   9    3.75    0.25 
   5   3  -9    3.83    0.26 
   4  -3  -9   23.88    0.92 
   4  -3  -9   25.73    0.86 
   4  -3  -9   24.98    0.89 
   4  -3  -9   25.17    0.89 
  -4  -3   9   24.21    0.85 
  -4  -3   9   24.94    0.85 
   4  -3  -9   24.18    0.84 
  -4   3   9   24.07    0.83 
   3  -3  -9   -0.06    0.27 
  -3  -3   9   -0.04    0.19 
  -3  -3   9    0.01    0.22 
   3  -3  -9    0.01    0.26 
   3  -3  -9    0.01    0.24 
   3  -3  -9    0.02    0.21 
   3  -3  -9    0.04    0.19 
   3  -3  -9    0.03    0.27 
  -3  -3   9    0.05    0.21 
  -3   3   9   -0.06    0.18 
   2  -3  -9    6.52    0.41 
  -2  -3   9    6.95    0.38 
  -2  -3   9    6.50    0.34 
   2  -3  -9    5.97    0.52 
   2  -3  -9    7.14    0.36 
  -2   3   9    6.19    0.33 
   1  -3  -9   11.16    0.43 
  -1  -3   9    9.86    0.41 
   1  -3  -9   10.33    0.40 
  -1  -3   9   10.41    0.43 
   1  -3  -9   10.14    0.48 
  -1   3   9   10.18    0.41 
   0  -3  -9   28.91    0.91 
   0  -3  -9   27.07    0.89 
   0  -3   9   28.91    0.91 
   0   3  -9   28.05    0.87 
  -1  -3  -9    2.69    0.21 
   1  -3   9    3.21    0.23 
  -1  -3  -9    2.23    0.22 
   1  -3   9    2.92    0.21 
  -1  -3  -9    3.08    0.20 
   1   3   9    2.85    0.19 
  -1   3  -9    2.88    0.18 
  -1   3  -9    3.16    0.22 
   2  -3   9   65.04    2.01 
  -2  -3  -9   64.44    1.95 
  -2  -3  -9   64.73    1.97 
  -2  -3  -9   62.46    1.96 
  -2   3  -9   66.23    1.94 
   2   3   9   64.93    1.95 
   3  -3   9   30.03    1.02 
  -3  -3  -9   29.77    0.98 
  -3  -3  -9   30.77    0.98 
   3  -3   9   30.48    1.12 
  -3  -3  -9   28.66    1.01 
  -3  -3  -9   28.53    1.09 
  -3  -3  -9   30.46    0.97 
  -3  -3  -9   28.79    1.06 
  -3   3  -9   30.40    0.96 
   3   3   9   29.78    0.96 
   3   3   9   28.01    1.02 
   4  -3   9    1.49    0.32 
  -4  -3  -9    1.15    0.21 
  -4  -3  -9    0.91    0.26 
  -4  -3  -9    1.45    0.19 
   4  -3   9    1.20    0.22 
   4  -3   9    1.72    0.32 
   4   3   9    0.86    0.20 
   5  -3   9    4.35    0.30 
   5  -3   9    3.80    0.34 
  -5  -3  -9    3.45    0.23 
   5   3   9    3.50    0.23 
   4  -4  -9    1.84    0.22 
  -4  -4   9    1.97    0.18 
   4  -4  -9    2.04    0.27 
   4  -4  -9    1.91    0.22 
   4  -4  -9    1.69    0.20 
  -4  -4   9    1.88    0.18 
  -4   4   9    1.61    0.27 
   3  -4  -9    2.42    0.28 
  -3  -4   9    2.22    0.23 
   3  -4  -9    1.43    0.27 
  -3  -4   9    1.60    0.21 
   3  -4  -9    2.01    0.25 
   3  -4  -9    1.39    0.25 
  -2  -4   9   19.26    0.72 
   2  -4  -9   18.95    0.74 
  -2  -4   9   19.19    0.72 
   2  -4  -9   19.68    0.75 
   2  -4  -9   18.67    0.74 
   2  -4  -9   20.04    0.79 
   1  -4  -9   11.25    0.55 
   1  -4  -9   12.20    0.54 
   1  -4  -9   11.74    0.55 
   1  -4  -9   12.04    0.52 
   1  -4  -9   11.10    0.58 
   0  -4  -9    3.74    0.32 
   0  -4   9    4.65    0.37 
   0  -4  -9    2.98    0.29 
   0  -4  -9    2.91    0.29 
   0  -4  -9    4.23    0.34 
  -1  -4  -9   -0.01    0.29 
   1  -4   9   -0.03    0.25 
  -1  -4  -9    0.03    0.21 
  -1  -4  -9    0.00    0.23 
  -1  -4  -9   -0.03    0.20 
   1   4   9    0.08    0.17 
  -2  -4  -9    5.09    0.41 
   2  -4   9    3.67    0.32 
  -2  -4  -9    3.83    0.37 
  -2  -4  -9    3.33    0.33 
  -2  -4  -9    4.35    0.30 
  -2  -4  -9    4.39    0.33 
   3  -4   9    2.21    0.35 
   3  -4   9    2.01    0.24 
  -3  -4  -9    1.95    0.26 
  -3  -4  -9    1.61    0.21 
  -3  -4  -9    1.95    0.20 
  -3  -4  -9    2.33    0.29 
   3   4   9    1.64    0.23 
  -4  -4  -9    1.41    0.20 
  -4  -4  -9    1.36    0.14 
   4  -4   9    1.42    0.24 
  -4  -4  -9    1.77    0.19 
   4  -4   9    1.32    0.17 
  -4  -4  -9    1.32    0.20 
   4   4   9    1.77    0.24 
   3  -5  -9   22.69    0.72 
  -3  -5   9   21.65    0.71 
   2  -5  -9    6.01    0.36 
  -2  -5   9    5.75    0.32 
   2  -5  -9    5.75    0.37 
   2  -5  -9    5.45    0.33 
   1  -5  -9    2.24    0.22 
   1  -5  -9    1.92    0.24 
   1  -5  -9    2.40    0.25 
   1  -5  -9    2.20    0.24 
   0  -5  -9    0.19    0.20 
   0  -5  -9   -0.01    0.20 
   0  -5  -9   -0.01    0.17 
  -1  -5  -9    0.30    0.19 
  -1  -5  -9    0.38    0.21 
  -1  -5  -9    0.18    0.16 
   2  -5   9    0.73    0.18 
  -2  -5  -9    0.94    0.18 
  -2  -5  -9    1.13    0.21 
  -2  -5  -9    0.79    0.15 
  -2  -5  -9    0.67    0.17 
  -3  -5  -9    1.43    0.13 
  -3  -5  -9    2.15    0.17 
  -3  -5  -9    1.76    0.18 
   6   0 -10    4.16    0.25 
   5   0 -10   12.10    0.53 
  -5   0  10   12.92    0.56 
  -4   0  10  161.71    4.63 
  -4   0  10  157.80    4.61 
   4   0 -10  150.83    4.63 
   3   0 -10    1.79    0.15 
  -3   0  10    1.92    0.15 
   2   0 -10   74.50    2.15 
  -2   0  10   71.94    2.16 
  -2   0  10   72.93    2.14 
  -1   0  10    0.01    0.05 
   1   0 -10    0.01    0.05 
   1   0 -10    0.05    0.04 
  -1   0  10    0.04    0.04 
  -1   0  10    0.03    0.06 
   0   0 -10    1.20    0.08 
   0   0  10    1.18    0.09 
   0   0 -10    1.11    0.07 
   0   0  10    1.26    0.09 
  -1   0 -10   85.46    2.48 
  -1   0 -10   83.72    2.47 
   1   0  10   86.31    2.48 
   1   0  10   84.94    2.49 
  -2   0 -10   29.59    0.91 
   2   0  10   30.12    0.91 
   3   0  10    0.56    0.12 
   4   0  10    4.17    0.38 
   4   0  10    3.42    0.29 
   4   0  10    4.02    0.28 
   5   0  10    4.76    0.33 
   5   0  10    4.02    0.37 
   6   0  10    6.49    0.40 
   6  -1 -10    3.70    0.24 
   6   1 -10    3.41    0.23 
   5  -1 -10    0.32    0.24 
   5  -1 -10    0.47    0.19 
  -5   1  10    0.22    0.19 
   5   1 -10    0.62    0.20 
  -4  -1  10    1.17    0.27 
   4  -1 -10    0.58    0.22 
   4  -1 -10    1.11    0.26 
  -4  -1  10    1.07    0.27 
  -4   1  10    0.81    0.17 
  -4   1  10    0.95    0.20 
   4   1 -10    1.04    0.23 
   3  -1 -10    3.72    0.23 
  -3  -1  10    3.83    0.26 
  -3   1  10    3.67    0.20 
   2  -1 -10    0.61    0.10 
  -2  -1  10    0.72    0.11 
   2  -1 -10    0.72    0.09 
  -2  -1  10    0.90    0.12 
   2   1 -10    0.83    0.08 
  -2   1  10    0.66    0.08 
   1  -1 -10   29.26    0.92 
  -1  -1  10   29.33    0.92 
  -1  -1  10   30.84    0.92 
   1  -1 -10   29.65    0.91 
   1  -1 -10   31.14    0.91 
  -1   1  10   30.71    0.91 
   1   1 -10   30.70    0.90 
  -1   1  10   30.05    0.91 
   0  -1 -10    1.04    0.08 
   0  -1 -10    1.15    0.09 
   0  -1  10    1.08    0.09 
   0  -1 -10    0.85    0.07 
   0  -1  10    1.09    0.09 
   0   1  10    1.13    0.09 
   0   1 -10    1.08    0.08 
   0   1 -10    1.16    0.08 
   1  -1  10  117.33    3.41 
  -1  -1 -10  116.20    3.40 
  -1  -1 -10  116.34    3.40 
   1  -1  10  116.07    3.40 
   1   1  10  114.02    3.40 
  -1   1 -10  120.03    3.39 
   1   1  10  117.37    3.39 
  -1   1 -10  116.77    3.40 
   2  -1  10    2.94    0.14 
  -2  -1 -10    2.46    0.16 
   2  -1  10    2.71    0.16 
  -2  -1 -10    2.73    0.17 
  -2   1 -10    2.75    0.15 
   2   1  10    2.82    0.15 
  -2   1 -10    2.57    0.15 
   2   1  10    2.87    0.15 
  -3  -1 -10    1.30    0.16 
   3  -1  10    0.78    0.15 
  -3   1 -10    1.14    0.13 
   3   1  10    1.14    0.13 
   4  -1  10   18.92    0.82 
   4  -1  10   18.71    0.81 
   4   1  10   20.01    0.71 
   4   1  10   19.00    0.77 
   4   1  10   19.89    0.68 
   5  -1  10    4.17    0.38 
   5  -1  10    2.86    0.36 
   5   1  10    3.71    0.29 
   5   1  10    3.88    0.35 
   6  -1  10    1.42    0.23 
   5  -2 -10    0.48    0.23 
  -5  -2  10    0.46    0.19 
   5  -2 -10    0.34    0.18 
   5   2 -10    0.48    0.17 
  -5   2  10    0.64    0.18 
   5   2 -10    0.34    0.18 
   4  -2 -10    0.34    0.25 
   4  -2 -10    0.54    0.20 
  -4  -2  10    0.60    0.23 
   4  -2 -10    0.35    0.24 
  -4   2  10    0.34    0.19 
   3  -2 -10    0.21    0.16 
   3  -2 -10    0.09    0.21 
  -3  -2  10    0.17    0.18 
  -3  -2  10    0.27    0.17 
   3  -2 -10    0.33    0.17 
  -3   2  10    0.18    0.14 
  -3   2  10    0.27    0.16 
   3   2 -10    0.32    0.16 
   2  -2 -10    9.46    0.37 
  -2  -2  10    9.12    0.37 
   2  -2 -10    9.69    0.36 
  -2  -2  10    9.38    0.38 
  -2   2  10    9.55    0.35 
  -1  -2  10    0.54    0.11 
   1  -2 -10    0.62    0.10 
   1  -2 -10    0.61    0.10 
   1  -2 -10    0.65    0.11 
  -1  -2  10    0.77    0.11 
  -1   2  10    0.76    0.11 
   1   2 -10    0.46    0.07 
   0  -2 -10   29.07    0.90 
   0  -2  10   28.72    0.90 
   0  -2  10   28.54    0.89 
   0  -2 -10   29.00    0.89 
   0   2 -10   28.29    0.87 
   0   2  10   29.00    0.88 
   0   2 -10   29.42    0.87 
   1  -2  10  178.52    5.29 
  -1  -2 -10  186.26    5.29 
  -1  -2 -10  176.68    5.29 
  -1  -2 -10  182.84    5.29 
   1  -2  10  181.27    5.27 
   1   2  10  178.91    5.28 
  -1   2 -10  184.46    5.27 
  -1   2 -10  181.99    5.27 
   1   2  10  182.94    5.27 
   2  -2  10   15.39    0.53 
  -2  -2 -10   14.78    0.51 
  -2  -2 -10   15.52    0.52 
   2  -2  10   14.21    0.49 
   2   2  10   15.21    0.50 
  -2   2 -10   14.86    0.50 
   2   2  10   14.20    0.49 
  -2   2 -10   14.78    0.49 
  -3  -2 -10    0.41    0.17 
  -3  -2 -10    0.39    0.18 
   3  -2  10    0.32    0.22 
   3   2  10    0.41    0.15 
   3   2  10    0.38    0.13 
  -3   2 -10    0.26    0.13 
   4  -2  10   64.58    2.11 
   4  -2  10   65.69    2.10 
  -4  -2 -10   65.12    1.99 
  -4  -2 -10   65.11    2.00 
   4   2  10   67.95    2.06 
   4   2  10   66.04    2.01 
   5  -2  10    5.38    0.44 
  -5  -2 -10    5.53    0.31 
   5  -2  10    5.79    0.43 
   5   2  10    5.60    0.34 
   5   2  10    5.64    0.41 
   5   2  10    5.27    0.31 
  -5  -3  10    0.00    0.14 
   5  -3 -10   -0.01    0.23 
   5  -3 -10    0.04    0.15 
  -5   3  10    0.07    0.15 
   5   3 -10   -0.02    0.12 
   4  -3 -10    1.25    0.24 
   4  -3 -10    1.52    0.26 
   4  -3 -10    0.87    0.26 
  -4  -3  10    1.02    0.20 
  -4  -3  10    1.16    0.21 
   4  -3 -10    0.86    0.20 
  -4   3  10    0.80    0.19 
   3  -3 -10   -0.12    0.24 
   3  -3 -10    0.15    0.27 
   3  -3 -10    0.08    0.19 
  -3  -3  10   -0.03    0.20 
  -3  -3  10   -0.06    0.19 
   3  -3 -10    0.22    0.24 
   3  -3 -10   -0.02    0.28 
  -3  -3  10   -0.08    0.24 
   3  -3 -10   -0.09    0.24 
  -3   3  10    0.10    0.18 
  -2  -3  10   10.92    0.48 
  -2  -3  10   10.96    0.45 
   2  -3 -10   10.42    0.50 
   2  -3 -10   10.63    0.56 
   2  -3 -10   10.52    0.45 
  -2   3  10    9.34    0.42 
  -1  -3  10   12.25    0.48 
  -1  -3  10   11.77    0.46 
   1  -3 -10   10.98    0.45 
   1  -3 -10   11.39    0.49 
   1  -3 -10   11.75    0.44 
  -1   3  10   11.40    0.44 
   0  -3  10    0.07    0.13 
   0  -3 -10    0.05    0.12 
   0  -3 -10    0.04    0.14 
   0  -3 -10    0.01    0.19 
   0   3 -10   -0.01    0.11 
   0   3  10   -0.02    0.12 
   1  -3  10    3.30    0.25 
  -1  -3 -10    2.86    0.22 
  -1  -3 -10    3.04    0.25 
  -1   3 -10    2.89    0.19 
   1   3  10    2.93    0.21 
  -1   3 -10    3.35    0.20 
  -2  -3 -10    0.98    0.17 
   2  -3  10    1.18    0.26 
  -2  -3 -10    0.86    0.22 
  -2  -3 -10    1.43    0.22 
  -2  -3 -10    0.71    0.20 
  -2   3 -10    0.83    0.15 
   2   3  10    0.84    0.16 
   3  -3  10    9.77    0.51 
  -3  -3 -10    9.45    0.59 
  -3  -3 -10    9.18    0.56 
  -3  -3 -10   10.50    0.45 
  -3  -3 -10    9.85    0.50 
   3  -3  10   10.41    0.62 
  -3  -3 -10   10.55    0.46 
   3   3  10    9.93    0.52 
   3   3  10   10.28    0.43 
  -4  -3 -10    1.49    0.19 
  -4  -3 -10    1.24    0.26 
   4  -3  10    1.32    0.22 
  -4  -3 -10    0.92    0.20 
   4  -3  10    1.02    0.29 
   4   3  10    0.93    0.24 
   4   3  10    0.87    0.20 
   5  -3  10   -0.08    0.23 
   5  -3  10   -0.13    0.18 
  -5  -3 -10    0.01    0.12 
   5   3  10   -0.07    0.11 
  -4  -4  10    0.22    0.14 
   4  -4 -10    0.29    0.18 
   4  -4 -10    0.11    0.26 
   4  -4 -10    0.00    0.16 
  -4  -4  10    0.10    0.14 
   4  -4 -10    0.13    0.16 
   3  -4 -10   38.27    1.29 
  -3  -4  10   39.37    1.25 
   3  -4 -10   37.44    1.26 
   3  -4 -10   38.42    1.24 
   3  -4 -10   40.39    1.27 
  -3  -4  10   39.62    1.24 
   2  -4 -10    5.28    0.46 
   2  -4 -10    5.65    0.40 
  -2  -4  10    5.95    0.38 
   2  -4 -10    5.24    0.41 
   2  -4 -10    4.64    0.34 
   1  -4 -10   17.17    0.68 
   1  -4 -10   17.69    0.70 
   1  -4 -10   17.99    0.74 
   1  -4 -10   17.24    0.69 
   0  -4 -10    0.94    0.23 
   0  -4 -10    1.06    0.24 
   0  -4 -10    1.32    0.25 
   0  -4 -10    1.12    0.36 
   0  -4  10    1.63    0.31 
   0  -4 -10    1.44    0.25 
  -1  -4 -10    0.70    0.21 
  -1  -4 -10    0.97    0.23 
  -1  -4 -10    0.78    0.31 
  -1  -4 -10    0.65    0.23 
   1  -4  10    0.77    0.26 
   1   4  10    0.65    0.20 
  -2  -4 -10    0.01    0.26 
   2  -4  10    0.02    0.22 
  -2  -4 -10    0.14    0.19 
  -2  -4 -10    0.12    0.25 
  -2  -4 -10    0.00    0.21 
  -2  -4 -10    0.07    0.20 
  -3  -4 -10    2.49    0.26 
   3  -4  10    2.50    0.25 
  -3  -4 -10    3.07    0.31 
  -3  -4 -10    3.47    0.25 
  -3  -4 -10    2.04    0.21 
   3  -4  10    2.92    0.37 
   3   4  10    2.16    0.23 
  -4  -4 -10    2.48    0.22 
  -4  -4 -10    2.31    0.19 
   4  -4  10    2.57    0.20 
   4  -4  10    1.95    0.24 
  -4  -4 -10    2.45    0.20 
  -3  -5  10    0.56    0.18 
   3  -5 -10    0.57    0.14 
   2  -5 -10    0.30    0.18 
   2  -5 -10    0.24    0.18 
   2  -5 -10    0.42    0.16 
   2  -5 -10    0.28    0.18 
  -2  -5  10    0.39    0.15 
   1  -5 -10    0.16    0.17 
   1  -5 -10    0.46    0.20 
   1  -5 -10    0.32    0.19 
   1  -5 -10    0.32    0.20 
   0  -5 -10    7.17    0.36 
   0  -5 -10    6.74    0.40 
   0  -5 -10    7.42    0.38 
   1  -5  10    0.74    0.22 
  -1  -5 -10    0.72    0.16 
  -1  -5 -10    0.80    0.19 
  -1  -5 -10    0.85    0.21 
   2  -5  10    1.19    0.20 
  -2  -5 -10    1.27    0.21 
  -2  -5 -10    0.97    0.14 
  -2  -5 -10    1.28    0.19 
  -2  -5 -10    0.57    0.18 
  -3  -5 -10    1.23    0.23 
  -3  -5 -10    0.65    0.14 
  -3  -5 -10    0.77    0.14 
   6   0 -11    0.02    0.13 
  -5   0  11   -0.04    0.23 
   5   0 -11   -0.02    0.19 
   4   0 -11    0.00    0.23 
  -4   0  11   -0.04    0.18 
  -4   0  11    0.08    0.20 
   3   0 -11    0.08    0.11 
  -3   0  11    0.07    0.11 
  -2   0  11   -0.01    0.09 
   2   0 -11   -0.03    0.06 
  -2   0  11   -0.02    0.07 
   1   0 -11   -0.05    0.05 
   1   0 -11   -0.03    0.06 
  -1   0  11   -0.01    0.06 
   0   0 -11    0.01    0.04 
   0   0 -11    0.01    0.05 
   0   0  11   -0.01    0.05 
   0   0  11   -0.04    0.06 
  -1   0 -11    0.01    0.05 
   1   0  11    0.03    0.06 
  -1   0 -11   -0.02    0.04 
   1   0  11   -0.04    0.06 
  -2   0 -11   -0.03    0.07 
   2   0  11   -0.03    0.08 
   3   0  11   -0.05    0.10 
   4   0  11    0.06    0.22 
   4   0  11   -0.14    0.27 
   4   0  11    0.08    0.32 
   4   0  11   -0.02    0.20 
   5   0  11    0.06    0.24 
   5   0  11    0.27    0.27 
   5   0  11    0.05    0.28 
   6   0  11   -0.04    0.20 
   6  -1 -11    1.36    0.15 
   6   1 -11    1.01    0.19 
   5  -1 -11    1.56    0.28 
   5  -1 -11    1.62    0.22 
   5   1 -11    1.57    0.22 
  -5   1  11    1.52    0.22 
  -4  -1  11   28.49    1.03 
  -4  -1  11   31.23    1.04 
   4  -1 -11   30.26    1.02 
   4  -1 -11   30.21    1.04 
   4   1 -11   29.42    1.00 
  -4   1  11   31.27    1.01 
   3  -1 -11    3.90    0.24 
  -3  -1  11    3.55    0.27 
  -3   1  11    3.73    0.21 
  -2  -1  11   59.47    1.78 
  -2  -1  11   58.91    1.79 
   2  -1 -11   60.83    1.78 
   2  -1 -11   57.97    1.78 
  -2   1  11   59.92    1.77 
   2   1 -11   61.75    1.76 
  -1  -1  11    1.35    0.11 
   1  -1 -11    1.52    0.11 
   1  -1 -11    1.64    0.11 
   1  -1 -11    1.38    0.11 
  -1  -1  11    1.62    0.12 
   1   1 -11    1.49    0.09 
  -1   1  11    1.64    0.12 
  -1   1  11    1.51    0.12 
   0  -1 -11   14.20    0.46 
   0  -1 -11   14.52    0.44 
   0  -1  11   14.13    0.46 
   0  -1 -11   14.06    0.45 
   0  -1  11   14.18    0.46 
   0   1 -11   13.60    0.44 
   0   1 -11   14.35    0.44 
   0   1  11   14.51    0.45 
  -1  -1 -11   26.17    0.78 
  -1  -1 -11   25.60    0.78 
   1  -1  11   25.34    0.79 
   1  -1  11   24.80    0.78 
   1   1  11   25.37    0.77 
  -1   1 -11   25.97    0.78 
  -1   1 -11   26.63    0.77 
   1   1  11   24.99    0.78 
  -2  -1 -11   45.68    1.35 
  -2  -1 -11   44.84    1.36 
   2  -1  11   45.90    1.37 
  -2   1 -11   44.84    1.35 
   2   1  11   44.95    1.35 
   2   1  11   44.69    1.35 
  -2   1 -11   45.72    1.34 
  -3  -1 -11    0.89    0.22 
   3  -1  11    0.58    0.15 
  -3  -1 -11    0.45    0.15 
  -3   1 -11    0.28    0.12 
   3   1  11    0.69    0.22 
   3   1  11    0.58    0.12 
   4  -1  11    4.19    0.42 
   4  -1  11    3.01    0.36 
   4   1  11    2.55    0.25 
   4   1  11    3.58    0.35 
   5  -1  11    0.51    0.27 
   5  -1  11    0.39    0.29 
   5   1  11    0.37    0.26 
   5   1  11    0.29    0.20 
   5  -2 -11    0.85    0.23 
   5  -2 -11    1.03    0.19 
  -5  -2  11    0.93    0.20 
   5   2 -11    1.01    0.18 
  -5   2  11    0.85    0.18 
  -4  -2  11    0.11    0.21 
   4  -2 -11    0.18    0.23 
   4  -2 -11    0.39    0.25 
  -4   2  11    0.42    0.20 
  -3  -2  11    0.65    0.21 
   3  -2 -11    0.71    0.23 
   3  -2 -11    0.67    0.18 
   3  -2 -11    0.67    0.19 
  -3  -2  11    0.75    0.21 
  -3   2  11    0.46    0.15 
   3   2 -11    0.68    0.19 
  -3   2  11    0.65    0.19 
   2  -2 -11    0.30    0.12 
   2  -2 -11    0.37    0.14 
  -2  -2  11    0.44    0.14 
  -2  -2  11    0.59    0.14 
  -2   2  11    0.47    0.12 
  -1  -2  11   54.23    1.61 
   1  -2 -11   55.20    1.59 
   1  -2 -11   52.13    1.59 
   1  -2 -11   51.53    1.60 
  -1  -2  11   53.67    1.60 
   1   2 -11   52.30    1.56 
  -1   2  11   52.18    1.59 
   0  -2 -11    0.48    0.10 
   0  -2  11    0.43    0.10 
   0  -2  11    0.52    0.11 
   0  -2 -11    0.51    0.10 
   0   2 -11    0.49    0.09 
   0   2  11    0.42    0.09 
  -1  -2 -11   21.70    0.71 
   1  -2  11   21.96    0.72 
  -1  -2 -11   22.71    0.72 
   1   2  11   22.27    0.71 
  -1   2 -11   22.20    0.70 
  -1   2 -11   23.98    0.70 
  -2  -2 -11   15.49    0.54 
   2  -2  11   15.19    0.50 
   2  -2  11   14.95    0.54 
   2   2  11   15.64    0.51 
   2   2  11   14.86    0.51 
  -2   2 -11   14.45    0.50 
  -2   2 -11   15.66    0.51 
  -3  -2 -11   42.60    1.37 
   3  -2  11   42.27    1.37 
  -3  -2 -11   41.62    1.33 
  -3  -2 -11   41.07    1.31 
   3   2  11   42.19    1.30 
   3   2  11   43.03    1.38 
   3   2  11   42.50    1.30 
  -3   2 -11   42.46    1.30 
   4  -2  11    3.12    0.37 
  -4  -2 -11    3.29    0.26 
   4  -2  11    4.31    0.42 
  -4  -2 -11    4.14    0.33 
   4   2  11    4.34    0.36 
   4   2  11    4.06    0.33 
  -5  -2 -11   -0.03    0.16 
   5  -2  11    0.08    0.25 
   5  -2  11   -0.03    0.23 
   5   2  11   -0.13    0.15 
   5   2  11    0.11    0.23 
   5   2  11    0.03    0.17 
  -5  -3  11    8.04    0.34 
   5  -3 -11    7.20    0.33 
   5   3 -11    7.65    0.33 
  -4  -3  11    2.24    0.23 
   4  -3 -11    3.09    0.27 
   4  -3 -11    2.29    0.27 
   4  -3 -11    2.02    0.29 
  -4  -3  11    2.50    0.23 
  -4   3  11    1.79    0.21 
   3  -3 -11    3.30    0.33 
   3  -3 -11    3.27    0.35 
  -3  -3  11    3.81    0.35 
  -3  -3  11    3.98    0.33 
  -3  -3  11    4.15    0.34 
   3  -3 -11    4.12    0.34 
   3  -3 -11    3.82    0.32 
   3  -3 -11    3.30    0.31 
  -3   3  11    4.01    0.32 
  -2  -3  11    5.36    0.37 
   2  -3 -11    5.86    0.49 
  -2  -3  11    6.03    0.38 
   2  -3 -11    5.70    0.33 
   2  -3 -11    6.11    0.40 
  -2   3  11    5.15    0.29 
  -1  -3  11   -0.03    0.16 
  -1  -3  11    0.03    0.15 
   1  -3 -11   -0.04    0.13 
   1  -3 -11    0.03    0.20 
  -1  -3  11   -0.04    0.24 
   1  -3 -11   -0.13    0.16 
  -1   3  11    0.08    0.14 
   0  -3 -11    5.00    0.35 
   0  -3 -11    5.29    0.29 
   0  -3  11    4.84    0.31 
   0  -3 -11    5.69    0.32 
   0   3 -11    5.09    0.26 
   0   3  11    6.24    0.28 
   1  -3  11    5.65    0.34 
  -1  -3 -11    5.24    0.34 
   1  -3  11    4.91    0.42 
  -1  -3 -11    5.64    0.32 
   1   3  11    5.51    0.26 
  -1   3 -11    5.48    0.25 
  -1   3 -11    5.65    0.28 
  -2  -3 -11    2.24    0.25 
  -2  -3 -11    2.34    0.24 
   2  -3  11    1.57    0.25 
  -2  -3 -11    2.08    0.27 
   2   3  11    1.72    0.18 
  -2   3 -11    1.85    0.19 
  -3  -3 -11   28.92    1.16 
  -3  -3 -11   31.69    1.12 
   3  -3  11   31.85    1.09 
  -3  -3 -11   32.97    1.09 
  -3  -3 -11   32.44    1.05 
   3  -3  11   32.93    1.18 
  -3  -3 -11   31.98    1.04 
   3   3  11   33.83    1.04 
   3   3  11   32.97    1.11 
  -4  -3 -11    7.79    0.49 
  -4  -3 -11    8.22    0.38 
  -4  -3 -11    8.45    0.40 
   4  -3  11    8.85    0.43 
   4  -3  11    8.40    0.54 
   4   3  11    8.32    0.40 
   4   3  11    8.35    0.46 
  -5  -3 -11    3.60    0.20 
   5  -3  11    3.40    0.28 
   5   3  11    3.21    0.20 
   4  -4 -11    3.10    0.26 
  -4  -4  11    2.54    0.23 
  -4  -4  11    2.78    0.23 
   4  -4 -11    2.54    0.22 
   4  -4 -11    2.44    0.20 
   3  -4 -11   13.60    0.56 
   3  -4 -11   14.19    0.60 
  -3  -4  11   13.85    0.55 
   3  -4 -11   14.83    0.59 
   3  -4 -11   14.09    0.57 
  -3  -4  11   13.51    0.55 
   2  -4 -11   37.49    1.25 
   2  -4 -11   36.37    1.21 
   2  -4 -11   33.92    1.21 
   2  -4 -11   36.87    1.20 
  -2  -4  11   38.91    1.20 
   1  -4 -11    0.90    0.25 
   1  -4 -11    0.61    0.24 
   1  -4 -11    0.61    0.22 
   1  -4 -11    0.84    0.26 
   0  -4  11   20.13    0.80 
   0  -4 -11   19.33    0.74 
   0  -4 -11   20.59    0.75 
   0  -4 -11   20.42    0.87 
   0  -4 -11   20.26    0.77 
   0  -4 -11   19.41    0.73 
  -1  -4 -11   10.29    0.47 
  -1  -4 -11   10.23    0.48 
   1  -4  11   10.64    0.52 
  -1  -4 -11   10.45    0.51 
  -1  -4 -11   10.26    0.62 
  -2  -4 -11    2.02    0.31 
  -2  -4 -11    1.95    0.24 
  -2  -4 -11    2.30    0.23 
  -2  -4 -11    1.87    0.25 
   2  -4  11    2.05    0.28 
  -2  -4 -11    1.91    0.30 
   3  -4  11    1.25    0.22 
  -3  -4 -11    1.26    0.19 
  -3  -4 -11    1.87    0.27 
  -3  -4 -11    0.98    0.24 
  -3  -4 -11    1.37    0.24 
  -3  -4 -11    1.16    0.16 
   3   4  11    0.72    0.22 
   3   4  11    1.13    0.21 
   4  -4  11    0.41    0.20 
  -4  -4 -11    0.18    0.16 
  -4  -4 -11    0.19    0.12 
  -4  -4 -11    0.20    0.14 
   3  -5 -11    2.01    0.20 
   2  -5 -11    0.16    0.15 
   2  -5 -11   -0.03    0.17 
   2  -5 -11   -0.05    0.22 
   2  -5 -11    0.11    0.16 
  -2  -5  11    0.23    0.14 
   1  -5 -11   -0.01    0.16 
   1  -5 -11   -0.10    0.18 
   1  -5 -11    0.05    0.18 
   1  -5 -11   -0.02    0.17 
   0  -5 -11    4.49    0.31 
   0  -5 -11    4.32    0.29 
   0  -5 -11    3.82    0.33 
   0  -5 -11    3.75    0.29 
  -1  -5 -11    1.69    0.20 
   1  -5  11    1.59    0.24 
  -1  -5 -11    2.03    0.24 
  -1  -5 -11    1.35    0.17 
  -1  -5 -11    1.39    0.20 
  -2  -5 -11    0.00    0.12 
  -2  -5 -11    0.01    0.18 
   2  -5  11    0.01    0.17 
  -2  -5 -11    0.01    0.15 
   6   0 -12    0.12    0.13 
  -5   0  12   65.43    2.04 
   5   0 -12   66.65    2.01 
   4   0 -12    2.05    0.28 
  -4   0  12    1.76    0.25 
  -3   0  12    5.43    0.25 
   3   0 -12    5.33    0.26 
  -2   0  12    5.33    0.24 
   2   0 -12    5.17    0.22 
  -1   0  12  398.44   11.68 
   1   0 -12  396.61   11.67 
   1   0 -12  416.79   11.67 
   0   0  12   24.86    0.75 
   0   0 -12   24.76    0.74 
   0   0 -12   24.32    0.75 
   0   0  12   24.96    0.76 
   1   0  12   20.04    0.62 
   1   0  12   20.32    0.61 
  -1   0 -12   19.33    0.59 
  -1   0 -12   19.34    0.61 
   2   0  12   36.76    1.11 
  -2   0 -12   36.55    1.11 
  -3   0 -12    1.04    0.19 
   3   0  12    1.57    0.16 
   4   0  12    5.44    0.47 
   4   0  12    6.99    0.48 
   4   0  12    4.96    0.37 
   5   0  12    0.10    0.26 
   5   0  12   -0.06    0.27 
   6  -1 -12    4.06    0.25 
   5  -1 -12    0.19    0.25 
   5  -1 -12    0.35    0.18 
  -5   1  12    0.08    0.18 
   5   1 -12    0.28    0.19 
   4  -1 -12   61.05    1.83 
   4  -1 -12   57.68    1.84 
  -4  -1  12   58.22    1.84 
  -4  -1  12   59.40    1.85 
  -4   1  12   59.02    1.82 
   4   1 -12   58.29    1.84 
  -3  -1  12   60.74    1.81 
  -3   1  12   55.40    1.84 
  -3   1  12   62.05    1.79 
   2  -1 -12    3.07    0.17 
  -2  -1  12    2.87    0.19 
  -2  -1  12    2.93    0.19 
   2  -1 -12    2.47    0.19 
   2   1 -12    2.90    0.16 
  -2   1  12    2.95    0.16 
   1  -1 -12   21.63    0.65 
   1  -1 -12   20.23    0.66 
   1  -1 -12   20.19    0.64 
  -1  -1  12   21.18    0.66 
  -1  -1  12   20.63    0.66 
  -1   1  12   21.50    0.65 
   1   1 -12   21.69    0.64 
  -1   1  12   19.82    0.64 
   0  -1 -12   54.03    1.63 
   0  -1 -12   55.32    1.62 
   0  -1  12   55.21    1.63 
   0  -1 -12   54.64    1.61 
   0  -1  12   55.76    1.63 
   0   1 -12   56.25    1.61 
   0   1  12   51.78    1.62 
   0   1 -12   55.29    1.61 
   1  -1  12   41.24    1.24 
  -1  -1 -12   40.74    1.23 
  -1  -1 -12   41.43    1.23 
   1  -1  12   40.32    1.23 
   1   1  12   41.00    1.22 
  -1   1 -12   41.35    1.22 
  -1   1 -12   41.47    1.22 
   1   1  12   40.26    1.22 
  -2  -1 -12    0.76    0.11 
  -2  -1 -12    0.75    0.12 
   2  -1  12    0.94    0.12 
   2   1  12    0.85    0.10 
   2   1  12    0.79    0.10 
  -2   1 -12    0.67    0.10 
  -2   1 -12    0.65    0.10 
   3  -1  12    1.85    0.18 
  -3  -1 -12    2.13    0.21 
  -3   1 -12    1.33    0.15 
   3   1  12    1.86    0.22 
   3   1  12    2.02    0.16 
   4  -1  12   40.11    1.42 
   4  -1  12   41.65    1.43 
   4   1  12   43.39    1.34 
   4   1  12   41.49    1.42 
   4   1  12   44.49    1.41 
   5  -1  12   12.11    0.60 
   5  -1  12   12.91    0.62 
   5   1  12   11.81    0.58 
   5   1  12   12.42    0.52 
   5  -2 -12    0.05    0.16 
  -5  -2  12    0.15    0.18 
   5  -2 -12    0.20    0.22 
   5   2 -12    0.06    0.15 
  -5   2  12    0.06    0.17 
  -4  -2  12    3.03    0.28 
   4  -2 -12    1.97    0.25 
   4  -2 -12    2.36    0.29 
  -4   2  12    2.78    0.25 
  -3  -2  12    0.48    0.22 
   3  -2 -12    0.29    0.21 
   3  -2 -12    0.34    0.18 
  -3  -2  12    0.43    0.26 
  -3   2  12    0.50    0.15 
  -3   2  12    0.30    0.18 
  -2  -2  12   10.35    0.41 
   2  -2 -12   10.83    0.40 
  -2  -2  12    9.83    0.43 
   2  -2 -12   10.97    0.43 
  -2   2  12   10.42    0.39 
  -1  -2  12   20.28    0.68 
   1  -2 -12   20.59    0.68 
   1  -2 -12   20.23    0.65 
   1  -2 -12   20.47    0.66 
  -1  -2  12   19.80    0.67 
  -1   2  12   20.53    0.66 
   1   2 -12   20.75    0.63 
   0  -2 -12    2.48    0.19 
   0  -2 -12    2.50    0.18 
   0  -2  12    2.36    0.18 
   0  -2  12    1.99    0.16 
   0   2  12    2.71    0.15 
   0   2 -12    2.20    0.16 
   1  -2  12   14.32    0.48 
  -1  -2 -12   12.96    0.47 
  -1  -2 -12   13.76    0.47 
  -1   2 -12   13.40    0.45 
  -1   2 -12   13.20    0.45 
   1   2  12   13.36    0.45 
   2  -2  12    9.89    0.42 
  -2  -2 -12    9.94    0.41 
  -2   2 -12    9.72    0.37 
   2   2  12    9.86    0.37 
   2   2  12    9.70    0.37 
  -2   2 -12   10.95    0.38 
   3  -2  12   55.53    1.81 
  -3  -2 -12   56.02    1.78 
  -3  -2 -12   60.91    1.77 
  -3  -2 -12   56.70    1.80 
  -3   2 -12   56.92    1.74 
   3   2  12   59.94    1.75 
   3   2  12   57.08    1.82 
   3   2  12   58.55    1.75 
   4  -2  12    1.99    0.36 
  -4  -2 -12    1.92    0.25 
  -4  -2 -12    1.81    0.23 
   4  -2  12    1.16    0.32 
   4   2  12    1.83    0.29 
   4   2  12    1.74    0.24 
   5  -2  12    0.22    0.22 
   5  -2  12    0.37    0.25 
   5   2  12    0.06    0.17 
   5   2  12    0.24    0.22 
   5  -3 -12    1.61    0.17 
  -5  -3  12    1.72    0.17 
   5   3 -12    1.75    0.15 
   4  -3 -12   -0.04    0.23 
   4  -3 -12    0.02    0.18 
  -4  -3  12   -0.05    0.17 
  -4  -3  12    0.04    0.18 
   4  -3 -12   -0.11    0.22 
  -4   3  12    0.08    0.17 
   3  -3 -12    0.30    0.27 
   3  -3 -12    0.35    0.24 
   3  -3 -12    0.17    0.23 
  -3  -3  12    0.39    0.20 
  -3  -3  12    0.50    0.19 
   3  -3 -12    0.37    0.26 
   2  -3 -12   -0.09    0.22 
   2  -3 -12    0.19    0.27 
  -2  -3  12    0.16    0.21 
  -2  -3  12    0.03    0.28 
  -2  -3  12    0.09    0.21 
  -2  -3  12    0.00    0.18 
  -2  -3  12   -0.02    0.20 
   2  -3 -12    0.05    0.18 
   2  -3 -12    0.00    0.25 
  -2   3  12    0.00    0.15 
   1  -3 -12   41.18    1.26 
  -1  -3  12   39.92    1.28 
   1  -3 -12   39.91    1.30 
  -1  -3  12   39.94    1.35 
  -1  -3  12   41.65    1.29 
   1  -3 -12   42.52    1.29 
  -1   3  12   38.44    1.26 
   0  -3 -12   13.57    0.49 
   0  -3 -12   12.77    0.52 
   0  -3  12   12.23    0.61 
   0  -3 -12   12.82    0.51 
   0  -3  12   13.23    0.51 
   0   3  12   13.71    0.47 
   0   3 -12   12.55    0.46 
  -1  -3 -12    0.12    0.19 
   1  -3  12    0.02    0.21 
   1  -3  12    0.12    0.19 
  -1  -3 -12    0.05    0.17 
  -1   3 -12    0.03    0.13 
   1   3  12   -0.02    0.13 
  -2  -3 -12   47.50    1.48 
  -2  -3 -12   44.87    1.56 
   2  -3  12   44.84    1.49 
  -2  -3 -12   47.07    1.46 
  -2  -3 -12   44.96    1.53 
  -2  -3 -12   46.82    1.46 
  -2  -3 -12   45.88    1.44 
   2   3  12   46.29    1.42 
  -2   3 -12   48.07    1.42 
  -3  -3 -12   20.07    0.69 
  -3  -3 -12   18.07    0.82 
  -3  -3 -12   18.76    0.74 
  -3  -3 -12   20.30    0.69 
   3  -3  12   19.70    0.74 
   3  -3  12   19.85    0.86 
  -3  -3 -12   19.87    0.79 
   3   3  12   18.26    0.76 
   4  -3  12    0.94    0.30 
  -4  -3 -12    0.69    0.24 
  -4  -3 -12    0.59    0.20 
   4  -3  12    0.67    0.21 
  -4  -3 -12    0.40    0.15 
   4   3  12    0.63    0.19 
   4   3  12    0.75    0.23 
   5  -3  12    0.39    0.17 
  -5  -3 -12    0.34    0.13 
   5   3  12    0.13    0.11 
   4  -4 -12    2.46    0.19 
   4  -4 -12    2.88    0.23 
   4  -4 -12    2.04    0.20 
  -4  -4  12    2.67    0.22 
  -4  -4  12    2.78    0.23 
   4   4 -12    3.11    0.22 
   3  -4 -12    5.27    0.34 
  -3  -4  12    5.15    0.33 
   3  -4 -12    4.90    0.35 
   3  -4 -12    5.18    0.40 
  -3  -4  12    5.01    0.33 
   3  -4 -12    5.15    0.37 
   2  -4 -12   40.77    1.33 
   2  -4 -12   43.55    1.36 
  -2  -4  12   43.07    1.34 
   2  -4 -12   40.26    1.34 
   2  -4 -12   41.20    1.39 
   1  -4 -12    1.00    0.25 
   1  -4 -12    1.02    0.25 
   1  -4 -12    0.89    0.23 
   1  -4 -12    0.64    0.22 
  -1  -4  12    0.78    0.25 
   0  -4 -12    1.70    0.26 
   0  -4 -12    2.63    0.38 
   0  -4 -12    2.21    0.26 
   0  -4  12    2.44    0.32 
   0  -4 -12    2.26    0.26 
   0  -4 -12    2.79    0.28 
  -1  -4 -12    6.14    0.42 
   1  -4  12    6.40    0.47 
  -1  -4 -12    6.03    0.37 
  -1  -4 -12    6.05    0.51 
  -1  -4 -12    6.16    0.41 
   2  -4  12    0.08    0.21 
  -2  -4 -12    0.12    0.25 
  -2  -4 -12    0.16    0.16 
  -2  -4 -12   -0.01    0.19 
  -2  -4 -12    0.11    0.27 
  -2  -4 -12    0.03    0.20 
   3  -4  12    0.12    0.18 
  -3  -4 -12    0.03    0.20 
  -3  -4 -12    0.00    0.20 
  -3  -4 -12    0.04    0.13 
  -3  -4 -12    0.09    0.19 
  -3  -4 -12   -0.03    0.16 
   3   4  12   -0.05    0.21 
   3   4  12   -0.06    0.17 
  -4  -4 -12    0.23    0.14 
  -4  -4 -12    0.31    0.11 
   4  -4  12    0.21    0.20 
  -4  -4 -12    0.27    0.16 
   2  -5 -12    1.57    0.18 
   2  -5 -12    1.65    0.18 
   2  -5 -12    1.75    0.20 
  -2  -5  12    2.14    0.19 
   1  -5 -12    1.07    0.18 
   1  -5 -12    0.95    0.20 
   1  -5 -12    0.96    0.20 
   1  -5 -12    0.88    0.18 
   0  -5 -12    0.05    0.15 
   0  -5 -12    0.00    0.17 
   0  -5 -12   -0.04    0.18 
   0  -5 -12   -0.05    0.18 
  -1  -5 -12    1.82    0.17 
   1  -5  12    2.00    0.23 
  -1  -5 -12    1.76    0.22 
  -1  -5 -12    1.79    0.19 
  -1  -5 -12    1.88    0.20 
  -2  -5 -12    0.50    0.18 
  -2  -5 -12    0.56    0.12 
   2  -5  12    0.51    0.20 
  -2  -5 -12    0.73    0.17 
  -5   0  13   -0.03    0.21 
   5   0 -13    0.07    0.17 
   4   0 -13   -0.15    0.24 
  -4   0  13    0.08    0.20 
   3   0 -13    0.08    0.14 
  -2   0  13    0.04    0.10 
   2   0 -13    0.06    0.08 
   1   0 -13    0.07    0.06 
   1   0 -13   -0.03    0.05 
  -1   0  13    0.06    0.07 
   0   0 -13    0.15    0.07 
   0   0  13   -0.08    0.07 
   0   0 -13   -0.05    0.04 
   0   0  13   -0.09    0.06 
  -1   0 -13   -0.02    0.06 
  -1   0 -13   -0.02    0.05 
   1   0  13   -0.09    0.07 
   1   0  13   -0.10    0.07 
   2   0  13   -0.04    0.08 
  -2   0 -13    0.00    0.09 
   3   0  13   -0.10    0.13 
  -3   0 -13   -0.07    0.12 
   4   0  13    0.19    0.31 
   4   0  13   -0.04    0.26 
   5   0  13    0.12    0.26 
   5   0  13    0.10    0.26 
   5  -1 -13   -0.03    0.17 
   5   1 -13   -0.08    0.19 
  -5   1  13    0.02    0.19 
  -4  -1  13    1.59    0.28 
  -4  -1  13    1.29    0.26 
   4  -1 -13    1.56    0.26 
   4   1 -13    1.32    0.25 
  -4   1  13    1.63    0.24 
  -3  -1  13   48.12    1.48 
   3  -1 -13   43.81    1.46 
  -3  -1  13   47.33    1.46 
  -3   1  13   49.09    1.46 
  -3   1  13   45.10    1.42 
   2  -1 -13    4.14    0.21 
   2  -1 -13    4.28    0.23 
  -2  -1  13    3.93    0.23 
  -2   1  13    3.85    0.19 
   2   1 -13    4.51    0.19 
  -1  -1  13   30.10    0.93 
   1  -1 -13   31.08    0.91 
   1  -1 -13   29.86    0.92 
  -1  -1  13   30.11    0.92 
  -1   1  13   28.78    0.91 
  -1   1  13   30.06    0.91 
   1   1 -13   28.94    0.90 
   0  -1 -13    3.61    0.16 
   0  -1 -13    3.76    0.17 
   0  -1  13    3.77    0.19 
   0  -1 -13    3.87    0.18 
   0  -1  13    4.01    0.19 
   0   1  13    3.55    0.17 
   0   1 -13    3.78    0.16 
   0   1 -13    3.97    0.16 
   1  -1  13   55.24    1.65 
   1  -1  13   56.95    1.65 
  -1  -1 -13   53.93    1.64 
  -1  -1 -13   55.41    1.64 
  -1   1 -13   55.57    1.63 
  -1   1 -13   54.95    1.64 
   1   1  13   54.99    1.64 
   1   1  13   55.13    1.64 
  -2  -1 -13    0.73    0.12 
   2  -1  13    0.71    0.12 
  -2   1 -13    0.59    0.10 
  -2   1 -13    0.71    0.11 
   2   1  13    0.82    0.11 
   2   1  13    0.79    0.10 
  -3  -1 -13    1.05    0.21 
   3  -1  13    0.84    0.18 
   3   1  13    0.95    0.15 
   3   1  13    1.07    0.22 
  -3   1 -13    0.61    0.14 
   4  -1  13    5.15    0.44 
   4  -1  13    5.49    0.45 
   4   1  13    4.51    0.43 
   4   1  13    4.57    0.37 
   4   1  13    5.06    0.43 
   5  -1  13   32.01    1.11 
   5  -1  13   30.32    1.09 
   5   1  13   30.48    1.02 
   5   1  13   32.63    1.09 
  -5  -2  13    0.11    0.17 
   5  -2 -13    0.07    0.16 
   5  -2 -13    0.09    0.22 
  -5   2  13    0.05    0.16 
   5   2 -13    0.14    0.14 
   4  -2 -13    1.70    0.24 
  -4  -2  13    2.22    0.26 
   4  -2 -13    2.83    0.31 
  -4   2  13    2.03    0.23 
   3  -2 -13    8.52    0.47 
   3  -2 -13    8.51    0.46 
  -3  -2  13    8.21    0.44 
  -3  -2  13    8.52    0.48 
  -3  -2  13    7.99    0.50 
  -3  -2  13    7.51    0.43 
  -3   2  13    7.31    0.37 
  -3   2  13    7.95    0.38 
   2  -2 -13    0.25    0.15 
   2  -2 -13    0.39    0.16 
  -2  -2  13    0.39    0.16 
  -2  -2  13    0.25    0.16 
   2  -2 -13    0.28    0.20 
  -2   2  13    0.15    0.12 
  -1  -2  13    0.79    0.14 
   1  -2 -13    1.17    0.14 
  -1  -2  13    0.93    0.14 
   1  -2 -13    0.77    0.13 
   1  -2 -13    1.10    0.15 
   1   2 -13    0.90    0.10 
  -1   2  13    1.22    0.14 
   0  -2  13   13.45    0.47 
   0  -2 -13   13.80    0.46 
   0  -2  13   12.59    0.47 
   0  -2 -13   12.97    0.47 
   0   2 -13   13.14    0.44 
   0   2  13   13.70    0.45 
   1  -2  13    3.01    0.22 
  -1  -2 -13    2.95    0.20 
  -1  -2 -13    3.13    0.20 
   1   2  13    3.07    0.17 
  -1   2 -13    3.09    0.17 
  -1   2 -13    2.92    0.18 
  -2  -2 -13    2.33    0.20 
  -2  -2 -13    2.96    0.25 
   2  -2  13    2.49    0.21 
  -2   2 -13    2.14    0.17 
  -2   2 -13    2.43    0.18 
   2   2  13    2.76    0.19 
   2   2  13    2.81    0.19 
  -3  -2 -13   25.45    1.03 
  -3  -2 -13   26.29    0.87 
  -3  -2 -13   27.16    0.93 
  -3  -2 -13   21.37    0.90 
  -3  -2 -13   26.48    0.88 
   3   2  13   26.63    0.86 
   3   2  13   26.16    0.85 
   3   2  13   27.82    0.94 
  -3   2 -13   26.53    0.85 
   4  -2  13   20.59    0.84 
  -4  -2 -13   20.72    0.73 
   4  -2  13   20.35    0.85 
   4   2  13   20.77    0.73 
   4   2  13   19.26    0.79 
   5  -2  13    9.74    0.53 
   5  -2  13    9.78    0.50 
   5   2  13    9.88    0.42 
   5   2  13   10.07    0.49 
  -5  -3  13    2.88    0.22 
   5  -3 -13    3.15    0.23 
   5   3 -13    2.65    0.20 
  -4  -3  13   -0.03    0.18 
   4  -3 -13   -0.07    0.18 
   4  -3 -13    0.05    0.23 
  -4  -3  13    0.06    0.17 
   4  -3 -13   -0.03    0.22 
  -4   3  13   -0.08    0.17 
  -3  -3  13   -0.06    0.18 
  -3  -3  13   -0.02    0.18 
   3  -3 -13   -0.05    0.23 
   3  -3 -13   -0.15    0.24 
   3  -3 -13    0.15    0.23 
   3  -3 -13   -0.04    0.26 
  -2  -3  13    8.71    0.56 
  -2  -3  13    9.72    0.47 
  -2  -3  13    9.88    0.48 
   2  -3 -13    9.23    0.52 
   2  -3 -13    9.46    0.49 
   2  -3 -13   10.03    0.50 
   2  -3 -13    9.52    0.44 
   2  -3 -13    9.86    0.55 
  -2  -3  13    9.15    0.45 
  -2  -3  13    9.31    0.47 
  -2   3  13    9.15    0.57 
   1  -3 -13    3.34    0.29 
  -1  -3  13    4.41    0.30 
   1  -3 -13    3.22    0.33 
  -1  -3  13    2.64    0.31 
  -1  -3  13    3.06    0.26 
   1  -3 -13    3.45    0.25 
   1  -3 -13    4.36    0.29 
  -1   3  13    3.42    0.26 
   0  -3 -13    1.77    0.20 
   0  -3 -13    2.13    0.23 
   0  -3  13    1.92    0.23 
   0  -3 -13    2.14    0.25 
   0  -3  13    1.60    0.29 
   0   3  13    1.62    0.17 
   0   3  13    1.83    0.22 
  -1  -3 -13   17.08    0.63 
  -1  -3 -13   16.15    0.67 
   1  -3  13   17.66    0.64 
   1  -3  13   17.63    0.71 
  -1  -3 -13   17.46    0.64 
  -1   3 -13   17.30    0.59 
   1   3  13   17.26    0.59 
  -2  -3 -13   81.23    2.41 
  -2  -3 -13   78.02    2.38 
  -2  -3 -13   76.27    2.40 
  -2  -3 -13   79.51    2.52 
  -2  -3 -13   80.71    2.38 
  -2  -3 -13   76.78    2.46 
  -2  -3 -13   78.01    2.49 
   2  -3  13   79.06    2.43 
   2   3  13   80.77    2.37 
  -2   3 -13   80.49    2.36 
   3  -3  13    0.20    0.34 
  -3  -3 -13    0.88    0.24 
  -3  -3 -13    0.45    0.20 
  -3  -3 -13    0.53    0.20 
   3  -3  13    0.60    0.24 
  -3  -3 -13    0.27    0.28 
  -3  -3 -13    0.37    0.27 
   3   3  13    0.47    0.24 
  -4  -3 -13    4.40    0.40 
  -4  -3 -13    4.17    0.30 
   4  -3  13    4.23    0.35 
   4  -3  13    4.77    0.44 
  -4  -3 -13    3.87    0.28 
   4   3  13    4.40    0.38 
   4   3  13    4.51    0.30 
   5  -3  13    0.04    0.16 
   4  -4 -13    1.13    0.14 
  -4  -4  13    1.21    0.15 
  -4  -4  13    1.12    0.14 
   4  -4 -13    1.40    0.21 
   4   4 -13    1.14    0.14 
   3  -4 -13    0.43    0.19 
   3  -4 -13    0.09    0.17 
  -3  -4  13    0.17    0.16 
   3  -4 -13    0.21    0.21 
   3  -4 -13    0.16    0.19 
  -3  -4  13   -0.02    0.16 
   2  -4 -13    7.62    0.42 
  -2  -4  13    7.53    0.41 
   2  -4 -13    7.75    0.45 
   2  -4 -13    7.48    0.48 
   2  -4 -13    7.56    0.42 
   1  -4 -13   17.60    0.67 
  -1  -4  13   16.32    0.65 
   1  -4 -13   16.74    0.66 
  -1  -4  13   16.65    0.76 
   1  -4 -13   17.15    0.70 
   1  -4 -13   16.44    0.66 
   0  -4 -13    1.34    0.24 
   0  -4 -13    1.61    0.27 
   0  -4 -13    1.67    0.25 
   0  -4 -13    1.51    0.35 
   0  -4  13    1.13    0.29 
   0  -4 -13    1.36    0.24 
  -1  -4 -13   13.91    0.68 
  -1  -4 -13   13.06    0.83 
  -1  -4 -13   14.00    0.55 
  -1  -4 -13   13.15    0.59 
  -1  -4 -13   14.78    0.58 
   1  -4  13   13.21    0.62 
  -1  -4 -13   13.57    0.55 
  -2  -4 -13    0.04    0.19 
  -2  -4 -13    0.08    0.18 
  -2  -4 -13    0.29    0.16 
  -2  -4 -13    0.32    0.28 
  -2  -4 -13    0.42    0.24 
   2  -4  13    0.29    0.23 
  -3  -4 -13    9.49    0.44 
  -3  -4 -13    9.29    0.40 
  -3  -4 -13    8.83    0.47 
   3  -4  13   10.27    0.45 
  -3  -4 -13    9.32    0.48 
  -3  -4 -13    9.70    0.39 
   3   4  13    9.32    0.41 
   3   4  13    9.69    0.46 
   4  -4  13   11.86    0.52 
  -4  -4 -13   12.26    0.42 
  -4  -4 -13   13.36    0.48 
  -2  -5  13    6.53    0.32 
   2  -5 -13    7.06    0.33 
   2  -5 -13    6.33    0.30 
   2  -5 -13    7.33    0.32 
   1  -5 -13    0.85    0.19 
   1  -5 -13    0.66    0.16 
   1  -5 -13    0.33    0.18 
   1  -5 -13    0.57    0.16 
   0  -5 -13    0.76    0.18 
   0  -5 -13    0.75    0.17 
   0  -5 -13    0.62    0.18 
   0  -5 -13    0.56    0.16 
  -1  -5 -13    0.98    0.15 
   1  -5  13    0.94    0.21 
  -1  -5 -13    0.81    0.17 
  -1  -5 -13    1.11    0.18 
  -1  -5 -13    1.09    0.20 
  -2  -5 -13   -0.06    0.11 
  -2  -5 -13   -0.10    0.14 
  -2  -5 -13   -0.12    0.16 
   5   0 -14    0.28    0.18 
  -5   0  14    0.49    0.22 
   4   0 -14    1.13    0.26 
  -4   0  14    0.89    0.22 
   3   0 -14    5.16    0.27 
  -3   0  14    4.56    0.31 
   2   0 -14   44.65    1.32 
  -2   0  14   42.90    1.33 
  -1   0  14   99.90    2.96 
   1   0 -14  100.59    2.95 
   1   0 -14  102.00    2.94 
   0   0 -14    8.42    0.28 
   0   0 -14    7.75    0.29 
   0   0  14    8.12    0.29 
   0   0  14    7.96    0.30 
  -1   0 -14    0.01    0.06 
  -1   0 -14    0.12    0.07 
   1   0  14   -0.01    0.07 
   1   0  14    0.04    0.08 
   2   0  14   88.39    2.61 
  -2   0 -14   88.24    2.60 
   3   0  14    5.49    0.31 
  -3   0 -14    4.97    0.27 
   4   0  14    1.98    0.31 
   4   0  14    1.98    0.34 
   5   0  14    0.00    0.25 
   5   0  14   -0.11    0.25 
  -5  -1  14    0.06    0.24 
   5  -1 -14    0.03    0.16 
  -5   1  14    0.17    0.18 
  -4  -1  14   18.17    0.73 
   4  -1 -14   18.30    0.71 
  -4  -1  14   18.45    0.73 
   4   1 -14   19.05    0.71 
  -4   1  14   19.40    0.70 
  -3  -1  14   21.95    0.77 
  -3  -1  14   21.85    0.75 
  -3   1  14   21.23    0.75 
  -3   1  14   20.33    0.70 
   2  -1 -14    1.84    0.17 
   2  -1 -14    2.89    0.18 
  -2  -1  14    2.72    0.20 
   2   1 -14    2.35    0.16 
  -2   1  14    2.37    0.16 
  -1  -1  14    2.76    0.18 
   1  -1 -14    2.66    0.15 
   1  -1 -14    2.68    0.17 
  -1  -1  14    2.67    0.20 
  -1   1  14    2.43    0.16 
  -1   1  14    2.67    0.16 
   1   1 -14    2.70    0.14 
   0  -1 -14    2.35    0.15 
   0  -1 -14    2.51    0.16 
   0  -1  14    2.55    0.16 
   0  -1  14    2.29    0.17 
   0  -1 -14    2.54    0.14 
   0   1 -14    2.57    0.14 
   0   1 -14    2.92    0.14 
   0   1  14    2.35    0.16 
   1  -1  14    1.11    0.12 
   1  -1  14    0.93    0.12 
  -1  -1 -14    0.97    0.12 
   1   1  14    0.80    0.11 
   1   1  14    0.85    0.11 
  -1   1 -14    0.89    0.09 
  -1   1 -14    0.99    0.10 
   2  -1  14    9.87    0.38 
  -2  -1 -14   10.40    0.38 
   2   1  14   10.09    0.36 
  -2   1 -14    9.57    0.37 
   2   1  14    9.86    0.37 
  -3  -1 -14    0.64    0.23 
  -3  -1 -14    0.45    0.21 
   3  -1  14    0.43    0.18 
   3   1  14    0.33    0.25 
   3   1  14    0.39    0.14 
  -3   1 -14    0.26    0.14 
   3   1  14    0.68    0.23 
   4  -1  14   11.50    0.62 
   4  -1  14   10.94    0.64 
   4   1  14   11.44    0.59 
   4   1  14   11.73    0.52 
   4   1  14   11.78    0.61 
   5  -1  14   12.95    0.61 
   5  -1  14   13.52    0.62 
   5   1  14   13.83    0.61 
   5   1  14   13.34    0.54 
   5  -2 -14    0.16    0.16 
  -5  -2  14    0.28    0.16 
   5  -2 -14    0.06    0.24 
  -5   2  14    0.28    0.16 
   5   2 -14    0.16    0.13 
  -4  -2  14    1.78    0.24 
   4  -2 -14    2.07    0.29 
   4  -2 -14    1.20    0.22 
   4   2 -14    1.40    0.22 
  -4   2  14    1.72    0.21 
  -3  -2  14    8.81    0.44 
  -3  -2  14    8.27    0.47 
  -3  -2  14    9.13    0.47 
   3  -2 -14    8.58    0.48 
   3  -2 -14    8.96    0.49 
  -3  -2  14    8.99    0.49 
  -3   2  14    8.13    0.42 
   2  -2 -14    0.04    0.15 
  -2  -2  14    0.05    0.17 
   2  -2 -14    0.16    0.16 
  -2  -2  14   -0.04    0.16 
  -2  -2  14    0.16    0.24 
   2  -2 -14    0.08    0.21 
  -2   2  14    0.01    0.13 
   1  -2 -14    6.19    0.28 
  -1  -2  14    6.63    0.32 
   1  -2 -14    6.27    0.30 
  -1  -2  14    6.74    0.31 
   1  -2 -14    6.37    0.30 
  -1   2  14    6.56    0.29 
   1   2 -14    6.74    0.26 
   0  -2 -14   10.70    0.41 
   0  -2 -14   10.98    0.40 
   0  -2  14   11.57    0.42 
   0  -2  14   10.76    0.42 
   0   2 -14   10.35    0.38 
   0   2  14   10.23    0.39 
  -1  -2 -14    4.55    0.25 
  -1  -2 -14    4.70    0.26 
   1  -2  14    5.13    0.27 
  -1   2 -14    4.29    0.22 
  -1   2 -14    4.34    0.22 
   1   2  14    5.14    0.22 
   2  -2  14    0.04    0.26 
  -2  -2 -14    0.24    0.15 
   2  -2  14    0.16    0.17 
  -2  -2 -14    0.43    0.20 
  -2   2 -14    0.24    0.12 
   2   2  14    0.33    0.12 
  -2   2 -14    0.24    0.12 
   2   2  14    0.26    0.13 
  -3  -2 -14    0.52    0.27 
  -3  -2 -14    0.27    0.23 
  -3  -2 -14    0.24    0.35 
   3  -2  14    0.62    0.36 
  -3  -2 -14    0.47    0.19 
  -3  -2 -14    0.34    0.24 
   3   2  14    0.50    0.17 
   3   2  14    0.69    0.31 
   3   2  14    0.61    0.26 
  -3   2 -14    0.48    0.18 
   3   2  14    0.40    0.17 
  -4  -2 -14    1.24    0.22 
   4  -2  14    1.71    0.34 
   4   2  14    1.65    0.28 
   4   2  14    1.40    0.23 
   5  -2  14    2.98    0.30 
   5  -2  14    2.49    0.27 
   5   2  14    2.28    0.26 
   5   2  14    2.95    0.23 
   4  -3 -14    1.96    0.21 
  -4  -3  14    2.57    0.22 
  -4  -3  14    2.67    0.23 
   4  -3 -14    1.79    0.24 
   4   3 -14    3.12    0.23 
  -4   3  14    2.40    0.23 
  -3  -3  14    1.81    0.22 
   3  -3 -14    2.37    0.27 
   3  -3 -14    2.74    0.30 
  -3  -3  14    2.15    0.24 
   3  -3 -14    1.45    0.29 
   3  -3 -14    1.73    0.27 
  -2  -3  14   39.19    1.31 
  -2  -3  14   40.18    1.35 
  -2  -3  14   39.64    1.29 
  -2  -3  14   41.15    1.30 
   2  -3 -14   40.22    1.31 
   2  -3 -14   39.99    1.29 
   2  -3 -14   40.44    1.32 
   2  -3 -14   38.74    1.29 
   2  -3 -14   39.87    1.35 
   1  -3 -14   23.39    0.82 
   1  -3 -14   24.20    0.88 
   1  -3 -14   24.24    0.85 
   1  -3 -14   23.58    0.80 
  -1  -3  14   23.65    0.83 
  -1  -3  14   24.46    0.85 
  -1  -3  14   23.44    0.88 
  -1   3  14   24.29    0.81 
   0  -3 -14   20.71    0.74 
   0  -3  14   21.26    0.72 
   0  -3 -14   20.30    0.70 
   0  -3  14   21.04    0.80 
   0  -3 -14   20.82    0.73 
   0  -3 -14   20.50    0.78 
   0   3  14   17.95    0.68 
   0   3  14   20.01    0.71 
  -1  -3 -14   19.52    0.69 
  -1  -3 -14   19.67    0.69 
   1  -3  14   19.02    0.76 
   1  -3  14   19.10    0.70 
  -1  -3 -14   18.77    0.72 
   1   3  14   18.22    0.64 
  -2  -3 -14   76.15    2.29 
  -2  -3 -14   76.82    2.31 
   2  -3  14   74.53    2.34 
  -2  -3 -14   74.79    2.29 
  -2  -3 -14   73.60    2.40 
  -2  -3 -14   74.76    2.37 
  -2  -3 -14   75.23    2.32 
   2   3  14   77.41    2.27 
  -2   3 -14   78.78    2.28 
  -3  -3 -14    8.60    0.41 
   3  -3  14    7.79    0.62 
   3  -3  14    8.44    0.47 
  -3  -3 -14    7.95    0.52 
  -3  -3 -14    8.49    0.46 
  -3  -3 -14    8.39    0.55 
  -3  -3 -14    8.41    0.40 
   3   3  14    8.02    0.48 
  -4  -3 -14    3.58    0.26 
  -4  -3 -14    3.93    0.28 
   4  -3  14    4.14    0.35 
  -4  -3 -14    4.41    0.32 
   4   3  14    3.18    0.28 
   4   3  14    4.12    0.36 
   5  -3  14    2.10    0.26 
  -4  -4  14    3.27    0.26 
  -4  -4  14    2.82    0.26 
   4   4 -14    3.11    0.24 
   3  -4 -14    7.10    0.36 
   3  -4 -14    7.70    0.36 
   3  -4 -14    7.26    0.40 
  -3  -4  14    7.49    0.37 
  -3  -4  14    7.52    0.37 
   3  -4 -14    6.95    0.39 
   2  -4 -14    1.25    0.26 
   2  -4 -14    1.37    0.22 
  -2  -4  14    1.07    0.20 
   2  -4 -14    1.03    0.21 
   2  -4 -14    1.31    0.24 
   1  -4 -14    0.63    0.23 
   1  -4 -14    0.65    0.26 
   1  -4 -14    0.35    0.20 
   1  -4 -14    0.61    0.21 
  -1  -4  14    0.31    0.30 
  -1  -4  14    0.47    0.21 
   0  -4 -14   12.06    0.56 
   0  -4 -14   11.53    0.50 
   0  -4  14   10.90    0.59 
   0  -4 -14   10.95    0.51 
   0  -4 -14   11.40    0.63 
   0  -4 -14   10.74    0.51 
  -1  -4 -14    2.60    0.25 
  -1  -4 -14    1.88    0.36 
   1  -4  14    1.77    0.28 
  -1  -4 -14    2.44    0.26 
  -1  -4 -14    2.39    0.26 
  -1  -4 -14    2.09    0.32 
  -1  -4 -14    2.21    0.23 
  -2  -4 -14    0.07    0.18 
  -2  -4 -14    0.00    0.25 
  -2  -4 -14   -0.06    0.23 
  -2  -4 -14   -0.02    0.18 
   2  -4  14   -0.15    0.21 
  -2  -4 -14    0.20    0.15 
  -3  -4 -14    1.23    0.21 
   3  -4  14    0.96    0.20 
  -3  -4 -14    1.33    0.20 
  -3  -4 -14    1.21    0.17 
  -3  -4 -14    1.43    0.17 
  -3  -4 -14    1.00    0.22 
   3   4  14    1.09    0.18 
   3   4  14    1.20    0.22 
   2  -5 -14    1.89    0.17 
   2  -5 -14    1.58    0.18 
   2  -5 -14    2.14    0.17 
   1  -5 -14    0.24    0.15 
   1  -5 -14    0.06    0.17 
   1  -5 -14    0.15    0.16 
   1  -5 -14    0.05    0.13 
   0  -5 -14    0.20    0.13 
   0  -5 -14    0.30    0.16 
   0  -5 -14    0.51    0.17 
   0  -5 -14    0.37    0.17 
  -1  -5 -14    0.07    0.15 
  -1  -5 -14    0.22    0.13 
   1  -5  14    0.07    0.19 
  -1  -5 -14    0.20    0.16 
  -1  -5 -14    0.18    0.16 
  -2  -5 -14   -0.02    0.11 
  -2  -5 -14   -0.03    0.14 
   5   0 -15    0.09    0.17 
  -5   0  15    0.03    0.20 
  -4   0  15   -0.08    0.22 
   4   0 -15   -0.06    0.23 
  -3   0  15   -0.01    0.17 
  -2   0  15    0.08    0.12 
   2   0 -15    0.04    0.09 
  -1   0  15   -0.03    0.08 
   1   0 -15    0.09    0.07 
   1   0 -15    0.04    0.08 
   0   0  15   -0.06    0.07 
   0   0 -15   -0.01    0.06 
   0   0  15   -0.08    0.09 
   0   0 -15   -0.02    0.07 
   1   0  15    0.06    0.08 
   1   0  15    0.05    0.09 
  -1   0 -15    0.02    0.07 
  -1   0 -15    0.00    0.06 
  -2   0 -15    0.01    0.10 
   2   0  15    0.07    0.11 
  -3   0 -15    0.01    0.14 
   3   0  15   -0.05    0.15 
   4   0  15   -0.06    0.26 
   4   0  15    0.04    0.29 
   5   0  15    0.02    0.24 
   5   0  15   -0.03    0.24 
   5  -1 -15    1.38    0.20 
  -5  -1  15    0.87    0.24 
  -5   1  15    0.88    0.20 
  -4  -1  15   28.13    0.96 
   4  -1 -15   26.64    0.94 
  -4  -1  15   27.20    0.98 
   4   1 -15   28.06    0.94 
  -4   1  15   26.91    0.94 
  -3  -1  15    4.59    0.35 
  -3  -1  15    4.65    0.35 
  -3   1  15    4.73    0.34 
  -3   1  15    4.03    0.26 
   2  -1 -15    0.30    0.14 
  -2  -1  15    0.17    0.13 
   2  -1 -15    0.41    0.13 
  -2   1  15    0.21    0.10 
   2   1 -15    0.21    0.11 
   1  -1 -15    7.71    0.31 
  -1  -1  15    7.99    0.32 
   1  -1 -15    7.36    0.29 
  -1  -1  15    7.69    0.32 
   1   1 -15    8.46    0.29 
  -1   1  15    7.93    0.31 
   0  -1 -15   33.50    0.99 
   0  -1  15   32.03    1.01 
   0  -1  15   31.69    1.01 
   0  -1 -15   33.05    1.01 
   0   1 -15   33.73    0.99 
   0   1  15   32.99    1.01 
   0   1 -15   32.40    0.99 
   1  -1  15    1.77    0.15 
   1  -1  15    1.83    0.16 
  -1  -1 -15    2.01    0.15 
  -1   1 -15    2.07    0.14 
  -1   1 -15    1.90    0.14 
   1   1  15    2.14    0.15 
   1   1  15    1.97    0.15 
  -2  -1 -15    1.05    0.13 
   2  -1  15    1.31    0.16 
   2   1  15    1.41    0.14 
  -2   1 -15    1.57    0.16 
   2   1  15    1.33    0.15 
   3  -1  15    0.10    0.18 
  -3  -1 -15    0.33    0.22 
  -3   1 -15    0.15    0.14 
   3   1  15    0.05    0.15 
   3   1  15    0.27    0.23 
   4  -1  15   53.81    1.75 
   4  -1  15   54.78    1.75 
   4   1  15   51.20    1.66 
   4   1  15   53.49    1.72 
   4   1  15   54.21    1.72 
   5  -1  15    4.68    0.43 
   5  -1  15    4.48    0.42 
   5   1  15    5.09    0.41 
   5  -2 -15    5.15    0.30 
  -5  -2  15    4.92    0.31 
  -5   2  15    4.98    0.32 
   5   2 -15    5.44    0.28 
  -4  -2  15   20.25    0.74 
  -4  -2  15   19.23    0.80 
   4  -2 -15   19.96    0.76 
   4  -2 -15   19.61    0.72 
  -4   2  15   19.57    0.72 
   4   2 -15   21.29    0.74 
   3  -2 -15   41.85    1.33 
   3  -2 -15   40.14    1.32 
  -3  -2  15   40.51    1.30 
  -3  -2  15   39.93    1.32 
  -3  -2  15   39.69    1.35 
  -3  -2  15   41.56    1.32 
  -3   2  15   39.72    1.28 
   2  -2 -15    8.70    0.39 
  -2  -2  15    7.59    0.49 
  -2  -2  15    8.31    0.39 
  -2  -2  15    8.50    0.39 
   2  -2 -15    8.20    0.45 
  -2   2  15    8.42    0.37 
  -1  -2  15   33.38    1.05 
   1  -2 -15   33.37    1.04 
   1  -2 -15   32.19    1.03 
   1  -2 -15   33.27    1.02 
  -1  -2  15   32.00    1.05 
  -1   2  15   33.10    1.03 
   1   2 -15   32.59    1.00 
   0  -2  15    0.39    0.13 
   0  -2  15    0.18    0.13 
   0  -2 -15    0.42    0.12 
   0  -2 -15    0.21    0.13 
   0   2  15    0.20    0.11 
   0   2 -15    0.32    0.10 
   0   2  15    0.30    0.12 
  -1  -2 -15   25.25    0.81 
  -1  -2 -15   24.31    0.80 
   1  -2  15   24.22    0.82 
   1   2  15   25.47    0.79 
  -1   2 -15   24.06    0.78 
  -1   2 -15   24.50    0.78 
  -2  -2 -15    0.01    0.19 
   2  -2  15    0.08    0.17 
   2  -2  15    0.03    0.26 
  -2  -2 -15    0.13    0.17 
   2   2  15    0.04    0.12 
  -2   2 -15    0.17    0.15 
   2   2  15    0.09    0.13 
  -3  -2 -15    0.39    0.24 
  -3  -2 -15    0.28    0.20 
   3  -2  15    0.76    0.36 
  -3  -2 -15    0.48    0.24 
  -3  -2 -15    0.66    0.35 
   3   2  15    0.58    0.20 
   3   2  15    0.36    0.26 
  -3   2 -15    0.40    0.20 
   3   2  15    0.54    0.22 
   3   2  15    0.34    0.27 
   4  -2  15    5.52    0.49 
  -4  -2 -15    5.09    0.36 
   4   2  15    5.69    0.44 
   4   2  15    5.27    0.36 
   5  -2  15    2.07    0.25 
   5   2  15    1.59    0.23 
  -4  -3  15    4.48    0.31 
  -4  -3  15    4.38    0.31 
   4  -3 -15    4.48    0.36 
   4  -3 -15    4.26    0.31 
  -4   3  15    4.32    0.33 
   4   3 -15    4.54    0.30 
   3  -3 -15    0.98    0.22 
   3  -3 -15    1.19    0.29 
   3  -3 -15    0.99    0.25 
  -3  -3  15    1.04    0.20 
  -3  -3  15    1.57    0.22 
  -2  -3  15   19.45    0.79 
   2  -3 -15   17.89    0.73 
   2  -3 -15   19.65    0.78 
  -2  -3  15   19.15    0.71 
   2  -3 -15   18.99    0.73 
  -2  -3  15   19.23    0.71 
   2  -3 -15   16.17    0.72 
   2  -3 -15   19.88    0.73 
  -1  -3  15   65.62    2.03 
   1  -3 -15   61.68    2.10 
   1  -3 -15   66.65    2.07 
   1  -3 -15   65.12    1.99 
  -1  -3  15   65.39    2.02 
  -1  -3  15   64.66    2.07 
   1  -3 -15   67.98    2.03 
  -1  -3  15   66.24    2.03 
   1  -3 -15   68.96    2.04 
   1  -3 -15   66.92    2.03 
  -1   3  15   65.12    2.00 
   0  -3 -15    3.78    0.35 
   0  -3 -15    3.46    0.27 
   0  -3  15    3.72    0.34 
   0  -3 -15    3.27    0.27 
   0  -3  15    4.05    0.30 
   0  -3 -15    4.05    0.29 
   0   3  15    3.62    0.27 
  -1  -3 -15    2.96    0.30 
  -1  -3 -15    2.26    0.24 
  -1  -3 -15    3.33    0.42 
  -1  -3 -15    3.19    0.27 
   1  -3  15    2.67    0.31 
   1  -3  15    3.37    0.30 
  -1  -3 -15    3.03    0.36 
  -1  -3 -15    2.82    0.28 
   1   3  15    2.63    0.21 
  -2  -3 -15    1.15    0.21 
  -2  -3 -15    1.53    0.35 
  -2  -3 -15    1.00    0.23 
   2  -3  15    1.40    0.26 
  -2  -3 -15    1.67    0.32 
  -2  -3 -15    0.89    0.21 
  -2  -3 -15    1.44    0.24 
   2   3  15    1.58    0.20 
  -2   3 -15    0.86    0.24 
  -3  -3 -15    6.90    0.37 
  -3  -3 -15    6.84    0.49 
  -3  -3 -15    6.85    0.42 
  -3  -3 -15    7.00    0.36 
   3  -3  15    6.26    0.57 
   3  -3  15    6.82    0.45 
  -3  -3 -15    7.09    0.52 
   3   3  15    7.06    0.44 
   4  -3  15    0.25    0.25 
  -4  -3 -15    0.08    0.17 
  -4  -3 -15    0.21    0.15 
  -4  -3 -15    0.05    0.21 
   4   3  15    0.20    0.16 
   4   3  15    0.13    0.21 
   3  -4 -15   15.99    0.61 
   3  -4 -15   15.70    0.57 
  -3  -4  15   16.22    0.57 
   3  -4 -15   15.51    0.58 
  -3  -4  15   16.28    0.57 
   3  -4 -15   16.18    0.58 
   3   4 -15   14.64    0.56 
   2  -4 -15    0.08    0.21 
   2  -4 -15    0.17    0.19 
   2  -4 -15    0.13    0.22 
   2  -4 -15    0.19    0.18 
  -2  -4  15   -0.01    0.16 
   1  -4 -15    0.03    0.18 
  -1  -4  15   -0.07    0.28 
   1  -4 -15   -0.15    0.21 
  -1  -4  15   -0.04    0.19 
   1  -4 -15    0.06    0.20 
   1  -4 -15    0.08    0.23 
   0  -4 -15    9.64    0.51 
   0  -4 -15   10.19    0.48 
   0  -4 -15    9.66    0.46 
   0  -4  15    9.63    0.55 
   0  -4 -15    9.38    0.60 
   0  -4 -15   10.27    0.48 
  -1  -4 -15    1.32    0.23 
  -1  -4 -15    1.40    0.30 
  -1  -4 -15    1.20    0.23 
   1  -4  15    1.31    0.26 
  -1  -4 -15    1.74    0.23 
  -1  -4 -15    1.39    0.20 
  -1  -4 -15    1.99    0.36 
  -2  -4 -15    0.24    0.25 
  -2  -4 -15    0.02    0.17 
  -2  -4 -15    0.26    0.19 
  -2  -4 -15    0.05    0.15 
   2  -4  15    0.19    0.21 
  -2  -4 -15    0.13    0.23 
  -3  -4 -15    6.22    0.31 
   3  -4  15    6.60    0.35 
  -3  -4 -15    6.72    0.30 
  -3  -4 -15    6.39    0.35 
  -3  -4 -15    6.72    0.41 
  -3  -4 -15    6.56    0.35 
   3   4  15    6.31    0.33 
   3   4  15    6.27    0.38 
   2  -5 -15    7.03    0.31 
   2  -5 -15    8.09    0.39 
   1  -5 -15    0.28    0.16 
   1  -5 -15    0.49    0.14 
   1  -5 -15    0.41    0.14 
   0  -5 -15    0.23    0.16 
   0  -5 -15    0.37    0.15 
   0  -5 -15    0.33    0.14 
   0  -5 -15    0.46    0.17 
  -1  -5 -15    0.58    0.13 
  -1  -5 -15    0.61    0.17 
  -1  -5 -15    0.56    0.16 
  -2  -5 -15    3.79    0.26 
  -2  -5 -15    3.82    0.19 
   5   0 -16    6.27    0.35 
  -5   0  16    6.50    0.39 
   4   0 -16    1.66    0.26 
  -4   0  16    2.27    0.28 
  -3   0  16   27.59    0.95 
  -2   0  16    0.05    0.13 
   2   0 -16    0.01    0.10 
   1   0 -16    1.15    0.10 
   1   0 -16    1.55    0.13 
  -1   0  16    1.30    0.13 
   0   0  16    1.60    0.13 
   0   0  16    1.40    0.13 
   0   0 -16    1.37    0.11 
   0   0 -16    1.54    0.11 
   1   0  16   78.28    2.33 
   1   0  16   78.50    2.33 
  -1   0 -16   79.84    2.33 
   2   0  16   80.83    2.38 
  -2   0 -16   78.52    2.36 
   3   0  16    3.53    0.26 
  -3   0 -16    3.74    0.25 
   3   0  16    3.57    0.36 
   4   0  16    3.03    0.35 
   4   0  16    3.03    0.36 
   5   0  16   41.07    1.34 
   5   0  16   41.16    1.34 
  -5  -1  16    0.01    0.21 
   5  -1 -16    0.24    0.16 
  -5   1  16    0.03    0.17 
   4  -1 -16   23.52    0.83 
  -4  -1  16   22.30    0.84 
  -4  -1  16   23.26    0.87 
  -4   1  16   23.65    0.83 
   4   1 -16   23.18    0.82 
  -3  -1  16    4.89    0.36 
  -3  -1  16    4.33    0.36 
   3  -1 -16    5.38    0.41 
  -3  -1  16    4.42    0.32 
  -3   1  16    4.59    0.35 
   3   1 -16    4.93    0.36 
   2  -1 -16    1.82    0.18 
   2  -1 -16    2.01    0.18 
  -2  -1  16    1.94    0.19 
   2   1 -16    2.33    0.17 
   1  -1 -16   12.24    0.45 
  -1  -1  16   12.06    0.46 
   1  -1 -16   12.37    0.42 
  -1  -1  16   12.38    0.46 
   1   1 -16   12.34    0.41 
  -1   1  16   12.74    0.44 
   0  -1  16   39.76    1.21 
   0  -1 -16   39.12    1.20 
   0  -1  16   39.39    1.21 
   0  -1 -16   37.29    1.18 
   0   1 -16   38.78    1.18 
   0   1  16   39.72    1.20 
   0   1 -16   40.88    1.18 
   1  -1  16    0.03    0.12 
   1  -1  16   -0.07    0.11 
  -1  -1 -16    0.04    0.10 
  -1   1 -16   -0.06    0.08 
  -1   1 -16   -0.03    0.10 
   1   1  16    0.00    0.09 
   1   1  16    0.08    0.11 
  -2  -1 -16   28.51    0.89 
   2  -1  16   28.38    0.91 
  -2   1 -16   29.37    0.89 
   2   1  16   26.86    0.89 
   2   1  16   27.06    0.89 
  -3  -1 -16    0.92    0.24 
   3  -1  16    1.16    0.22 
   3   1  16    0.88    0.24 
  -3   1 -16    0.99    0.18 
   3   1  16    0.99    0.19 
   4  -1  16   40.28    1.36 
   4  -1  16   40.30    1.37 
   4   1  16   40.93    1.35 
   4   1  16   38.64    1.34 
   5  -1  16    3.86    0.32 
   5  -1  16    3.97    0.32 
   5   1  16    2.97    0.29 
   5   1  16    1.93    0.40 
   5  -2 -16    1.81    0.19 
   5   2 -16    1.78    0.16 
  -5   2  16    1.18    0.29 
  -4  -2  16    2.15    0.25 
   4  -2 -16    2.11    0.25 
  -4  -2  16    1.79    0.30 
   4  -2 -16    2.21    0.30 
   4   2 -16    2.47    0.24 
  -4   2  16    1.96    0.24 
  -3  -2  16   14.36    0.59 
  -3  -2  16   13.81    0.59 
  -3  -2  16   14.05    0.62 
   3  -2 -16   14.52    0.63 
   3  -2 -16   13.60    0.61 
  -3  -2  16   14.78    0.66 
  -3   2  16   14.62    0.58 
   3   2 -16   14.35    0.59 
  -2  -2  16   22.63    0.78 
  -2  -2  16   21.49    0.81 
  -2  -2  16   22.37    0.77 
   2  -2 -16   21.56    0.80 
   2  -2 -16   22.71    0.75 
  -2   2  16   20.24    0.72 
  -1  -2  16   18.30    0.68 
   1  -2 -16   20.88    0.80 
   1  -2 -16   19.48    0.68 
   1  -2 -16   19.36    0.65 
   1  -2 -16   18.87    0.66 
  -1  -2  16   20.31    0.70 
  -1  -2  16   20.25    0.75 
  -1   2  16   19.64    0.66 
   1   2 -16   19.63    0.63 
   0  -2  16   28.68    0.97 
   0  -2 -16   31.04    0.98 
   0  -2 -16   30.39    0.96 
   0  -2  16   30.92    0.98 
   0   2  16   30.24    0.96 
   0   2 -16   31.59    0.94 
   0   2  16   29.46    0.95 
   1  -2  16    1.94    0.21 
  -1  -2 -16    2.71    0.25 
  -1  -2 -16    2.45    0.20 
  -1  -2 -16    1.87    0.20 
  -1   2 -16    2.16    0.18 
  -1   2 -16    2.12    0.18 
   1   2  16    1.99    0.17 
  -2  -2 -16    3.59    0.31 
  -2  -2 -16    4.55    0.33 
   2  -2  16    3.24    0.27 
   2  -2  16    3.35    0.32 
   2   2  16    3.98    0.27 
  -2   2 -16    3.64    0.25 
  -3  -2 -16    0.22    0.23 
  -3  -2 -16    0.18    0.22 
  -3  -2 -16    0.07    0.32 
   3  -2  16    0.18    0.33 
  -3  -2 -16    0.26    0.20 
   3   2  16    0.04    0.24 
   3   2  16    0.16    0.22 
   3   2  16    0.12    0.25 
   3   2  16    0.06    0.20 
  -4  -2 -16    2.14    0.25 
   4  -2  16    2.78    0.35 
   4   2  16    1.70    0.26 
   4   2  16    2.04    0.24 
   4   2  16    1.55    0.27 
   5  -2  16    1.64    0.22 
   5   2  16    1.86    0.22 
   4  -3 -16   -0.01    0.16 
  -4  -3  16    0.10    0.15 
  -4  -3  16   -0.10    0.15 
   4  -3 -16    0.09    0.20 
   4   3 -16   -0.08    0.14 
   3  -3 -16    0.77    0.25 
  -3  -3  16    0.55    0.20 
   3  -3 -16    0.77    0.29 
  -3  -3  16    0.56    0.30 
  -3  -3  16    0.63    0.19 
   3  -3 -16    0.52    0.20 
   2  -3 -16    8.07    0.46 
  -2  -3  16    7.76    0.44 
   2  -3 -16    8.46    0.47 
  -2  -3  16    7.67    0.53 
  -2  -3  16    7.64    0.42 
   2  -3 -16    7.62    0.44 
  -2  -3  16    6.95    0.49 
   2  -3 -16    8.01    0.53 
   1  -3 -16   32.57    1.11 
  -1  -3  16   32.17    1.14 
  -1  -3  16   31.96    1.09 
   1  -3 -16   31.97    1.09 
  -1  -3  16   32.83    1.09 
   1  -3 -16   31.97    1.08 
   1  -3 -16   33.23    1.09 
   1  -3 -16   32.78    1.09 
  -1  -3  16   32.86    1.08 
   1  -3 -16   30.72    1.18 
   0  -3  16    4.64    0.34 
   0  -3 -16    4.92    0.34 
   0  -3 -16    4.86    0.37 
   0  -3 -16    4.79    0.34 
   0  -3 -16    4.39    0.32 
   0  -3  16    4.38    0.36 
   0  -3 -16    4.40    0.36 
   0  -3 -16    5.20    0.44 
   0  -3 -16    5.00    0.40 
   0   3  16    4.48    0.35 
  -1  -3 -16   30.83    0.99 
   1  -3  16   30.15    1.04 
  -1  -3 -16   28.83    0.99 
   1  -3  16   29.00    1.02 
  -1  -3 -16   27.59    1.12 
  -1  -3 -16   31.33    1.02 
  -1  -3 -16   28.86    0.99 
  -1  -3 -16   28.86    1.08 
   1   3  16   29.45    0.96 
  -2  -3 -16    4.33    0.36 
   2  -3  16    4.95    0.43 
  -2  -3 -16    4.33    0.37 
  -2  -3 -16    4.34    0.29 
  -2  -3 -16    3.69    0.37 
  -2  -3 -16    4.34    0.33 
  -2  -3 -16    4.58    0.39 
   2   3  16    2.60    0.25 
  -3  -3 -16    0.18    0.23 
  -3  -3 -16    0.05    0.18 
  -3  -3 -16   -0.07    0.18 
   3  -3  16   -0.06    0.23 
  -3  -3 -16    0.17    0.26 
  -3  -3 -16    0.27    0.25 
  -3  -3 -16    0.07    0.20 
   3   3  16    0.08    0.22 
   3   3  16    0.00    0.19 
   3   3  16    0.09    0.23 
  -4  -3 -16    2.07    0.24 
  -4  -3 -16    1.56    0.17 
  -4  -3 -16    1.91    0.21 
   4  -3  16    1.72    0.28 
   4   3  16    1.76    0.20 
   4   3  16    2.07    0.23 
  -3  -4  16    2.18    0.19 
   3  -4 -16    2.37    0.20 
   3  -4 -16    2.35    0.23 
  -3  -4  16    2.21    0.19 
   3  -4 -16    2.78    0.21 
   3  -4 -16    2.66    0.23 
   3   4 -16    2.26    0.19 
   2  -4 -16    0.31    0.17 
   2  -4 -16    0.39    0.21 
  -2  -4  16    0.19    0.17 
   2  -4 -16    0.14    0.18 
   2  -4 -16    0.34    0.21 
   1  -4 -16    0.05    0.22 
  -1  -4  16   -0.07    0.27 
   1  -4 -16    0.02    0.18 
  -1  -4  16    0.05    0.19 
   1  -4 -16   -0.10    0.20 
   1  -4 -16   -0.11    0.20 
   0  -4 -16   -0.04    0.20 
   0  -4 -16   -0.09    0.18 
   0  -4 -16   -0.08    0.19 
   0  -4 -16    0.04    0.22 
   0  -4 -16    0.10    0.28 
   0  -4  16   -0.06    0.25 
  -1  -4 -16    2.87    0.24 
  -1  -4 -16    3.16    0.27 
  -1  -4 -16    3.40    0.38 
  -1  -4 -16    2.48    0.22 
  -1  -4 -16    3.26    0.34 
   1  -4  16    3.05    0.31 
  -1  -4 -16    2.52    0.25 
  -2  -4 -16    3.64    0.30 
  -2  -4 -16    3.26    0.31 
   2  -4  16    2.77    0.27 
  -2  -4 -16    2.58    0.25 
  -2  -4 -16    3.71    0.29 
  -2  -4 -16    4.12    0.35 
   2   4  16    2.42    0.25 
   3  -4  16   23.53    0.80 
  -3  -4 -16   23.70    0.77 
  -3  -4 -16   23.84    0.79 
  -3  -4 -16   23.92    0.76 
  -3  -4 -16   24.08    0.80 
  -3  -4 -16   23.39    0.83 
   3   4  16   24.36    0.79 
   3   4  16   23.92    0.81 
   1  -5 -16    3.34    0.26 
   1  -5 -16    3.17    0.22 
   1  -5 -16    2.96    0.22 
   0  -5 -16    3.20    0.22 
   0  -5 -16    3.42    0.26 
   0  -5 -16    3.16    0.24 
  -1  -5 -16    0.90    0.16 
  -1  -5 -16    0.94    0.13 
  -1  -5 -16    1.00    0.17 
  -5   0  17   -0.10    0.18 
   5   0 -17   -0.08    0.19 
   4   0 -17    0.10    0.22 
  -4   0  17    0.13    0.22 
   3   0 -17   -0.03    0.24 
  -3   0  17    0.00    0.20 
   2   0 -17   -0.05    0.11 
  -2   0  17   -0.02    0.15 
   1   0 -17   -0.06    0.09 
   1   0 -17    0.05    0.11 
  -1   0  17    0.04    0.10 
   0   0 -17    0.05    0.08 
   0   0 -17    0.04    0.08 
   0   0  17    0.04    0.12 
   0   0  17   -0.08    0.10 
   1   0  17    0.00    0.10 
  -1   0 -17   -0.05    0.09 
   1   0  17   -0.06    0.10 
   2   0  17   -0.03    0.13 
  -2   0 -17    0.03    0.12 
   3   0  17   -0.17    0.19 
  -3   0 -17   -0.02    0.17 
   3   0  17   -0.01    0.26 
   4   0  17    0.07    0.27 
   4   0  17    0.14    0.26 
   5   0  17   -0.07    0.21 
   5   0  17   -0.03    0.22 
   5  -1 -17    1.69    0.20 
  -5  -1  17    1.05    0.22 
  -5   1  17    1.06    0.19 
   5   1 -17    1.42    0.18 
   4  -1 -17    3.71    0.30 
  -4  -1  17    4.13    0.37 
  -4  -1  17    3.83    0.33 
  -4   1  17    4.40    0.36 
   4   1 -17    4.05    0.34 
   3  -1 -17    0.72    0.28 
  -3  -1  17    0.11    0.23 
  -3  -1  17    0.39    0.22 
   3  -1 -17    0.25    0.28 
  -3  -1  17    0.34    0.24 
  -3   1  17    0.43    0.19 
   3   1 -17    0.34    0.22 
  -2  -1  17    0.21    0.15 
   2  -1 -17    0.18    0.13 
  -2  -1  17    0.22    0.21 
   2   1 -17    0.15    0.13 
  -1  -1  17   35.81    1.12 
   1  -1 -17   34.83    1.09 
  -1  -1  17   35.92    1.11 
   1  -1 -17   35.75    1.11 
   1   1 -17   34.81    1.08 
  -1   1  17   36.23    1.10 
   0  -1 -17    0.23    0.11 
   0  -1  17    0.19    0.14 
   0  -1  17    0.22    0.12 
   0   1 -17    0.25    0.09 
   0   1  17    0.29    0.11 
   0   1 -17    0.25    0.09 
   1  -1  17    0.73    0.14 
  -1  -1 -17    0.58    0.12 
   1  -1  17    0.56    0.13 
   1   1  17    0.60    0.22 
   1   1  17    0.50    0.11 
  -1   1 -17    0.66    0.11 
  -1   1 -17    0.76    0.13 
  -2  -1 -17    3.68    0.24 
   2  -1  17    3.69    0.29 
   2   1  17    3.61    0.26 
  -2   1 -17    4.13    0.25 
   2   1  17    3.77    0.28 
   3  -1  17   25.34    0.97 
  -3  -1 -17   25.71    0.91 
   3  -1  17   24.70    0.88 
  -3   1 -17   27.41    0.85 
   3   1  17   24.55    0.93 
   3   1  17   25.63    0.87 
   3   1  17   25.13    0.92 
   4  -1  17   13.20    0.65 
   4  -1  17   12.94    0.64 
   4   1  17   13.23    0.62 
   4   1  17   12.83    0.63 
   5  -1  17    5.37    0.42 
   5  -1  17    4.88    0.39 
   5   1  17    5.18    0.38 
   5   1  17    5.28    0.38 
   5  -2 -17    0.06    0.14 
   5   2 -17   -0.01    0.11 
   4  -2 -17    1.01    0.20 
  -4  -2  17    1.42    0.27 
  -4  -2  17    1.81    0.23 
   4   2 -17    1.73    0.20 
  -4   2  17    1.72    0.23 
  -3  -2  17    1.24    0.23 
  -3  -2  17    1.63    0.30 
  -3  -2  17    0.97    0.22 
   3  -2 -17    1.91    0.27 
   3   2 -17    1.38    0.23 
  -3   2  17    1.49    0.24 
  -2  -2  17   51.12    1.60 
  -2  -2  17   44.06    1.63 
  -2  -2  17   51.86    1.55 
  -2  -2  17   54.23    1.57 
   2  -2 -17   49.12    1.59 
  -2  -2  17   52.26    1.57 
   2  -2 -17   49.70    1.54 
  -2   2  17   47.04    1.51 
   2   2 -17   45.98    1.57 
  -1  -2  17   20.11    0.70 
   1  -2 -17   19.23    0.68 
  -1  -2  17   19.16    0.74 
  -1  -2  17   18.91    0.69 
  -1   2  17   18.42    0.65 
   0  -2  17   19.60    0.69 
   0  -2 -17   19.00    0.66 
   0  -2 -17   21.50    0.69 
   0  -2  17   20.64    0.76 
   0  -2  17   19.85    0.69 
   0   2  17   18.77    0.67 
   0   2  17   19.47    0.66 
  -1  -2 -17    1.79    0.21 
   1  -2  17    1.53    0.21 
   1  -2  17    1.63    0.28 
  -1   2 -17    1.59    0.16 
   1   2  17    1.47    0.16 
  -2  -2 -17   21.97    0.93 
   2  -2  17   24.17    0.83 
  -2  -2 -17   23.43    0.83 
  -2  -2 -17   23.72    0.80 
   2   2  17   24.29    0.79 
  -2   2 -17   22.37    0.78 
  -3  -2 -17   -0.05    0.30 
  -3  -2 -17    0.03    0.22 
   3  -2  17    0.16    0.34 
  -3  -2 -17    0.09    0.20 
  -3  -2 -17    0.12    0.21 
   3   2  17    0.27    0.22 
   3   2  17    0.05    0.24 
   3   2  17    0.22    0.24 
   4  -2  17    1.34    0.30 
   4   2  17    0.98    0.25 
   4   2  17    0.81    0.24 
   4   2  17    0.96    0.21 
   5  -2  17    1.55    0.21 
   5   2  17    1.69    0.21 
   4  -3 -17    0.29    0.15 
   4  -3 -17    0.19    0.27 
  -4  -3  17    0.34    0.15 
  -4  -3  17    0.31    0.15 
   4   3 -17    0.30    0.14 
  -3  -3  17    0.02    0.19 
  -3  -3  17    0.06    0.17 
   3  -3 -17    0.14    0.18 
  -3  -3  17    0.05    0.28 
   3  -3 -17   -0.04    0.22 
   3   3 -17    0.17    0.18 
   2  -3 -17   27.70    0.95 
   2  -3 -17   28.68    0.96 
  -2  -3  17   27.41    0.95 
   2  -3 -17   27.99    0.97 
   2  -3 -17   27.89    1.00 
  -2  -3  17   29.95    1.03 
   2   3 -17   24.22    1.04 
   1  -3 -17    0.08    0.22 
  -1  -3  17    0.15    0.20 
   1  -3 -17    0.33    0.24 
   1  -3 -17    0.02    0.25 
   1  -3 -17    0.22    0.23 
   1  -3 -17   -0.02    0.30 
   1  -3 -17    0.02    0.22 
  -1  -3  17    0.14    0.26 
  -1  -3  17    0.06    0.25 
   0  -3 -17    6.31    0.43 
   0  -3 -17    6.94    0.42 
   0  -3 -17    6.52    0.43 
   0  -3 -17    6.07    0.54 
   0  -3 -17    5.95    0.40 
   0  -3  17    6.65    0.49 
   0  -3 -17    6.24    0.38 
  -1  -3 -17    1.27    0.23 
  -1  -3 -17    1.07    0.31 
  -1  -3 -17    1.35    0.25 
  -1  -3 -17    1.01    0.24 
   1  -3  17    1.37    0.29 
  -1  -3 -17    0.70    0.32 
  -1  -3 -17    1.51    0.26 
   1   3  17    1.14    0.21 
  -2  -3 -17    0.88    0.21 
  -2  -3 -17    0.62    0.22 
  -2  -3 -17    0.76    0.21 
  -2  -3 -17    0.80    0.29 
  -2  -3 -17    1.00    0.22 
   2  -3  17    0.87    0.27 
  -2  -3 -17    1.17    0.32 
  -3  -3 -17    0.04    0.18 
  -3  -3 -17    0.02    0.24 
  -3  -3 -17    0.02    0.25 
  -3  -3 -17    0.14    0.18 
  -3  -3 -17    0.03    0.19 
  -3  -3 -17    0.17    0.22 
   3  -3  17    0.05    0.22 
   3   3  17    0.13    0.22 
   3   3  17    0.12    0.19 
   3   3  17   -0.01    0.20 
  -4  -3 -17    1.09    0.21 
   4  -3  17    1.53    0.26 
   4   3  17    1.35    0.22 
   4   3  17    0.99    0.17 
  -3  -4  17    0.76    0.16 
  -3  -4  17    0.76    0.15 
   3  -4 -17    0.66    0.18 
   3  -4 -17    0.93    0.15 
   3  -4 -17    0.76    0.16 
   3   4 -17    0.77    0.15 
   2  -4 -17    0.40    0.17 
  -2  -4  17    0.57    0.17 
   2  -4 -17    0.51    0.20 
   2  -4 -17    0.32    0.16 
   2  -4 -17    0.48    0.20 
   1  -4 -17    0.81    0.22 
   1  -4 -17    1.14    0.23 
   1  -4 -17    1.09    0.19 
  -1  -4  17    1.13    0.28 
   1  -4 -17    1.44    0.22 
  -1  -4  17    1.25    0.21 
   0  -4 -17    0.15    0.27 
   0  -4 -17    0.09    0.18 
   0  -4 -17    0.00    0.20 
   0  -4  17    0.13    0.25 
   0  -4 -17    0.14    0.19 
   0  -4 -17   -0.05    0.17 
  -1  -4 -17   12.19    0.66 
  -1  -4 -17   12.38    0.50 
  -1  -4 -17   13.13    0.54 
  -1  -4 -17   12.94    0.62 
   1  -4  17   12.59    0.58 
  -1  -4 -17   12.35    0.52 
  -1  -4 -17   13.19    0.52 
  -2  -4 -17    1.04    0.25 
   2  -4  17    1.17    0.23 
  -2  -4 -17    0.90    0.22 
  -2  -4 -17    1.14    0.20 
  -2  -4 -17    0.59    0.17 
  -2  -4 -17    1.15    0.21 
  -2  -4 -17    0.96    0.16 
   2   4  17    1.20    0.21 
   3  -4  17   24.38    0.90 
  -3  -4 -17   23.86    0.82 
  -3  -4 -17   23.75    0.77 
  -3  -4 -17   23.48    0.79 
  -3  -4 -17   25.63    0.81 
   3   4  17   25.45    0.82 
   1  -5 -17    1.56    0.15 
   1  -5 -17    1.46    0.14 
   0  -5 -17    2.76    0.19 
   0  -5 -17    2.89    0.23 
   0  -5 -17    3.14    0.21 
  -1  -5 -17    0.26    0.15 
  -1  -5 -17    0.28    0.11 
  -5   0  18   22.95    0.79 
   4   0 -18    0.51    0.22 
  -4   0  18    0.28    0.22 
   3   0 -18    2.59    0.29 
  -3   0  18    2.23    0.25 
  -2   0  18    1.21    0.18 
  -2   0  18    1.51    0.23 
   2   0 -18    1.13    0.27 
   1   0 -18    2.86    0.17 
  -1   0  18    2.62    0.19 
   1   0 -18    2.02    0.17 
   0   0 -18    1.65    0.13 
   0   0 -18    2.13    0.16 
   0   0  18    1.98    0.17 
   1   0  18    4.19    0.26 
   1   0  18    4.26    0.24 
  -1   0 -18    4.03    0.22 
  -2   0 -18   11.05    0.42 
   2   0  18   10.81    0.43 
   3   0  18    0.70    0.26 
  -3   0 -18    0.76    0.20 
   3   0  18    0.73    0.21 
   3   0  18    0.74    0.30 
   4   0  18   22.92    0.88 
   4   0  18   23.24    0.90 
   5   0  18   70.35    2.13 
   5   0  18   68.71    2.13 
  -5  -1  18    0.11    0.21 
   5  -1 -18    0.03    0.15 
  -5   1  18   -0.02    0.15 
   5   1 -18   -0.01    0.14 
  -4  -1  18    2.83    0.27 
   4  -1 -18    2.20    0.25 
  -4  -1  18    2.23    0.28 
  -4   1  18    2.95    0.28 
   4   1 -18    3.10    0.26 
  -3  -1  18    8.09    0.49 
   3  -1 -18    8.38    0.53 
  -3  -1  18    7.03    0.47 
  -3  -1  18    8.29    0.47 
   3   1 -18    8.59    0.45 
  -3   1  18    7.80    0.44 
  -2  -1  18    0.25    0.21 
  -2  -1  18    0.39    0.19 
  -1  -1  18   26.13    0.93 
   1  -1 -18   30.98    0.92 
  -1  -1  18   29.47    0.95 
   1  -1 -18   28.49    0.93 
  -1   1  18   30.27    0.93 
   1   1 -18   28.51    0.90 
   0  -1  18   50.80    1.53 
   0  -1  18   49.56    1.52 
   0  -1 -18   49.37    1.52 
   0   1 -18   48.95    1.50 
   0   1  18   50.73    1.51 
   0   1 -18   49.32    1.49 
   1  -1  18    0.69    0.16 
   1  -1  18    0.59    0.15 
  -1  -1 -18    0.83    0.15 
   1   1  18    0.60    0.13 
  -1   1 -18    0.66    0.14 
  -1   1 -18    0.58    0.12 
  -2  -1 -18    0.47    0.17 
   2  -1  18    0.53    0.19 
  -2   1 -18    0.59    0.16 
   2   1  18    0.58    0.18 
   2   1  18    0.46    0.16 
  -3  -1 -18    0.34    0.25 
   3  -1  18    0.06    0.31 
  -3   1 -18    0.04    0.19 
   3   1  18    0.03    0.25 
   3   1  18   -0.03    0.25 
   4  -1  18    0.08    0.28 
   4   1  18   -0.11    0.24 
   4   1  18   -0.18    0.26 
   5  -1  18   -0.05    0.23 
   5  -1  18   -0.14    0.19 
   5   1  18    0.01    0.19 
   5   1  18    0.00    0.21 
   5  -2 -18    0.30    0.15 
   5   2 -18    0.08    0.17 
  -4  -2  18    1.10    0.26 
   4  -2 -18    1.16    0.21 
  -4  -2  18    1.29    0.20 
  -4   2  18    1.27    0.22 
   4   2 -18    1.51    0.19 
   3  -2 -18   55.79    1.77 
  -3  -2  18   57.16    1.78 
  -3  -2  18   55.78    1.78 
  -3  -2  18   59.06    1.83 
   3   2 -18   58.16    1.77 
   2  -2 -18   10.41    0.48 
  -2  -2  18    9.85    0.52 
  -2  -2  18   10.36    0.49 
  -2  -2  18   10.33    0.49 
   2  -2 -18   10.94    0.62 
   2  -2 -18   10.44    0.52 
  -2  -2  18   10.44    0.50 
   2   2 -18    9.85    0.50 
  -1  -2  18   58.94    1.79 
   1  -2 -18   57.65    1.77 
  -1  -2  18   56.81    1.83 
  -1  -2  18   57.03    1.78 
   0  -2 -18    7.80    0.37 
   0  -2  18    8.46    0.40 
   0  -2  18    7.56    0.46 
   0  -2  18    8.54    0.41 
   0   2  18    7.59    0.35 
  -1  -2 -18   19.16    0.67 
  -1  -2 -18   18.46    0.70 
   1  -2  18   18.28    0.67 
   1  -2  18   17.35    0.74 
   1   2  18   18.01    0.64 
  -1   2 -18   18.30    0.63 
   2  -2  18    0.03    0.23 
  -2  -2 -18    0.16    0.30 
  -2  -2 -18    0.30    0.20 
  -2  -2 -18    0.18    0.23 
   2   2  18    0.11    0.16 
  -2   2 -18    0.18    0.18 
   2   2  18    0.32    0.23 
   3  -2  18    7.30    0.60 
  -3  -2 -18    7.61    0.43 
  -3  -2 -18    7.49    0.57 
  -3  -2 -18    7.84    0.40 
  -3  -2 -18    7.97    0.45 
   3   2  18    8.23    0.47 
   3   2  18    7.69    0.43 
   3   2  18    7.80    0.47 
   4  -2  18    0.27    0.26 
   4   2  18    0.28    0.22 
   4   2  18    0.32    0.22 
   4   2  18    0.29    0.22 
   5  -2  18    0.38    0.17 
  -4  -3  18    0.07    0.13 
   4  -3 -18    0.09    0.15 
  -4  -3  18   -0.05    0.15 
   4   3 -18   -0.01    0.12 
  -3  -3  18    1.85    0.21 
   3  -3 -18    2.02    0.26 
   3  -3 -18    1.47    0.20 
  -3  -3  18    1.73    0.29 
  -3  -3  18    1.58    0.20 
   3   3 -18    1.72    0.21 
   2  -3 -18    2.56    0.30 
   2  -3 -18    1.46    0.24 
   2  -3 -18    2.74    0.28 
  -2  -3  18    2.64    0.33 
  -2  -3  18    2.97    0.27 
   2  -3 -18    2.60    0.29 
   1  -3 -18    1.43    0.25 
  -1  -3  18    1.09    0.21 
   1  -3 -18    1.48    0.26 
  -1  -3  18    1.54    0.31 
   1  -3 -18    1.37    0.25 
   1  -3 -18    1.21    0.34 
  -1  -3  18    1.38    0.30 
   1  -3 -18    1.40    0.27 
   0  -3 -18    5.03    0.40 
   0  -3  18    5.26    0.40 
   0  -3 -18    4.73    0.35 
   0  -3 -18    4.41    0.36 
   0  -3 -18    5.02    0.34 
   0  -3 -18    4.69    0.37 
   0  -3 -18    5.36    0.42 
  -1  -3 -18    2.09    0.26 
  -1  -3 -18    2.29    0.35 
  -1  -3 -18    2.58    0.28 
  -1  -3 -18    1.92    0.34 
  -1  -3 -18    2.16    0.26 
   1  -3  18    2.36    0.30 
  -1  -3 -18    2.33    0.24 
   1   3  18    2.41    0.24 
  -2  -3 -18    3.39    0.34 
   2  -3  18    3.41    0.32 
  -2  -3 -18    3.55    0.38 
  -2  -3 -18    4.04    0.28 
  -2  -3 -18    2.57    0.27 
  -2  -3 -18    3.54    0.34 
  -2  -3 -18    3.63    0.31 
  -3  -3 -18    0.18    0.20 
  -3  -3 -18    0.00    0.18 
  -3  -3 -18    0.13    0.19 
   3  -3  18    0.05    0.22 
  -3  -3 -18    0.14    0.22 
   3   3  18    0.05    0.20 
   3   3  18    0.02    0.18 
   3   3  18    0.08    0.21 
   4  -3  18    0.26    0.22 
  -4  -3 -18    0.04    0.19 
   4   3  18   -0.02    0.17 
   3  -4 -18    1.03    0.15 
  -3  -4  18    0.90    0.15 
   3  -4 -18    0.65    0.15 
   2  -4 -18    0.70    0.16 
  -2  -4  18    0.68    0.25 
   2  -4 -18    0.94    0.18 
   2  -4 -18    1.18    0.21 
  -2  -4  18    0.73    0.17 
   2  -4 -18    0.74    0.20 
   1  -4 -18    1.09    0.20 
  -1  -4  18    1.54    0.28 
   1  -4 -18    1.52    0.29 
   1  -4 -18    1.61    0.23 
  -1  -4  18    1.22    0.21 
   1  -4 -18    1.11    0.21 
   1  -4 -18    1.66    0.21 
   0  -4 -18    0.47    0.26 
   0  -4 -18    0.26    0.19 
   0  -4 -18    0.34    0.18 
   0  -4 -18    0.20    0.17 
   0  -4 -18    0.38    0.20 
   0  -4  18    0.39    0.24 
   1  -4  18    0.62    0.24 
  -1  -4 -18    0.66    0.24 
  -1  -4 -18    0.87    0.20 
  -1  -4 -18    0.68    0.20 
  -1  -4 -18    0.74    0.20 
  -1  -4 -18    0.46    0.16 
  -1  -4 -18    0.83    0.29 
  -2  -4 -18   11.91    0.52 
  -2  -4 -18   11.18    0.45 
  -2  -4 -18   11.00    0.43 
  -2  -4 -18   12.04    0.48 
  -2  -4 -18   11.62    0.55 
   2  -4  18   11.74    0.51 
  -2  -4 -18   11.56    0.47 
   2   4  18   11.04    0.48 
  -3  -4 -18   25.18    0.81 
  -3  -4 -18   25.20    0.78 
  -3  -4 -18   26.21    0.84 
  -3  -4 -18   25.48    0.81 
   3   4  18   24.61    0.82 
   1  -5 -18    3.98    0.22 
   0  -5 -18    0.28    0.13 
   0  -5 -18    0.33    0.10 
  -5   0  19    0.06    0.17 
  -4   0  19    0.00    0.22 
   4   0 -19    0.06    0.20 
  -3   0  19   -0.28    0.20 
   3   0 -19   -0.08    0.22 
  -2   0  19    0.12    0.19 
  -2   0  19   -0.04    0.20 
  -1   0  19   -0.05    0.14 
   1   0 -19    0.00    0.10 
   1   0 -19    0.02    0.13 
   0   0  19   -0.01    0.11 
   0   0 -19    0.02    0.10 
   0   0 -19   -0.06    0.10 
   1   0  19   -0.01    0.11 
   1   0  19   -0.01    0.15 
  -1   0 -19   -0.16    0.12 
   2   0  19    0.07    0.18 
  -2   0 -19   -0.11    0.14 
   3   0  19    0.04    0.25 
  -3   0 -19    0.00    0.18 
   4   0  19   -0.01    0.27 
   4   0  19    0.06    0.24 
   5   0  19    0.18    0.20 
   5   0  19   -0.02    0.21 
   5  -1 -19    0.24    0.16 
   5   1 -19    0.23    0.13 
   4  -1 -19    0.95    0.21 
  -4  -1  19    1.04    0.24 
  -4   1  19    1.18    0.23 
   4   1 -19    1.18    0.20 
   3  -1 -19   11.47    0.60 
  -3  -1  19   12.34    0.58 
  -3  -1  19   12.29    0.56 
   3   1 -19   12.76    0.54 
  -3   1  19   11.67    0.55 
  -2  -1  19    0.82    0.23 
  -2  -1  19    0.54    0.21 
   1  -1 -19    0.21    0.16 
  -1  -1  19    0.46    0.26 
  -1  -1  19    0.28    0.15 
   1  -1 -19    0.20    0.14 
   1   1 -19    0.27    0.11 
  -1   1  19    0.29    0.15 
   0  -1  19    0.51    0.18 
   0  -1  19    0.54    0.15 
   0  -1 -19    0.78    0.16 
   0   1  19    0.72    0.14 
   0   1 -19    0.58    0.14 
   0   1 -19    0.51    0.12 
   1  -1  19    2.32    0.22 
   1  -1  19    2.07    0.20 
  -1  -1 -19    2.43    0.19 
  -1   1 -19    2.71    0.20 
  -1   1 -19    1.97    0.16 
   1   1  19    2.98    0.22 
  -2  -1 -19   16.55    0.68 
   2  -1  19   16.26    0.64 
  -2  -1 -19   17.23    0.62 
   2   1  19   17.99    0.61 
  -2   1 -19   17.93    0.61 
   2   1  19   16.56    0.69 
   2   1  19   16.45    0.62 
   3  -1  19    0.38    0.31 
  -3  -1 -19    0.15    0.23 
   3   1  19    0.43    0.25 
   3   1  19    0.27    0.24 
   4  -1  19    6.19    0.49 
   4   1  19    6.71    0.44 
   4   1  19    6.70    0.46 
   5  -1  19    0.94    0.20 
   5   1  19    1.22    0.22 
   5   1  19    0.98    0.21 
  -4  -2  19    1.44    0.20 
  -4  -2  19    1.26    0.25 
   4  -2 -19    1.62    0.21 
  -4   2  19    1.32    0.22 
   4   2 -19    1.56    0.18 
  -3  -2  19   24.21    0.86 
  -3  -2  19   23.80    0.85 
  -3  -2  19   23.94    0.90 
   3  -2 -19   23.19    0.86 
   3   2 -19   26.07    0.86 
   2  -2 -19    2.14    0.30 
  -2  -2  19    1.82    0.27 
  -2  -2  19    2.14    0.26 
   2  -2 -19    1.28    0.23 
   2  -2 -19    1.68    0.32 
  -2  -2  19    1.60    0.30 
  -2  -2  19    2.06    0.26 
   2   2 -19    2.13    0.26 
   1  -2 -19    1.85    0.23 
  -1  -2  19    1.91    0.24 
   1  -2 -19    1.66    0.36 
  -1  -2  19    1.71    0.27 
  -1  -2  19    1.46    0.26 
  -1  -2  19    2.08    0.24 
   0  -2 -19   68.99    2.08 
   0  -2  19   67.74    2.09 
   0  -2  19   68.48    2.09 
   0  -2  19   68.82    2.14 
   0   2  19   68.43    2.06 
   1  -2  19    0.74    0.28 
  -1  -2 -19    0.73    0.29 
  -1  -2 -19    0.76    0.21 
  -1  -2 -19    0.66    0.36 
  -1  -2 -19    1.04    0.23 
   1  -2  19    0.85    0.24 
  -1   2 -19    1.04    0.18 
   1   2  19    1.03    0.19 
  -2  -2 -19    2.07    0.27 
  -2  -2 -19    1.33    0.24 
  -2  -2 -19    2.10    0.36 
   2   2  19    1.63    0.22 
   2   2  19    1.61    0.26 
  -2   2 -19    1.70    0.21 
  -3  -2 -19    1.34    0.24 
  -3  -2 -19    1.14    0.24 
   3  -2  19    0.95    0.36 
  -3  -2 -19    1.27    0.31 
   3   2  19    1.19    0.26 
   3   2  19    1.17    0.27 
   4  -2  19    0.83    0.27 
   4   2  19    0.86    0.22 
   4   2  19    0.72    0.22 
  -4  -3  19    8.29    0.36 
  -4  -3  19    8.64    0.37 
   4  -3 -19    9.01    0.35 
   4   3 -19    8.65    0.34 
   4   3 -19    8.67    0.34 
  -3  -3  19    2.13    0.21 
  -3  -3  19    2.34    0.22 
  -3  -3  19    2.97    0.31 
   3  -3 -19    2.98    0.28 
   3  -3 -19    3.65    0.26 
   3   3 -19    2.46    0.22 
  -2  -3  19   49.39    1.66 
   2  -3 -19   50.98    1.62 
   2  -3 -19   50.41    1.61 
   2  -3 -19   57.87    1.80 
  -2  -3  19   53.40    1.63 
   2  -3 -19   49.41    1.61 
   1  -3 -19    1.73    0.24 
   1  -3 -19    2.22    0.28 
   1  -3 -19    2.02    0.33 
  -1  -3  19    2.24    0.25 
  -1  -3  19    1.91    0.30 
   1  -3 -19    1.55    0.26 
   1  -3 -19    2.03    0.26 
   0  -3 -19    2.70    0.28 
   0  -3  19    3.23    0.35 
   0  -3 -19    3.11    0.29 
   0  -3 -19    2.62    0.35 
   0  -3 -19    2.02    0.24 
   0  -3 -19    2.03    0.26 
  -1  -3 -19    6.44    0.42 
   1  -3  19    7.22    0.48 
  -1  -3 -19    7.26    0.58 
  -1  -3 -19    7.16    0.43 
  -1  -3 -19    7.15    0.54 
  -1  -3 -19    7.24    0.39 
  -1  -3 -19    7.16    0.41 
   2  -3  19    5.72    0.45 
  -2  -3 -19    5.72    0.51 
  -2  -3 -19    5.81    0.38 
  -2  -3 -19    5.59    0.35 
  -2  -3 -19    5.27    0.37 
  -2  -3 -19    5.13    0.46 
   2   3  19    6.09    0.41 
  -3  -3 -19    0.10    0.18 
  -3  -3 -19    0.02    0.18 
  -3  -3 -19    0.13    0.19 
  -3  -3 -19    0.13    0.22 
   3   3  19   -0.04    0.19 
   3   3  19    0.06    0.20 
   3   3  19    0.01    0.18 
  -4  -3 -19    1.87    0.20 
   4  -3  19    1.82    0.24 
   4   3  19    1.35    0.19 
   3  -4 -19    8.96    0.35 
  -3  -4  19    9.75    0.38 
  -2  -4  19    0.05    0.15 
   2  -4 -19    0.01    0.17 
   2  -4 -19   -0.11    0.15 
  -2  -4  19    0.18    0.23 
   2  -4 -19   -0.12    0.17 
   2  -4 -19   -0.07    0.14 
   1  -4 -19    7.64    0.48 
  -1  -4  19    7.56    0.46 
   1  -4 -19    7.57    0.40 
   1  -4 -19    7.56    0.36 
   1  -4 -19    7.18    0.39 
   1  -4 -19    7.73    0.37 
  -1  -4  19    7.26    0.40 
   0  -4 -19    0.11    0.18 
   0  -4 -19    0.01    0.23 
   0  -4 -19    0.05    0.17 
   0  -4 -19    0.06    0.18 
   0  -4  19    0.08    0.23 
   0  -4 -19    0.06    0.16 
  -1  -4 -19    0.31    0.16 
  -1  -4 -19    0.42    0.22 
   1  -4  19    0.45    0.23 
  -1  -4 -19    0.21    0.17 
  -1  -4 -19    0.37    0.18 
  -1  -4 -19    0.25    0.27 
  -1  -4 -19    0.36    0.18 
  -2  -4 -19   17.91    0.67 
  -2  -4 -19   18.17    0.63 
  -2  -4 -19   17.81    0.63 
  -2  -4 -19   19.83    0.66 
  -2  -4 -19   18.28    0.62 
  -2  -4 -19   19.32    0.70 
   2  -4  19   19.62    0.68 
   2   4  19   17.64    0.64 
   2   4  19   19.77    0.68 
  -3  -4 -19    5.42    0.30 
  -4   0  20   -0.01    0.20 
   4   0 -20    0.02    0.19 
  -3   0  20    0.17    0.22 
   3   0 -20    0.35    0.23 
   2   0 -20    0.70    0.31 
  -2   0  20    0.60    0.23 
  -2   0  20    0.54    0.22 
  -1   0  20    0.76    0.16 
   1   0 -20    0.59    0.15 
   0   0 -20   26.15    0.84 
   0   0 -20   26.82    0.85 
   0   0  20   26.99    0.86 
   1   0  20    2.54    0.22 
   1   0  20    2.89    0.22 
  -1   0 -20    2.35    0.19 
   2   0  20   -0.05    0.20 
  -2   0 -20    0.01    0.16 
   3   0  20   17.38    0.73 
   4   0  20   13.17    0.62 
   4   0  20   14.14    0.64 
   5   0  20   90.49    2.70 
  -4  -1  20    6.30    0.41 
  -4   1  20    6.72    0.41 
   4   1 -20    6.41    0.37 
  -3  -1  20    0.30    0.23 
  -3  -1  20    0.01    0.23 
   3  -1 -20   -0.02    0.25 
   3   1 -20    0.19    0.20 
  -3   1  20    0.33    0.22 
  -2  -1  20    1.30    0.27 
  -2  -1  20    1.02    0.25 
  -2  -1  20    1.24    0.24 
  -2  -1  20    1.51    0.27 
   2  -1 -20    1.32    0.29 
   2   1 -20    1.24    0.24 
  -1  -1  20   14.33    0.66 
  -1  -1  20   16.03    0.59 
   1  -1 -20   15.59    0.58 
  -1   1  20   16.23    0.58 
   0  -1  20   15.21    0.57 
   0  -1  20   15.27    0.58 
   0  -1 -20   14.97    0.55 
   0   1  20   15.75    0.55 
   0   1 -20   15.30    0.54 
   1  -1  20    1.00    0.20 
   1  -1  20    0.90    0.20 
  -1  -1 -20    0.77    0.17 
   1   1  20    0.74    0.16 
  -1   1 -20    0.92    0.17 
  -2  -1 -20   12.91    0.52 
  -2  -1 -20   13.36    0.58 
  -2  -1 -20   11.96    0.66 
   2   1  20   11.96    0.53 
  -2   1 -20   13.29    0.50 
   2   1  20   13.00    0.58 
   2   1  20   12.15    0.50 
   3  -1  20   22.58    0.90 
   3   1  20   22.81    0.85 
   3   1  20   23.57    0.86 
   4  -1  20    1.16    0.30 
   4   1  20    1.38    0.25 
   4   1  20    1.69    0.28 
   5  -1  20    0.66    0.18 
   5   1  20    0.46    0.22 
   4  -2 -20    6.49    0.35 
  -4  -2  20    6.29    0.34 
  -4  -2  20    5.99    0.41 
   4   2 -20    6.27    0.32 
  -4   2  20    6.46    0.39 
   3  -2 -20   12.33    0.54 
  -3  -2  20   12.52    0.55 
  -3  -2  20   12.79    0.60 
  -3  -2  20   12.43    0.54 
   3   2 -20   12.50    0.52 
  -2  -2  20    0.43    0.21 
  -2  -2  20    0.39    0.23 
   2  -2 -20    0.34    0.30 
   2  -2 -20    0.83    0.29 
  -2  -2  20    0.81    0.23 
  -2  -2  20    0.44    0.26 
   2   2 -20    0.48    0.21 
  -1  -2  20   11.51    0.53 
  -1  -2  20   11.31    0.54 
   1  -2 -20   11.41    0.50 
   1  -2 -20   11.99    0.64 
  -1  -2  20   12.19    0.54 
  -1  -2  20   11.71    0.60 
   0  -2  20   26.82    0.95 
   0  -2  20   27.10    0.94 
   0  -2  20   27.26    0.92 
   0  -2  20   26.87    0.98 
   0  -2 -20   27.69    0.92 
   0  -2 -20   27.05    1.04 
   0  -2 -20   26.05    1.01 
   0   2  20   26.67    0.89 
   0   2 -20   27.32    0.94 
  -1  -2 -20    7.55    0.41 
  -1  -2 -20    6.82    0.54 
  -1  -2 -20    6.76    0.43 
   1  -2  20    7.14    0.46 
  -1  -2 -20    7.12    0.55 
  -1  -2 -20    7.59    0.43 
   1  -2  20    6.74    0.41 
   1   2  20    7.26    0.36 
  -1   2 -20    6.79    0.35 
  -2  -2 -20   14.47    0.60 
  -2  -2 -20   13.66    0.60 
  -2  -2 -20   14.37    0.70 
   2   2  20   14.64    0.61 
   2   2  20   15.22    0.57 
  -3  -2 -20    5.24    0.38 
   3  -2  20    5.10    0.45 
  -3  -2 -20    5.73    0.40 
  -3  -2 -20    4.93    0.46 
   3   2  20    5.34    0.42 
   3   2  20    6.07    0.42 
   4  -2  20    4.39    0.38 
   4   2  20    3.50    0.33 
   4   2  20    4.10    0.35 
   4  -3 -20    0.01    0.13 
   4   3 -20    0.20    0.11 
  -3  -3  20    0.51    0.17 
   3  -3 -20    0.32    0.17 
  -3  -3  20    0.57    0.17 
  -3  -3  20    0.56    0.24 
   3   3 -20    0.40    0.16 
   2  -3 -20    0.51    0.20 
   2  -3 -20    0.40    0.24 
   2  -3 -20    0.59    0.21 
  -2  -3  20    0.23    0.18 
  -2  -3  20    0.39    0.27 
   2  -3 -20    0.55    0.28 
   1  -3 -20   19.13    0.80 
   1  -3 -20   19.69    0.70 
   1  -3 -20   17.83    0.71 
  -1  -3  20   19.40    0.71 
   1  -3 -20   18.73    0.70 
   1  -3 -20   18.71    0.72 
  -1  -3  20   18.23    0.77 
   0  -3  20    1.86    0.32 
   0  -3 -20    1.84    0.26 
   0  -3 -20    1.86    0.33 
   0  -3 -20    1.31    0.24 
   0  -3 -20    1.96    0.24 
   0  -3 -20    1.29    0.24 
  -1  -3 -20    0.65    0.22 
  -1  -3 -20    0.63    0.20 
   1  -3  20    0.41    0.25 
  -1  -3 -20    0.44    0.29 
  -1  -3 -20    0.61    0.22 
  -1  -3 -20    0.55    0.31 
  -1  -3 -20    0.35    0.21 
  -2  -3 -20    1.33    0.28 
   2  -3  20    1.34    0.26 
  -2  -3 -20    1.19    0.21 
  -2  -3 -20    1.75    0.24 
  -2  -3 -20    1.01    0.21 
  -2  -3 -20    1.35    0.29 
   2   3  20    1.60    0.26 
  -3  -3 -20    0.44    0.18 
  -3  -3 -20    0.41    0.19 
  -3  -3 -20    0.60    0.22 
   3   3  20    0.49    0.19 
   3   3  20    0.40    0.20 
   3   3  20    0.60    0.18 
   2  -4 -20   -0.04    0.14 
  -2  -4  20    0.12    0.15 
   2  -4 -20    0.10    0.16 
  -2  -4  20    0.38    0.34 
   2  -4 -20    0.19    0.14 
   1  -4 -20    0.21    0.21 
   1  -4 -20    0.20    0.18 
   1  -4 -20    0.10    0.15 
  -1  -4  20    0.13    0.19 
   1  -4 -20   -0.03    0.15 
  -1  -4  20    0.20    0.23 
   1  -4 -20    0.00    0.16 
   1   4 -20   -0.04    0.16 
   0  -4 -20    2.56    0.21 
   0  -4 -20    2.78    0.28 
   0  -4  20    2.28    0.27 
   0  -4 -20    2.59    0.23 
   0  -4 -20    2.34    0.23 
   0  -4 -20    2.10    0.22 
   1  -4  20    0.33    0.21 
  -1  -4 -20    0.13    0.15 
  -1  -4 -20    0.40    0.21 
  -1  -4 -20    0.32    0.17 
  -1  -4 -20    0.39    0.17 
  -1  -4 -20    0.37    0.38 
  -1  -4 -20    0.47    0.17 
  -2  -4 -20    2.72    0.21 
  -2  -4 -20    3.19    0.25 
  -2  -4 -20    3.27    0.24 
  -2  -4 -20    2.68    0.24 
   2  -4  20    2.45    0.23 
  -2  -4 -20    3.08    0.26 
   2   4  20    3.11    0.29 
   2   4  20    3.16    0.28 
   4   0 -21   -0.11    0.18 
  -4   0  21    0.04    0.20 
   3   0 -21    0.04    0.22 
  -3   0  21    0.04    0.23 
  -2   0  21   -0.01    0.22 
   2   0 -21   -0.01    0.22 
  -2   0  21   -0.03    0.23 
  -1   0  21    0.03    0.18 
   0   0 -21    0.00    0.13 
   0   0  21    0.09    0.14 
  -1   0 -21   -0.02    0.14 
   1   0  21    0.04    0.19 
   1   0  21   -0.02    0.15 
   2   0  21    0.05    0.21 
  -2   0 -21    0.01    0.17 
  -2   0 -21    0.01    0.39 
   2   0  21   -0.01    0.28 
   3   0  21   -0.14    0.28 
   4   0  21    0.13    0.34 
   4   0  21   -0.11    0.24 
   5   0  21    0.14    0.17 
  -4  -1  21    0.09    0.19 
   4   1 -21    0.02    0.16 
  -4   1  21    0.14    0.20 
  -3  -1  21    1.02    0.27 
   3  -1 -21    0.97    0.26 
   3   1 -21    1.04    0.22 
  -3   1  21    1.25    0.25 
   2  -1 -21    2.05    0.30 
  -2  -1  21    1.24    0.24 
  -2  -1  21    1.33    0.26 
  -2  -1  21    1.86    0.28 
   2   1 -21    1.36    0.23 
   2   1 -21    1.43    0.23 
  -1  -1  21    0.24    0.19 
  -1  -1  21    0.20    0.24 
   1  -1 -21    0.21    0.19 
  -1   1  21    0.19    0.19 
   0  -1  21   29.35    0.95 
   0  -1  21   28.41    0.95 
   0  -1 -21   28.84    0.94 
   0   1 -21   28.29    0.91 
   0   1  21   27.69    0.92 
  -1  -1 -21    6.65    0.36 
   1  -1  21    5.75    0.38 
   1  -1  21    6.51    0.37 
   1   1  21    6.49    0.34 
  -1   1 -21    6.84    0.34 
  -2  -1 -21    0.15    0.30 
  -2  -1 -21    0.10    0.23 
  -2  -1 -21   -0.02    0.19 
  -2   1 -21    0.12    0.18 
   2   1  21    0.20    0.23 
   2   1  21   -0.18    0.18 
   3  -1  21    0.28    0.31 
   3   1  21    0.36    0.24 
   3   1  21    0.38    0.26 
   4  -1  21    3.21    0.32 
   4   1  21    2.90    0.28 
   4   1  21    2.82    0.29 
   5  -1  21    5.30    0.41 
  -4  -2  21    0.78    0.21 
   4  -2 -21    1.00    0.17 
   4   2 -21    0.64    0.14 
   3  -2 -21    1.73    0.24 
  -3  -2  21    2.01    0.24 
   3  -2 -21    1.77    0.28 
  -3  -2  21    2.12    0.28 
  -3  -2  21    1.19    0.21 
   3   2 -21    1.35    0.20 
  -2  -2  21    0.54    0.25 
  -2  -2  21    0.67    0.22 
  -2  -2  21    0.96    0.22 
   2  -2 -21    0.73    0.29 
   2   2 -21    0.87    0.22 
  -1  -2  21   68.06    2.16 
  -1  -2  21   67.05    2.13 
   1  -2 -21   69.70    2.12 
  -1  -2  21   72.05    2.14 
   1  -2 -21   69.37    2.18 
   0  -2  21   16.52    0.70 
   0  -2  21   15.87    0.66 
   0  -2 -21   15.95    0.63 
   0  -2  21   13.05    0.84 
   0  -2 -21   15.81    0.63 
   0  -2 -21   15.64    0.69 
   0  -2 -21   15.59    0.74 
   0  -2  21   16.67    0.65 
   0   2 -21   15.73    0.64 
   0   2  21   15.65    0.59 
  -1  -2 -21   10.28    0.50 
  -1  -2 -21   10.47    0.49 
  -1  -2 -21   10.83    0.60 
  -1  -2 -21   10.50    0.60 
  -1  -2 -21   10.32    0.51 
   1  -2  21    9.96    0.57 
  -1   2 -21   11.41    0.46 
   1   2  21   10.31    0.45 
  -2  -2 -21    5.51    0.39 
  -2  -2 -21    5.40    0.43 
  -2  -2 -21    5.43    0.38 
   2   2  21    4.93    0.39 
   2   2  21    4.69    0.39 
  -3  -2 -21    3.56    0.34 
  -3  -2 -21    2.93    0.31 
   3   2  21    3.42    0.30 
   3   2  21    3.55    0.31 
   4  -2  21    1.78    0.26 
   4   2  21    1.75    0.22 
   4   2  21    1.75    0.23 
  -3  -3  21   14.62    0.54 
   3  -3 -21   14.83    0.53 
  -3  -3  21   13.70    0.59 
  -3  -3  21   14.34    0.55 
   3   3 -21   15.44    0.53 
  -2  -3  21    8.79    0.44 
   2  -3 -21    8.78    0.43 
   2  -3 -21    8.37    0.51 
  -2  -3  21    9.25    0.50 
   1  -3 -21   22.42    0.77 
  -1  -3  21   21.98    0.80 
   1  -3 -21   22.22    0.79 
  -1  -3  21   21.75    0.86 
   1  -3 -21   21.17    0.86 
   0  -3  21    1.36    0.30 
   0  -3 -21    1.27    0.23 
   0  -3 -21    1.53    0.23 
   0  -3 -21    1.44    0.25 
   0  -3 -21    1.62    0.31 
  -1  -3 -21    9.45    0.44 
  -1  -3 -21   10.60    0.47 
  -1  -3 -21   10.45    0.61 
  -1  -3 -21   10.11    0.48 
  -1  -3 -21    9.28    0.57 
   1  -3  21   10.45    0.54 
  -2  -3 -21    9.46    0.55 
  -2  -3 -21    9.20    0.45 
  -2  -3 -21    9.33    0.52 
   2  -3  21    9.97    0.51 
  -2  -3 -21    8.83    0.42 
  -2  -3 -21    9.52    0.45 
   2   3  21    9.45    0.48 
  -3  -3 -21    3.16    0.30 
  -3  -3 -21    3.92    0.31 
   3   3  21    3.65    0.32 
   3   3  21    3.76    0.32 
   2  -4 -21    0.50    0.14 
  -2  -4  21    0.30    0.14 
   2  -4 -21    0.35    0.14 
   2   4 -21    0.18    0.13 
   1  -4 -21    5.29    0.33 
   1  -4 -21    6.05    0.38 
   1  -4 -21    5.11    0.33 
   1  -4 -21    5.32    0.30 
   1  -4 -21    5.41    0.30 
  -1  -4  21    5.38    0.37 
   1   4 -21    5.61    0.32 
   0  -4 -21    6.42    0.32 
   0  -4 -21    6.43    0.35 
   0  -4 -21    6.02    0.32 
   0  -4  21    5.70    0.39 
   0  -4 -21    6.36    0.35 
   0  -4 -21    6.18    0.38 
  -1  -4 -21    0.01    0.16 
  -1  -4 -21   -0.02    0.15 
   1  -4  21   -0.01    0.20 
  -1  -4 -21   -0.08    0.14 
  -1  -4 -21   -0.03    0.15 
  -1  -4 -21    0.10    0.19 
  -2  -4 -21    0.16    0.12 
  -2  -4 -21    0.29    0.15 
  -2  -4 -21    0.30    0.16 
  -2  -4 -21    0.17    0.14 
  -2  -4 -21    0.37    0.17 
   2   4  21    0.25    0.15 
   2   4  21    0.42    0.16 
  -4   0  22    0.11    0.20 
   4   0 -22    0.02    0.17 
  -3   0  22    9.66    0.52 
   3   0 -22   10.22    0.50 
  -2   0  22   22.69    0.83 
  -2   0  22   22.34    0.81 
   2   0 -22   22.29    0.83 
  -2   0  22   20.99    0.84 
   2   0 -22   22.83    0.85 
  -1   0  22    8.78    0.43 
  -1   0  22    8.91    0.55 
   1   0 -22    8.60    0.54 
   1   0 -22    9.34    0.60 
   0   0  22    4.38    0.31 
   0   0 -22    4.38    0.30 
  -1   0 -22   11.15    0.60 
   1   0  22   11.66    0.52 
  -1   0 -22   12.80    0.49 
   1   0  22   12.45    0.49 
   2   0  22    1.25    0.30 
  -2   0 -22    1.69    0.34 
  -2   0 -22    1.52    0.22 
   3   0  22    3.76    0.35 
   4   0  22   28.62    0.99 
  -4  -1  22    5.65    0.38 
  -4   1  22    5.48    0.38 
   4   1 -22    5.59    0.33 
   3  -1 -22    0.75    0.24 
  -3  -1  22    0.58    0.23 
  -3   1  22    0.29    0.23 
   3   1 -22    0.82    0.21 
  -2  -1  22    3.06    0.31 
  -2  -1  22    4.33    0.34 
  -2  -1  22    4.18    0.35 
   2  -1 -22    4.10    0.35 
   2   1 -22    2.96    0.27 
   2   1 -22    3.86    0.36 
  -1  -1  22    0.15    0.26 
   1  -1 -22    0.35    0.29 
  -1  -1  22    0.44    0.26 
   1  -1 -22    0.53    0.27 
  -1  -1  22    0.19    0.22 
   1  -1 -22    0.31    0.20 
  -1   1  22    0.54    0.21 
   1   1 -22    0.26    0.20 
   0  -1 -22   25.42    0.84 
   0  -1  22   25.47    0.86 
   0  -1  22   23.90    0.89 
   0  -1 -22   24.66    0.94 
   0  -1 -22   24.64    0.93 
   0  -1  22   24.56    0.87 
   0   1  22   25.52    0.84 
   0   1 -22   25.34    0.88 
   1  -1  22   13.34    0.57 
  -1  -1 -22   12.38    0.64 
  -1  -1 -22   14.16    0.54 
  -1  -1 -22   12.95    0.59 
  -1   1 -22   12.35    0.64 
   1   1  22   12.50    0.59 
   1   1  22   14.22    0.52 
  -1   1 -22   13.71    0.52 
  -2  -1 -22   12.97    0.57 
  -2  -1 -22   12.42    0.65 
   2   1  22   13.00    0.58 
   2   1  22   12.80    0.53 
   3  -1  22    4.89    0.41 
   3   1  22    5.37    0.42 
   3   1  22    6.23    0.45 
   4  -1  22    0.16    0.23 
   4   1  22    0.43    0.21 
   4   1  22    0.24    0.22 
  -4  -2  22    1.29    0.28 
   4  -2 -22    0.71    0.16 
   4   2 -22    0.93    0.15 
  -3  -2  22    6.02    0.38 
  -3  -2  22    5.57    0.42 
   3  -2 -22    5.21    0.42 
   3   2 -22    5.81    0.35 
   3   2 -22    5.88    0.34 
   2  -2 -22    0.18    0.27 
  -2  -2  22    0.06    0.19 
  -2  -2  22    0.02    0.24 
   2   2 -22    0.06    0.20 
  -1  -2  22   20.74    0.80 
   1  -2 -22   19.00    0.81 
  -1  -2  22   19.07    0.75 
   1   2 -22   20.41    0.73 
   0  -2 -22    9.65    0.58 
   0  -2  22   10.41    0.52 
   0  -2 -22    9.73    0.60 
   0  -2  22    9.57    0.55 
   0  -2  22    8.91    0.51 
   0  -2 -22    9.45    0.47 
   0   2  22    9.95    0.44 
   0   2 -22    9.47    0.50 
  -1  -2 -22    0.22    0.30 
   1  -2  22   -0.05    0.37 
  -1  -2 -22    0.14    0.27 
  -1  -2 -22    0.36    0.22 
   1   2  22    0.18    0.19 
  -2  -2 -22    1.05    0.29 
  -2  -2 -22    1.14    0.23 
  -2  -2 -22    1.19    0.24 
   2   2  22    1.01    0.24 
   2   2  22    1.41    0.26 
  -3  -2 -22    0.04    0.22 
  -3  -2 -22    0.06    0.19 
   3   2  22   -0.04    0.20 
   3   2  22    0.18    0.22 
   4  -2  22    0.04    0.21 
   4   2  22    0.06    0.18 
   4   2  22    0.09    0.18 
  -3  -3  22    1.45    0.23 
   3  -3 -22    1.91    0.20 
  -3  -3  22    1.91    0.19 
   3   3 -22    1.95    0.17 
   3   3 -22    1.86    0.17 
   2  -3 -22   51.35    1.59 
   2  -3 -22   50.95    1.64 
  -2  -3  22   52.38    1.62 
  -2  -3  22   53.02    1.65 
   1  -3 -22    1.06    0.27 
   1  -3 -22    0.83    0.19 
  -1  -3  22    1.04    0.26 
  -1  -3  22    0.95    0.21 
   1  -3 -22    1.19    0.23 
   1   3 -22    0.99    0.19 
   0  -3 -22    5.29    0.37 
   0  -3 -22    5.23    0.47 
   0  -3 -22    5.50    0.35 
   0  -3  22    5.79    0.46 
  -1  -3 -22    2.67    0.25 
  -1  -3 -22    3.24    0.35 
  -1  -3 -22    2.79    0.32 
  -1  -3 -22    1.67    0.23 
   1  -3  22    2.60    0.31 
   2  -3  22    1.42    0.26 
  -2  -3 -22    1.35    0.21 
  -2  -3 -22    1.61    0.27 
  -2  -3 -22    1.72    0.27 
  -2  -3 -22    1.50    0.22 
   2   3  22    1.40    0.23 
   2   3  22    1.52    0.23 
  -3  -3 -22    0.14    0.16 
  -3  -3 -22    0.15    0.20 
   3   3  22    0.05    0.17 
   3   3  22    0.10    0.17 
  -2  -4  22    1.12    0.15 
   2  -4 -22    1.66    0.15 
   2   4 -22    1.51    0.15 
   1  -4 -22    1.98    0.22 
   1  -4 -22    2.77    0.19 
  -1  -4  22    2.90    0.26 
   1  -4 -22    2.02    0.20 
   1  -4 -22    2.99    0.23 
   0  -4 -22    0.75    0.20 
   0  -4 -22    0.65    0.14 
   0  -4 -22    0.66    0.16 
   0  -4  22    0.71    0.21 
   0  -4 -22    0.54    0.16 
  -1  -4 -22    1.37    0.15 
  -1  -4 -22    1.65    0.18 
  -1  -4 -22    1.18    0.17 
   1  -4  22    1.54    0.21 
  -1  -4 -22    1.91    0.21 
   1   4  22    1.84    0.19 
  -2  -4 -22    1.97    0.20 
  -2  -4 -22    2.24    0.19 
  -2  -4 -22    1.77    0.16 
   2   4  22    2.18    0.18 
   4   0 -23   -0.07    0.16 
  -4   0  23    0.20    0.19 
   3   0 -23    0.03    0.21 
  -3   0  23    0.14    0.23 
   2   0 -23    0.02    0.25 
   2   0 -23   -0.01    0.21 
  -2   0  23   -0.11    0.26 
  -2   0  23   -0.12    0.26 
   1   0 -23   -0.02    0.25 
   1   0 -23   -0.02    0.24 
  -1   0  23    0.07    0.19 
   0   0 -23    0.11    0.19 
   0   0 -23   -0.03    0.22 
   0   0  23    0.09    0.19 
  -1   0 -23   -0.05    0.17 
   1   0  23   -0.04    0.20 
  -1   0 -23   -0.13    0.26 
  -2   0 -23   -0.01    0.30 
   2   0  23    0.07    0.27 
   3   0  23   -0.05    0.26 
   4   0  23   -0.01    0.21 
  -4  -1  23    2.08    0.23 
   4  -1 -23    2.11    0.22 
   4   1 -23    1.64    0.17 
  -4   1  23    2.20    0.23 
   3  -1 -23    3.32    0.30 
  -3  -1  23    2.66    0.30 
   3   1 -23    3.55    0.27 
  -3   1  23    2.48    0.33 
   2  -1 -23    0.08    0.24 
  -2  -1  23    0.11    0.22 
  -2  -1  23    0.15    0.24 
   2   1 -23    0.14    0.20 
   2   1 -23    0.07    0.19 
  -1  -1  23    9.43    0.52 
  -1  -1  23    8.98    0.48 
  -1  -1  23    9.36    0.51 
   1  -1 -23    8.68    0.56 
   1  -1 -23    8.20    0.45 
   1  -1 -23    9.30    0.54 
   1   1 -23    9.20    0.46 
  -1   1  23    9.46    0.45 
   0  -1 -23   -0.05    0.27 
   0  -1 -23    0.10    0.20 
   0  -1  23    0.00    0.21 
   0  -1  23    0.11    0.25 
   0  -1 -23   -0.01    0.26 
   0   1 -23    0.06    0.22 
   0   1  23    0.14    0.17 
  -1  -1 -23   29.14    1.08 
  -1  -1 -23   31.02    1.03 
   1   1  23   29.76    0.99 
  -1   1 -23   29.86    1.05 
  -1   1 -23   30.44    0.99 
   1   1  23   30.19    1.04 
  -2  -1 -23    0.46    0.23 
  -2  -1 -23    0.08    0.28 
   2   1  23    0.25    0.24 
   3  -1  23    4.26    0.38 
   3   1  23    3.54    0.33 
   4  -1  23    0.11    0.21 
   4   1  23   -0.07    0.19 
   4   1  23    0.22    0.21 
   4   2 -23    0.11    0.12 
  -3  -2  23    5.51    0.36 
   3  -2 -23    5.49    0.40 
   3   2 -23    5.20    0.34 
   3   2 -23    5.77    0.33 
  -2  -2  23    0.14    0.24 
  -2  -2  23    0.11    0.20 
   2  -2 -23   -0.04    0.24 
   2   2 -23   -0.08    0.20 
   2   2 -23    0.05    0.17 
  -1  -2  23    2.01    0.26 
   1  -2 -23    1.91    0.31 
  -1  -2  23    1.77    0.30 
   1   2 -23    1.78    0.23 
   0  -2  23    1.89    0.26 
   0  -2  23    2.32    0.31 
   0  -2 -23    2.89    0.34 
   0  -2 -23    2.87    0.27 
   0  -2 -23    2.95    0.35 
   0   2 -23    2.54    0.27 
  -1  -2 -23    0.89    0.21 
  -1  -2 -23    1.23    0.29 
  -1  -2 -23    1.26    0.30 
  -2  -2 -23    1.56    0.28 
  -2  -2 -23    2.57    0.26 
  -2  -2 -23    2.81    0.28 
   2   2  23    2.83    0.30 
   2   2  23    2.10    0.26 
  -3  -2 -23    7.25    0.46 
   3   2  23    7.11    0.40 
   3   2  23    7.44    0.42 
   4  -2  23    0.51    0.22 
   4   2  23    0.33    0.17 
   3  -3 -23    0.85    0.16 
  -3  -3  23    0.67    0.15 
   3   3 -23    0.78    0.14 
   3   3 -23    0.67    0.14 
  -2  -3  23    7.64    0.46 
   2  -3 -23    8.18    0.39 
  -2  -3  23    7.86    0.39 
   2  -3 -23    8.08    0.46 
   2   3 -23    8.43    0.37 
   1  -3 -23    0.12    0.24 
  -1  -3  23    0.17    0.24 
   1  -3 -23    0.09    0.17 
  -1  -3  23    0.01    0.18 
   1   3 -23    0.08    0.16 
   0  -3  23    0.47    0.25 
   0  -3 -23    0.48    0.26 
   0  -3 -23    0.41    0.20 
   0  -3 -23    0.49    0.18 
  -1  -3 -23    0.02    0.18 
  -1  -3 -23    0.09    0.17 
   1  -3  23    0.10    0.24 
  -1  -3 -23    0.17    0.25 
  -1  -3 -23   -0.09    0.23 
  -2  -3 -23    0.35    0.18 
  -2  -3 -23    0.11    0.18 
  -2  -3 -23    0.12    0.21 
  -2  -3 -23    0.06    0.21 
   2   3  23    0.21    0.19 
   2   3  23    0.02    0.19 
  -3  -3 -23    1.51    0.20 
   3   3  23    1.48    0.18 
   3   3  23    1.43    0.19 
   1  -4 -23    1.19    0.14 
   1  -4 -23    1.24    0.18 
   1  -4 -23    1.26    0.15 
   0  -4 -23    0.82    0.15 
   0  -4  23    0.75    0.21 
   0  -4 -23    0.92    0.18 
   0  -4 -23    1.12    0.15 
   0  -4 -23    0.90    0.16 
  -1  -4 -23    0.05    0.14 
  -1  -4 -23    0.00    0.14 
  -1  -4 -23    0.03    0.16 
   1   4  23   -0.03    0.14 
   4   0 -24    0.04    0.14 
  -4   0  24    0.03    0.18 
   3   0 -24   17.42    0.67 
  -3   0  24   17.63    0.69 
  -2   0  24    0.14    0.25 
   2   0 -24    0.09    0.25 
   2   0 -24    0.21    0.22 
   1   0 -24    4.64    0.41 
   1   0 -24    4.76    0.43 
  -1   0  24    4.70    0.37 
   0   0 -24   25.20    0.87 
   0   0 -24   25.59    0.93 
   0   0  24   26.24    0.88 
  -1   0 -24   47.44    1.72 
  -1   0 -24   54.59    1.67 
  -2   0 -24    5.36    0.50 
   2   0  24    6.25    0.49 
   3   0  24    0.83    0.29 
   4   0  24    2.49    0.25 
   4  -1 -24    4.57    0.29 
  -4  -1  24    5.04    0.34 
   4   1 -24    5.64    0.29 
   3  -1 -24    3.48    0.29 
  -3  -1  24    3.77    0.32 
   3   1 -24    3.76    0.32 
  -2  -1  24    0.47    0.25 
   2  -1 -24    0.45    0.24 
  -2  -1  24    0.41    0.22 
   2   1 -24    0.60    0.22 
   2   1 -24    0.32    0.19 
  -1  -1  24    9.74    0.51 
  -1  -1  24    9.95    0.55 
  -1  -1  24    9.53    0.52 
   1  -1 -24    9.37    0.58 
   1  -1 -24    9.84    0.55 
  -1   1  24    9.89    0.52 
   1   1 -24   10.34    0.48 
   0  -1 -24   47.47    1.57 
   0  -1  24   48.94    1.53 
   0  -1 -24   47.20    1.57 
   0   1  24   48.02    1.50 
   0   1 -24   48.24    1.54 
  -1  -1 -24    1.20    0.27 
  -1  -1 -24    1.40    0.30 
   1   1  24    0.60    0.28 
  -1   1 -24    1.17    0.29 
   1   1  24    1.24    0.29 
  -2  -1 -24    3.18    0.30 
  -2  -1 -24    2.82    0.34 
   2   1  24    3.33    0.33 
   3  -1  24    5.40    0.49 
   3   1  24    6.47    0.44 
   4  -1  24    3.09    0.27 
   4   1  24    3.11    0.26 
   3  -2 -24    1.93    0.22 
  -3  -2  24    1.47    0.20 
  -3  -2  24    1.50    0.24 
   3   2 -24    1.58    0.18 
   3   2 -24    1.69    0.19 
  -2  -2  24    4.04    0.30 
   2  -2 -24    2.61    0.30 
  -2  -2  24    2.94    0.31 
   2   2 -24    3.63    0.31 
   2   2 -24    3.53    0.28 
  -1  -2  24    0.09    0.22 
  -1  -2  24    0.14    0.27 
   1  -2 -24    0.22    0.27 
   1   2 -24    0.16    0.19 
   0  -2 -24    4.74    0.37 
   0  -2  24    4.22    0.36 
   0  -2  24    4.68    0.41 
   0  -2 -24    5.51    0.40 
   0  -2 -24    3.67    0.36 
   0   2 -24    4.80    0.39 
  -1  -2 -24    0.26    0.26 
  -1  -2 -24    0.15    0.28 
  -1  -2 -24    0.26    0.20 
   1   2  24    0.07    0.21 
  -2  -2 -24    2.68    0.24 
  -2  -2 -24    3.04    0.27 
  -2  -2 -24    2.26    0.29 
   2   2  24    1.94    0.32 
   2   2  24    2.47    0.27 
  -3  -2 -24    6.74    0.43 
   3   2  24    7.03    0.40 
   3   2  24    6.85    0.40 
  -3  -3  24   16.47    0.55 
   3   3 -24   16.12    0.54 
  -2  -3  24   13.61    0.53 
   2  -3 -24   14.23    0.57 
  -2  -3  24   12.85    0.57 
   2   3 -24   14.26    0.52 
  -1  -3  24   -0.06    0.17 
   1  -3 -24    0.12    0.16 
   1  -3 -24    0.04    0.21 
  -1  -3  24    0.06    0.23 
   1   3 -24    0.01    0.15 
   0  -3 -24    1.08    0.24 
   0  -3  24    1.42    0.26 
   0  -3 -24    1.06    0.18 
  -1  -3 -24    5.15    0.43 
  -1  -3 -24    4.78    0.41 
  -1  -3 -24    4.46    0.33 
   1  -3  24    4.37    0.39 
  -1  -3 -24    4.98    0.32 
   1   3  24    4.99    0.35 
  -2  -3 -24    0.05    0.16 
  -2  -3 -24    0.04    0.20 
  -2  -3 -24    0.10    0.19 
  -2  -3 -24    0.01    0.17 
   2   3  24   -0.05    0.17 
   2   3  24    0.04    0.17 
  -3  -3 -24    1.32    0.18 
   3   3  24    1.20    0.17 
   1  -4 -24    1.29    0.17 
   0  -4 -24   24.66    0.82 
   0  -4 -24   25.51    0.79 
  -1  -4 -24    2.79    0.20 
  -1  -4 -24    3.10    0.26 
   1   4  24    3.15    0.22 
   4   0 -25    0.07    0.13 
  -3   0  25    0.05    0.22 
   3   0 -25   -0.15    0.18 
   2   0 -25    0.10    0.24 
   2   0 -25    0.01    0.21 
   1   0 -25   -0.02    0.23 
   1   0 -25    0.05    0.23 
   0   0  25   -0.03    0.21 
   0   0 -25    0.08    0.23 
  -1   0 -25   -0.05    0.25 
   2   0  25    0.03    0.30 
  -2   0 -25   -0.03    0.26 
   3   0  25   -0.03    0.24 
   4   0  25    0.02    0.17 
   4   1 -25    0.38    0.13 
   3  -1 -25    0.40    0.20 
  -3  -1  25    0.32    0.22 
   3   1 -25    0.22    0.16 
   2  -1 -25    0.09    0.23 
  -2  -1  25   -0.02    0.20 
  -2  -1  25   -0.01    0.24 
   2   1 -25   -0.12    0.20 
   2   1 -25   -0.03    0.19 
  -1  -1  25    0.04    0.27 
  -1  -1  25   -0.10    0.21 
   1  -1 -25    0.23    0.24 
   1  -1 -25   -0.27    0.26 
   1   1 -25    0.02    0.20 
   0  -1 -25   70.23    2.22 
   0  -1 -25   70.54    2.21 
   0   1 -25   71.88    2.19 
  -1  -1 -25   -0.06    0.26 
  -1  -1 -25    0.17    0.23 
  -1   1 -25    0.02    0.24 
   1   1  25    0.09    0.27 
  -2  -1 -25    4.80    0.45 
   2   1  25    5.04    0.43 
   3  -1  25    4.18    0.36 
   3   1  25    3.67    0.31 
   4  -1  25    0.14    0.18 
   4   1  25   -0.02    0.15 
  -3  -2  25   -0.08    0.16 
   3  -2 -25    0.02    0.18 
  -3  -2  25    0.06    0.19 
   3   2 -25    0.01    0.14 
   3   2 -25    0.03    0.14 
  -2  -2  25    5.53    0.41 
   2  -2 -25    5.02    0.43 
  -2  -2  25    5.33    0.38 
   2   2 -25    5.30    0.36 
   2   2 -25    5.51    0.35 
  -1  -2  25    0.76    0.27 
  -1  -2  25    1.10    0.24 
   1  -2 -25    0.94    0.27 
   1   2 -25    1.17    0.21 
   0  -2  25   -0.07    0.27 
   0  -2 -25    0.06    0.26 
   0  -2 -25   -0.08    0.20 
   0  -2  25    0.13    0.21 
   0  -2 -25   -0.08    0.26 
   0   2 -25    0.10    0.20 
  -1  -2 -25   -0.03    0.19 
  -1  -2 -25    0.11    0.25 
  -1  -2 -25   -0.02    0.26 
   1   2  25    0.13    0.22 
  -2  -2 -25    2.75    0.25 
  -2  -2 -25    2.48    0.29 
   2   2  25    2.61    0.28 
  -3  -2 -25    4.50    0.37 
   3   2  25    4.96    0.33 
   3   2  25    4.40    0.34 
   2  -3 -25    0.37    0.17 
  -2  -3  25    0.51    0.16 
  -2  -3  25    0.42    0.20 
   2   3 -25    0.54    0.14 
  -1  -3  25    1.93    0.21 
   1  -3 -25    1.83    0.19 
   1  -3 -25    1.77    0.24 
  -1  -3  25    1.62    0.25 
   1   3 -25    1.85    0.19 
   0  -3 -25    7.17    0.36 
   0  -3 -25    7.19    0.45 
   0  -3  25    6.92    0.45 
  -1  -3 -25   15.88    0.60 
  -1  -3 -25   16.27    0.65 
  -1  -3 -25   16.36    0.59 
   1  -3  25   16.54    0.65 
  -1  -3 -25   15.70    0.64 
   1   3  25   16.80    0.60 
  -2  -3 -25    0.02    0.17 
  -2  -3 -25    0.16    0.14 
  -2  -3 -25    0.20    0.17 
  -2  -3 -25    0.01    0.19 
   2   3  25    0.03    0.17 
   2   3  25    0.08    0.15 
   4   0 -26    1.51    0.18 
  -3   0  26    3.01    0.28 
   3   0 -26    2.76    0.24 
   2   0 -26    2.48    0.28 
   2   0 -26    2.57    0.28 
   1   0 -26   -0.01    0.23 
   1   0 -26    0.02    0.22 
   0   0 -26   21.11    0.81 
  -1   0 -26   15.27    0.68 
  -2   0 -26   26.70    0.96 
   3   0  26   12.42    0.56 
   4   0  26   10.12    0.43 
   3  -1 -26   -0.07    0.17 
  -3  -1  26   -0.11    0.21 
   3   1 -26    0.04    0.15 
  -2  -1  26    7.47    0.49 
   2  -1 -26    8.06    0.48 
  -2  -1  26    7.74    0.45 
   2   1 -26    8.12    0.44 
   2   1 -26    7.62    0.43 
   1  -1 -26    0.04    0.24 
   1  -1 -26   -0.02    0.24 
   1   1 -26    0.19    0.20 
   0  -1 -26    3.11    0.33 
   0  -1 -26    3.85    0.37 
   0   1 -26    3.80    0.32 
  -1  -1 -26    0.42    0.24 
  -1   1 -26    0.67    0.25 
  -2  -1 -26    2.02    0.28 
   2   1  26    1.90    0.28 
   3   1  26    6.98    0.41 
  -3  -2  26    0.18    0.16 
  -3  -2  26    0.19    0.25 
   3  -2 -26    0.21    0.16 
   3   2 -26    0.07    0.13 
   3   2 -26    0.21    0.14 
   2  -2 -26    1.49    0.22 
  -2  -2  26    2.15    0.23 
  -2  -2  26    1.57    0.25 
   2   2 -26    2.01    0.21 
   1  -2 -26    2.54    0.30 
  -1  -2  26    1.91    0.24 
  -1  -2  26    2.46    0.30 
   1   2 -26    1.68    0.21 
   0  -2  26    0.22    0.26 
   0  -2 -26    0.35    0.25 
   0  -2 -26    0.22    0.26 
   0   2 -26    0.21    0.19 
  -1  -2 -26    0.24    0.24 
  -1  -2 -26    0.26    0.18 
  -1  -2 -26    0.43    0.26 
   1   2  26    0.21    0.22 
  -2  -2 -26    2.37    0.27 
  -2  -2 -26    3.10    0.25 
   2   2  26    2.99    0.27 
  -3  -2 -26    4.90    0.35 
   3   2  26    4.91    0.29 
   2  -3 -26    2.22    0.19 
  -2  -3  26    2.72    0.23 
   2   3 -26    2.86    0.22 
   1  -3 -26    0.05    0.17 
  -1  -3  26   -0.11    0.20 
  -1  -3  26   -0.13    0.15 
   1   3 -26   -0.02    0.14 
   0  -3  26    0.67    0.23 
   0  -3 -26    0.50    0.20 
   0  -3 -26    0.57    0.16 
   0   3  26    0.66    0.18 
  -1  -3 -26    0.05    0.15 
  -1  -3 -26    0.06    0.19 
   1  -3  26    0.25    0.27 
  -1  -3 -26    0.12    0.19 
   1   3  26    0.14    0.16 
  -2  -3 -26    0.29    0.17 
   2   3  26    0.29    0.14 
   3   0 -27    0.01    0.16 
  -3   0  27    0.03    0.22 
   2   0 -27   -0.02    0.22 
   2   0 -27   -0.07    0.21 
   1   0 -27    0.04    0.23 
   1   0 -27   -0.03    0.22 
   0   0 -27    0.00    0.22 
  -1   0 -27   -0.09    0.23 
  -2   0 -27   -0.02    0.21 
   3   0  27    0.00    0.22 
   3  -1 -27    0.19    0.16 
  -3  -1  27    0.28    0.21 
   3   1 -27    0.30    0.15 
   2  -1 -27    4.56    0.38 
  -2  -1  27    4.53    0.34 
   2   1 -27    4.98    0.35 
   2   1 -27    4.47    0.35 
   1  -1 -27   13.98    0.64 
   1  -1 -27   14.23    0.64 
   1   1 -27   13.89    0.59 
   0  -1 -27    0.05    0.24 
   0  -1 -27    0.00    0.26 
   0   1 -27   -0.02    0.21 
  -1  -1 -27    2.37    0.28 
  -1   1 -27    2.86    0.27 
  -2  -1 -27    0.20    0.22 
   2   1  27    0.06    0.23 
   3   1  27    2.09    0.24 
  -2  -2  27    0.71    0.17 
  -2  -2  27    0.74    0.22 
   2  -2 -27    0.88    0.20 
   2   2 -27    0.87    0.16 
   1  -2 -27    1.23    0.24 
  -1  -2  27    1.07    0.20 
  -1  -2  27    0.84    0.26 
   1   2 -27    1.30    0.20 
   0  -2 -27   -0.01    0.23 
   0  -2 -27   -0.03    0.23 
   0   2 -27    0.00    0.18 
  -1  -2 -27    1.82    0.21 
  -1  -2 -27    1.83    0.27 
  -1  -2 -27    1.75    0.26 
   1   2  27    2.83    0.26 
  -2  -2 -27   -0.03    0.19 
   2   2  27    0.07    0.18 
   3   2  27    0.05    0.14 
   1  -3 -27    0.09    0.16 
   1   3 -27    0.05    0.14 
   0  -3 -27    8.03    0.36 
   0  -3 -27    8.07    0.40 
   0   3  27    8.57    0.37 
  -1  -3 -27    5.57    0.34 
  -1  -3 -27    5.33    0.28 
  -1  -3 -27    5.53    0.35 
   1   3  27    6.02    0.30 
   2   3  27    1.75    0.19 
   3   0 -28    0.64    0.16 
   2   0 -28   10.11    0.48 
   2   0 -28   10.00    0.47 
   1   0 -28    1.33    0.25 
   1   0 -28    1.32    0.26 
   0   0 -28   34.61    1.17 
  -1   0 -28  160.39    4.76 
  -2   0 -28    6.88    0.43 
   3   0  28    6.31    0.37 
   3  -1 -28    0.38    0.16 
   3   1 -28    0.51    0.14 
   2  -1 -28    9.15    0.45 
  -2  -1  28    9.37    0.50 
   2   1 -28    9.30    0.43 
   2   1 -28    8.80    0.43 
   1  -1 -28    2.16    0.27 
   1  -1 -28    2.46    0.29 
   1   1 -28    2.40    0.25 
   0  -1 -28    3.59    0.32 
   0   1 -28    3.33    0.29 
  -1  -1 -28    4.82    0.40 
  -1   1 -28    4.62    0.38 
  -2  -1 -28    5.95    0.41 
   2   1  28    6.03    0.40 
   3   1  28    6.09    0.34 
   2  -2 -28    9.27    0.44 
  -2  -2  28   12.01    0.58 
   2   2 -28    9.85    0.40 
   1  -2 -28   -0.02    0.20 
  -1  -2  28    0.05    0.23 
   1   2 -28    0.03    0.16 
   0  -2 -28    2.88    0.28 
   0  -2 -28    3.71    0.31 
   0   2 -28    3.46    0.31 
  -1  -2 -28    0.17    0.16 
  -1  -2 -28    0.02    0.20 
   1   2  28    0.11    0.20 
  -2  -2 -28    0.07    0.18 
   2   2  28    0.18    0.16 
   1  -3 -28    0.05    0.15 
   0  -3 -28    1.39    0.18 
   0  -3 -28    1.39    0.17 
   0   3  28    1.54    0.18 
  -1  -3 -28    0.42    0.14 
   1   3  28    0.49    0.14 
   3   0 -29   -0.02    0.13 
   2   0 -29    0.05    0.19 
   2   0 -29    0.07    0.17 
   1   0 -29   -0.12    0.19 
   1   0 -29   -0.08    0.21 
   0   0 -29    0.11    0.20 
  -1   0 -29    0.08    0.20 
  -2   0 -29   -0.03    0.20 
   2  -1 -29    1.34    0.21 
   2   1 -29    0.80    0.18 
   2   1 -29    0.87    0.18 
   1  -1 -29    0.07    0.21 
   1  -1 -29    0.09    0.21 
   1   1 -29   -0.09    0.17 
   0  -1 -29    0.21    0.21 
   0  -1 -29    0.52    0.24 
   0   1 -29    0.70    0.20 
  -1  -1 -29    1.57    0.24 
  -1   1 -29    1.09    0.22 
  -2  -1 -29    6.45    0.38 
   2   1  29    6.71    0.39 
   2  -2 -29    9.27    0.40 
   2   2 -29    9.64    0.38 
   1  -2 -29    0.59    0.18 
   1   2 -29    0.53    0.16 
   0  -2 -29    1.24    0.23 
   0  -2 -29    0.99    0.21 
   0   2 -29    1.17    0.19 
  -1  -2 -29    6.98    0.40 
   1   2  29    7.08    0.36 
  -2  -2 -29    0.21    0.17 
   2   2  29    0.28    0.15 
   2   0 -30   -0.08    0.27 
   2   0 -30    0.12    0.16 
   1   0 -30    2.41    0.25 
   1   0 -30    2.31    0.23 
   0   0 -30   43.20    1.38 
  -1   0 -30   12.30    0.53 
  -2   0 -30    0.36    0.20 
   2  -1 -30    0.11    0.15 
   2   1 -30   -0.08    0.15 
   2   1 -30    0.04    0.16 
   1  -1 -30    2.86    0.26 
   1  -1 -30    2.43    0.24 
   1   1 -30    3.18    0.28 
   0  -1 -30   -0.01    0.18 
   0   1 -30    0.04    0.17 
  -1  -1 -30    8.45    0.44 
  -1   1 -30    9.34    0.43 
  -2  -1 -30    0.03    0.18 
   1  -2 -30    1.55    0.19 
   1   2 -30    1.28    0.16 
   0  -2 -30    0.60    0.18 
   0  -2 -30    0.43    0.19 
   0   2 -30    0.53    0.16 
  -1  -2 -30    1.45    0.20 
   2   0 -31   -0.06    0.15 
   1   0 -31   -0.04    0.16 
   0   0 -31    0.01    0.17 
  -1   0 -31    0.09    0.18 
   2  -1 -31    0.01    0.17 
   1  -1 -31    0.11    0.18 
   1  -1 -31   -0.06    0.17 
   1   1 -31   -0.03    0.14 
   0  -1 -31    0.64    0.19 
   0   1 -31    0.72    0.18 
  -1  -1 -31    7.14    0.38 
  -1   1 -31    7.00    0.36 
   1   0 -32    0.61    0.17 
   0   0 -32    6.30    0.34 
  -1   0 -32    0.84    0.18 
   1   1 -32   14.36    0.52 
   0  -1 -32   -0.12    0.16 
   0   1 -32   -0.10    0.15 
  -1  -1 -32   10.89    0.45 
   0   0 -33   -0.04    0.17 
   0   0   0    0.00    0.00 
;
_shelx_hkl_checksum              63378
loop_
_space_group_symop_operation_xyz
'x, y, z'
'-x, y+1/2, -z+1/2'
'-x, -y, -z'
'x, -y-1/2, z-1/2'
loop_
_atom_site_label
_atom_site_type_symbol
_atom_site_fract_x
_atom_site_fract_y
_atom_site_fract_z
_atom_site_U_iso_or_equiv
_atom_site_adp_type
_atom_site_occupancy
_atom_site_site_symmetry_order
_atom_site_calc_flag
_atom_site_refinement_flags_posn
_atom_site_refinement_flags_adp
O1 O -0.12000(14) 0.68482(17) 0.32080(3) 0.0240(2) Uani 1 1 d . .
C1 C 0.3787(2) -0.2307(2) 0.45676(4) 0.0216(3) Uani 1 1 d . .
C2 C 0.4569(2) -0.4019(2) 0.48427(4) 0.0221(3) Uani 1 1 d . .
C3 C 0.0842(2) 0.5784(2) 0.31771(4) 0.0177(3) Uani 1 1 d . .
C4 C 0.2564(2) 0.6497(2) 0.27616(4) 0.0210(3) Uani 1 1 d . .
H4A H 0.2487 0.5082 0.2510 0.031 Uiso 1 1 calc R U
H4B H 0.4267 0.6642 0.2887 0.031 Uiso 1 1 calc R U
H4C H 0.2058 0.8229 0.2618 0.031 Uiso 1 1 calc R U
C5 C 0.3004(2) -0.0293(2) 0.42216(4) 0.0191(3) Uani 1 1 d . .
C6 C 0.4498(2) 0.0226(2) 0.38129(4) 0.0205(3) Uani 1 1 d . .
H6 H 0.5979 -0.0783 0.3765 0.025 Uiso 1 1 calc R U
C7 C 0.3822(2) 0.2206(2) 0.34793(4) 0.0195(3) Uani 1 1 d . .
H7 H 0.4859 0.2565 0.3205 0.023 Uiso 1 1 calc R U
C8 C 0.16372(19) 0.3682(2) 0.35402(4) 0.0173(3) Uani 1 1 d . .
C9 C 0.0134(2) 0.3138(2) 0.39467(4) 0.0193(3) Uani 1 1 d . .
H9 H -0.1361 0.4128 0.3991 0.023 Uiso 1 1 calc R U
C10 C 0.0803(2) 0.1175(2) 0.42837(4) 0.0214(3) Uani 1 1 d . .
H10 H -0.0233 0.0821 0.4558 0.026 Uiso 1 1 calc R U
loop_
_atom_site_aniso_label
_atom_site_aniso_U_11
_atom_site_aniso_U_22
_atom_site_aniso_U_33
_atom_site_aniso_U_23
_atom_site_aniso_U_13
_atom_site_aniso_U_12
O1 0.0189(4) 0.0272(5) 0.0257(5) 0.0035(3) 0.0003(3) 0.0059(3)
C1 0.0226(6) 0.0196(6) 0.0225(6) -0.0025(5) -0.0035(5) -0.0017(4)
C2 0.0239(6) 0.0196(7) 0.0226(6) -0.0012(5) -0.0031(5) -0.0004(5)
C3 0.0168(5) 0.0165(6) 0.0197(6) -0.0036(4) -0.0031(4) -0.0014(4)
C4 0.0206(6) 0.0212(6) 0.0211(6) 0.0019(4) 0.0000(5) 0.0003(4)
C5 0.0210(6) 0.0155(6) 0.0208(6) -0.0011(4) -0.0058(5) -0.0025(4)
C6 0.0174(6) 0.0183(6) 0.0258(6) -0.0019(5) -0.0016(5) 0.0015(4)
C7 0.0181(6) 0.0196(6) 0.0209(6) -0.0011(4) 0.0013(4) -0.0008(4)
C8 0.0162(5) 0.0164(6) 0.0193(6) -0.0025(4) -0.0023(4) -0.0019(4)
C9 0.0158(5) 0.0207(7) 0.0214(6) -0.0008(4) -0.0005(4) 0.0015(4)
C10 0.0212(6) 0.0241(7) 0.0190(6) 0.0006(5) 0.0008(4) -0.0016(5)
loop_
_atom_type_symbol
_atom_type_description
_atom_type_scat_dispersion_real
_atom_type_scat_dispersion_imag
_atom_type_scat_source
C C 0.0181 0.0091 'International Tables Vol C Tables 4.2.6.8 and 6.1.1.4'
H H 0.0000 0.0000 'International Tables Vol C Tables 4.2.6.8 and 6.1.1.4'
O O 0.0492 0.0322 'International Tables Vol C Tables 4.2.6.8 and 6.1.1.4'
loop_
_geom_angle_atom_site_label_1
_geom_angle_atom_site_label_2
_geom_angle_atom_site_label_3
_geom_angle
_geom_angle_site_symmetry_3
C2 C1 C5 176.18(12) .
C1 C2 C2 179.29(17) 3_646
O1 C3 C8 120.61(10) .
O1 C3 C4 120.48(10) .
C8 C3 C4 118.87(10) .
C3 C4 H4A 109.5 .
C3 C4 H4B 109.5 .
H4A C4 H4B 109.5 .
C3 C4 H4C 109.5 .
H4A C4 H4C 109.5 .
H4B C4 H4C 109.5 .
C6 C5 C10 119.36(11) .
C6 C5 C1 118.78(10) .
C10 C5 C1 121.85(10) .
C7 C6 C5 120.08(11) .
C7 C6 H6 120.0 .
C5 C6 H6 120.0 .
C6 C7 C8 120.82(11) .
C6 C7 H7 119.6 .
C8 C7 H7 119.6 .
C7 C8 C9 118.96(10) .
C7 C8 C3 121.64(10) .
C9 C8 C3 119.39(10) .
C10 C9 C8 120.62(10) .
C10 C9 H9 119.7 .
C8 C9 H9 119.7 .
C9 C10 C5 120.16(11) .
C9 C10 H10 119.9 .
C5 C10 H10 119.9 .
loop_
_geom_bond_atom_site_label_1
_geom_bond_atom_site_label_2
_geom_bond_distance
_geom_bond_site_symmetry_2
O1 C3 1.2222(13) .
C1 C2 1.2050(17) .
C1 C5 1.4325(16) .
C2 C2 1.373(2) 3_646
C3 C8 1.4952(15) .
C3 C4 1.5068(16) .
C4 H4A 0.9800 .
C4 H4B 0.9800 .
C4 H4C 0.9800 .
C5 C6 1.3990(16) .
C5 C10 1.4010(16) .
C6 C7 1.3828(16) .
C6 H6 0.9500 .
C7 C8 1.3951(15) .
C7 H7 0.9500 .
C8 C9 1.3994(16) .
C9 C10 1.3821(16) .
C9 H9 0.9500 .
C10 H10 0.9500 .
