#------------------------------------------------------------------------------
#$Date: 2019-11-25 22:42:56 +0200 (Mon, 25 Nov 2019) $
#$Revision: 241984 $
#$URL: file:///home/coder/svn-repositories/cod/cif/4/13/18/4131893.cif $
#------------------------------------------------------------------------------
#
# This file is available in the Crystallography Open Database (COD),
# http://www.crystallography.net/
#
# All data on this site have been placed in the public domain by the
# contributors.
#
data_4131893
loop_
_publ_author_name
'Liao, Wei-Qiang'
'Tang, Yuan-Yuan'
'Li, Peng-Fei'
'You, Yu-Meng'
'Xiong, Ren-Gen'
_publ_section_title
;
 Competitive Halogen Bond in the Molecular Ferroelectric with Large
 Piezoelectric Response.
;
_journal_issue                   11
_journal_name_full               'Journal of the American Chemical Society'
_journal_page_first              3975
_journal_page_last               3980
_journal_paper_doi               10.1021/jacs.7b12524
_journal_volume                  140
_journal_year                    2018
_chemical_formula_sum            'C4 H11 Br3 Cd Cl N'
_chemical_formula_weight         460.72
_space_group_crystal_system      hexagonal
_space_group_IT_number           186
_space_group_name_Hall           'P 6c -2c'
_space_group_name_H-M_alt        'P 63 m c'
_audit_creation_method           SHELXL-2014/7
_cell_angle_alpha                90
_cell_angle_beta                 90
_cell_angle_gamma                120
_cell_formula_units_Z            2
_cell_length_a                   9.5140(4)
_cell_length_b                   9.5140(4)
_cell_length_c                   7.0191(5)
_cell_measurement_reflns_used    1605
_cell_measurement_temperature    273(2)
_cell_measurement_theta_max      27.3852
_cell_measurement_theta_min      2.4718
_cell_volume                     550.22(5)
_computing_structure_refinement  'SHELXL-2014/7 (Sheldrick, 2014)'
_diffrn_ambient_temperature      273(2)
_diffrn_measured_fraction_theta_full 1.000
_diffrn_measured_fraction_theta_max 1.000
_diffrn_measurement_device_type  'Rigaku saturn 724'
_diffrn_radiation_type           MoK\a
_diffrn_radiation_wavelength     0.71073
_diffrn_reflns_av_R_equivalents  0.0818
_diffrn_reflns_av_unetI/netI     0.0519
_diffrn_reflns_Laue_measured_fraction_full 1.000
_diffrn_reflns_Laue_measured_fraction_max 1.000
_diffrn_reflns_limit_h_max       8
_diffrn_reflns_limit_h_min       -12
_diffrn_reflns_limit_k_max       12
_diffrn_reflns_limit_k_min       -10
_diffrn_reflns_limit_l_max       9
_diffrn_reflns_limit_l_min       -9
_diffrn_reflns_number            3831
_diffrn_reflns_point_group_measured_fraction_full 1.000
_diffrn_reflns_point_group_measured_fraction_max 1.000
_diffrn_reflns_theta_full        25.242
_diffrn_reflns_theta_max         27.486
_diffrn_reflns_theta_min         2.472
_exptl_absorpt_coefficient_mu    13.060
_exptl_absorpt_correction_T_max  1.0000
_exptl_absorpt_correction_T_min  0.6030
_exptl_absorpt_correction_type   multi-scan
_exptl_crystal_colour            COLORLESS
_exptl_crystal_density_diffrn    2.781
_exptl_crystal_description       BLOCK
_exptl_crystal_F_000             424
_exptl_crystal_size_max          0.15
_exptl_crystal_size_mid          0.12
_exptl_crystal_size_min          0.10
_refine_diff_density_max         1.322
_refine_diff_density_min         -1.269
_refine_diff_density_rms         0.275
_refine_ls_abs_structure_details
;
 Refined as an inversion twin.
;
_refine_ls_abs_structure_Flack   0.31(9)
_refine_ls_extinction_method     none
_refine_ls_goodness_of_fit_ref   1.060
_refine_ls_hydrogen_treatment    undef
_refine_ls_matrix_type           full
_refine_ls_number_parameters     34
_refine_ls_number_reflns         501
_refine_ls_number_restraints     31
_refine_ls_restrained_S_all      1.063
_refine_ls_R_factor_all          0.0802
_refine_ls_R_factor_gt           0.0697
_refine_ls_shift/su_max          0.000
_refine_ls_shift/su_mean         0.000
_refine_ls_structure_factor_coef Fsqd
_refine_ls_weighting_details
'w=1/[\s^2^(Fo^2^)+(0.1341P)^2^] where P=(Fo^2^+2Fc^2^)/3'
_refine_ls_weighting_scheme      calc
_refine_ls_wR_factor_gt          0.1937
_refine_ls_wR_factor_ref         0.2043
_reflns_Friedel_coverage         0.842
_reflns_Friedel_fraction_full    1.000
_reflns_Friedel_fraction_max     1.000
_reflns_number_gt                376
_reflns_number_total             501
_reflns_threshold_expression     'I > 2\s(I)'
_cod_data_source_file            ja7b12524_si_003.cif
_cod_data_source_block           shelxl
_cod_depositor_comments
;
The following automatic conversions were performed:

data item '_exptl_absorpt_correction_type' value 'Multi-scan' was
changed to 'multi-scan' in accordance with the
/home/saulius/struct/COD-crude-data/automatic-downloads/DataCite-retrospective/ACS/depositions/lib/dictionaries/cif_core.dic
dictionary named 'cif_core.dic' version 2.4.2 last updated on
2011-04-26.

Automatic conversion script
Id: cif_fix_values 6909 2019-04-08 15:41:33Z antanas 
;
_cod_original_cell_volume        550.22(6)
_cod_database_code               4131893
_shelx_shelxl_version_number     2014/7
_shelx_space_group_comment
;
The symmetry employed for this shelxl refinement is uniquely defined
by the following loop, which should always be used as a source of
symmetry information in preference to the above space-group names.
They are only intended as comments.
;
_shelx_res_file
;

    shelxl.res created by SHELXL-2014/7


TITL shelxl in P6(3)mc
CELL 0.71073   9.5140   9.5140   7.0191  90.000  90.000 120.000
ZERR    2.00   0.0004   0.0004   0.0005   0.000   0.000   0.000
LATT -1
SYMM -Y, X-Y, Z
SYMM -X+Y, -X, Z
SYMM -X, -Y, 0.5+Z
SYMM Y, -X+Y, 0.5+Z
SYMM X-Y, X, 0.5+Z
SYMM -Y, -X, Z
SYMM -X+Y, Y, Z
SYMM X, X-Y, Z
SYMM Y, X, 0.5+Z
SYMM X-Y, -Y, 0.5+Z
SYMM -X, -X+Y, 0.5+Z
SFAC C H N CL BR CD
UNIT 8 22 2 2 6 2

L.S. 34
BOND
ACTA
TEMP 0
FMAP 2
PLAN 20
DFIX 1.5 N1 C1 N1 C2
DFIX 1.7 0.001 C2 CL1
DFIX 2.7 0.001 CL1 N1

SUMP 0.33333 0 1 2
SUMP 0.66667 0 1 3
ISOR C1 C2 CL1
SIMU 0.001 C1 C2
TWIN
WGHT    0.134100
BASF   0.30528
FVAR       5.28295   0.33333   0.66667
CD1   6    1.000000    1.000000    0.581296    10.16667    0.05725    0.05725 =
         0.02857    0.00000    0.00000    0.02863
BR1   5    0.737778    0.868889    0.834909    10.50000    0.05916    0.08679 =
         0.05129    0.00647    0.01295    0.02958
N1    3    0.333333    0.666667    1.252928    10.16667    0.05150    0.05150 =
         0.07480    0.00000    0.00000    0.02575
C2    1    0.389407    0.610593    1.410793    30.50000    0.11680    0.11680 =
         0.13304   -0.03806    0.03806    0.04728
C1    1    0.405106    0.594894    1.138989    30.50000    0.11677    0.11677 =
         0.13305   -0.03798    0.03798    0.04732
CL1   4    0.273347    0.546694    1.610877    20.50000    0.15372    0.31648 =
         0.47546    0.26677    0.13338    0.15824

HKLF 4

REM  shelxl in P6(3)mc
REM R1 =  0.0697 for     376 Fo > 4sig(Fo)  and  0.0802 for all     501 data
REM     34 parameters refined using     31 restraints

END

WGHT      0.1322      0.0000

REM Highest difference peak  1.322,  deepest hole -1.269,  1-sigma level  0.275
Q1    1   0.2997  0.5993  1.0298  10.50000  0.05    1.32
Q2    1   0.2911  0.6455  1.6391  10.50000  0.05    1.19
Q3    1   0.3764  0.6236  1.1820  10.50000  0.05    0.79
Q4    1   0.3731  0.6269  1.4887  10.50000  0.05    0.76
Q5    1   0.4276  0.5724  1.4380  10.50000  0.05    0.71
Q6    1   0.4312  0.5688  1.2391  10.50000  0.05    0.68
Q7    1   0.7415  0.8708  0.9796  10.50000  0.05    0.55
Q8    1   0.7355  0.8678  0.6887  10.50000  0.05    0.54
Q9    1   0.5812  0.7906  0.8130  10.50000  0.05    0.51
Q10   1   0.3355  0.4651  1.1714  11.00000  0.05    0.45
Q11   1   0.5514  0.6643  1.4963  11.00000  0.05    0.44
Q12   1   0.4763  0.5237  1.3265  10.50000  0.05    0.43
Q13   1   0.6622  1.0008  0.9798  11.00000  0.05    0.35
Q14   1   0.5230  0.4770  1.3301  10.50000  0.05    0.34
Q15   1   0.3333  0.6667  1.8165  10.16667  0.05    0.33
Q16   1   0.2795  0.5589  1.8202  10.50000  0.05    0.33
Q17   1   1.0000  1.0000  0.7268  10.16667  0.05    0.32
Q18   1   0.4193  0.5807  0.9549  10.50000  0.05    0.32
Q19   1   0.1816  0.3631  1.2520  10.50000  0.05    0.30
Q20   1   0.1700  0.3400  1.3909  10.50000  0.05    0.29
;
_shelx_res_checksum              19699
_shelx_hkl_file
;
   0   0   1  456.35  309.35   1-0.36579 0.36579 0.92931-0.92931 0.05060 0.05060
   0   0  -1  329.22  212.96   1-0.33609 0.33609 0.94046-0.94046-0.05060-0.05060
   0   0  -1  258.11  287.76   1 0.99756-0.99756-0.04784 0.04784-0.05074-0.05074
   0   0   1  203.50  280.96   1 0.99280-0.99280-0.10850 0.10850 0.05074 0.05074
   0   0   2127134.6 4015.70   1-0.37915 0.37915 0.91978-0.91978 0.10120 0.10121
   0   0  -2114453.1 3374.14   1-0.31979 0.31979 0.94206-0.94206-0.10121-0.10121
   0   0  -2122712.2 4022.67   1 0.99468-0.99468-0.01710 0.01710-0.10148-0.10148
   0   0   2125689.3 4169.71   1 0.98516-0.98516-0.13841 0.13841 0.10148 0.10148
   0   0   3  112.42  577.81   1-0.39151 0.39151 0.90756-0.90756 0.15181 0.15181
   0   0  -3  166.08  804.94   1 0.98824-0.98824 0.01391-0.01391-0.15223-0.15223
   0   0   4630150.141449.04   1-0.40283 0.40283 0.89260-0.89260 0.20241 0.20242
   0   0  -4428727.128469.56   1 0.97813-0.97813 0.04522-0.04522-0.20297-0.20297
   0   0   5  236.41  800.15   1-0.41310 0.41310 0.87482-0.87482 0.25302 0.25302
   0   0  -5  652.92 1222.62   1 0.96426-0.96426 0.07649-0.07649-0.25365-0.25365
   0   0   620013.32 9176.46   1-0.42227 0.42227 0.85410-0.85410 0.30362 0.30363
   0   0  -623732.51 3820.95   1 0.94636-0.94636 0.10840-0.10840-0.30438-0.30438
   0   0   7  342.47  839.02   1-0.43027 0.43027 0.83029-0.83029 0.35423 0.35423
   0   0  -7 1393.13 2166.78   1 0.92418-0.92418 0.14066-0.14066-0.35511-0.35511
   0   0   8100378.532132.73   1-0.43703 0.43703 0.80318-0.80318 0.40483 0.40484
   0   0  -867641.1920981.61   1 0.89736-0.89736 0.17328-0.17328-0.40584-0.40584
   0   0   9 1027.94 1275.65   1-0.44229 0.44229 0.77263-0.77263 0.45542 0.45542
   0   0  -9  431.04 1118.16   1 0.86543-0.86543 0.20630-0.20630-0.45657-0.45657
   1  -1   9  481.81  940.23   1-0.44798 0.49109 0.71316-0.78783 0.53917 0.37167
   0   1   9 1031.95 1415.62   1-0.43805 0.48116 0.79749-0.72282 0.41485 0.49598
  -1   0   9  665.68 1315.13   1-0.43841 0.35218 0.79565-0.79565 0.41800 0.49284
   0  -1  -9 1007.73 1354.17   1 0.81755-0.86077 0.24803-0.32289-0.51969-0.39344
  -1   1  -9  945.59 1694.36   1 0.84698-0.89020 0.22331-0.14845-0.48244-0.43069
   1   0  -9  408.10 1065.81   1 0.91472-0.82828 0.15281-0.15281-0.37407-0.53906
   1  -1   835815.30 5104.83   1-0.44596 0.48907 0.74133-0.81600 0.50153 0.30810
  -1   0   837561.8914077.93   1-0.43160 0.34534 0.82560-0.82560 0.36345 0.44622
   0   1   833386.8311093.13   1-0.43050 0.47363 0.82948-0.75478 0.35583 0.45384
   0  -1  -835732.49 4139.59   1 0.85172-0.89494 0.21906-0.29392-0.47599-0.33568
  -1   1  -844389.0314546.67   1 0.87700-0.92022 0.19492-0.12006-0.43916-0.37251
   1   0  -835097.14 4627.58   1 0.94416-0.85772 0.11189-0.11189-0.30989-0.50178
   1  -1   7 1320.05 1268.91   1-0.44333 0.48645 0.76503-0.83971 0.46708 0.24135
  -1   0   7 1257.06 1732.95   1-0.42300 0.33674 0.85218-0.85218 0.30798 0.40048
   0   1   7  224.44 1007.06   1-0.42072 0.46385 0.85801-0.78331 0.29462 0.41384
   0  -1  -7  870.55 1092.43   1 0.88022-0.92344 0.19164-0.26650-0.43413-0.27608
  -1   1  -7  356.06 1274.99   1 0.90207-0.94529 0.16793-0.09307-0.39756-0.31265
   1   0  -7  949.62 1848.55   1 0.96762-0.88118 0.06958-0.06958-0.24260-0.46761
   1  -1   6 6333.66 3475.62   1-0.44052 0.48363 0.78396-0.85864 0.43742 0.16981
  -1   0   6 6396.78 2757.62   1-0.41274 0.32648 0.87554-0.87554 0.25112 0.35613
   0   1   6 6280.77 3036.83   1-0.40859 0.45172 0.88322-0.80852 0.23012 0.37713
   0  -1  -6 4226.50 2062.26   1 0.90344-0.94666 0.16635-0.24121-0.39511-0.21364
  -1   1  -6 5609.13 2149.48   1 0.92256-0.96577 0.14280-0.06794-0.35845-0.25030
   1   0  -6 6377.87 2381.41   1 0.98496-0.89858 0.02537-0.02537-0.17085-0.43806
   1  -1   511355.25 4049.82   1-0.43810 0.48121 0.79722-0.87189 0.41532 0.09069
  -1   0   510289.68 3866.73   1-0.40061 0.31435 0.89588-0.89588 0.19209 0.31395
   0   1   511371.82 4717.43   1-0.39347 0.43660 0.90525-0.83055 0.16028 0.34576
   0  -1  -511592.94 2148.63   1 0.92140-0.96462 0.14430-0.21916-0.36080-0.14649
  -1   1  -510627.67 2726.29   1 0.93863-0.98185 0.12034-0.04549-0.32322-0.18407
   1   0  -5 8971.42 2212.10   1 0.99552-0.90914-0.02312 0.02312-0.09159-0.41584
   1  -1   4360211.027607.09   1-0.43720 0.48033 0.80238-0.87708 0.40624-0.00140
  -1   0   4277444.710167.19   1-0.38614 0.29989 0.91332-0.91332 0.12933 0.27550
   0   1   4279772.1 8145.48   1-0.37393 0.41705 0.92391-0.84921 0.08096 0.32387
   0  -1  -4291476.919520.25   1 0.93344-0.97666 0.12791-0.20277-0.33512-0.07071
  -1   1  -4265021.5 7251.16   1 0.95018-0.99340 0.10215-0.02729-0.29447-0.11136
   1   0  -4284831.719471.72   1 0.99693-0.91054-0.07829 0.07829-0.00002-0.40592
   1  -1   312201.32 1607.08   1-0.43881 0.48192 0.79356-0.86824 0.42153-0.11791
  -1   0   314566.74 1874.77   1-0.36820 0.28194 0.92784-0.92784 0.05946 0.24416
   0  -1  -311234.89 1459.32   1 0.93668-0.97990 0.12324-0.19809-0.32777 0.02339
  -1   1  -311421.04 1629.30   1 0.95628-0.99950 0.09159-0.01673-0.27772-0.02665
   1   0  -311584.18 1589.07   1 0.98266-0.89627-0.14593 0.14593 0.11432-0.41878
   1  -1   2 7418.05 2955.00   1-0.44521 0.48833 0.74898-0.82365 0.49071-0.28830
  -1   1  -2 4996.51 2084.15   1-0.41947 0.37635 0.86102-0.78632 0.28753-0.48995
  -1   0   2 6804.97 1838.10   1-0.34344 0.25719 0.93878-0.93878-0.02676 0.22918
   1   0  -2 3453.88  577.14   1-0.27159 0.35781 0.93321-0.93321-0.23525 0.03282
   0  -1  -2 4289.47  650.68   1-0.19886 0.15575 0.89188-0.96655-0.40620 0.20376
  -1   0   2 7181.64 1111.20   1-0.93060 0.84415 0.23939-0.23939-0.27686 0.47967
   1   0  -2 4308.63 1746.47   1-0.81438 0.90083 0.34453-0.34453-0.46698 0.26417
   0  -1  -2 5437.89  861.98   1 0.91648-0.95970 0.15060-0.22546-0.37063 0.16771
  -1   1  -2 4691.86 1083.55   1 0.95299-0.99621 0.09738-0.02252-0.28691 0.08399
   1  -1   2 6109.72  848.03   1 0.99493-0.95174-0.01876-0.05604-0.09876 0.30174
   0   1   2 6431.46  763.08   1 0.99625-0.95306-0.02936 0.10417-0.08130 0.28428
   1  -1   1 1261.02  739.31   1-0.44461 0.48772 0.56592-0.64060 0.69429-0.59308
  -1   1  -1 2344.33  967.34   1-0.44914 0.40603 0.66609-0.59142 0.59546-0.69667
  -1   0   1  727.10  295.94   1-0.29740 0.21118 0.94020-0.94020-0.16600 0.26722
   1   0  -1 1460.20  343.79   1-0.24668 0.33290 0.92231-0.92231-0.29746 0.19624
   0   1   1 1891.46  303.37   1-0.16331 0.20642 0.86234-0.78767-0.47926 0.58048
   0  -1  -1 1911.96  328.29   1-0.08351 0.04041 0.77654-0.85120-0.62450 0.52327
  -1   0   1 1301.80  825.85   1-0.74323 0.65678 0.38649-0.38649-0.54609 0.64750
   1   0  -1 2016.26  678.43   1-0.64145 0.72795 0.43198-0.43198-0.63397 0.53242
   0  -1  -1 1702.85  315.73   1 0.71004-0.75326 0.32091-0.39576-0.62678 0.52532
   0   1   1 1061.92  314.82   1 0.88447-0.84125 0.18724-0.11238-0.42736 0.52882
  -1   1  -1 4499.88  850.83   1 0.91762-0.96084 0.14916-0.07430-0.36838 0.26692
   1  -1   1 1624.45  582.09   1 0.96164-0.91842 0.08163-0.15649-0.26185 0.36331
   0  -1   0330279.9 8152.25   1-0.36723 0.32414 0.16226-0.23690 0.91586-0.91586
  -1   0   0259098.2 6501.08   1-0.04310-0.04310 0.72500-0.72500-0.68739 0.68739
   1   0   0279680.5 7048.67   1 0.04310 0.04310 0.59691-0.59691-0.80114 0.80114
  -1   1   0286546.0 7444.85   1 0.24583-0.28894 0.19170-0.11704-0.95016 0.95016
   1  -1   0264567.4 7182.33   1 0.27774-0.23463 0.11057-0.18524-0.95427 0.95427
   0  -1   0293933.0 7318.08   1-0.74986 0.70663 0.38302-0.45789-0.53944 0.53944
   0  -1   1  766.90  583.27   1-0.44310 0.39998 0.76682-0.84149 0.46436-0.36316
   1   0   1  936.59  465.87   1-0.44314 0.52937 0.76648-0.76648 0.46488-0.36367
   0   1  -1 2222.10  910.73   1-0.42901 0.47214 0.83450-0.75980 0.34575-0.44696
  -1   0  -1 3919.66  881.69   1-0.41574 0.32948 0.86941-0.86941 0.26695-0.36816
  -1   1   1  820.12  355.07   1-0.11833 0.07522 0.81641-0.74175-0.56521 0.66644
   1  -1  -1 2262.08  467.54   1-0.05926 0.10237 0.74628-0.82094-0.66298 0.56175
   0   1  -1 2794.43 1325.80   1-0.92190 0.96512 0.25012-0.17525-0.29586 0.19446
  -1   1   1 1560.64  642.57   1-0.77285 0.72962 0.37032-0.29545-0.51532 0.61672
   1  -1  -1 1845.90  597.53   1-0.58972 0.63297 0.44993-0.52484-0.67065 0.56910
  -1   0  -1 1805.06  453.13   1 0.66993-0.75640 0.34321-0.34321-0.65832 0.55683
   1   0   1 1026.86  423.56   1 0.77179-0.68535 0.28188-0.28188-0.56998 0.67144
   0   1  -1 1495.02  427.05   1 0.96473-0.92153-0.18711 0.26192 0.18514-0.28663
   0  -1   2 6958.16 2895.43   1-0.42780 0.38468 0.83836-0.91306 0.33782-0.13540
   1   0   2 8079.51 2086.28   1-0.42151 0.50777 0.85603-0.85603 0.29920-0.09678
   0   1  -2 4032.45 1893.34   1-0.38738 0.43051 0.91205-0.83735 0.13445-0.33687
  -1   0  -2 4197.00 1263.81   1-0.36129 0.27504 0.93181-0.93181 0.03437-0.23679
  -1   1   2 6501.36  731.46   1-0.25526 0.21215 0.92648-0.85181-0.27651 0.47895
   1  -1  -2 4015.21  568.55   1-0.16602 0.20913 0.86478-0.93944-0.47390 0.27147
   1  -1  -2 4682.84 1882.25   1-0.85054 0.89377 0.31830-0.39317-0.41862 0.21581
  -1   0  -2 4739.09  965.55   1 0.84798-0.93442 0.22242-0.22242-0.48109 0.27817
   1   0   2 8015.10 1124.63   1 0.95325-0.86681 0.09693-0.09693-0.28619 0.48911
   0   1  -2 4672.40  967.63   1 0.99273-0.94954-0.10881 0.18362 0.05127-0.25425
   1  -1  -2 4378.10  735.60   1 0.97483-0.93164-0.16603 0.09122 0.14876-0.35174
   0  -1   314570.49 1682.47   1-0.42383 0.38070 0.84994-0.92464 0.31297-0.00934
  -1   1   3 9719.77 1662.15   1-0.31602 0.27291 0.94206-0.86739-0.11245 0.41610
  -1   0  -310969.94 1449.74   1 0.89057-0.97701 0.18075-0.18075-0.41737 0.11299
   0   1  -312454.05 1835.92   1 0.99773-0.95454-0.05626 0.13107-0.03676-0.26769
   1  -1  -311950.91 1505.96   1 0.99712-0.95393-0.07565 0.00084-0.00443-0.30002
   0  -1   4328656.822647.77   1-0.42536 0.38223 0.84567-0.92037 0.32233 0.08250
  -1   1   4257673.6 7973.55   1-0.35185 0.30872 0.93605-0.86135 0.00140 0.40343
  -1   0  -4263672.5 6631.60   1 0.89869-0.98513 0.17179-0.17179-0.40353-0.00230
   0   1  -4233152.3 6541.12   1 0.99398-0.95079-0.01268 0.08750-0.10874-0.29720
   1  -1  -4250926.3 6205.54   1 0.99451-0.95131-0.01593-0.05887-0.10341-0.30253
   1   0   513137.68 5366.06   1-0.42708 0.51334 0.84058-0.84058 0.33317 0.17287
   0  -1   512379.49 5143.18   1-0.42918 0.38605 0.83394-0.90864 0.34690 0.15914
  -1   1   511087.26 3826.29   1-0.37685 0.33372 0.92167-0.84697 0.09220 0.41384
  -1   0  -5 9051.60 2089.13   1 0.89307-0.97951 0.17803-0.17803-0.41318-0.09411
   0   1  -5 9375.63 2075.94   1 0.98450-0.94130 0.02688 0.04793-0.17330-0.33412
   1  -1  -5 9701.66 2225.34   1 0.98272-0.93953 0.03236-0.10717-0.18219-0.32524
   0  -1   6 5783.92 2889.11   1-0.43380 0.39067 0.81719-0.89189 0.37947 0.22778
   1   0   6 6345.19 2824.24   1-0.43268 0.51894 0.82157-0.82157 0.37121 0.23604
  -1   1   6 5132.20 2664.54   1-0.39584 0.35272 0.90232-0.82762 0.17064 0.43661
  -1   0  -6 5710.02 2144.76   1 0.87942-0.96586 0.19246-0.19246-0.43538-0.17337
   1  -1  -6 6767.57 2890.95   1 0.96502-0.92180 0.07497-0.14983-0.25122-0.35753
   0   1  -6 4453.69 2293.54   1 0.97013-0.92694 0.06442 0.01038-0.23386-0.37506
   0  -1   7 1372.04 1271.81   1-0.43826 0.39515 0.79639-0.87107 0.41673 0.29169
   1   0   7  426.76  925.69   1-0.43780 0.52403 0.79872-0.79872 0.41275 0.29568
  -1   1   7 1203.35 1556.17   1-0.41092 0.36779 0.87902-0.80432 0.24178 0.46668
  -1   0  -7 1102.94 1670.58   1 0.85960-0.94603 0.21182-0.21182-0.46499-0.24523
   1  -1  -7  169.30  901.85   1 0.94200-0.89878 0.11525-0.19011-0.31519-0.39502
   0   1  -7  464.39 1899.22   1 0.95115-0.90793 0.10052-0.02566-0.29189-0.41832
   1   0   829404.74 7147.85   1-0.44239 0.52861 0.77192-0.77192 0.45652 0.35311
   0  -1   834213.4811743.60   1-0.44243 0.39932 0.77161-0.84628 0.45701 0.35262
  -1   1   843160.5317121.95   1-0.42305 0.37992 0.85204-0.77734 0.30829 0.50138
  -1   0  -835902.55 4288.97   1 0.83412-0.92056 0.23445-0.23445-0.49927-0.31240
   1  -1  -833292.04 3580.94   1 0.91372-0.87050 0.15404-0.22890-0.37599-0.43568
   0   1  -839796.1713196.48   1 0.92733-0.88411 0.13642-0.06157-0.34848-0.46319
   0  -1   9  706.20 1171.70   1-0.44581 0.40270 0.74292-0.81759 0.49930 0.41153
   1   0   9 1312.44 1594.42   1-0.44597 0.53220 0.74119-0.74119 0.50172 0.40912
  -1   1   9  624.64  902.71   1-0.43274 0.38962 0.82132-0.74662 0.37168 0.53920
  -1   0  -9  494.83 1379.46   1 0.80293-0.88937 0.25939-0.25939-0.53666-0.37647
   1  -1  -9 -295.27  993.60   1 0.87982-0.83660 0.19205-0.26691-0.43476-0.47837
   0   1  -9  999.58 1759.36   1 0.89840-0.85518 0.17211-0.09725-0.40402-0.50911
   1  -2   8 5884.61 3834.16   1-0.44834 0.44834 0.70559-0.85493 0.54874 0.26089
   1   1   8 5289.44 3026.43   1-0.43807 0.56740 0.79739-0.72272 0.41503 0.39461
  -2   1   8 4553.88 2925.82   1-0.41667 0.28729 0.86740-0.79270 0.27201 0.53766
  -1  -1  -8 6014.64 3285.43   1 0.77273-0.90239 0.28123-0.35609-0.56902-0.24265
  -1   2  -8 4475.16 2814.44   1 0.90647-0.90647 0.16280-0.01309-0.38961-0.42206
   2  -1  -8 4425.95 2523.11   1 0.95722-0.82756 0.08990-0.16476-0.27503-0.53664
   1  -2   7  443.77  851.50   1-0.44722 0.44722 0.72562-0.87497 0.52292 0.18550
   1   1   7 1170.18 1485.96   1-0.43133 0.56072 0.82655-0.75184 0.36161 0.34685
  -2   1   7  691.84  930.54   1-0.40281 0.27342 0.89264-0.81794 0.20230 0.50616
  -1   2  -7  335.67 1484.41   1 0.92993-0.92993 0.13285 0.01685-0.34288-0.36733
   2  -1  -7  592.70 1106.17   1 0.97960-0.85002 0.04129-0.11610-0.19663-0.51378
   1  -2   659543.4916478.66   1-0.44611 0.44611 0.73964-0.88898 0.50389 0.10333
   1   1   666867.35 7521.97   1-0.42288 0.55226 0.85251-0.77781 0.30723 0.30002
  -2   1   657403.56 7517.36   1-0.38568 0.25629 0.91378-0.83908 0.12742 0.47983
  -1  -1  -651419.37 5694.47   1 0.81159-0.94124 0.25273-0.32759-0.52672-0.08203
  -1   2  -656806.78 7018.94   1 0.94913-0.94913 0.10389 0.04582-0.29723-0.31152
   2  -1  -649499.98 5603.07   1 0.99387-0.86429-0.01199-0.06281-0.10987-0.49904
   1  -2   5  460.49  886.12   1-0.44553 0.44553 0.74585-0.89519 0.49517 0.01084
   1   1   5  253.96 1318.14   1-0.41279 0.54217 0.87544-0.80074 0.25139 0.25465
  -2   1   5 2141.02 1741.87   1-0.36415 0.23477 0.93026-0.85556 0.04464 0.46140
  -1  -1  -5  617.23  981.07   1 0.81634-0.94600 0.24899-0.32385-0.52113 0.01383
  -1   2  -5 1216.81 1159.03   1 0.96439-0.96439 0.07623 0.07347-0.25324-0.25405
   2  -1  -5 1020.28 1187.81   1 0.99734-0.86776-0.07204-0.00276-0.01047-0.49696
   1  -2   434805.4810044.23   1-0.44606 0.44606 0.74024-0.88959 0.50304-0.09822
   1   1   431310.49 2582.09   1-0.40076 0.53015 0.89566-0.82096 0.19280 0.21203
  -2   1   429258.18 2284.89   1-0.33599 0.20660 0.94048-0.86578-0.05093 0.45577
  -1  -1  -432110.84 2272.50   1 0.80427-0.93393 0.25837-0.33323-0.53514 0.12930
  -1   2  -437379.22 3531.04   1 0.97598-0.97598 0.05072 0.09889-0.21185-0.19409
   2  -1  -434319.32 2756.39   1 0.98356-0.85399-0.14329 0.06848 0.10981-0.51576
   1  -2   3  655.98  656.71   1-0.44798 0.44798 0.71307-0.86241 0.53929-0.23567
   1   1   3 1568.11  938.11   1-0.38588 0.51526 0.91359-0.83889 0.12824 0.17538
  -2   1   3  838.25  715.07   1-0.29638 0.16705 0.94002-0.86535-0.16884 0.47249
  -2   1   3  780.73  767.47   1-0.93485 0.80518 0.23385-0.15898-0.26710 0.57132
  -1  -1  -3  577.85  559.05   1 0.75810-0.88776 0.29111-0.36597-0.58354 0.27916
  -1   2  -3 1028.69  892.19   1 0.98413-0.98413 0.02805 0.12157-0.17521-0.12925
   1  -2   2337288.7 9860.26   1-0.44872 0.44872 0.63728-0.78663 0.62651-0.42410
   1   1   2390428.110358.94   1-0.36457 0.49396 0.93002-0.85532 0.04616 0.15625
  -2   1   2356916.5 9718.09   1-0.23298 0.10365 0.91479-0.84012-0.32996 0.53240
  -1  -1  -2302613.4 7916.50   1-0.22510 0.09577 0.91001-0.98468-0.34814 0.14571
   2  -1  -2316620.3 8735.31   1-0.56508 0.69483 0.45753-0.53244-0.68654 0.48343
   1   1   2357928.6 9582.63   1 0.85625-0.72659 0.21493-0.14007-0.46971 0.67263
  -1   2  -2326053.3 9733.15   1 0.98889-0.98889 0.01143 0.13818-0.14820-0.05477
   1  -2   1  493.42  550.64   1-0.42751 0.42751 0.42999-0.57926 0.79519-0.69403
  -1   2  -1  292.26  448.38   1-0.44530 0.44530 0.57441-0.42506 0.68684-0.78805
   1   1   1  112.30  186.39   1-0.30538 0.43470 0.94135-0.86669-0.14347 0.24469
  -2   1   1  153.03  391.76   1-0.11121-0.01809 0.80861-0.73395-0.57772 0.67895
  -1  -1  -1  135.12  105.82   1-0.08167-0.04763 0.77431-0.84897-0.62750 0.52627
   2  -1  -1  110.71  409.22   1-0.02620 0.15552 0.70182-0.77649-0.71186 0.61063
  -2   1   1   87.65  272.07   1-0.43554 0.30579 0.48892-0.41401-0.75581 0.85737
   2  -1  -1   27.21  228.12   1-0.22313 0.35293 0.51487-0.58981-0.82771 0.72632
  -1  -1  -1  327.91  454.43   1 0.24952-0.37932 0.48405-0.55899-0.83870 0.73732
   1   1   1  108.24  259.46   1 0.48201-0.35231 0.42336-0.34848-0.76708 0.86858
  -1   2  -1  348.92  823.89   1 0.98921-0.98921 0.01014 0.13948-0.14608 0.04460
   1  -2   1   93.26  428.27   1 0.99539-0.99539-0.09277-0.05684 0.02425 0.07723
  -1   2   0255959.0 6876.68   1-0.34135 0.34135 0.07463 0.07463 0.93696-0.93696
  -2   1   0268973.1 7012.07   1 0.14860-0.27792 0.40671-0.33204-0.90138 0.90138
  -1   2   0230741.7 6071.89   1 0.29109-0.29109 0.07466 0.07466-0.95377 0.95377
  -1  -1   0268281.0 7026.85   1-0.37478 0.24504 0.49933-0.57424-0.78115 0.78115
   1   1   0277505.3 7244.92   1-0.21112 0.34092 0.51555-0.44061-0.83043 0.83043
  -2   1   0255944.2 6864.27   1 0.19818-0.32798 0.49314-0.41820-0.84707 0.84707
   2  -1   0254576.4 6725.74   1 0.35297-0.22327 0.46160-0.53648-0.81383 0.81383
  -1   2   0255599.4 6678.81   1 0.96507-0.96507 0.07485 0.07485-0.25103 0.25103
  -2   1  -1  221.27  460.19   1-0.43601 0.30667 0.48775-0.41308 0.75629-0.85750
  -1  -1   1  348.69  640.40   1-0.41624 0.28685 0.86834-0.94304 0.26966-0.16845
   1   1  -1  172.39  331.75   1-0.36705 0.49644 0.92855-0.85385 0.05522-0.15643
  -1   2   1  397.24  616.44   1 0.02016-0.02016 0.63338-0.48406-0.77357 0.87479
   1  -2  -1   95.75  352.29   1 0.11013-0.11013 0.48088-0.63020-0.86984 0.76857
  -1  -1   1  392.00  682.31   1-0.75894 0.62926 0.37812-0.45299-0.53011 0.63152
  -2   1  -1  185.24  732.99   1 0.62479-0.75449 0.36571-0.29082-0.68984 0.58835
   2  -1   1  301.00  575.06   1 0.75470-0.62504 0.29335-0.36821-0.58682 0.68828
  -2   1  -2309879.9 8589.84   1-0.43834 0.30901 0.79598-0.72130 0.41744-0.61985
  -1  -1   2273773.9 8009.70   1-0.40713 0.27775 0.88573-0.96043 0.22297-0.02055
  -1  -1   2273516.4 8510.95   1-0.90734 0.77766 0.26654-0.34141-0.32508 0.52789
   1  -2  -2294152.9 7885.21   1-0.88009 0.88009 0.29338-0.44312-0.37330 0.17049
   1  -2  -2311078.5 8039.26   1 0.98336-0.98336 0.03043-0.18006-0.17907-0.02390
   2  -1   3 1385.67 1001.49   1-0.44846 0.57780 0.70266-0.77733 0.55239-0.24878
  -1  -1   3  589.37  642.48   1-0.40887 0.27948 0.88273-0.95743 0.23151 0.07211
  -1   2   3  789.66  844.07   1-0.25874 0.25874 0.92805-0.77872-0.26787 0.57152
   1  -2  -3  792.04  668.00   1-0.91086 0.91086 0.26273-0.41247-0.31828 0.01407
   1  -2  -3  526.58  467.70   1 0.97523-0.97523 0.05258-0.20220-0.21483-0.08962
   1   1  -3  511.61  737.96   1 0.96697-0.83739-0.18277 0.25758 0.17763-0.48209
   2  -1   430091.93 3513.36   1-0.44640 0.57574 0.73637-0.81104 0.50841-0.10358
  -1  -1   439561.96 3334.06   1-0.41417 0.28479 0.87267-0.94737 0.25864 0.14619
  -1   2   428540.22 1937.89   1-0.31432 0.31432 0.94201-0.79268-0.11748 0.52235
  -2   1  -435513.07 3169.47   1 0.85902-0.98868 0.21236-0.13750-0.46580 0.05996
   1  -2  -437570.60 2458.81   1 0.96215-0.96215 0.08065-0.23036-0.26028-0.14555
   1   1  -436167.60 3007.83   1 0.99110-0.86152-0.11653 0.19135 0.06433-0.47028
   2  -1   5  798.41  902.12   1-0.44577 0.57511 0.74336-0.81804 0.49868 0.00734
  -1  -1   5  881.41 1530.33   1-0.42065 0.29126 0.85819-0.93289 0.29421 0.21183
  -1   2   5  849.80 1357.83   1-0.35104 0.35104 0.93635-0.78695-0.00136 0.50741
  -2   1  -5  493.74 1380.63   1 0.86004-0.98970 0.21141-0.13655-0.46436-0.04293
   1  -2  -5  810.09 1122.66   1 0.94472-0.94472 0.11102-0.26073-0.30850-0.19879
   1   1  -5 1041.20 1719.31   1 0.99772-0.86814-0.06039 0.13520-0.02990-0.47753
   2  -1   653648.75 7287.38   1-0.44635 0.57569 0.73690-0.81158 0.50767 0.09955
  -1  -1   663939.93 7100.26   1-0.42726 0.29787 0.84004-0.91474 0.33431 0.27294
  -1   2   656307.01 6660.84   1-0.37767 0.37767 0.92100-0.77160 0.09541 0.51184
  -2   1  -655675.93 6662.23   1 0.85098-0.98063 0.21974-0.14488-0.47701-0.13174
   1  -2  -665645.85 7059.76   1 0.92287-0.92287 0.14238-0.29210-0.35780-0.25095
   1   1  -651943.28 6131.31   1 0.99357-0.86399-0.01029 0.08510-0.11267-0.49624
   2  -1   7 1321.78 1666.89   1-0.44747 0.57680 0.72197-0.79664 0.52775 0.18068
  -1  -1   7  270.43 1369.70   1-0.43349 0.30410 0.81845-0.89315 0.37711 0.33135
  -1   2   7  523.77 1211.09   1-0.39801 0.39801 0.89948-0.75008 0.18030 0.52816
  -2   1  -7  652.21 1185.45   1 0.83464-0.96430 0.23400-0.15914-0.49860-0.21161
   1  -2  -7  363.79 1396.54   1 0.89630-0.89630 0.17446-0.32418-0.40766-0.30255
   1   1  -7 1623.86 2279.03   1 0.98147-0.85190 0.03604 0.03877-0.18814-0.52226
   2  -1   8 4724.72 3456.20   1-0.44854 0.57787 0.70066-0.77533 0.55486 0.25477
  -1  -1   8 4598.56 3253.03   1-0.43882 0.30949 0.79348-0.86815 0.42167 0.38796
  -1   2   8 6357.79 3833.69   1-0.41396 0.41396 0.87310-0.72370 0.25751 0.55216
  -2   1  -8 5639.75 3008.11   1 0.81212-0.94178 0.25232-0.17746-0.52610-0.28557
   1  -2  -8 4358.94 2581.28   1 0.86455-0.86455 0.20714-0.35686-0.45785-0.35382
   1   1  -8 5472.31 3539.18   1 0.96272-0.83306 0.07954-0.00468-0.25852-0.55315
   2  -2   8 3726.84 2838.25   1-0.44914 0.53537 0.66730-0.81665 0.59411 0.21553
  -2   0   8 2947.81 2506.28   1-0.42694 0.25442 0.84102-0.84102 0.33225 0.47742
   0   2   8 3607.67 2981.04   1-0.42357 0.50983 0.85066-0.70126 0.31137 0.49830
   0  -2  -8 1994.13 1358.09   1 0.78321-0.86965 0.27388-0.42360-0.55817-0.25350
  -2   2  -8 4023.15 2618.50   1 0.85260-0.93904 0.21827-0.06855-0.47478-0.33689
   2   0  -8 1621.78 1574.90   1 0.97470-0.80193 0.05387-0.05387-0.21691-0.59498
   2  -2   723466.51 9471.24   1-0.44898 0.53521 0.68463-0.83398 0.57418 0.13425
  -2   0   732533.41 8895.28   1-0.41698 0.24447 0.86672-0.86672 0.27370 0.43476
   0   2   727230.48 7582.45   1-0.41050 0.49676 0.87979-0.73039 0.23968 0.46878
   0  -2  -720930.53 2746.46   1 0.81027-0.89671 0.25376-0.40348-0.52826-0.18195
  -2   2  -728842.95 4480.07   1 0.87560-0.96204 0.19633-0.04662-0.44132-0.26889
   2   0  -724190.07 4317.55   1 0.99080-0.81803 0.00350-0.00350-0.13525-0.57516
   2  -2   681944.39 9907.40   1-0.44875 0.53497 0.69434-0.84368 0.56259 0.04463
  -2   0   683959.48 9409.10   1-0.40508 0.23257 0.88910-0.88910 0.21305 0.39420
   0   2   681171.00 8702.00   1-0.39374 0.48000 0.90493-0.75553 0.16142 0.44583
   0  -2  -686973.59 6276.33   1 0.82931-0.91575 0.23847-0.38819-0.50533-0.10342
  -2   2  -686868.50 7162.16   1 0.89366-0.98009 0.17739-0.02767-0.41219-0.19656
   2   0  -678160.84 8272.33   1 0.99765-0.82488-0.05076 0.05076-0.04590-0.56301
   2  -2   556379.40 6446.50   1-0.44877 0.53500 0.69354-0.84289 0.56355-0.05752
  -2   0   553597.33 5168.91   1-0.39089 0.21837 0.90826-0.90826 0.14917 0.35687
   0   2   569347.87 6248.65   1-0.37171 0.45796 0.92550-0.77610 0.07255 0.43349
   0  -2  -560967.51 5059.10   1 0.83814-0.92458 0.23102-0.38074-0.49410-0.01319
  -2   2  -554360.12 5131.60   1 0.90651-0.99295 0.16275-0.01303-0.38953-0.11776
   2   0  -559806.57 5493.28   1 0.99232-0.81955-0.11086 0.11086 0.05473-0.56217
   2  -2   4 7747.30 2511.90   1-0.44910 0.53533 0.67602-0.82537 0.58419-0.17937
  -2   0   4 8042.99 3549.21   1-0.37366 0.20114 0.92411-0.92411 0.07994 0.32489
   0   2   4 6221.53 2372.19   1-0.34097 0.42723 0.93942-0.79002-0.03485 0.43969
   0  -2  -4 7211.61 1123.34   1 0.83016-0.91660 0.23776-0.38748-0.50427 0.09843
  -2   2  -4 7280.84 1991.93   1 0.91313-0.99957 0.15477-0.00505-0.37713-0.02870
   2   0  -4 7787.60 1643.22   1 0.96847-0.79570-0.17977 0.17977 0.17243-0.57839
   2  -2   3193512.9 7840.73   1-0.44839 0.53462 0.62733-0.77668 0.63670-0.33308
  -2   0   3182274.8 6844.74   1-0.35172 0.17921 0.93610-0.93610 0.00098 0.30264
   0   2   3181412.0 5583.62   1-0.29308 0.37930 0.93937-0.79003-0.17798 0.48163
  -2   0   3187863.4 7442.02   1-0.91157 0.73867 0.26194-0.26194-0.31687 0.62108
   0  -2  -3150621.0 5116.16   1 0.78296-0.86940 0.27406-0.42378-0.55844 0.25406
  -2   2  -3191885.8 6992.28   1 0.91049-0.99693 0.15799-0.00827-0.38213 0.07775
   0   2   3177801.5 5575.92   1 0.99725-0.91087-0.04145 0.19108-0.06132 0.36578
   2  -2   2380201.710934.07   1-0.43899 0.52521 0.51122-0.66057 0.73887-0.53646
  -2   2  -2364812.210476.29   1 0.88928-0.97572 0.18214-0.03243-0.41952 0.21660
   0   2   2410279.010502.96   1 0.94430-0.85786 0.11167 0.03803-0.30954 0.51246
   2  -2   1397569.410830.13   1-0.38875 0.47493 0.24387-0.39315 0.88847-0.78731
  -2   2  -1394425.010597.65   1-0.42706 0.34088 0.42728-0.27801 0.79689-0.89805
  -2   0   1370092.0 9400.81   1-0.26456 0.09213 0.93052-0.93052-0.25323 0.35445
   2   0  -1344084.0 8751.14   1-0.16427 0.33671 0.86321-0.86321-0.47736 0.37615
   0  -2  -1415406.110385.59   1 0.15644-0.24265 0.39089-0.54022-0.90704 0.80577
  -2   0   1398518.210717.16   1-0.53124 0.35824 0.46706-0.46706-0.70684 0.80840
   2   0  -1366984.1 9992.06   1-0.34804 0.52103 0.50314-0.50314-0.79101 0.68946
   0  -2  -1453048.711073.71   1-0.14111 0.05457 0.51796-0.66784-0.84367 0.74229
   0   2   1410976.810076.14   1 0.39195-0.30548 0.45125-0.30148-0.80171 0.90320
  -2   2  -1376089.910095.87   1 0.81480-0.90124 0.25021-0.10050-0.52295 0.42149
   0  -2   0 2679.59  540.33   1-0.34989 0.26370 0.10249-0.25176 0.93116-0.93116
   0   2   0 2822.68 1401.47   1-0.40988 0.49606 0.33616-0.18688 0.84793-0.84793
  -2   0   0 2980.71  326.04   1-0.08621-0.08621 0.77978-0.77978-0.62008 0.62008
  -2   2   0 2883.57  731.38   1 0.22913-0.31534 0.23183-0.08251-0.94538 0.94538
   2  -2   0 2503.38  465.33   1 0.29294-0.20673 0.06958-0.21890-0.95359 0.95359
   0  -2   0 2863.93 1375.57   1-0.79325 0.70680 0.35815-0.50789-0.49241 0.49241
   0   2   0 2757.07 1187.83   1-0.60033 0.68683 0.44648-0.29666-0.66351 0.66351
  -2   0   0 3263.47 1503.80   1-0.08653-0.08653 0.51802-0.51802-0.85097 0.85097
   2   0   0 3497.30 1435.40   1 0.08653 0.08653 0.50795-0.50795-0.85702 0.85702
  -2   2   0 2557.31  470.57   1 0.53017-0.61664 0.40593-0.25617-0.74439 0.74439
   2  -2   0 2958.54  473.40   1 0.71944-0.63297 0.31552-0.46529-0.61874 0.61874
   2   0   1384821.4 9657.66   1-0.39723 0.56960 0.27908-0.27908 0.87425-0.77308
   0  -2   1409454.510962.36   1-0.44599 0.35976 0.58353-0.73288 0.67865-0.57745
  -2   0  -1376348.5 9355.74   1-0.44886 0.27641 0.69042-0.69042 0.56731-0.66851
   0   2  -1370373.310041.35   1-0.44641 0.53263 0.73624-0.58689 0.50858-0.60979
  -2   2   1376519.2 9792.90   1 0.00786-0.09407 0.65224-0.50291-0.75797 0.85919
   2  -2  -1380296.8 9909.96   1 0.09713-0.01092 0.50401-0.65334-0.85821 0.75698
   0  -2   1384598.310748.50   1-0.93746 0.85100 0.23036-0.38010-0.26095 0.36235
   0   2  -1390285.310923.38   1-0.84034 0.92679 0.32612-0.17638-0.43297 0.33156
  -2   0  -1397155.810436.98   1 0.36015-0.53308 0.45976-0.45976-0.81172 0.71023
   2   0   1387876.810160.58   1 0.54779-0.37485 0.39908-0.39908-0.73529 0.83678
   2   0   2339819.0 9328.16   1-0.44860 0.62105 0.69904-0.69904 0.55686-0.35445
   0  -2   2365839.810388.59   1-0.44711 0.36088 0.72723-0.87658 0.52078-0.31837
  -2   0  -2357398.5 9433.54   1-0.39357 0.22106 0.90513-0.90513 0.16070-0.36312
  -2   2   2331532.9 8843.30   1-0.14635 0.06013 0.84639-0.69705-0.51205 0.71449
  -2   2   2361422.1 9559.16   1-0.84753 0.76107 0.32065-0.17091-0.42292 0.62573
   2  -2  -2411109.810632.54   1-0.48140 0.56790 0.47932-0.62914-0.73381 0.53071
  -2   0  -2398324.310881.64   1 0.61303-0.78596 0.37119-0.37119-0.69742 0.49444
   0   2  -2356210.510366.48   1 0.97968-0.89329-0.15412 0.30374 0.12832-0.33129
   0  -2   3179310.8 6441.19   1-0.44227 0.35605 0.77273-0.92207 0.45527-0.15166
  -2   2   3195530.8 6260.58   1-0.23803 0.15181 0.91768-0.76834-0.31811 0.62176
   2  -2  -3181585.4 5667.62   1-0.68432 0.77082 0.41478-0.56459-0.59970 0.29505
  -2   0  -3197251.5 6543.11   1 0.72565-0.89853 0.31165-0.31165-0.61343 0.30905
   0   2  -3193819.9 7120.14   1 0.99465-0.90826-0.09789 0.24751 0.03285-0.33731
   2  -2  -3186545.7 5942.82   1 0.97214-0.88576-0.17205 0.02243 0.15913-0.46359
   2   0   4 6929.29 2644.38   1-0.43933 0.61178 0.79073-0.79073 0.42629-0.02147
   0  -2   4 5320.22 2274.95   1-0.44028 0.35405 0.78538-0.93473 0.43510-0.03028
  -2   2   4 5688.99 1289.68   1-0.29578 0.20956 0.93991-0.79057-0.17052 0.57538
  -2   0  -4 8541.29 1756.18   1 0.77281-0.94569 0.28117-0.28117-0.56894 0.16310
   0   2  -4 7578.76 2017.63   1 0.99765-0.91126-0.05064 0.20026-0.04610-0.35984
   2  -2  -4 8271.90 1704.72   1 0.99685-0.91046-0.07927-0.07035 0.00160-0.40755
   2   0   552218.07 5087.27   1-0.43998 0.61243 0.78707-0.78707 0.43234 0.07368
   0  -2   557572.7211576.74   1-0.44063 0.35440 0.78330-0.93264 0.43849 0.06753
  -2   2   545383.33 4014.87   1-0.33551 0.24926 0.94057-0.79117-0.05244 0.55849
  -2   0  -562618.68 5710.55   1 0.78902-0.96190 0.26970-0.26970-0.55199 0.04469
   0   2  -569522.07 6862.35   1 0.99316-0.90678-0.00800 0.15763-0.11641-0.39102
   2  -2  -550036.31 4366.52   1 0.99380-0.90741-0.01160-0.13802-0.11052-0.39691
   0  -2   680400.43 8350.87   1-0.44228 0.35605 0.77269-0.92203 0.45533 0.15189
   2   0   680154.3014443.54   1-0.44212 0.61457 0.77376-0.77376 0.45366 0.15356
  -2   2   6104492.8 8403.61   1-0.36495 0.27869 0.92981-0.78040 0.04753 0.55972
  -2   0  -690472.24 6776.54   1 0.78828-0.96116 0.27024-0.27024-0.55278-0.05597
   2  -2  -697144.56 7239.90   1 0.97861-0.89223 0.04396-0.19358-0.20094-0.40798
   0   2  -676716.50 8160.68   1 0.98283-0.89645 0.03203 0.11758-0.18166-0.42725
   2   0   721719.43 7975.17   1-0.44467 0.61712 0.75401-0.75401 0.48345 0.22498
   0  -2   721690.9810940.38   1-0.44444 0.35822 0.75603-0.90538 0.48049 0.22794
  -2   2   724837.12 8268.31   1-0.38770 0.30144 0.91172-0.76232 0.13576 0.57270
  -2   0  -733777.39 5248.26   1 0.77650-0.94938 0.27861-0.27861-0.56516-0.14505
   2  -2  -724053.63 3171.21   1 0.95570-0.86926 0.09262-0.24234-0.27935-0.43086
   0   2  -730089.37 5013.88   1 0.96732-0.88088 0.07021 0.07949-0.24361-0.46660
   2   0   8 2762.81 1680.23   1-0.44698 0.61943 0.72902-0.72902 0.51839 0.29125
   0  -2   8 3625.86 2739.24   1-0.44656 0.36034 0.73441-0.88375 0.51109 0.29854
  -2   2   8 3689.39 2544.35   1-0.40572 0.31947 0.88807-0.73867 0.21612 0.59355
  -2   0  -8 5548.80 3234.22   1 0.75626-0.92914 0.29233-0.29233-0.58532-0.22635
   2  -2  -8 2107.71 1884.75   1 0.92609-0.83965 0.13810-0.28781-0.35109-0.46058
   0   2  -8 4523.01 3394.44   1 0.94669-0.86025 0.10787 0.04184-0.30353-0.50814
   1  -3   8 4873.51 4051.08   1-0.44914 0.40603 0.66474-0.88876 0.59697 0.21267
   2   1   8 2993.78 2211.21   1-0.44487 0.66043 0.75224-0.67756 0.48602 0.32361
  -3   2   8 3204.19 3582.22   1-0.39933 0.22682 0.89767-0.74827 0.18627 0.62340
  -2  -1  -8 4096.83 2377.29   1 0.68034-0.89650 0.33767-0.41255-0.65046-0.16147
  -1   3  -8 4073.18 2678.93   1 0.92632-0.88310 0.13778 0.08678-0.35061-0.46106
   3  -2  -8 2495.78 1554.37   1 0.96683-0.79395 0.07125-0.22097-0.24527-0.56640
   1  -3   7 7325.55 4582.94   1-0.44905 0.40594 0.68064-0.90466 0.57885 0.12958
   2   1   7 6528.04 2953.84   1-0.44107 0.65663 0.78058-0.70590 0.44288 0.26555
  -3   2   7 7586.46 4818.84   1-0.38002 0.20751 0.91903-0.76963 0.10464 0.60382
  -2  -1  -7 6708.43 2137.19   1 0.69570-0.91187 0.32923-0.40411-0.63843-0.07201
  -1   3  -7 6055.43 2570.15   1 0.94779-0.90457 0.10608 0.11848-0.30070-0.40951
   3  -2  -7 7259.62 2417.41   1 0.98778-0.81501 0.01563-0.16526-0.15503-0.55537
   1  -3   657812.9017425.01   1-0.44889 0.40577 0.68914-0.91316 0.56883 0.03839
   2   1   682064.73 7405.46   1-0.43677 0.65241 0.80442-0.72971 0.40266 0.20459
  -3   2   658550.26 6066.31   1-0.35594 0.18343 0.93437-0.78497 0.01551 0.59174
  -2  -1  -658709.75 5055.96   1 0.69895-0.91512 0.32740-0.40228-0.63581 0.02686
  -1   3  -665191.03 6730.15   1 0.96503-0.92181 0.07494 0.14963-0.25117-0.35758
   3  -2  -660359.94 5254.79   1 0.99751-0.82474-0.04655-0.10307-0.05289-0.55603
   1  -3   530160.35 7619.22   1-0.44892 0.40581 0.68765-0.91167 0.57061-0.06458
   2   1   536557.32 8320.55   1-0.43210 0.64774 0.82376-0.74906 0.36701 0.13903
  -3   2   526563.61 3075.96   1-0.32535 0.15291 0.94182-0.79248-0.08432 0.59040
  -2  -1  -529049.77 3613.54   1 0.68530-0.90146 0.33498-0.40986-0.64664 0.13918
  -1   3  -539003.03 4774.10   1 0.97833-0.93514 0.04470 0.17973-0.20214-0.30529
   3  -2  -533680.46 3918.50   1 0.99074-0.81797-0.11808-0.03153 0.06695-0.57439
   1  -3   416311.48 7269.92   1-0.44914 0.40602 0.67086-0.89488 0.59009-0.18527
   2   1   416401.40 5350.57   1-0.42819 0.64384 0.83713-0.76243 0.34036 0.06447
  -3   2   413214.94 2242.68   1-0.28484 0.11240 0.93739-0.78805-0.20038 0.60524
  -2  -1  -414723.26 1855.55   1 0.64473-0.86089 0.35606-0.43094-0.67641 0.27044
  -1   3  -414515.00 2335.09   1 0.98796-0.94477 0.01495 0.20948-0.15392-0.25202
   3  -2  -412072.04 1641.62   1 0.95521-0.78244-0.20395 0.05433 0.21439-0.62034
   1  -3   350017.48 3929.75   1-0.44839 0.40528 0.62733-0.85134 0.63670-0.33309
   2   1   349162.02 2680.86   1-0.42727 0.64291 0.84001-0.76531 0.33437-0.03074
  -3   2   353180.18 3085.07   1-0.22834 0.05590 0.91202-0.76268-0.34069 0.64435
  -3   2   344183.00 2629.25   1-0.86067 0.68777 0.31017-0.16042-0.40376 0.70797
  -2  -1  -346963.59 2763.96   1 0.55656-0.77272 0.39556-0.47044-0.73059 0.42611
  -1   3  -339468.73 3124.27   1 0.99415-0.95096-0.01370 0.23813-0.10708-0.19738
   2   1   2254851.5 7234.48   1-0.43595 0.65160 0.80813-0.73342 0.39606-0.19364
  -2  -1  -2272261.4 6938.97   1-0.24024 0.02470 0.91890-0.99357-0.31287 0.11043
  -3   2   2242734.1 6969.58   1-0.14425-0.02818 0.84434-0.69500-0.51601 0.71844
  -3   2   2265713.3 7748.41   1-0.64104 0.46804 0.43213-0.28232-0.63428 0.83739
   3  -2  -2253425.6 6996.51   1-0.24889 0.42189 0.51345-0.66327-0.82122 0.61812
  -2  -1  -2276498.0 7840.04   1 0.38222-0.59838 0.45392-0.52880-0.80489 0.60191
  -1   3  -2248683.3 8701.72   1 0.99720-0.95400-0.04056 0.26499-0.06281-0.14016
   1  -3   1124414.9 4570.93   1-0.40752 0.36443 0.32503-0.54894 0.85338-0.75222
  -3   2   1123793.4 4088.93   1-0.01456-0.15786 0.68530-0.53598-0.72811 0.82933
  -2  -1  -1136595.5 4558.64   1 0.08068-0.29701 0.50855-0.58349-0.85724 0.75585
   3  -2  -1147176.5 4571.86   1 0.11698 0.05607 0.50457-0.65445-0.85540 0.75401
  -1   3  -1134316.8 4955.94   1 0.99767-0.95447-0.06370 0.28814-0.02438-0.07710
  -1   3   0 9147.16 1724.74   1-0.37433 0.41742 0.18814 0.03576 0.90800-0.90800
  -2  -1   0 8517.16  807.68   1-0.41923 0.20358 0.86161-0.93631 0.28613-0.28613
   2   1   0 7958.88  473.79   1-0.18428 0.39982 0.88042-0.80575-0.43691 0.43691
  -3   2   0 7765.99  893.16   1 0.16767-0.34009 0.36782-0.21850-0.91465 0.91465
   3  -2   0 7918.71  820.66   1 0.26820-0.09578 0.13548-0.28481-0.95378 0.95378
  -1   3   0 8694.67 2098.34   1-0.88684 0.93006 0.28713-0.06252-0.36202 0.36202
  -2  -1   0 9194.21 1007.49   1-0.29746 0.08122 0.50913-0.58404-0.80764 0.80764
   2   1   0 8616.00 1335.02   1-0.05810 0.27443 0.51744-0.44250-0.85374 0.85374
   3  -2   0 8404.66  938.73   1 0.50953-0.33660 0.41363-0.56339-0.75450 0.75450
  -1   3   010554.67 1167.12   1 0.99713-0.95394-0.07552 0.29996-0.00466 0.00466
   3  -2   1118478.8 4323.78   1-0.33236 0.50472 0.04619-0.19547 0.94202-0.84085
  -3   2  -1115796.7 4220.44   1-0.40631 0.23395 0.31942-0.17014 0.85608-0.95724
  -2  -1   1111213.5 3731.36   1-0.39037 0.17472 0.90885-0.98355 0.14696-0.04575
   2   1  -1117974.3 3580.05   1-0.27996 0.49551 0.93599-0.86132-0.21338 0.11216
  -1   3   1121885.6 3949.90   1 0.09510-0.05199 0.50769-0.28371-0.85627 0.95749
   1  -3  -1126213.6 3940.85   1 0.22375-0.26685 0.24445-0.46844-0.94349 0.84222
  -2  -1   1116073.8 4186.66   1-0.60789 0.39164 0.44395-0.51886-0.65831 0.75986
  -1   3   1101843.1 2636.11   1 0.09886-0.05560 0.50664-0.28182-0.85646 0.95785
  -3   2  -1122332.0 4272.60   1 0.57654-0.74947 0.38729-0.23753-0.71944 0.61795
  -2  -1   2279422.8 8704.70   1-0.39079 0.17515 0.90837-0.98307 0.14876 0.05365
   1  -3  -2285818.1 7254.19   1-0.89271 0.84948 0.28150-0.50611-0.35188 0.14907
  -2  -1   2258286.2 8082.13   1-0.79717 0.58103 0.35571-0.43058-0.48783 0.69064
  -3   2  -2271156.4 8281.32   1 0.72325-0.89618 0.31325-0.16348-0.61545 0.41246
   3  -2   345542.26 4555.82   1-0.43904 0.61149 0.51164-0.66098 0.73855-0.43493
  -2  -1   344492.04 3505.56   1-0.39727 0.18163 0.90047-0.97517 0.17697 0.12665
  -1   3   341791.11 2233.06   1-0.20432 0.24743 0.89592-0.67192-0.39441 0.69806
   1  -3  -347544.28 2269.56   1-0.92559 0.88237 0.24566-0.47027-0.28795-0.01625
  -2  -1   347138.44 4941.00   1-0.90178 0.68564 0.27239-0.34726-0.33554 0.63975
   1  -3  -351924.53 2177.07   1 0.79318-0.83640 0.26667-0.49124-0.54748 0.24310
  -3   2  -343929.05 3090.81   1 0.78822-0.96110 0.27028-0.12056-0.55284 0.24846
   3  -2   414911.50 5330.88   1-0.44634 0.61879 0.58864-0.73799 0.67399-0.26917
  -2  -1   416733.20 6616.91   1-0.40543 0.18979 0.88854-0.96324 0.21473 0.19010
  -1   3   415905.34 1951.19   1-0.27701 0.32012 0.93506-0.71106-0.22115 0.62602
  -3   2  -414009.81 2616.90   1 0.81523-0.98811 0.24987-0.10015-0.52244 0.11660
   1  -3  -414302.09 1700.91   1 0.84834-0.89156 0.22210-0.44668-0.48060 0.07476
   2   1  -413949.07 2282.98   1 0.95815-0.74219-0.19899 0.27380 0.20575-0.61170
   3  -2   534857.53 5435.07   1-0.44822 0.62067 0.62300-0.77235 0.64105-0.13503
  -2  -1   542360.7412793.25   1-0.41387 0.19823 0.87329-0.94799 0.25703 0.24901
  -1   3   524950.80 2601.20   1-0.32522 0.36833 0.94183-0.71782-0.08472 0.59080
  -3   2  -531586.78 4263.02   1 0.82265-0.99553 0.24394-0.09422-0.51355 0.00625
   1  -3  -535833.95 3533.40   1 0.85290-0.89612 0.21799-0.44257-0.47436-0.03293
   2   1  -532293.81 3928.88   1 0.98637-0.77040-0.13447 0.20928 0.09478-0.60221
   3  -2   668252.03 6629.84   1-0.44862 0.62107 0.63408-0.78342 0.62982-0.02259
  -2  -1   675247.57 5625.81   1-0.42196 0.20632 0.85489-0.92959 0.30183 0.30542
  -1   3   665142.4113965.00   1-0.35945 0.40258 0.93274-0.70864 0.02782 0.57943
  -3   2  -665890.82 6111.23   1 0.81826-0.99114 0.24747-0.09775-0.51884-0.08991
   1  -3  -664459.48 4753.49   1 0.84007-0.88329 0.22936-0.45394-0.49159-0.11716
   2   1  -663941.69 6350.10   1 0.99706-0.78110-0.07644 0.15125-0.00312-0.60580
   3  -2   7 9228.17 4099.90   1-0.44852 0.62097 0.63086-0.78020 0.63312 0.07531
  -2  -1   7 6509.36 4087.17   1-0.42937 0.21373 0.83331-0.90801 0.34816 0.36030
  -1   3   7 7386.83 4602.26   1-0.38514 0.42827 0.91432-0.69021 0.12522 0.58324
  -3   2  -7 6021.13 2606.37   1 0.80551-0.97839 0.25743-0.10771-0.53373-0.17648
   1  -3  -7 6743.16 1591.13   1 0.81713-0.86035 0.24837-0.47294-0.52019-0.19002
   2   1  -7 6875.28 2691.53   1 0.99551-0.77955-0.02302 0.09783-0.09176-0.61865
   3  -2   8 5862.02 3532.69   1-0.44799 0.62044 0.61770-0.76705 0.64632 0.16331
  -2  -1   8 4469.92 3149.12   1-0.43588 0.22024 0.80844-0.88314 0.39549 0.41418
  -1   3   8 3661.74 2628.51   1-0.40495 0.44808 0.88931-0.66521 0.21242 0.59725
  -3   2  -8 3660.91 2674.96   1 0.78593-0.95881 0.27193-0.12222-0.55529-0.25638
   2   1  -8 4238.14 2730.81   1 0.98441-0.76844 0.02716 0.04764-0.17376-0.63813
   2  -3   8 3842.31 3229.43   1-0.44845 0.49157 0.62910-0.85312 0.63490 0.17473
   1   2   8 3124.86 2366.53   1-0.43367 0.60619 0.81770-0.66830 0.37852 0.43115
  -3   1   8 4662.87 3427.25   1-0.41182 0.19617 0.87732-0.80262 0.24637 0.56330
  -1  -2  -8 3220.15 1919.03   1 0.68608-0.85901 0.33455-0.48431-0.64603-0.16590
  -2   3  -8 2799.78 2540.96   1 0.88139-0.92460 0.19045 0.03412-0.43229-0.37938
   3  -1  -8 3479.85 2219.21   1 0.98330-0.76733 0.03063-0.10544-0.17938-0.63251
   2  -3   7 8245.69 2963.44   1-0.44884 0.49196 0.64223-0.86624 0.62134 0.08708
   1   2   7 7684.31 4961.34   1-0.42421 0.59673 0.84890-0.69950 0.31527 0.39319
  -3   1   7 7480.21 2741.17   1-0.39687 0.18123 0.90099-0.82629 0.17519 0.53327
  -1  -2  -7 6711.51 2043.82   1 0.70387-0.87680 0.32460-0.47437-0.63181-0.07863
  -2   3  -7 6133.12 2840.60   1 0.90380-0.94702 0.16593 0.05864-0.39446-0.31575
   3  -1  -7 6940.41 2357.55   1 0.99591-0.77994-0.02624-0.04856-0.08645-0.62395
   2  -3   671452.96 5991.26   1-0.44894 0.49205 0.64649-0.87051 0.61684-0.00961
   1   2   663768.93 6735.20   1-0.41211 0.58462 0.87676-0.72736 0.24788 0.35937
  -3   1   665010.67 6035.75   1-0.37856 0.16291 0.92027-0.84557 0.09887 0.50838
  -1  -2  -661036.41 4869.54   1 0.70867-0.88160 0.32184-0.47161-0.62784 0.01889
  -2   3  -674518.21 6859.37   1 0.92190-0.96512 0.14365 0.08091-0.35979-0.24896
   3  -1  -675896.20 5597.40   1 0.99595-0.77999-0.08828 0.01347 0.01672-0.62564
   2  -3   535795.4411375.50   1-0.44875 0.49186 0.63844-0.86246 0.62530-0.11928
   1   2   533809.71 5998.53   1-0.39649 0.56900 0.90149-0.75209 0.17350 0.33254
  -3   1   535632.6910305.28   1-0.35578 0.14013 0.93445-0.85974 0.01493 0.49111
  -1  -2  -529653.10 3006.54   1 0.69457-0.86750 0.32986-0.47962-0.63933 0.13187
  -2   3  -534914.03 5044.42   1 0.93580-0.97902 0.12452 0.10004-0.32979-0.17750
   3  -1  -534201.56 3953.23   1 0.97829-0.76233-0.15767 0.08286 0.13441-0.64185
   2  -3   429008.4911100.17   1-0.44769 0.49080 0.61126-0.83528 0.65262-0.24780
   1   2   415925.62 3171.50   1-0.37526 0.54777 0.92291-0.77351 0.08606 0.31877
  -3   1   411355.45 1376.61   1-0.32649 0.11094 0.94173-0.86706-0.08080 0.48567
  -3   1   415388.35 4655.22   1-0.93220 0.71607 0.23733-0.16246-0.27323 0.67885
  -1  -2  -414137.06 1707.68   1 0.64791-0.82084 0.35448-0.50425-0.67420 0.26823
  -2   3  -415754.63 2800.29   1 0.94528-0.98850 0.11012 0.11445-0.30708-0.09875
   2  -3   343362.26 4258.14   1-0.44327 0.48638 0.55102-0.77504 0.70702-0.40340
   1   2   341236.33 2075.95   1-0.34250 0.51501 0.93904-0.78964-0.02987 0.33350
  -3   1   350173.12 2775.36   1-0.28634 0.07079 0.93779-0.86312-0.19635 0.50000
  -3   1   348449.37 3227.83   1-0.83705 0.62092 0.32857-0.25370-0.43746 0.74168
  -1  -2  -343974.72 2224.50   1 0.53629-0.70922 0.40358-0.55334-0.74128 0.43680
  -2   3  -342903.18 3331.83   1 0.94938-0.99260 0.10347 0.12110-0.29656-0.00781
   2  -3   2285428.3 9265.09   1-0.42738 0.47048 0.42921-0.65312 0.79568-0.59335
   1   2   2311854.0 8163.62   1-0.27555 0.44799 0.93458-0.78525-0.22497 0.42741
  -3   1   2354021.310060.76   1-0.22581 0.01026 0.91045-0.83578-0.34652 0.54895
  -1  -2  -2311531.2 8045.44   1-0.01793-0.15448 0.69013-0.83946-0.72345 0.52099
  -1  -2  -2284987.5 7777.31   1 0.29129-0.46422 0.47603-0.62579-0.82978 0.62679
   1   2   2286889.0 7790.12   1 0.72221-0.54933 0.31372-0.16400-0.61642 0.81934
  -2   3  -2268216.1 8553.86   1 0.94468-0.98790 0.11108 0.11349-0.30860 0.10568
   2  -3   1135126.8 5573.49   1-0.37681 0.41990 0.19741-0.42132 0.90500-0.80384
  -3   1   1136445.7 4342.33   1-0.12231-0.09321 0.82068-0.74602-0.55812 0.65935
  -1  -2  -1154535.3 4158.36   1 0.27286-0.44528 0.12340-0.27272-0.95410 0.85284
  -1  -2  -1143285.6 4387.94   1-0.13497-0.03809 0.51805-0.66793-0.84463 0.74324
   1   2   1138440.4 4277.57   1 0.25349-0.08042 0.48328-0.33340-0.83795 0.93934
  -2   3  -1135718.5 4958.67   1 0.91747-0.96069 0.14936 0.07521-0.36869 0.26723
   2  -3   1130823.5 4630.82   1 0.99239-0.94920-0.00396-0.22046-0.12303 0.22452
  -1  -2   0 8659.61 1260.50   1-0.39896 0.22659 0.28652-0.43580 0.87105-0.87105
   1   2   0 7765.39 1036.41   1-0.44880 0.62125 0.69247-0.54312 0.56484-0.56484
  -3   1   0 8155.56  759.66   1 0.07031-0.28583 0.55138-0.47672-0.83128 0.83128
   3  -1   0 6951.85  646.50   1 0.21353 0.00199 0.26800-0.34267-0.93945 0.93945
  -2   3   0 9151.36 1142.96   1 0.25641-0.29952 0.16548 0.05849-0.95229 0.95229
  -1  -2   0 8065.05 1537.03   1-0.55112 0.37812 0.46159-0.61140-0.69512 0.69512
  -3   1   0 8155.51 1749.01   1 0.05582-0.27216 0.51087-0.43593-0.85783 0.85783
  -2   3   0 8523.27  875.85   1 0.79056-0.83378 0.26859-0.04401-0.55033 0.55033
   2  -3   0 8183.88  837.85   1 0.96762-0.92442 0.06984-0.29428-0.24254 0.24254
  -3   1  -1115214.4 3630.24   1-0.41407 0.19862 0.35662-0.28199 0.83746-0.93863
  -1  -2   1122855.1 4202.39   1-0.44880 0.27635 0.69247-0.84182 0.56484-0.46363
   1   2  -1117812.5 4276.61   1-0.41573 0.58824 0.86944-0.72003 0.26690-0.36811
  -2   3   1113841.1 3870.86   1 0.07996-0.12307 0.53462-0.31064-0.84129 0.94252
  -1  -2   1112066.3 4169.85   1-0.78723 0.61432 0.36184-0.51158-0.49932 0.60073
  -3   1  -1109648.8 4063.85   1 0.38868-0.60484 0.45215-0.37727-0.80279 0.70130
   2  -3  -1117748.2 3111.92   1 0.80696-0.76374 0.25631-0.48089-0.53207 0.43061
   3  -1   2286120.8 8595.58   1-0.42016 0.63561 0.38812-0.46276 0.82025-0.61793
  -3   1  -2265222.6 7515.00   1-0.44683 0.23127 0.73096-0.65629 0.51577-0.71818
  -1  -2   2263382.1 8299.87   1-0.44021 0.26776 0.78577-0.93511 0.43447-0.23206
  -2   3   2274868.0 7902.15   1-0.07638 0.03328 0.76785-0.54387-0.63605 0.83850
  -1  -2   2284392.710367.64   1-0.90127 0.72836 0.27292-0.42266-0.33648 0.53929
   2  -3  -2259462.5 6581.92   1-0.16531 0.20858 0.51743-0.74225-0.83960 0.63682
  -3   1  -2313914.0 9438.00   1 0.58648-0.80264 0.38303-0.30815-0.71366 0.51067
   3  -1   344743.71 2982.18   1-0.44475 0.66031 0.56756-0.64223 0.69286-0.38925
  -1  -2   351454.81 3420.94   1-0.43515 0.26263 0.81164-0.96104 0.38971-0.08608
  -2   3   347399.80 2633.13   1-0.18384 0.14073 0.88006-0.65606-0.43781 0.74146
   2  -3  -343157.05 1828.67   1-0.61845 0.66169 0.44032-0.66504-0.65087 0.34621
  -3   1  -343345.90 3051.03   1 0.68795-0.90412 0.33352-0.25864-0.64456 0.34009
   2  -3  -343004.07 2110.42   1 0.99689-0.95370-0.03632-0.18810-0.06981-0.23465
   1   2  -339885.21 2911.32   1 0.95766-0.78489-0.19983 0.34945 0.20721-0.51168
   3  -1   413976.68 2007.92   1-0.44879 0.66435 0.63997-0.71464 0.62371-0.21889
  -1  -2   416336.47 4879.17   1-0.43422 0.26171 0.81548-0.96489 0.38265 0.02218
  -2   3   411641.26 1406.21   1-0.25647 0.21336 0.92704-0.70303-0.27352 0.67839
  -3   1  -412437.88 2208.51   1 0.73683-0.95292 0.30478-0.22992-0.60347 0.19763
   2  -3  -413533.13 1563.65   1 0.98322-0.94003 0.03086-0.25529-0.17976-0.22618
   1   2  -414727.62 2597.79   1 0.98523-0.81246-0.13817 0.28779 0.10107-0.50702
   3  -1   534085.96 6166.20   1-0.44914 0.66471 0.66720-0.74187 0.59422-0.08819
  -1  -2   547225.7915013.23   1-0.43578 0.26327 0.80887-0.95827 0.39472 0.11132
  -2   3   525984.82 2918.64   1-0.30712 0.26401 0.94154-0.71753-0.13845 0.64454
  -3   1  -534491.00 4419.29   1 0.75701-0.97310 0.29184-0.21698-0.58460 0.07730
   2  -3  -536971.54 3861.14   1 0.96278-0.91956 0.07942-0.30400-0.25833-0.24896
   1   2  -536322.32 4941.14   1 0.99643-0.82366-0.08388 0.23351 0.00933-0.51677
   3  -1   660560.0714749.18   1-0.44913 0.66469 0.67220-0.74687 0.58857 0.01866
  -1  -2   660007.96 6044.63   1-0.43837 0.26592 0.79583-0.94517 0.41770 0.18952
  -2   3   657913.8412920.03   1-0.34419 0.30106 0.93858-0.71448-0.02430 0.63156
  -3   1  -673791.46 6123.08   1 0.76015-0.97625 0.28975-0.21489-0.58154-0.02721
   2  -3  -665738.46 5244.42   1 0.93754-0.89432 0.12196-0.34654-0.32576-0.28299
   1   2  -656420.02 5721.66   1 0.99673-0.82396-0.03439 0.18402-0.07300-0.53592
   3  -1   7 8190.17 3381.95   1-0.44914 0.66470 0.66416-0.73883 0.59762 0.11081
  -1  -2   7 7033.29 3252.12   1-0.44152 0.26907 0.77773-0.92707 0.44742 0.26101
  -2   3   7 8029.77 3707.68   1-0.37255 0.32942 0.92491-0.70080 0.07574 0.63272
  -3   1  -7 6957.04 2952.24   1 0.75182-0.96792 0.29523-0.22037-0.58956-0.12065
   2  -3  -7 6431.89 1769.69   1 0.90744-0.86422 0.16165-0.38623-0.38782-0.32239
   1   2  -7 8040.81 3589.48   1 0.98876-0.81599 0.01192 0.13769-0.14899-0.56141
   3  -1   8 5385.68 4356.69   1-0.44895 0.66451 0.64712-0.72179 0.61617 0.19346
  -1  -2   8 4208.49 3621.46   1-0.44453 0.27208 0.75528-0.90463 0.48159 0.32804
  -2   3   8 2839.23 1870.93   1-0.39475 0.35162 0.90369-0.67958 0.16585 0.64382
  -3   1  -8 2276.62 2317.78   1 0.73467-0.95077 0.30612-0.23126-0.60542-0.20625
   1   2  -8 3951.55 3052.55   1 0.97375-0.80098 0.05613 0.09348-0.22056-0.59134
   3  -3   8  705.97 1417.46   1-0.44598 0.57531 0.58337-0.80739 0.67880 0.13084
  -3   0   8 1217.45 1769.51   1-0.42348 0.16471 0.85090-0.85090 0.31084 0.49883
   0   3   8 1337.19 1656.89   1-0.41682 0.54620 0.86708-0.64298 0.27280 0.53687
  -3   3  -8  555.92 1928.16   1 0.82412-0.95378 0.24274-0.01816-0.51174-0.29993
   3   0  -8  914.40 2212.40   1 0.99140-0.73224 0.00081-0.00081-0.13085-0.68104
   3  -3   716523.98 6892.98   1-0.44661 0.57594 0.59258-0.81659 0.67036 0.03807
  -3   0   721871.05 9983.16   1-0.41267 0.15389 0.87568-0.87568 0.25076 0.45770
   0   3   717188.17 5020.89   1-0.40040 0.52979 0.89618-0.67207 0.19113 0.51733
   0  -3  -717617.38 2265.49   1 0.70155-0.83125 0.32593-0.55057-0.63371-0.07673
  -3   3  -720623.90 4466.81   1 0.84474-0.97440 0.22529-0.00071-0.48543-0.22478
   3   0  -718770.58 3727.11   1 0.99773-0.73857-0.05521 0.05521-0.03850-0.67190
   3  -3   665778.27 6272.84   1-0.44650 0.57584 0.59098-0.81500 0.67183-0.06460
  -3   0   671009.47 4767.31   1-0.39980 0.14103 0.89702-0.89702 0.18839 0.41886
   0   3   667359.33 9152.30   1-0.37883 0.50822 0.92005-0.69594 0.09994 0.50731
   0  -3  -669132.85 4869.40   1 0.70681-0.83651 0.32292-0.54756-0.62939 0.02043
  -3   3  -671713.60 6105.46   1 0.85982-0.98948 0.21162 0.01295-0.46467-0.14408
   3   0  -672134.61 5527.92   1 0.99136-0.73221-0.11534 0.11534 0.06231-0.67123
   3  -3   558471.21 6230.97   1-0.44528 0.57461 0.57411-0.79813 0.68710-0.18107
  -3   0   566150.22 6826.25   1-0.38449 0.12572 0.91495-0.91495 0.12257 0.38347
   0   3   553420.48 5503.35   1-0.34957 0.47896 0.93688-0.71278-0.00633 0.51238
   0  -3  -560607.37 5887.89   1 0.68929-0.81899 0.33279-0.55743-0.64352 0.13605
  -3   3  -565831.76 7703.12   1 0.86858-0.99823 0.20327 0.02130-0.45193-0.05536
   3   0  -556739.94 6055.89   1 0.96790-0.70874-0.18092 0.18092 0.17442-0.68186
   3  -3   4 5650.49 2380.80   1-0.44152 0.57085 0.53355-0.75757 0.72137-0.31655
  -3   0   4 6951.52 2792.77   1-0.36595 0.10718 0.92922-0.92922 0.05120 0.35363
   0   3   4 3930.54  998.10   1-0.30739 0.43672 0.94156-0.71756-0.13769 0.54256
  -3   0   4 5000.01 3835.93   1-0.91900 0.65964 0.25352-0.25352-0.30190 0.70752
   0  -3  -4 5388.51 1067.28   1 0.62761-0.75731 0.36437-0.58901-0.68799 0.28202
  -3   3  -4 5532.39 2171.77   1 0.86907-0.99873 0.20279 0.02178-0.45120 0.04536
   3  -3   3134562.0 7157.89   1-0.43108 0.56042 0.45336-0.67738 0.78014-0.47652
  -3   0   3146735.1 5326.33   1-0.34251 0.08374 0.93903-0.93903-0.02982 0.33345
   0   3   3153959.8 3862.83   1-0.23995 0.36928 0.91874-0.69474-0.31357 0.61722
  -3   0   3138069.3 5672.22   1-0.83090 0.57154 0.33305-0.33305-0.44572 0.74994
   0  -3  -3147206.7 2984.93   1 0.45997-0.58967 0.43072-0.65537-0.77646 0.47198
  -3   3  -3160282.7 5498.10   1 0.85661-0.98627 0.21460 0.00997-0.46921 0.16483
   0   3   3148388.4 3457.81   1 0.98357-0.85399 0.02980 0.19463-0.17804 0.48250
   3  -3   2322340.010228.27   1-0.40332 0.53259 0.30577-0.52968 0.86245-0.66013
  -3   0   2289042.6 8089.22   1-0.31012 0.05146 0.94179-0.94179-0.12979 0.33222
   0   3   2373406.8 9973.38   1-0.12004 0.24936 0.81826-0.59428-0.56216 0.76461
  -3   0   2315372.010311.20   1-0.68088 0.42139 0.41624-0.41624-0.60260 0.80570
   0  -3  -2359065.5 9093.86   1 0.03436-0.16416 0.51262-0.73744-0.85792 0.65514
   0   3   2313673.3 8034.09   1 0.80689-0.67723 0.25637-0.03179-0.53215 0.73507
  -3   3  -2315869.9 9623.67   1 0.81926-0.94892 0.24667-0.02209-0.51764 0.31472
   3  -3   1215836.8 7073.96   1-0.33625 0.46553 0.05840-0.28231 0.93995-0.83879
   3   0  -1202520.5 5640.51   1-0.09068 0.34931 0.78509-0.78509-0.61269 0.51147
   0   3   1205349.1 5766.91   1 0.09715 0.03215 0.50397-0.27999-0.85823 0.95946
   0  -3  -1214627.8 5889.22   1 0.28337-0.41268 0.09558-0.31957-0.95423 0.85297
   0  -3  -1210076.3 5607.14   1-0.55458 0.42484 0.46060-0.68532-0.69302 0.59146
  -3   0   1212428.1 6639.36   1-0.44391 0.18441 0.48728-0.48728-0.75199 0.85354
   0   3   1220420.3 5890.61   1 0.08920 0.04059 0.50768-0.28286-0.85691 0.95830
  -3   3  -1201564.4 6266.87   1 0.72387-0.85353 0.31272-0.08814-0.61498 0.51352
   0  -3   012694.59 1138.01   1-0.33094 0.20166 0.04179-0.26570 0.94272-0.94272
   0   3   015346.43 2718.16   1-0.42093 0.55020 0.39229-0.16838 0.81787-0.81787
  -3   0   012920.76  740.50   1-0.12931-0.12931 0.82808-0.82808-0.54549 0.54549
   3   0   013904.80  827.91   1 0.12931 0.12931 0.44458-0.44458-0.88635 0.88635
  -3   3   012656.51 1288.27   1 0.21192-0.34124 0.27167-0.04769-0.93876 0.93876
   0  -3   012543.15 1774.34   1-0.83326 0.70358 0.33134-0.55595-0.44257 0.44257
   0   3   012345.02 1421.69   1-0.54364 0.67338 0.46369-0.23896-0.69960 0.69960
  -3   0   014331.63 1924.25   1-0.12979-0.12979 0.51811-0.51811-0.84540 0.84540
  -3   3   012217.56  999.56   1 0.47690-0.60660 0.42510-0.20045-0.76931 0.76931
   3  -3   016013.04 1315.86   1 0.76063-0.63098 0.28943-0.51401-0.58107 0.58107
   0  -3   1223440.5 7101.17   1-0.42806 0.29879 0.43333-0.65724 0.79308-0.69192
  -3   0  -1220555.5 5837.10   1-0.43877 0.18009 0.50936-0.50936 0.74028-0.84149
  -3   3   1237624.8 7198.85   1 0.05688-0.18620 0.57416-0.35018-0.81675 0.91798
   0  -3   1214383.5 6948.52   1-0.93051 0.80083 0.23951-0.46412-0.27707 0.37848
  -3   3   1228425.4 6346.97   1-0.06862-0.06117 0.51770-0.29288-0.85280 0.95418
  -3   0  -1228464.9 7566.53   1 0.18205-0.44165 0.49569-0.49569-0.84920 0.74781
   3  -3  -1217066.7 5892.69   1 0.44188-0.31218 0.43650-0.66115-0.78371 0.68221
   3   0   2346589.910105.61   1-0.42393 0.68248 0.40897-0.40897 0.80809-0.60577
  -3   0  -2366222.3 9752.26   1-0.41522 0.15645 0.87050-0.87050 0.26420-0.46662
  -3   3   2343230.1 9854.27   1-0.07754-0.05176 0.76928-0.54529-0.63418 0.83664
  -3   3   2338495.1 9208.80   1-0.65522 0.52548 0.42670-0.20197-0.62337 0.82648
   3  -3  -2379583.310041.66   1-0.02522 0.15502 0.51623-0.74105-0.85607 0.65329
  -3   0  -2341635.6 9967.05   1 0.41267-0.67206 0.44534-0.44534-0.79459 0.59160
   0   3  -2327281.010147.91   1 0.97151-0.84193-0.17343 0.39787 0.16150-0.36448
   3   0   3153243.3 5453.45   1-0.44811 0.70678 0.62027-0.62027 0.64378-0.34016
   0  -3   3149781.3 5208.68   1-0.44900 0.31966 0.68374-0.90776 0.57522-0.27160
  -3   3   3164058.4 4521.20   1-0.17487 0.04554 0.87254-0.64853-0.45616 0.75981
  -3   3   3158847.1 4362.03   1-0.91002 0.78034 0.26365-0.03903-0.31992 0.62413
  -3   0  -3155372.3 4611.52   1 0.55203-0.81143 0.39738-0.39738-0.73303 0.42855
   0   3  -3165716.8 5874.48   1 0.99026-0.86068-0.12011 0.34454 0.07038-0.37484
   3   0   4 4406.44 2737.75   1-0.44894 0.70762 0.68654-0.68654 0.57192-0.16710
   0  -3   4 5841.94 3535.14   1-0.44790 0.31857 0.71456-0.93858 0.53737-0.13255
  -3   3   4 4465.54 1186.27   1-0.24450 0.11517 0.92118-0.69718-0.30271 0.70758
  -3   0  -4 4265.29 1499.94   1 0.62847-0.88787 0.36396-0.36396-0.68742 0.28145
   0   3  -4 5608.87 1888.56   1 0.99726-0.86768-0.07351 0.29795-0.00801-0.39793
   3  -3  -4 4697.14 1227.67   1 0.98418-0.85460-0.14144-0.08299 0.10665-0.51260
   3   0   556324.47 7457.79   1-0.44833 0.70700 0.70594-0.70594 0.54830-0.04228
   0  -3   552922.81 5258.56   1-0.44734 0.31800 0.72387-0.94789 0.52524-0.01922
  -3   3   554051.10 5607.49   1-0.29515 0.16582 0.93979-0.71578-0.17225 0.67834
  -3   0  -556592.96 6089.38   1 0.66661-0.92601 0.34494-0.34494-0.66077 0.15331
   0   3  -553282.64 5550.07   1 0.99639-0.86681-0.03073 0.25516-0.07905-0.42838
   3  -3  -557670.79 4917.81   1 0.99770-0.86813-0.05341-0.17101-0.04149-0.46594
   3   0   664065.6210504.38   1-0.44837 0.70705 0.70481-0.70481 0.54971 0.05751
   0  -3   661545.22 6888.45   1-0.44754 0.31820 0.72079-0.94481 0.52930 0.07793
  -3   3   656621.99 4532.46   1-0.33329 0.20391 0.94094-0.71683-0.05949 0.66675
  -3   0  -663004.92 5033.61   1 0.68113-0.94052 0.33724-0.33724-0.64986 0.04091
   0   3  -673411.59 6139.31   1 0.98931-0.85973 0.00977 0.21466-0.14548-0.46344
   3  -3  -669808.57 4394.91   1 0.98775-0.85817 0.01575-0.24018-0.15522-0.45370
   3   0   719480.77 8868.92   1-0.44881 0.70749 0.69207-0.69207 0.56532 0.14311
   0  -3   717871.24 7062.89   1-0.44817 0.31883 0.70940-0.93342 0.54394 0.16448
  -3   3   722118.26 8812.99   1-0.36307 0.23368 0.93086-0.70676 0.04073 0.66773
  -3   0  -717195.28 3299.49   1 0.67988-0.93928 0.33791-0.33791-0.65081-0.05962
   3  -3  -717659.94 2924.99   1 0.96553-0.83587 0.07393-0.29850-0.24956-0.46065
   0   3  -718323.58 4258.08   1 0.97671-0.84714 0.04888 0.17555-0.20888-0.50153
   0  -3   8 1426.94 1676.69   1-0.44882 0.31949 0.69166-0.91568 0.56582 0.24382
  -3   3   8 1153.95 1371.41   1-0.38673 0.25735 0.91272-0.68862 0.13176 0.67791
  -3   0  -8 1170.69 1768.40   1 0.66700-0.92639 0.34474-0.34474-0.66049-0.15144
   0   3  -8 1263.35 1671.11   1 0.95892-0.82926 0.08678 0.13778-0.27007-0.54160
   1  -4   814866.3311033.29   1-0.44805 0.36182 0.61892-0.91761 0.64512 0.16451
   3   1   8 6622.75 4936.34   1-0.44887 0.75066 0.68966-0.61499 0.56821 0.24142
  -4   3   8 8155.08 3796.09   1-0.38111 0.16547 0.91808-0.69398 0.10895 0.70072
  -3  -1  -8 8317.59 2353.63   1 0.57985-0.88248 0.38588-0.46076-0.71753-0.09440
  -1   4  -810747.31 4099.94   1 0.93931-0.85287 0.11933 0.18010-0.32162-0.49006
   1  -4   7 1126.25 1631.58   1-0.44850 0.36227 0.63037-0.92906 0.63362 0.07481
   3   1   7 1776.95 1464.39   1-0.44793 0.74972 0.71409-0.63942 0.53797 0.17045
  -4   3   7 1503.44 1009.40   1-0.35679 0.14114 0.93400-0.70989 0.01845 0.69001
  -3  -1  -7  974.44 1241.85   1 0.58632-0.88895 0.38310-0.45798-0.71376 0.00331
  -1   4  -7 1292.32 1277.52   1 0.95888-0.87244 0.08685 0.21258-0.27017-0.44004
   4  -3  -7 1638.77 1319.19   1 0.99277-0.77681-0.00594-0.21849-0.11980-0.59060
   1  -4   617016.25 8320.54   1-0.44859 0.36236 0.63304-0.93173 0.63088-0.02365
   3   1   613421.26 5288.05   1-0.44681 0.74859 0.73129-0.65662 0.51533 0.09190
  -4   3   610537.87 1929.77   1-0.32672 0.11117 0.94171-0.71771-0.08010 0.68740
  -3  -1  -614195.67 3370.23   1 0.57754-0.88017 0.38687-0.46175-0.71886 0.10991
  -1   4  -615020.16 3731.71   1 0.97420-0.88781 0.05507 0.24417-0.21884-0.39007
   4  -3  -615261.18 2621.53   1 0.99702-0.78106-0.07704-0.14738-0.00211-0.60681
   1  -4   5 4403.27 3022.97   1-0.44825 0.36203 0.62375-0.92244 0.64031-0.13428
   3   1   5 3053.12 1331.55   1-0.44623 0.74801 0.73834-0.66367 0.50568 0.00034
  -4   3   5 2361.81 1225.58   1-0.28875 0.07320 0.93839-0.71439-0.18982 0.69590
  -3  -1  -5 4020.68 1407.62   1 0.54801-0.85063 0.39899-0.47387-0.73517 0.22771
  -1   4  -5 3290.33 2278.25   1 0.98555-0.89917 0.02343 0.27581-0.16771-0.33972
   4  -3  -5 3515.79 1306.49   1 0.97764-0.76167-0.15932-0.06511 0.13723-0.64467
   1  -4   466322.34 6583.36   1-0.44685 0.36063 0.59649-0.89518 0.66671-0.26189
   3   1   447675.91 4231.68   1-0.44712 0.74891 0.72708-0.65240 0.52099-0.11617
  -4   3   453526.09 4627.56   1-0.23972 0.02418 0.91862-0.69461-0.31410 0.71897
  -4   3   456998.00 4907.35   1-0.91612 0.69999 0.25684-0.03223-0.30780 0.71342
  -3  -1  -450023.53 4387.06   1 0.48823-0.79086 0.42121-0.49609-0.76433 0.35836
  -1   4  -467882.40 6998.33   1 0.99312-0.90673-0.00775 0.30699-0.11684-0.28910
   1  -4   312686.74 5384.97   1-0.44216 0.35593 0.53972-0.83841 0.71637-0.41275
   3   1   311496.88 2078.68   1-0.44914 0.75093 0.66823-0.59356 0.59306-0.28945
  -3  -1  -310905.61  817.25   1-0.24981-0.05195 0.92388-0.99855-0.28987-0.01377
  -4   3   314195.24 1618.36   1-0.17467-0.04087 0.87236-0.64836-0.45658 0.76023
  -4   3   314417.87 4738.75   1-0.77620 0.56007 0.36838-0.14377-0.51166 0.81587
  -3  -1  -313841.52 1820.85   1 0.38343-0.68606 0.45359-0.52847-0.80450 0.50002
  -1   4  -312084.29 3008.24   1 0.99705-0.91066-0.03839 0.33764-0.06639-0.23807
   3   1   260501.89 2240.75   1-0.41907 0.72071 0.38232-0.30768 0.82353-0.62120
   1  -4   260592.55 4178.48   1-0.42776 0.34157 0.43148-0.73002 0.79425-0.59193
  -3  -1  -260047.21 1925.53   1-0.23292-0.06884 0.91475-0.98942-0.33010 0.12766
  -4   3   263790.05 3229.08   1-0.08756-0.12796 0.78139-0.55741-0.61785 0.82031
  -4   3   260407.37 3422.78   1-0.50544 0.28919 0.47366-0.24893-0.72122 0.92433
  -3  -1  -262044.14 4475.81   1 0.21553-0.51840 0.49023-0.56517-0.84452 0.64174
   1  -4   121841.63 2685.80   1-0.38652 0.30034 0.23493-0.53348 0.89185-0.79069
  -4   3   130528.11 2404.67   1 0.02853-0.24406 0.62028-0.39630-0.78385 0.88508
  -4   3   122558.83 2180.13   1-0.10785-0.10848 0.51819-0.29337-0.84843 0.94982
  -3  -1  -123865.63 2616.70   1-0.01863-0.28422 0.51592-0.59086-0.85642 0.75504
  -1   4  -121433.75 2058.54   1 0.99476-0.90838-0.09714 0.39639 0.03160-0.13308
  -3  -1   0156986.0 4494.05   1-0.38617 0.08427 0.91329-0.98799 0.12944-0.12944
   3   1   0150055.7 3940.35   1-0.00660 0.30834 0.67376-0.59910-0.73891 0.73891
  -4   3   0166959.4 5485.66   1 0.16463-0.38016 0.37411-0.15012-0.91265 0.91265
  -1   4   0182380.3 5652.01   1-0.75512 0.84157 0.38020-0.08072-0.53407 0.53407
  -3  -1   0152552.4 5325.93   1-0.28687-0.01586 0.51019-0.58510-0.81080 0.81080
  -1   4   0167576.2 5439.66   1 0.98941-0.90302-0.12352 0.42277 0.07617-0.07617
  -3  -1   122787.04 1565.12   1-0.37582 0.07392 0.92247-0.99717 0.08824 0.01296
   3   1  -121377.83 1257.74   1-0.18630 0.48806 0.88206-0.80739-0.43272 0.33150
  -1   4   123192.77 1733.72   1 0.13059-0.04437 0.44212-0.14348-0.88739 0.98865
  -4   3  -121290.96 1682.62   1 0.28764-0.50317 0.08405 0.13993-0.95404 0.85277
  -3  -1   123347.96 4048.05   1-0.53053 0.22778 0.46725-0.54216-0.70725 0.80880
  -1   4   122636.31 1043.78   1-0.18930 0.27583 0.51659-0.21683-0.83504 0.93642
  -4   3  -121492.30 1850.59   1 0.52560-0.74177 0.40767-0.18302-0.74668 0.64519
  -1   4   121058.12 1153.64   1 0.98447-0.89809-0.14053 0.43978 0.10510-0.00362
   4  -3   257980.37 3589.53   1-0.36813 0.58358 0.16547-0.38938 0.91493-0.71260
  -3  -1   259947.26 3065.18   1-0.38138 0.07948 0.91784-0.99254 0.11003 0.09238
  -1   4   284278.14 3929.81   1-0.03525 0.12146 0.71435-0.41571-0.69889 0.90134
  -3  -1   261030.69 4278.29   1-0.71309 0.41050 0.40138-0.47625-0.57479 0.77760
  -4   3  -261406.64 3648.10   1 0.66313-0.87930 0.34675-0.12211-0.66333 0.46034
   4  -3   314630.25 5211.57   1-0.40959 0.62505 0.33478-0.55869 0.84861-0.54512
  -3  -1   313257.68 4170.42   1-0.39029 0.08839 0.90893-0.98363 0.14664 0.15698
  -1   4   312104.75 1259.41   1-0.15881 0.24502 0.85821-0.55954-0.48810 0.79175
  -3  -1   315962.27 6217.00   1-0.83609 0.53350 0.32928-0.40415-0.43877 0.74298
  -4   3  -313929.92 2519.18   1 0.73368-0.94978 0.30673-0.08216-0.60631 0.30193
   4  -3   449633.35 5987.18   1-0.42854 0.64400 0.43626-0.66017 0.79121-0.38656
  -3  -1   458118.83 5001.70   1-0.39995 0.09805 0.89681-0.97151 0.18909 0.21574
  -1   4   455805.36 4621.11   1-0.24333 0.32955 0.92057-0.62189-0.30550 0.71037
  -3  -1   456207.56 5546.37   1-0.91422 0.61164 0.25899-0.33386-0.31161 0.71723
   1  -4  -451547.73 4006.48   1-0.90634 0.81989 0.26761-0.56709-0.32698-0.07862
   1  -4  -458089.47 4142.72   1 0.55110-0.63756 0.39776-0.69728-0.73353 0.32756
  -4   3  -462510.10 6103.12   1 0.76783-0.98393 0.28458-0.06001-0.57396 0.16812
   4  -3   5 3650.79 1815.65   1-0.43667 0.65223 0.49274-0.71676 0.75267-0.24664
  -3  -1   5 2684.88 1739.86   1-0.40946 0.10756 0.88168-0.95638 0.23446 0.27158
  -1   4   5 2401.03 1053.83   1-0.30118 0.38740 0.94081-0.64214-0.15540 0.66149
   1  -4  -5 3957.22  996.77   1 0.65666-0.74312 0.35008-0.64960-0.66801 0.16055
  -4   3  -5 4967.23 2864.49   1 0.78120-0.99730 0.27531-0.05073-0.56028 0.05298
   3   1  -5 1890.39 1451.44   1 0.96160-0.65925-0.19291 0.26773 0.19520-0.70264
   4  -3   615397.29 6828.56   1-0.44010 0.65566 0.52072-0.74474 0.73153-0.12430
  -3  -1   618831.71 7602.81   1-0.41840 0.11649 0.86354-0.93824 0.28148 0.32577
  -1   4   612979.12 4069.52   1-0.34241 0.42867 0.93906-0.64026-0.03016 0.63742
   1  -4  -614607.94 2008.65   1 0.68574-0.77221 0.33473-0.63426-0.64629 0.03734
  -4   3  -621621.26 5078.21   1 0.78143-0.99753 0.27515-0.05057-0.56004-0.04871
   3   1  -615625.25 3909.06   1 0.98721-0.68486-0.13160 0.20641 0.08989-0.69881
   4  -3   7 2968.85 2136.61   1-0.44113 0.65669 0.52996-0.75398 0.72424-0.01580
  -3  -1   7 3126.70 2071.08   1-0.42651 0.12461 0.84230-0.91700 0.32955 0.37891
  -1   4   7 1434.20  954.62   1-0.37315 0.45941 0.92448-0.62567 0.07802 0.63044
  -4   3  -7  760.43 2547.34   1 0.77230-0.98840 0.28153-0.05695-0.56945-0.14076
   3   1  -7  876.17 1659.44   1 0.99722-0.69487-0.07419 0.14900-0.00688-0.70352
   4  -3   8 8072.10 4483.51   1-0.44070 0.65626 0.52601-0.75003 0.72738 0.08225
  -3  -1   812197.08 7371.79   1-0.43365 0.13175 0.81781-0.89251 0.37832 0.43135
  -1   4   8 7716.44 3587.85   1-0.39665 0.48291 0.90128-0.60248 0.17421 0.63546
  -4   3  -812552.75 4256.48   1 0.75568-0.97178 0.29271-0.06813-0.58587-0.22580
   3   1  -810279.48 3380.11   1 0.99509-0.69274-0.01986 0.09467-0.09695-0.71494
   2  -4   815411.9811600.91   1-0.44618 0.44618 0.58624-0.88493 0.67619 0.13344
   2   2   812660.75 8760.08   1-0.44264 0.70131 0.77014-0.62080 0.45927 0.35036
  -4   2   819355.00 7344.58   1-0.39502 0.13625 0.90335-0.75395 0.16703 0.64264
  -2   4  -816271.15 4297.40   1 0.90136-0.90136 0.16874 0.13068-0.39882-0.41285
   4  -2  -817697.50 3618.30   1 0.98901-0.72985 0.01096-0.16058-0.14742-0.66447
   2  -4   7  277.41  890.86   1-0.44676 0.44676 0.59504-0.89373 0.66806 0.04036
   2   2   7 -166.37 1327.32   1-0.43742 0.69619 0.80135-0.65195 0.40802 0.30044
  -4   2   7   -3.32 1358.81   1-0.37513 0.11636 0.92301-0.77360 0.08558 0.62288
  -2  -2  -7  518.66 1081.69   1 0.58697-0.84636 0.38282-0.53258-0.71337 0.00293
  -2   4  -7  320.61 1743.34   1 0.92272-0.92272 0.14258 0.15684-0.35811-0.35210
   4  -2  -7  170.18 1002.19   1 0.99769-0.73853-0.05236-0.09726-0.04324-0.66716
   2  -4   6 3151.87 1952.80   1-0.44669 0.44669 0.59384-0.89253 0.66918-0.06195
  -4   2   6 1460.13 1416.94   1-0.35065 0.09188 0.93650-0.78710-0.00268 0.60994
  -2  -2  -6 2539.46 1752.33   1 0.57706-0.83645 0.38707-0.53683-0.71914 0.11019
  -2   4  -6 4072.37 2222.50   1 0.94005-0.94005 0.11822 0.18121-0.31987-0.28888
   4  -2  -6 3087.23 1656.39   1 0.98985-0.73069-0.12177-0.02784 0.07320-0.68213
   2  -4   5  435.69  836.29   1-0.44564 0.44564 0.57887-0.87756 0.68285-0.17683
   2   2   5  526.48 1159.34   1-0.42256 0.68134 0.85332-0.70392 0.30539 0.20065
  -4   2   5  785.05 1239.13   1-0.32006 0.06140 0.94206-0.79272-0.10039 0.60647
  -2  -2  -5   55.55  762.65   1 0.54277-0.80216 0.40106-0.55082-0.73793 0.23047
  -2   4  -5  587.10 2115.52   1 0.95362-0.95362 0.09629 0.20314-0.28518-0.22211
   4  -2  -5  966.45 1989.50   1 0.95805-0.69889-0.19917 0.04954 0.20606-0.71350
   2  -4   4176150.915887.40   1-0.44252 0.44252 0.54328-0.84197 0.71345-0.30863
   2   2   4181011.616099.46   1-0.41333 0.67210 0.87437-0.72497 0.25421 0.15062
  -4   2   4181736.716012.39   1-0.28051 0.02185 0.93616-0.78682-0.21192 0.61678
  -4   2   4173512.112902.88   1-0.88800 0.62864 0.28603-0.13629-0.36003 0.76565
  -2  -2  -4156367.410907.58   1 0.47086-0.73025 0.42713-0.57689-0.77190 0.36594
  -2   4  -4193142.617627.85   1 0.96355-0.96355 0.07790 0.22153-0.25590-0.14993
   2  -4   3  315.20  885.22   1-0.43420 0.43420 0.47461-0.77330 0.76564-0.46202
   2   2   3  119.31  424.66   1-0.40301 0.66178 0.89234-0.74294 0.20323 0.10039
  -4   2   3  806.77 1551.93   1-0.22729-0.03136 0.91137-0.76203-0.34312 0.64677
  -2  -2  -3   66.90  254.74   1-0.09441-0.16421 0.78948-0.93880-0.60646 0.30278
  -4   2   3  397.82  613.18   1-0.75676 0.49740 0.37931-0.22957-0.53237 0.83658
  -2  -2  -3  641.99  479.66   1 0.33965-0.59905 0.46491-0.61467-0.81761 0.51313
  -2   4  -3  814.92 1558.52   1 0.96970-0.96970 0.06510 0.23432-0.23542-0.06895
   2  -4   2 1941.25 1201.85   1-0.41305 0.41305 0.35152-0.65007 0.84013-0.63780
   2   2   2 1740.26 1133.87   1-0.39178 0.65055 0.90724-0.75784 0.15298 0.04943
  -4   2   2 1256.50  617.46   1-0.15205-0.10660 0.85188-0.70254-0.50117 0.70360
  -2  -2  -2 2905.64  390.36   1 0.05771-0.31634 0.57277-0.72210-0.81767 0.61522
  -4   2   2 2472.43 1370.34   1-0.53496 0.27547 0.46606-0.31624-0.70469 0.90780
  -2  -2  -2 3981.29 2071.91   1 0.12470-0.38430 0.50364-0.65352-0.85486 0.65209
  -2   4  -2 2684.75 1337.64   1 0.97111-0.97111 0.06222 0.23702-0.23033 0.02736
   2  -4   1  522.71  540.41   1-0.36251 0.36251 0.14551-0.44406 0.92054-0.81938
  -4   2   1 7968.56 2134.23   1-0.04293-0.21570 0.72476-0.57544-0.68765 0.78888
  -2  -2  -1  341.29  388.37   1-0.16360-0.09599 0.51748-0.66736-0.83990 0.73851
  -2   4  -1  462.18  700.90   1 0.96280-0.96280 0.07939 0.22004-0.25827 0.15681
  -2  -2   0439332.611041.64   1-0.42994 0.17127 0.44599-0.59534 0.78500-0.78500
   2   2   0469668.211927.63   1-0.36447 0.62324 0.93008-0.78068 0.04578-0.04578
  -2   4   0430880.411874.34   1 0.26281-0.26281 0.14932 0.14932-0.95322 0.95322
  -2  -2   0424047.311597.09   1-0.45324 0.19374 0.48540-0.63522-0.74763 0.74763
  -4   2   0452910.613210.74   1 0.11816-0.37776 0.50443-0.35455-0.85532 0.85532
   2  -4   0440668.811649.70   1 0.98135-0.98135-0.14962-0.14962 0.12062-0.12062
  -2  -2   1  110.67  201.26   1-0.44410 0.18543 0.75894-0.90828 0.47621-0.37500
   2   2  -1  -15.48  251.30   1-0.35017 0.60894 0.93667-0.78727-0.00431-0.09689
  -2   4   1  223.32 1073.89   1 0.11908-0.11908 0.46410-0.16546-0.87773 0.97899
  -4   2  -1  165.40  563.11   1 0.26460-0.52324 0.14473 0.00459-0.95343 0.85217
  -2   4   1  223.46  219.96   1-0.88031 0.88031 0.29318 0.00629-0.37294 0.47434
  -2  -2   1  -43.75  602.00   1-0.67330 0.41381 0.41942-0.56924-0.60888 0.71043
  -4   2  -1  656.79  558.10   1 0.38377-0.64317 0.45350-0.30374-0.80439 0.70290
  -2   4   1  239.15  244.45   1 0.46356-0.46356 0.42955-0.13003-0.77497 0.87647
   4  -2   2 2070.83 1438.66   1-0.36833 0.62687 0.16618-0.31545 0.91472-0.71239
  -2  -2   2 1699.71 1366.18   1-0.43301 0.17424 0.82030-0.96970 0.37363-0.17121
  -2  -2   2 2302.03 1263.97   1-0.81518 0.55582 0.34399-0.49373-0.46598 0.66879
  -4   2  -2 3701.53 1390.06   1 0.55122-0.81062 0.39771-0.24795-0.73346 0.53048
   4  -2   3  250.56  579.08   1-0.41586 0.67440 0.36561-0.51488 0.83269-0.52921
  -2  -2   3  -21.43  891.33   1-0.42880 0.17003 0.83519-0.98459 0.34434-0.04071
  -2   4   3   -9.85  657.08   1-0.13872 0.13872 0.83885-0.54017-0.52638 0.83003
  -2  -2   3 2450.14 1905.16   1-0.90188 0.64252 0.27229-0.42203-0.33536 0.63957
   2  -4  -3  190.30  145.20   1-0.33202 0.33202 0.50521-0.80485-0.79656 0.49190
  -4   2  -3  426.47 1280.04   1 0.64624-0.90564 0.35531-0.20555-0.67536 0.37088
   4  -2   4173007.713006.70   1-0.43426 0.69294 0.47503-0.62438 0.76534-0.36052
  -2  -2   4183485.216472.97   1-0.42909 0.17032 0.83424-0.98364 0.34628 0.05855
  -2   4   4165222.612281.98   1-0.22124 0.22124 0.90755-0.60888-0.35691 0.76177
   2  -4  -4143965.3 9721.33   1-0.64501 0.64501 0.43064-0.73027-0.63127 0.22506
  -4   2  -4137887.710133.59   1 0.69684-0.95624 0.32859-0.17882-0.63751 0.23154
   2  -4  -498883.62 6789.75   1 0.85311-0.85311 0.21780-0.51724-0.47408 0.06824
   2   2  -4154929.411536.67   1 0.95351-0.69435-0.20674 0.35636 0.21924-0.62519
   4  -2   5  594.16 1350.54   1-0.44124 0.69991 0.53098-0.68032 0.72343-0.21740
  -2  -2   5  275.54  981.39   1-0.43169 0.17292 0.82525-0.97465 0.36413 0.14191
  -2   4   5  452.97 1496.63   1-0.28073 0.28073 0.93622-0.63755-0.21135 0.71743
  -4   2  -5  108.39 1334.77   1 0.72072-0.98011 0.31476-0.16500-0.61764 0.11017
   2  -4  -5  315.49  471.11   1 0.85721-0.85721 0.21404-0.51347-0.46835-0.03894
   2   2  -5 1986.31 2017.51   1 0.98225-0.72309-0.14710 0.29673 0.11632-0.62376
   4  -2   6 2148.63 1492.19   1-0.44373 0.70241 0.55597-0.70532 0.70284-0.09561
  -2  -2   6 2442.72 2342.48   1-0.43533 0.17656 0.81086-0.96026 0.39112 0.21613
  -2   4   6 1582.50 1077.81   1-0.32476 0.32476 0.94186-0.64319-0.08611 0.69341
  -4   2  -6 3143.13 2371.11   1 0.72768-0.98699 0.31042-0.16070-0.61165 0.00289
   2  -4  -6 3250.89 1324.65   1 0.84092-0.84092 0.22862-0.52806-0.49047-0.11828
   2   2  -6 2415.05 2088.94   1 0.99548-0.73632-0.09206 0.24168 0.02305-0.63198
   4  -2   7  259.41  995.58   1-0.44426 0.70293 0.56182-0.71117 0.69783 0.01059
  -2  -2   7  580.90  816.42   1-0.43907 0.18039 0.79218-0.94152 0.42386 0.28457
  -2   4   7 -167.96 1137.42   1-0.35826 0.35826 0.93332-0.63451 0.02360 0.68486
  -4   2  -7  615.76 1821.71   1 0.72255-0.98194 0.31366-0.16390-0.61605-0.09438
   2   2  -7  346.77 1235.01   1 0.99719-0.73803-0.04045 0.19008-0.06298-0.64743
   4  -2   814983.61 9844.44   1-0.44361 0.70229 0.55465-0.70400 0.70396 0.10568
  -2  -2   816824.02 9048.55   1-0.44274 0.18407 0.76942-0.91877 0.46039 0.34925
  -2   4   817512.40 5796.14   1-0.38442 0.38442 0.91501-0.61621 0.12229 0.68738
  -4   2  -819656.76 4047.65   1 0.70835-0.96774 0.32203-0.17227-0.62811-0.18381
   2   2  -816507.04 3597.44   1 0.98959-0.73043 0.00863 0.14098-0.14363-0.66827
   3  -4   8 9598.80 7851.06   1-0.44263 0.52886 0.54443-0.84312 0.71250 0.09714
   1   3   8 7038.86 3759.70   1-0.42939 0.64504 0.83324-0.60914 0.34830 0.46137
  -4   1   811356.40 7402.91   1-0.40871 0.10681 0.88302-0.80832 0.23070 0.57897
  -3   4  -811358.33 3722.22   1 0.85196-0.93840 0.21885 0.08058-0.47566-0.33601
   4  -1  -8 9319.95 3094.53   1 0.99542-0.69307-0.02230-0.05251-0.09294-0.71895
   3  -4   7  890.52 1212.77   1-0.44315 0.52937 0.54969-0.84838 0.70813 0.00030
   1   3   7 1614.99 1824.81   1-0.41733 0.63297 0.86595-0.64184 0.27560 0.43286
  -4   1   7 2041.78 1665.37   1-0.39328 0.09138 0.90548-0.83078 0.15943 0.54903
  -1  -3  -7  976.17 1317.34   1 0.57376-0.78992 0.38846-0.61311-0.72103 0.01058
  -3   4  -7 1200.22 1755.87   1 0.87272-0.95916 0.19920 0.10022-0.44572-0.26449
   4  -1  -7 1423.01 1697.50   1 0.99642-0.69407-0.08394 0.00913 0.00942-0.71984
   3  -4   615542.21 9036.79   1-0.44253 0.52876 0.54342-0.84211 0.71334-0.10610
   1   3   612799.91 5241.20   1-0.40137 0.61701 0.89478-0.67068 0.19558 0.41167
  -4   1   618206.73 5196.97   1-0.37458 0.07268 0.92343-0.84872 0.08345 0.52380
  -1  -3  -616389.99 2811.74   1 0.56032-0.77648 0.39403-0.61867-0.72854 0.11958
  -3   4  -616629.98 4029.37   1 0.88871-0.97515 0.18275 0.11668-0.42045-0.18830
   4  -1  -618598.04 3594.52   1 0.98117-0.67882-0.15013 0.07532 0.12150-0.73043
   3  -4   5 4038.25 2545.13   1-0.44016 0.52638 0.52120-0.81989 0.73116-0.22513
   1   3   5 2915.52 1705.23   1-0.37967 0.59531 0.91933-0.69523 0.10325 0.40279
  -4   1   5 6801.37 2970.73   1-0.35162 0.04972 0.93614-0.86143 0.00063 0.50541
  -1  -3  -5 5056.09 1615.37   1 0.51606-0.73223 0.41123-0.63588-0.75136 0.24390
  -3   4  -5 2574.66 1304.44   1 0.89962-0.98606 0.17073 0.12870-0.40189-0.10540
   3  -4   459056.0211556.61   1-0.43432 0.52054 0.47542-0.77411 0.76507-0.36025
   1   3   451733.96 4365.79   1-0.34798 0.56362 0.93742-0.71332-0.01168 0.41652
  -4   1   446651.48 4067.63   1-0.32268 0.02092 0.94197-0.86731-0.09246 0.49732
  -4   1   452624.62 5096.07   1-0.87335 0.57076 0.29940-0.22453-0.38419 0.78981
  -1  -3  -456559.09 4486.76   1 0.42054-0.63670 0.44301-0.66766-0.79175 0.38578
  -3   4  -455256.83 5444.37   1 0.90443-0.99087 0.16520 0.13423-0.39333-0.01250
   3  -4   315697.65 6318.89   1-0.42111 0.50729 0.39329-0.69184 0.81730-0.51381
   1   3   312317.70 1068.85   1-0.29490 0.51045 0.93974-0.71573-0.17295 0.47661
  -4   1   312775.68 1712.32   1-0.28424-0.01752 0.93723-0.86256-0.20199 0.50564
  -4   1   315656.97 2362.16   1-0.75576 0.45318 0.37985-0.30498-0.53340 0.83762
  -1  -3  -316377.25 1704.44   1 0.23804-0.45437 0.48621-0.71103-0.84079 0.53663
  -3   4  -313841.85 2136.00   1 0.90045-0.98689 0.16978 0.12964-0.40043 0.09605
   3  -4   260532.21 5957.25   1-0.39165 0.47783 0.25567-0.55422 0.88387-0.68155
  -4   1   275597.17 3536.57   1-0.22929-0.07247 0.91259-0.83792-0.33851 0.54094
   1   3   260585.81 2288.16   1-0.18365 0.39920 0.87991-0.65590-0.43820 0.64064
  -1  -3  -258595.60 2127.92   1 0.17318-0.38871 0.35630-0.58029-0.91817 0.71565
  -4   1   263128.28 3694.43   1-0.57328 0.27054 0.45507-0.38016-0.68136 0.88446
   1   3   266402.51 2712.35   1 0.59166-0.37549 0.38078-0.15614-0.71059 0.91357
  -3   4  -265114.13 4165.78   1 0.88056-0.96700 0.19130 0.10813-0.43360 0.23068
   3  -4   122359.30 2091.35   1-0.33185 0.41804 0.04463-0.34318 0.94227-0.84110
   1   3   126052.51 1691.58   1-0.37447 0.58992 0.18863 0.03527 0.90784-0.80668
  -4   1   119718.56 1291.58   1-0.14265-0.15911 0.84276-0.76809-0.51903 0.62024
   1   3   119333.56 1016.08   1 0.07418 0.14134 0.54470-0.32072-0.83533 0.93656
  -1  -3  -123165.65 1749.75   1-0.40136 0.18512 0.49508-0.71981-0.77057 0.66902
  -4   1   120623.97 2775.74   1-0.32078 0.01804 0.50657-0.43166-0.80030 0.90185
   1   3   123495.28 1953.38   1 0.12612 0.09021 0.50346-0.27864-0.85476 0.95614
  -3   4  -124431.03 2063.91   1 0.82337-0.90981 0.24335 0.05607-0.51267 0.41121
  -1  -3   0162072.1 4868.89   1-0.35759 0.14213 0.12847-0.35238 0.92499-0.92499
   1   3   0181669.6 5782.98   1-0.44896 0.66452 0.64773-0.42372 0.61551-0.61551
  -4   1   0161939.5 4751.45   1 0.00306-0.30480 0.65944-0.58478-0.75174 0.75174
   4  -1   0154256.2 4584.09   1 0.22174 0.07999 0.24911-0.32378-0.94274 0.94274
  -3   4   0167587.2 5626.82   1 0.23061-0.31682 0.22833 0.07030-0.94587 0.94587
  -1  -3   0159697.9 5381.55   1-0.66450 0.44826 0.42301-0.64774-0.61602 0.61602
  -4   1   0186280.4 7850.58   1-0.03288-0.26997 0.51656-0.44162-0.85561 0.85561
  -3   4   0169064.5 5131.28   1 0.65449-0.74096 0.35117-0.05165-0.66955 0.66955
   3  -4   0170587.1 5259.68   1 0.94498-0.85854 0.11060-0.41003-0.30784 0.30784
  -4   1  -120862.93 2187.18   1-0.39869 0.09705 0.28538-0.21075 0.87154-0.97270
  -1  -3   122975.25 2172.29   1-0.43961 0.22404 0.51643-0.74044 0.73487-0.63366
  -3   4   123069.89 1882.92   1 0.09967-0.18588 0.49940-0.20076-0.86061 0.96184
  -4   1  -120179.15 1203.89   1 0.20713-0.50887 0.28251-0.20785-0.93663 0.83536
  -1  -3   121407.85 2248.50   1-0.81931 0.60318 0.34118-0.56579-0.46076 0.56217
  -3   4   124515.30 2017.35   1 0.12208-0.20861 0.50396-0.20420-0.85505 0.95644
  -4   1  -122288.70 3184.17   1 0.22538-0.52824 0.48850-0.41356-0.84294 0.74156
   3  -4  -121847.42 1170.57   1 0.83960-0.75316 0.22976-0.52920-0.49220 0.39074
   4  -1   257392.83 3393.65   1-0.35888 0.66052 0.13292-0.20755 0.92386-0.72154
  -1  -3   263792.49 3424.44   1-0.44914 0.23358 0.66458-0.88860 0.59715-0.39474
  -4   1  -259919.38 2644.43   1-0.44906 0.14728 0.67944-0.60477 0.58024-0.78265
  -3   4   267206.97 3492.54   1-0.02755-0.05865 0.70371-0.40507-0.70994 0.91240
  -3   4   263449.35 2247.05   1-0.74244 0.65599 0.38690-0.08742-0.54687 0.74968
  -4   1  -261859.22 3302.63   1 0.41406-0.71669 0.44493-0.37005-0.79409 0.59110
   3  -4  -260505.97 1905.02   1 0.46822-0.38176 0.42801-0.72753-0.77302 0.57004
   4  -1   313729.57 4361.13   1-0.41948 0.72112 0.38449-0.45913 0.82231-0.51882
  -1  -3   313800.87 5636.79   1-0.44741 0.23185 0.72282-0.94683 0.52663-0.22302
  -3   4   311934.75 1479.20   1-0.13005 0.04383 0.83000-0.53133-0.54237 0.84602
   3  -4  -314036.18 1188.35   1-0.09563 0.18216 0.51812-0.81788-0.84993 0.54577
  -4   1  -313714.79 2105.50   1 0.53358-0.83621 0.40463-0.32975-0.74267 0.43819
   1   3  -312425.64 2182.32   1 0.95495-0.73898-0.20439 0.42883 0.21515-0.51961
   4  -1   450385.84 6565.63   1-0.43846 0.74025 0.50689-0.58157 0.74215-0.33733
  -1  -3   453500.78 5122.25   1-0.44563 0.23007 0.74481-0.96883 0.49665-0.09182
  -3   4   448273.04 4178.27   1-0.20834 0.12212 0.89881-0.60014-0.38564 0.79051
   3  -4  -445865.43 3384.52   1-0.39554 0.48203 0.49605-0.79569-0.77296 0.36675
  -4   1  -452313.27 4896.04   1 0.60356-0.90619 0.37549-0.30061-0.70335 0.29738
   3  -4  -447995.36 3683.12   1 0.99523-0.90884-0.02087-0.27837-0.09529-0.31066
   1   3  -453017.40 5500.85   1 0.98190-0.76593-0.14810 0.37254 0.11802-0.52397
   4  -1   5 2983.29 1735.26   1-0.44438 0.74616 0.56321-0.63788 0.69664-0.19061
  -1  -3   5 2921.00 1931.78   1-0.44520 0.22964 0.74913-0.97315 0.49050 0.01552
  -3   4   5 3484.95 1646.83   1-0.26712 0.18090 0.93153-0.63286-0.24674 0.75283
  -4   1  -5 2781.18 1562.65   1 0.64102-0.94365 0.35789-0.28301-0.67896 0.17150
   3  -4  -5 3439.82 1117.33   1 0.97546-0.88907 0.05201-0.35126-0.21392-0.29351
   1   3  -5 3454.33 2026.48   1 0.99480-0.77883-0.09691 0.32134 0.03121-0.53865
   4  -1   612909.66 5450.15   1-0.44612 0.74791 0.58545-0.66012 0.67691-0.06968
  -1  -3   614145.74 5829.83   1-0.44580 0.23024 0.74308-0.96710 0.49908 0.10815
  -3   4   611183.70 2013.86   1-0.31200 0.22578 0.94191-0.64324-0.12431 0.73161
  -4   1  -615639.11 3348.99   1 0.65700-0.95963 0.34990-0.27502-0.66776 0.05880
   3  -4  -613453.82 1780.01   1 0.94715-0.86071 0.10713-0.40657-0.30236-0.30639
   1   3  -614870.64 3841.06   1 0.99761-0.78164-0.04923 0.27366-0.04844-0.56047
   4  -1   7 1726.87 1244.37   1-0.44630 0.74809 0.58805-0.66272 0.67453 0.03389
  -1  -3   7 1931.46 1896.58   1-0.44692 0.23135 0.72987-0.95389 0.51724 0.19119
  -3   4   7 1393.62 1088.26   1-0.34691 0.26066 0.93777-0.63896-0.01525 0.72372
  -4   1  -7  792.08 1460.09   1 0.65797-0.96059 0.34941-0.27453-0.66707-0.04337
   1   3  -7  997.33 1776.43   1 0.99239-0.77642-0.00395 0.22839-0.12305-0.58736
   4  -1   8 8301.03 5252.87   1-0.44556 0.74734 0.57774-0.65241 0.68387 0.12576
  -1  -3   810460.15 5482.05   1-0.44809 0.23253 0.71100-0.93501 0.54193 0.26771
  -3   4   8 9988.90 3827.91   1-0.37469 0.28844 0.92334-0.62453 0.08390 0.72577
  -4   1  -8 9506.16 2812.29   1 0.64753-0.95016 0.35467-0.27979-0.67446-0.13747
   1   3  -810921.40 4483.54   1 0.98019-0.76423 0.03966 0.18477-0.19399-0.61790
   4  -4   8 2796.34 2929.75   1-0.43662 0.60907 0.49238-0.79108 0.75293 0.05670
  -4   0   8 3284.72 2346.52   1-0.42143 0.07641 0.85622-0.85622 0.29876 0.51091
   0   4   8 3023.19 1982.48   1-0.41085 0.58336 0.87914-0.58034 0.24145 0.56822
  -4   4  -8 2864.58 2432.32   1 0.79155-0.96443 0.26786 0.03156-0.54925-0.26242
   4   0  -8 2102.40 1686.46   1 0.99746-0.65191-0.04530 0.04530-0.05496-0.75693
   4  -4   7 2023.08 1653.77   1-0.43672 0.60917 0.49312-0.79181 0.75239-0.04395
  -4   0   7 1403.24 1889.76   1-0.41026 0.06523 0.88024-0.88024 0.23845 0.47001
   0   4   7  842.16 1359.17   1-0.39122 0.56374 0.90788-0.60908 0.15060 0.55786
  -4   4  -7  988.69 1914.50   1 0.80954-0.98242 0.25432 0.04510-0.52910-0.18111
   4   0  -7  457.11 1701.07   1 0.99354-0.64800-0.10451 0.10451 0.04401-0.75443
   4  -4   639829.4014713.95   1-0.43503 0.60748 0.48052-0.77921 0.76147-0.15424
  -4   0   639635.0411076.12   1-0.39706 0.05203 0.90074-0.90074 0.17604 0.43121
   0   4   642563.1712700.24   1-0.36504 0.53755 0.92975-0.63095 0.04786 0.55939
  -4   4  -638422.69 4596.00   1 0.82125-0.99413 0.24507 0.05436-0.51524-0.09351
   4   0  -639800.74 4637.61   1 0.97441-0.62886-0.16700 0.16700 0.15043-0.75936
   4  -4   5 3723.70 2097.08   1-0.43050 0.60295 0.44959-0.74828 0.78264-0.27661
  -4   0   5 4777.48 2514.29   1-0.38150 0.03647 0.91773-0.91773 0.11053 0.39551
   0   4   5 3410.46 1451.44   1-0.32894 0.50145 0.94151-0.64270-0.07314 0.57919
  -4   0   5 5039.47 3169.45   1-0.93516 0.58935 0.23345-0.23345-0.26638 0.77340
   0  -4  -5 3809.24  934.40   1 0.44897-0.62190 0.43426-0.73379-0.78091 0.27345
  -4   4  -5 4482.01 1906.76   1 0.82544-0.99832 0.24166 0.05776-0.51013 0.00283
   4  -4   414586.01 5647.17   1-0.42092 0.59329 0.39227-0.69082 0.81788-0.41323
  -4   0   419026.15 7176.82   1-0.36291 0.01788 0.93095-0.93095 0.04015 0.36468
   0   4   414681.60 1962.80   1-0.27646 0.44890 0.93488-0.63621-0.22259 0.62746
  -4   0   412758.52 5417.48   1-0.86916 0.52335 0.30304-0.30304-0.39079 0.79640
   0  -4  -412258.57 1707.27   1 0.29969-0.47262 0.47420-0.77372-0.82783 0.42186
  -4   4  -414876.20 3119.25   1 0.81946-0.99234 0.24650 0.05292-0.51740 0.11156
   4  -4   314486.71 2636.99   1-0.40117 0.57354 0.29622-0.59476 0.86678-0.56329
  -4   0   313107.60 1745.28   1-0.33989-0.00513 0.93968-0.93968-0.03838 0.34201
   0   4   313969.33 1323.41   1-0.19434 0.36678 0.88843-0.58976-0.41582 0.71947
  -4   0   315453.40 4707.00   1-0.76627 0.42045 0.37406-0.37406-0.52240 0.82661
   0  -4  -315436.08 1669.15   1 0.00150-0.17456 0.51484-0.81460-0.85728 0.55312
  -4   4  -313846.07 2394.48   1 0.79767-0.97055 0.26335 0.03608-0.54255 0.23817
   0   4   313855.73 1115.86   1 0.95200-0.77912 0.09908 0.20035-0.28961 0.59399
   4  -4   2163113.8 7695.75   1-0.36281 0.53518 0.14659-0.44514 0.92025-0.71793
  -4   0   2145654.7 3761.43   1-0.30935-0.03552 0.94173-0.94173-0.13203 0.33446
  -4   0   2161086.2 6277.21   1-0.61579 0.26980 0.44124-0.44124-0.65276 0.85586
   0   4   2168641.2 3050.48   1 0.64211-0.46918 0.35735-0.05783-0.67821 0.88120
  -4   4  -2175218.8 5605.99   1 0.74770-0.92058 0.29789 0.00153-0.59345 0.39053
   0   4   1 9822.10 2726.98   1-0.34995 0.52232 0.10270 0.19584 0.93111-0.82995
  -4   0   110033.59 1050.84   1-0.26287-0.08200 0.92982-0.92982-0.25752 0.35874
   0   4   110321.35 1150.69   1 0.13081 0.04160 0.44169-0.14304-0.88757 0.98884
  -4   4  -1 8569.55 1346.33   1 0.29517-0.46759 0.06343 0.23521-0.95333 0.85207
   0  -4  -1 9654.70 1363.99   1-0.72906 0.55615 0.39368-0.69316-0.55989 0.45849
  -4   0   112180.70 4332.67   1-0.41268 0.06669 0.49313-0.49313-0.76583 0.86739
   0   4   1 9066.74 1733.41   1-0.01573 0.18880 0.51578-0.21602-0.85657 0.95795
  -4   4  -1 9346.63 1393.67   1 0.64178-0.81471 0.35752-0.05799-0.67844 0.57695
  -4   0   0 9284.92  822.88   1-0.17243-0.17243 0.87043-0.87043-0.46109 0.46109
   4   0   0 7586.20  705.68   1 0.17242 0.17242 0.35791-0.35791-0.91769 0.91769
  -4   4   0 7189.46 1113.43   1 0.19420-0.36662 0.31122-0.01257-0.93028 0.93028
   0  -4   0 8335.22 1321.57   1-0.86977 0.69687 0.30251-0.60199-0.38983 0.38983
   0   4   0 6246.53 3157.99   1-0.48343 0.65642 0.47886-0.17923-0.73278 0.73278
  -4   0   011284.47 5318.30   1-0.17306-0.17306 0.51719-0.51719-0.83818 0.83818
  -4   4   0 7814.73  985.80   1 0.42115-0.59408 0.44283-0.14331-0.79153 0.79153
   0  -4   111075.99 2023.44   1-0.40400 0.23163 0.30884-0.60739 0.86104-0.75988
  -4   0  -110520.70 1007.67   1-0.42413 0.07940 0.41016-0.41016 0.80738-0.90854
  -4   0  -114957.35 1089.48   1 0.05032-0.39516 0.58508-0.58508-0.80940 0.70818
  -4   4   111014.25 1472.09   1 0.07511-0.24753 0.54309-0.24444-0.83630 0.93753
   0  -4   111508.66 1923.65   1-0.93537 0.76246 0.23317-0.53266-0.26590 0.36731
  -4   4   1 9741.74 1787.70   1 0.01234-0.18541 0.51417-0.21441-0.85759 0.95898
  -4   0  -111008.20 1697.55   1 0.06332-0.40945 0.51021-0.51021-0.85771 0.75632
   4  -4  -110175.99 1018.40   1 0.61037-0.43744 0.37241-0.67193-0.69910 0.59761
   0  -4   2183968.5 6092.10   1-0.43683 0.26438 0.49395-0.79264 0.75178-0.54937
  -4   0  -2190321.7 3663.57   1-0.42699 0.08196 0.84088-0.84088 0.33254-0.53496
  -4   4   2168952.0 3935.39   1-0.49395 0.32096 0.47642-0.17679-0.72733 0.93044
  -4   0  -2198382.2 8808.76   1 0.25793-0.60406 0.48242-0.48242-0.83710 0.63432
   4  -4  -2164297.4 3207.43   1 0.31321-0.14028 0.47116-0.77069-0.82455 0.62157
   4   0   312659.06 1812.88   1-0.41906 0.76380 0.38228-0.38228 0.82355-0.52006
   0  -4   315214.72 2513.56   1-0.44637 0.27392 0.58902-0.88771 0.67364-0.37002
  -4   4   312548.07 1526.25   1-0.12999-0.04244 0.82994-0.53127-0.54248 0.84613
  -4   4   312966.52 2933.32   1-0.82603 0.65313 0.33651-0.03703-0.45212 0.75633
  -4   0  -314252.95 2035.64   1 0.39726-0.74312 0.44976-0.44976-0.79993 0.49545
   0   4  -316551.26 2419.43   1 0.98794-0.81517-0.12901 0.42826 0.08549-0.38996
   4   0   412215.73 3939.68   1-0.44102 0.78592 0.52892-0.52892 0.72507-0.32025
   0  -4   415704.06 6001.93   1-0.44869 0.27624 0.63621-0.93490 0.62761-0.22279
  -4   4   411364.42 4092.80   1-0.20298 0.03054 0.89494-0.59627-0.39733 0.80220
  -4   0  -411374.18 2150.03   1 0.48675-0.83261 0.42173-0.42173-0.76499 0.35902
   0   4  -417388.83 3609.02   1 0.99631-0.82354-0.08505 0.38430 0.01129-0.41724
   4  -4  -411629.90 1641.04   1 0.95876-0.78599-0.19794-0.10130 0.20392-0.60987
   4   0   5 3126.16 2235.07   1-0.44629 0.79119 0.58783-0.58783 0.67473-0.16871
   0  -4   5 4278.06 2991.39   1-0.44910 0.27665 0.65712-0.95582 0.60538-0.09935
  -4   4   5 3421.74 1740.65   1-0.25957 0.08713 0.92842-0.62974-0.26581 0.77189
  -4   0  -5 4548.44 1797.55   1 0.53978-0.88564 0.40222-0.40222-0.73948 0.23202
   0   4  -5 4321.13 2225.69   1 0.99738-0.82461-0.04372 0.34297-0.05756-0.44986
   4  -4  -5 3965.64 1344.54   1 0.99562-0.82285-0.09101-0.20823 0.02128-0.52872
   4   0   641594.48 8592.37   1-0.44752 0.79242 0.60803-0.60803 0.65575-0.04852
   0  -4   638141.4913628.41   1-0.44913 0.27668 0.66223-0.96093 0.59976 0.00747
  -4   4   631156.67 3222.40   1-0.30393 0.13149 0.94118-0.64251-0.14760 0.75490
  -4   0  -634946.48 4049.82   1 0.56710-0.91296 0.39124-0.39124-0.72478 0.11583
   0   4  -646769.73 6459.63   1 0.99240-0.81963-0.00404 0.30329-0.12291-0.48601
   4  -4  -637545.37 3338.15   1 0.99310-0.82033-0.00768-0.29156-0.11695-0.49197
   4   0   7 1552.41 1607.35   1-0.44750 0.79240 0.60773-0.60773 0.65604 0.05239
   0  -4   7  882.79 1846.78   1-0.44909 0.27664 0.65677-0.95547 0.60576 0.10267
  -4   4   7  622.25 1053.27   1-0.33917 0.16665 0.93984-0.64103-0.04072 0.74919
  -4   0  -7 1442.74 1473.91   1 0.57594-0.92180 0.38754-0.38754-0.71979 0.00934
   0   4  -7  195.62 1436.38   1 0.98196-0.80919 0.03461 0.26462-0.18584-0.52456
   0  -4   8 2171.54 2276.79   1-0.44887 0.27642 0.64345-0.94214 0.62005 0.18958
  -4   4   8 3827.71 2822.01   1-0.36766 0.19515 0.92817-0.62937 0.05748 0.75219
  -4   0  -8 2655.83 1785.00   1 0.57073-0.91659 0.38973-0.38973-0.72274-0.08918
   0   4  -8 3742.33 3669.71   1 0.96631-0.79343 0.07232 0.22711-0.24698-0.56469
   1  -5   8 5392.55 4526.64   1-0.44481 0.31547 0.56828-0.94164 0.69224 0.11739
  -5   4   8 5130.26 3264.30   1-0.36334 0.10457 0.93071-0.63191 0.04172 0.76795
  -4  -1  -8 3489.90 1958.72   1 0.47567-0.86477 0.42551-0.50039-0.76984-0.04209
  -1   5  -8 4573.51 3070.91   1 0.94733-0.81767 0.10684 0.26745-0.30189-0.50978
   1  -5   7 3127.92 1727.02   1-0.44536 0.31602 0.57512-0.94849 0.68620 0.02222
  -5   4   7 2963.18 1537.87   1-0.33485 0.07608 0.94068-0.64188-0.05454 0.76301
  -4  -1  -7 3174.23 1919.95   1 0.47436-0.86345 0.42596-0.50084-0.77041 0.05996
  -1   5  -7 4316.40 3117.10   1 0.96534-0.83568 0.07431 0.29997-0.25017-0.46004
   1  -5   612627.0510363.42   1-0.44510 0.31577 0.57193-0.94530 0.68903-0.08179
   4   1   611285.56 6936.29   1-0.44818 0.83619 0.62199-0.54732 0.64206-0.03483
  -5   4   610656.96 2070.57   1-0.30016 0.04150 0.94066-0.64199-0.15828 0.76558
  -4  -1  -612132.28 2596.69   1 0.45621-0.84530 0.43194-0.50683-0.77800 0.16904
  -1   5  -616177.11 4215.19   1 0.97914-0.84956 0.04253 0.33152-0.19864-0.41027
   5  -4  -613203.23 2496.93   1 0.99395-0.73479-0.10219-0.19705 0.04010-0.64903
   1  -5   511986.19 5884.88   1-0.44366 0.31432 0.55518-0.92854 0.70351-0.19748
   4   1   510992.51 5132.78   1-0.44720 0.83521 0.60221-0.52754 0.66132-0.15529
  -5   4   511281.99 2112.23   1-0.25727-0.00138 0.92740-0.62873-0.27153 0.77762
  -4  -1  -512444.87 2441.13   1 0.41640-0.80550 0.44424-0.51912-0.79325 0.28579
  -1   5  -514643.64 3680.23   1 0.98900-0.85942 0.01099 0.36306-0.14747-0.35995
   5  -4  -511809.00 2099.72   1 0.96100-0.70184-0.19399-0.10525 0.19706-0.70450
   1  -5   433539.96 5444.86   1-0.43987 0.31053 0.51870-0.89207 0.73311-0.32828
   4   1   423016.23 4725.09   1-0.44171 0.82973 0.53543-0.46075 0.71985-0.31503
  -5   4   431277.74 8752.26   1-0.20378-0.05487 0.89552-0.59685-0.39560 0.80046
  -5   4   429483.60 3710.06   1-0.87397 0.61461 0.29885 0.00062-0.38320 0.78882
  -4  -1  -429523.42 3466.41   1 0.34800-0.73710 0.46285-0.53773-0.81526 0.40929
  -1   5  -429484.48 4138.24   1 0.99510-0.86552-0.01997 0.39403-0.09676-0.30918
   4   1   321342.49 2455.20   1-0.40911 0.79693 0.33249-0.25785 0.84974-0.54626
   1  -5   320641.56 3144.05   1-0.43086 0.30152 0.45191-0.82527 0.78110-0.47749
  -4  -1  -324161.20 1226.44   1-0.22777-0.16021 0.91166-0.98633-0.34202 0.03837
  -5   4   318098.97 3928.70   1-0.13656-0.12209 0.83667-0.53800-0.53040 0.83405
  -5   4   322023.04 4969.56   1-0.69902 0.43966 0.40784-0.10836-0.58738 0.89160
  -4  -1  -323123.14 2782.88   1 0.24205-0.63145 0.48546-0.56040-0.84007 0.53591
  -1   5  -321526.41 3294.45   1 0.99764-0.86806-0.05025 0.42431-0.04674-0.25771
   1  -5   245166.25 5849.20   1-0.41018 0.28090 0.33759-0.71077 0.84721-0.64489
  -5   4   272747.35 4500.44   1-0.05357-0.20505 0.73888-0.44024-0.67169 0.87414
  -5   4   242235.95 3400.44   1-0.41228 0.15278 0.49320-0.19356-0.76601 0.96911
  -4  -1  -248492.74 4551.19   1 0.09380-0.48320 0.50719-0.58213-0.85671 0.65393
  -1   5  -248543.21 3807.78   1 0.99682-0.86724-0.07959 0.45365 0.00215-0.20512
   1  -5   155001.45 5215.04   1-0.36452 0.23524 0.15259-0.52577 0.91860-0.81744
  -4  -1  -156069.04 4528.10   1-0.09345-0.29594 0.51810-0.59304-0.85019 0.74880
  -5   4   159845.68 4318.49   1-0.05857-0.20102 0.51745-0.21769-0.85370 0.95509
  -1   5  -158384.68 3446.17   1 0.99300-0.86342-0.10745 0.48151 0.04897-0.15046
  -4  -1   069281.55 1966.13   1-0.37840-0.00975 0.92041-0.99511 0.09824-0.09824
  -5   4   080893.73 3467.40   1 0.15440-0.41304 0.39503-0.09638-0.90559 0.90559
  -1   5   092463.94 3750.63   1 0.27675-0.14743 0.11318 0.26012-0.95425 0.95425
  -4  -1   069698.25 4833.87   1-0.29976-0.08947 0.50890-0.58380-0.80694 0.80694
  -5   4   088274.52 3698.85   1 0.25487-0.51447 0.48301-0.18325-0.83769 0.83769
  -1   5   077407.50 3183.09   1 0.98698-0.85740-0.13242 0.50648 0.09128-0.09128
  -4  -1   155254.35 2310.54   1-0.37263-0.01552 0.92486-0.99956 0.07601 0.02519
  -1   5   169982.14 3417.30   1 0.14367-0.01435 0.41652-0.04321-0.89769 0.99896
  -5   4  -169725.55 3699.66   1 0.25273-0.51137 0.17468 0.12396-0.95163 0.85037
  -4  -1   154058.82 5068.80   1-0.49613 0.10689 0.47591-0.55082-0.72619 0.82774
  -1   5   152059.17 1790.40   1-0.19386 0.32366 0.51640-0.14170-0.83411 0.93550
  -5   4  -153601.97 2889.04   1 0.47207-0.73147 0.42672-0.12720-0.77139 0.66989
  -1   5   154454.55 2153.60   1 0.98145-0.85188-0.14934 0.52340 0.12014-0.01865
   5  -4   244954.19 3281.40   1-0.32640 0.58494 0.02784-0.32639 0.94482-0.74249
  -4  -1   244290.15 2869.41   1-0.37888-0.00927 0.92001-0.99471 0.10013 0.10228
  -1   5   243081.43 2350.26   1-0.00293 0.13225 0.66836-0.29506-0.74382 0.94628
  -4  -1   243702.81 3739.13   1-0.65992 0.27068 0.42485-0.49975-0.61967 0.82278
  -5   4  -249158.13 3284.90   1 0.60275-0.86214 0.37586-0.07634-0.70385 0.50087
   5  -4   323801.64 6621.06   1-0.37350 0.63205 0.18507-0.48361 0.90897-0.60548
  -4  -1   322606.39 2383.67   1-0.38805-0.00009 0.91135-0.98606 0.13724 0.16638
  -1   5   319031.65 1732.60   1-0.12611 0.25543 0.82473-0.45142-0.55128 0.85496
  -4  -1   319956.98 3388.00   1-0.78399 0.39495 0.36379-0.43866-0.50299 0.80720
  -5   4  -320500.79 3040.18   1 0.67706-0.93646 0.33943-0.03990-0.65296 0.34849
   5  -4   434090.20 4307.92   1-0.40063 0.65918 0.29384-0.59239 0.86783-0.46318
  -4  -1   431816.78 3898.48   1-0.39792 0.00976 0.89961-0.97431 0.17986 0.22497
  -1   5   428758.41 4194.12   1-0.21569 0.34502 0.90389-0.53055-0.36938 0.77425
  -4  -1   434971.3411509.78   1-0.87264 0.48361 0.30002-0.37489-0.38531 0.79093
  -5   4  -431957.48 4205.98   1 0.71711-0.97651 0.31691-0.01738-0.62073 0.21476
   5  -4   510625.16 5652.36   1-0.41541 0.67396 0.36336-0.66191 0.83390-0.32808
  -4  -1   513732.57 6956.39   1-0.40762 0.01947 0.88490-0.95960 0.22536 0.28068
  -1   5   513419.94 2382.16   1-0.28062 0.40994 0.93619-0.56285-0.21164 0.71773
  -4  -1   516294.2510761.11   1-0.93260 0.54356 0.23681-0.31168-0.27232 0.77934
  -5   4  -511684.82 3262.18   1 0.73595-0.99526 0.30533-0.00589-0.60427 0.09697
   5  -4   616177.46 7220.59   1-0.42307 0.68162 0.40414-0.70268 0.81097-0.20399
  -4  -1   618244.58 7502.91   1-0.41677 0.02861 0.86718-0.94188 0.27255 0.33470
  -1   5   612640.28 2136.33   1-0.32776 0.45709 0.94162-0.56828-0.07688 0.68419
  -5   4  -615186.28 3851.98   1 0.74063-0.99995 0.30239-0.00296-0.60000-0.00875
   4   1  -613456.25 2955.26   1 0.97058-0.58184-0.17541 0.25022 0.16492-0.77384
   5  -4   7 3006.69 1964.42   1-0.42655 0.68510 0.42423-0.72278 0.79879-0.09065
  -4  -1   7 4366.67 2763.65   1-0.42512 0.03696 0.84636-0.92106 0.32082 0.38764
  -1   5   7 3999.46 3126.87   1-0.36285 0.49224 0.93098-0.55748 0.03995 0.66851
  -5   4  -7 3701.15 2204.77   1 0.73511-0.99443 0.30585-0.00641-0.60503-0.10518
   4   1  -7 2896.82 2027.62   1 0.99107-0.60233-0.11665 0.19146 0.06452-0.77493
   5  -4   8 4845.73 4319.33   1-0.42735 0.68590 0.42901-0.72756 0.79580 0.01349
  -4  -1   8 3879.30 2642.17   1-0.43249 0.04433 0.82228-0.89698 0.36985 0.43982
  -1   5   8 3857.64 1841.06   1-0.38966 0.51905 0.90963-0.53612 0.14398 0.66569
  -5   4  -8 4681.72 3047.31   1 0.72133-0.98072 0.31440-0.01487-0.61711-0.19482
   4   1  -8 5009.44 2968.06   1 0.99772-0.60899-0.06015 0.13496-0.03029-0.78160
   2  -5   819063.3412394.40   1-0.44208 0.39896 0.53891-0.91227 0.71703 0.09260
  -5   3   822982.76 8263.58   1-0.37792 0.07602 0.92080-0.69670 0.09636 0.71331
  -2   5  -825794.24 4962.76   1 0.91470-0.87148 0.15283 0.22145-0.37410-0.43757
   2  -5   7  515.74  813.40   1-0.44253 0.39942 0.54339-0.91675 0.71336-0.00492
  -5   3   7  281.71 1311.56   1-0.35361 0.05171 0.93536-0.71125 0.00744 0.70102
  -3  -2  -7  247.77  854.38   1 0.46782-0.81368 0.42814-0.57791-0.77319 0.06274
  -2   5  -7  816.89 2423.07   1 0.93490-0.89168 0.12582 0.24846-0.33184-0.37837
   5  -3  -7   89.15  940.29   1 0.99723-0.69488-0.07400-0.15043-0.00720-0.70321
   2  -5   6 1379.55 1499.14   1-0.44187 0.39876 0.53689-0.91025 0.71867-0.11144
   3   2   6  803.85  825.05   1-0.44502 0.78992 0.75085-0.60151 0.48802 0.11920
  -5   3   6  780.61 1015.13   1-0.32399 0.02222 0.94191-0.71790-0.08848 0.69578
  -3  -2  -6 1259.15 1241.42   1 0.44672-0.79258 0.43498-0.58474-0.78180 0.17285
  -2   5  -6 1642.92 2179.66   1 0.95122-0.90800 0.10040 0.27388-0.29171-0.31704
   5  -3  -6 1724.47 1088.69   1 0.98114-0.67879-0.15022-0.07421 0.12164-0.73057
   2  -5   5  601.43  946.30   1-0.43950 0.39639 0.51556-0.88892 0.73554-0.22951
   3   2   5  487.89  810.36   1-0.44355 0.78845 0.76335-0.61401 0.46961 0.03640
  -5   3   5  424.56 1829.89   1-0.28725-0.01451 0.93802-0.71402-0.19388 0.69997
  -5   3   5  443.97 1193.23   1-0.93449 0.63190 0.23434-0.00973-0.26796 0.77498
  -3  -2  -5  556.06 1591.28   1 0.40019-0.74605 0.44893-0.59869-0.79893 0.29147
  -2   5  -5  651.31 2370.52   1 0.96397-0.92075 0.07707 0.29721-0.25457-0.25272
   2  -5   4222148.520498.76   1-0.43396 0.39085 0.47291-0.84627 0.76682-0.36200
   3   2   4173206.012090.57   1-0.44399 0.78888 0.75988-0.61053 0.47481-0.06999
  -5   3   4206723.118046.43   1-0.24090-0.06086 0.91926-0.69526-0.31130 0.71617
  -5   3   4204379.317926.18   1-0.84229 0.53971 0.32465-0.10004-0.43026 0.83588
  -3  -2  -4188883.216529.19   1 0.31907-0.66493 0.46982-0.61958-0.82308 0.41711
  -2   5  -4221875.420004.32   1 0.97346-0.93027 0.05682 0.31723-0.22167-0.18428
   2  -5   3 1716.92 1411.73   1-0.42205 0.37896 0.39847-0.77165 0.81430-0.51081
   3   2   3 1338.04  674.01   1-0.44821 0.79311 0.70850-0.55916 0.54508-0.24146
  -5   3   3 1486.52  921.60   1-0.18119-0.12057 0.87787-0.65387-0.44328 0.74693
  -3  -2  -3 1909.91  512.07   1-0.03862-0.30622 0.71894-0.86826-0.69399 0.39031
  -5   3   3 1703.14 1568.82   1-0.68390 0.38116 0.41496-0.19023-0.60006 0.90472
  -3  -2  -3 1698.04 1112.51   1 0.19197-0.53810 0.49414-0.64402-0.84792 0.54375
  -2   5  -3 1559.36 1378.88   1 0.97977-0.93657 0.04084 0.33321-0.19590-0.10855
   2  -5   214668.63 2830.90   1-0.39661 0.35352 0.27646-0.64964 0.87536-0.67303
  -5   3   212986.34 1581.21   1-0.10389-0.19783 0.80040-0.57642-0.59038 0.79283
  -5   3   212396.85 4523.97   1-0.44544 0.14270 0.48697-0.26225-0.75128 0.95438
  -3  -2  -213205.94 2773.28   1 0.01495-0.36108 0.51400-0.66388-0.85765 0.65488
  -2   5  -212973.27 2294.31   1 0.98274-0.93955 0.03230 0.34175-0.18209-0.02087
   2  -5   1 1228.77  911.77   1-0.34619 0.30310 0.09032-0.46350 0.93380-0.83264
  -5   3   1 1272.53  693.21   1-0.00350-0.29823 0.66920-0.44522-0.74306 0.84429
  -3  -2  -1 1675.45 1109.05   1-0.19989-0.14623 0.51612-0.66600-0.83286 0.73147
  -5   3   1 1887.50 1142.48   1-0.14944-0.15342 0.51782-0.29300-0.84233 0.94372
  -2   5  -1 1478.00  934.73   1 0.98075-0.93756 0.03809 0.33596-0.19146 0.08998
  -5   3   0440077.712755.44   1 0.11550-0.41725 0.47084-0.24686-0.87462 0.87462
  -2   5   0418052.311499.45   1-0.88212 0.92535 0.29153 0.08282-0.36995 0.36995
  -3  -2   0467090.614706.30   1-0.41851 0.07252 0.49209-0.64191-0.76334 0.76334
  -2   5   0480591.313240.93   1 0.96330-0.92008 0.07840 0.29588-0.25671 0.25671
  -3  -2   1 1414.12 1018.19   1-0.43893 0.09403 0.79289-0.94223 0.42267-0.32146
   3   2  -1  971.10  447.17   1-0.26011 0.60498 0.92865-0.77931-0.26446 0.16324
  -2   5   1 1354.07 1025.16   1 0.13724-0.09413 0.42918-0.05588-0.89272 0.99398
  -5   3  -1 1154.33  695.34   1 0.23262-0.53436 0.22358 0.00039-0.94651 0.84525
  -3  -2   1 1086.03 1001.49   1-0.60633 0.26034 0.44447-0.59429-0.65938 0.76093
  -2   5   1 1135.37  640.22   1-0.57569 0.61893 0.45433-0.07979-0.67982 0.78137
  -5   3  -1 1349.26 1088.40   1 0.36143-0.66406 0.45943-0.23479-0.81134 0.70985
  -2   5   1 1967.63  653.97   1 0.81238-0.76916 0.25211 0.12217-0.52579 0.62725
  -3  -2   214948.24 5209.97   1-0.42801 0.08298 0.83772-0.98712 0.33914-0.13672
  -2   5   212446.35 1470.23   1 0.00692 0.03618 0.65365-0.28035-0.75675 0.95921
  -3  -2   218527.93 6852.14   1-0.74830 0.40248 0.38384-0.53358-0.54102 0.74383
  -5   3  -212773.30 2245.98   1 0.51005-0.81267 0.41344-0.18880-0.75426 0.55127
   5  -3   3 3785.80 2462.46   1-0.37693 0.67857 0.19785-0.42176 0.90486-0.60137
  -3  -2   3 1848.16 1091.93   1-0.42479 0.07976 0.84729-0.99669 0.31880-0.01517
  -2   5   3 1453.87 1067.85   1-0.10577 0.14888 0.80253-0.42922-0.58715 0.89084
  -3  -2   3 2226.35 1895.79   1-0.84850 0.50268 0.31990-0.46964-0.42155 0.72576
  -5   3  -3 2032.11 1329.76   1 0.60098-0.90361 0.37665-0.15201-0.70494 0.40046
   5  -3   4173414.315977.45   1-0.40627 0.70791 0.31921-0.54312 0.85618-0.45153
  -3  -2   4255001.224383.39   1-0.42588 0.08085 0.84416-0.99356 0.32557 0.07926
  -2   5   4195940.817470.00   1-0.19219 0.23530 0.88675-0.51341-0.42038 0.82524
  -3  -2   4221636.121791.61   1-0.91595 0.57014 0.25704-0.40678-0.30815 0.71376
  -5   3  -4190928.917252.68   1 0.65337-0.95600 0.35174-0.12710-0.67035 0.26438
   5  -3   5  796.59 1016.67   1-0.42106 0.72270 0.39299-0.61690 0.81747-0.31165
  -3  -2   5  279.82  876.35   1-0.42911 0.08408 0.83418-0.98358 0.34640 0.15964
  -2   5   5  400.30 1540.23   1-0.25796 0.30107 0.92771-0.55437-0.26981 0.77590
  -5   3  -5  695.98 1182.00   1 0.68067-0.98330 0.33749-0.11285-0.65021 0.14275
   3   2  -5  473.06 1360.16   1 0.95943-0.61389-0.19676 0.34639 0.20188-0.70932
   5  -3   6 1792.83 1482.29   1-0.42818 0.72982 0.43403-0.65794 0.79263-0.18566
  -3  -2   6 1535.54 2130.85   1-0.43326 0.08823 0.81934-0.96874 0.37543 0.23182
  -2   5   6  925.29  878.56   1-0.30760 0.35071 0.94158-0.56824-0.13707 0.74437
  -5   3  -6 1134.78 1073.38   1 0.69105-0.99368 0.33182-0.10717-0.64213 0.03317
   3   2  -6 2048.81 2122.14   1 0.98476-0.63922-0.13966 0.28928 0.10361-0.71253
   5  -3   7 -499.29 1161.37   1-0.43097 0.73275 0.45262-0.67664 0.78063-0.07219
  -3  -2   7  437.69  747.50   1-0.43744 0.09255 0.80049-0.94983 0.40969 0.29873
  -2   5   7  553.47  976.88   1-0.34562 0.38875 0.93816-0.56466-0.01955 0.72802
  -5   3  -7  559.32 1340.72   1 0.68925-0.99187 0.33281-0.10817-0.64355-0.06688
   3   2  -7  793.01 2540.26   1 0.99629-0.65074-0.08525 0.23488 0.01163-0.72205
   5  -3   818134.9711798.03   1-0.43138 0.73317 0.45532-0.67934 0.77883 0.03080
  -3  -2   822341.19 7838.91   1-0.44152 0.09662 0.77772-0.92707 0.44742 0.36221
  -2   5   819916.7810007.63   1-0.37535 0.41848 0.92284-0.54933 0.08642 0.72325
  -5   3  -823755.03 4544.09   1 0.67790-0.98053 0.33898-0.11433-0.65232-0.15960
   3   2  -823157.58 4525.94   1 0.99661-0.65107-0.03306 0.18268-0.07520-0.73669
   3  -5   821703.4514091.51   1-0.43775 0.48086 0.50115-0.87451 0.74647 0.06317
  -5   2   820340.62 9276.93   1-0.39284 0.04782 0.90600-0.75660 0.15755 0.65212
  -3   5  -827229.90 5928.32   1 0.87164-0.91486 0.20027 0.17402-0.44735-0.36432
   5  -2  -819580.97 3484.59   1 0.99726-0.65171-0.04154-0.10807-0.06118-0.75072
   3  -5   7  484.65  964.38   1-0.43793 0.48104 0.50255-0.87591 0.74542-0.03698
   2   3   7   48.52  990.29   1-0.43396 0.73586 0.81657-0.59247 0.38062 0.32784
  -5   2   7  765.32 1510.69   1-0.37298 0.02795 0.92460-0.77520 0.07737 0.63109
  -3   5  -7  658.36 1948.26   1 0.89204-0.93526 0.17916 0.19513-0.41491-0.29530
   5  -2  -7   73.63 1144.05   1 0.99279-0.64725-0.10850-0.04112 0.05074-0.76116
   3  -5   6 1310.91 1527.13   1-0.43655 0.47966 0.49183-0.86520 0.75333-0.14610
   2   3   6 1276.68 1270.19   1-0.42473 0.72663 0.84746-0.62336 0.31843 0.28882
  -5   2   6 1138.94 1092.55   1-0.34885 0.00383 0.93713-0.78773-0.00874 0.61600
  -2  -3  -6 1824.15 1229.55   1 0.41817-0.72080 0.44372-0.66836-0.79261 0.18366
  -3   5  -6 1121.97 1509.25   1 0.90813-0.95134 0.16084 0.21345-0.38656-0.22219
   5  -2  -6 2001.17 1686.82   1 0.96835-0.62281-0.18000 0.03038 0.17285-0.78177
   3  -5   5 1049.82 1714.02   1-0.43279 0.47591 0.46481-0.83817 0.77241-0.26639
   2   3   5  569.96  781.27   1-0.41276 0.71466 0.87550-0.65140 0.25123 0.25481
  -5   2   5  846.78 1133.20   1-0.31921-0.02566 0.94207-0.79273-0.10293 0.60902
  -5   2   5  627.05 1267.01   1-0.91640 0.57059 0.25653-0.10679-0.30724 0.81426
  -2  -3  -5  542.25  663.36   1 0.35980-0.66243 0.45985-0.68450-0.81183 0.30437
  -3   5  -5 1220.70 2617.21   1 0.91984-0.96306 0.14633 0.22796-0.36397-0.14332
   3  -5   4234349.621195.59   1-0.42495 0.46804 0.41485-0.78804 0.80455-0.39990
   2   3   4192137.516709.53   1-0.39654 0.69844 0.90142-0.67732 0.17374 0.23109
  -5   2   4187610.016995.10   1-0.82683 0.48102 0.33595-0.18621-0.45108 0.85670
  -2  -3  -4250352.621623.61   1 0.25656-0.55943 0.48268-0.70750-0.83736 0.43182
  -3   5  -4236330.821273.70   1 0.92668-0.96990 0.13731 0.23697-0.34986-0.05597
   3  -5   3 1945.72 1841.85   1-0.40894 0.45203 0.33167-0.70485 0.85015-0.54666
   2   3   3 1974.52 1114.08   1-0.37107 0.67297 0.92595-0.70184 0.07014 0.23348
  -5   2   3 4210.41 1605.74   1-0.23294-0.11193 0.91476-0.76543-0.33005 0.63370
  -2  -3  -3 1427.73  451.81   1 0.09280-0.39454 0.51183-0.73581-0.85405 0.55037
  -5   2   3 1763.21 1109.94   1-0.68670 0.34070 0.41376-0.26394-0.59769 0.90235
  -2  -3  -3 2378.76 1365.71   1 0.09635-0.39922 0.50692-0.73174-0.85659 0.55242
  -3   5  -3 2430.79 1543.24   1 0.92712-0.97034 0.13671 0.23758-0.34892 0.04454
   3  -5   214648.57 5762.06   1-0.37809 0.42118 0.20221-0.57539 0.90341-0.70108
   2   3   210144.91  624.06   1-0.31013 0.61190 0.94179-0.71779-0.12975 0.33218
  -5   2   211895.13 1474.42   1-0.16675-0.17812 0.86543-0.71609-0.47245 0.67488
  -5   2   211598.74 4127.90   1-0.48711 0.14112 0.47802-0.32820-0.73089 0.93400
  -2  -3  -214166.29 2345.50   1-0.12049-0.18237 0.51817-0.74299-0.84674 0.64396
  -3   5  -216324.17 2971.51   1 0.91692-0.96014 0.15005 0.22423-0.36977 0.16685
   2   3   1 1406.06  669.33   1-0.44902 0.75081 0.68253-0.45851 0.57664-0.47544
  -5   2   1 1221.31  660.86   1-0.07511-0.26973 0.76628-0.61695-0.63810 0.73932
   2   3   1 1081.27  270.43   1-0.01665 0.31838 0.68830-0.46432-0.72523 0.82645
  -2  -3  -1 1762.56 1056.85   1-0.36018 0.05744 0.50147-0.72620-0.78662 0.68507
  -5   2   1 1102.15  741.39   1-0.23944-0.10654 0.51413-0.36431-0.82360 0.92515
  -3   5  -1 1559.73 1037.25   1 0.88294-0.92616 0.18883 0.18545-0.42981 0.32835
  -2  -3   0538446.3 7618.47   1-0.37476 0.07312 0.18973-0.41364 0.90749-0.90749
  -3   5   0496118.114147.83   1 0.23565-0.27875 0.21635 0.15695-0.94744 0.94744
  -2  -3   0504844.9 9248.78   1-0.57271 0.26996 0.45524-0.67997-0.68172 0.68172
  -2  -3   1 1416.29  871.53   1-0.44516 0.14337 0.57258-0.79659 0.68846-0.58725
  -3   5   1 1304.24  959.14   1 0.12326-0.16637 0.45617-0.08286-0.88131 0.98257
  -5   2  -1  891.97  491.08   1 0.19091-0.53576 0.31841-0.16908-0.92852 0.82726
  -2  -3   1 1347.95  790.90   1-0.73051 0.42793 0.39295-0.61757-0.55850 0.65991
  -5   2  -1 1413.73 1349.34   1 0.23663-0.58276 0.48647-0.33659-0.84104 0.73965
  -3   5   1  983.35  374.29   1 0.34177-0.38501 0.46439-0.08998-0.81702 0.91851
   3  -5  -1 1240.43  501.35   1 0.99480-0.95161-0.09686-0.27719 0.03113-0.13262
  -2  -3   214644.21 2561.39   1-0.44857 0.14678 0.69983-0.92385 0.55588-0.35347
  -3   5   212396.41 1631.03   1 0.00623-0.04934 0.65469-0.28139-0.75586 0.95832
  -5   2  -2 8924.38  926.84   1 0.30719-0.65204 0.02956 0.11976-0.95118 0.74866
  -2  -3   212072.71 2909.78   1-0.83814 0.53555 0.32776-0.55237-0.43598 0.63879
  -5   2  -213153.96 2057.63   1 0.39881-0.74467 0.44932-0.29956-0.79940 0.59642
   5  -2   3 1461.70  982.39   1-0.37578 0.72051 0.19351-0.34279 0.90627-0.60278
  -2  -3   3 1858.61 1411.00   1-0.44539 0.14360 0.74730-0.97132 0.49311-0.18949
  -3   5   3 1368.36  883.48   1-0.09654 0.05343 0.79196-0.41866-0.60288 0.90656
  -2  -3   3 2332.80 1532.31   1-0.90866 0.60608 0.26512-0.48973-0.32254 0.62675
  -5   2  -3 1388.56 1201.37   1 0.50599-0.85185 0.41492-0.26516-0.75618 0.45170
   5  -2   4181034.519748.06   1-0.40948 0.75422 0.33427-0.48355 0.84886-0.44421
  -2  -3   4194610.717412.60   1-0.44349 0.14171 0.76381-0.98782 0.46893-0.06411
  -3   5   4211578.218452.55   1-0.17823 0.13512 0.87539-0.50205-0.44934 0.85421
   3  -5  -4170866.911007.64   1-0.01652 0.05979 0.51582-0.89052-0.85653 0.45098
  -5   2  -4190786.516988.58   1 0.57223-0.91809 0.38910-0.23934-0.72190 0.31593
   2   3  -4209706.318785.07   1 0.95373-0.65138-0.20638 0.43082 0.21862-0.62457
   5  -2   5  426.04 1396.12   1-0.42497 0.76970 0.41494-0.56421 0.80449-0.29868
  -2  -3   5  552.37  954.91   1-0.44332 0.14153 0.76514-0.98916 0.46692 0.03910
  -3   5   5  907.85 1141.01   1-0.24273 0.19962 0.92024-0.54690-0.30696 0.81304
  -5   2  -5  685.20 1195.10   1 0.60990-0.95576 0.37262-0.22286-0.69940 0.19194
   2   3  -5  950.19 1681.92   1 0.98066-0.67831-0.15152 0.37595 0.12386-0.63130
   5  -2   6 1336.26 1252.31   1-0.43167 0.77656 0.45722-0.60656 0.77756-0.17033
  -2  -3   6 1085.88 1201.09   1-0.44429 0.14250 0.75737-0.98139 0.47853 0.12870
  -3   5   6 1311.35  813.80   1-0.29295 0.24984 0.93934-0.56600-0.17832 0.78562
  -5   2  -6 1188.09 1023.09   1 0.62763-0.97350 0.36436-0.21459-0.68797 0.07902
   2   3  -6  907.32 1581.87   1 0.99435-0.69200-0.09979 0.32422 0.03605-0.64498
   5  -2   7  913.38 1534.18   1-0.43424 0.77914 0.47489-0.62424 0.76544-0.05700
  -2  -3   7  402.48 1482.30   1-0.44579 0.14401 0.74314-0.96715 0.49900 0.20943
  -3   5   7  901.74 1366.02   1-0.33238 0.28926 0.94107-0.56757-0.06236 0.77083
  -5   2  -7  536.83 1390.71   1 0.63086-0.97672 0.36282-0.21305-0.68583-0.02461
   2   3  -7  644.26 1511.42   1 0.99764-0.69529-0.05049 0.27492-0.04635-0.66405
   5  -2   820698.8514007.15   1-0.43436 0.77926 0.47574-0.62509 0.76484 0.04479
  -2  -3   820819.5111516.67   1-0.44736 0.14557 0.72365-0.94767 0.52553 0.28410
  -3   5   826618.41 8366.99   1-0.36385 0.32072 0.93043-0.55693 0.04354 0.76613
  -5   2  -827560.35 4818.40   1 0.62283-0.96869 0.36663-0.21687-0.69112-0.12081
   2   3  -826141.73 5620.95   1 0.99220-0.68985-0.00300 0.22744-0.12460-0.68729
   4  -5   8 4494.93 2199.25   1-0.43121 0.56055 0.45421-0.82757 0.77958 0.03006
  -5   1   8 4493.03 3204.40   1-0.40741 0.01926 0.88525-0.81055 0.22433 0.58534
  -4   5  -8 4320.55 2898.04   1 0.81812-0.94778 0.24758 0.12670-0.51901-0.29266
   5  -1  -8 5125.53 2796.70   1 0.99756-0.60883-0.06715-0.00765-0.01864-0.79326
   4  -5   7 3802.30 3241.08   1-0.43084 0.56018 0.45180-0.82516 0.78118-0.07274
   1   4   7 2698.69 1457.62   1-0.41144 0.67021 0.87803-0.57923 0.24446 0.46400
  -5   1   7 3438.72 2282.40   1-0.39204 0.00388 0.90695-0.83225 0.15408 0.55438
  -4   5  -7 2901.53 2186.65   1 0.83672-0.96638 0.23223 0.14205-0.49593-0.21428
   5  -1  -7 4870.73 2966.78   1 0.98743-0.59870-0.13084 0.05602 0.08859-0.79901
   4  -5   613819.01 5993.60   1-0.42851 0.55778 0.43606-0.80924 0.79134-0.18436
   1   4   612785.99 4465.42   1-0.39173 0.65050 0.90730-0.60850 0.15276 0.45449
  -5   1   616699.87 6889.44   1-0.37362-0.01453 0.92414-0.84944 0.07978 0.52747
  -4   5  -612085.26 3482.27   1 0.84986-0.97952 0.22074 0.15354-0.47854-0.13021
   5  -1  -612708.48 2973.93   1 0.95896-0.57022-0.19759 0.12278 0.20333-0.81225
   4  -5   515070.32 8341.99   1-0.42276 0.55203 0.40238-0.77556 0.81201-0.30619
   1   4   514089.89 6717.07   1-0.36404 0.62281 0.93033-0.63152 0.04423 0.46181
  -5   1   513564.35 3689.35   1-0.35135-0.03680 0.93624-0.86154-0.00030 0.50635
  -5   1   514460.02 5165.10   1-0.90647 0.51743 0.26747-0.19260-0.32674 0.83376
  -1  -4  -511996.08 2055.71   1 0.27727-0.53667 0.47899-0.77851-0.83287 0.32541
  -4   5  -514674.36 3549.00   1 0.85674-0.98640 0.21447 0.15981-0.46902-0.03827
   4  -5   432433.5312477.13   1-0.41154 0.54081 0.34414-0.71732 0.84391-0.43926
   1   4   425599.22 2339.59   1-0.32223 0.58089 0.94199-0.64332-0.09382 0.49868
  -5   1   428848.75 3053.01   1-0.32387-0.06411 0.94191-0.86725-0.08885 0.49372
  -5   1   427866.36 5252.09   1-0.82322 0.43418 0.33848-0.26361-0.45577 0.86138
  -1  -4  -436574.91 3611.92   1 0.13451-0.39411 0.50240-0.80216-0.85410 0.44855
  -4   5  -438606.84 4835.17   1 0.85553-0.98519 0.21559 0.15869-0.47072 0.06488
   4  -5   325316.6710449.21   1-0.39079 0.52007 0.25216-0.62535 0.88526-0.58177
  -5   1   322555.43 2206.48   1-0.28850-0.09948 0.93833-0.86366-0.19049 0.49414
   1   4   318598.24 1296.30   1-0.25117 0.50983 0.92455-0.62587-0.28655 0.59020
  -5   1   326493.72 9509.68   1-0.70056 0.31152 0.40715-0.33228-0.58603 0.89024
  -1  -4  -323923.93 3059.68   1-0.08144-0.17815 0.51795-0.81771-0.85152 0.54736
  -4   5  -323000.01 3439.52   1 0.84216-0.97182 0.22755 0.14673-0.48885 0.18447
   4  -5   242954.67 3370.48   1-0.35409 0.48337 0.11658-0.48976 0.92791-0.72558
  -5   1   245868.90 2394.87   1-0.24030-0.14767 0.91894-0.84427-0.31273 0.51516
   1   4   248237.39 1980.69   1-0.11774 0.37638 0.81577-0.51713-0.56624 0.76870
  -1  -4  -232994.78 1305.06   1 0.29657-0.55520 0.05955-0.35819-0.95315 0.75062
  -5   1   245439.48 5177.85   1-0.53326 0.14402 0.46652-0.39161-0.70568 0.90878
  -1  -4  -248818.09 2741.61   1-0.34352 0.08403 0.50374-0.80338-0.79260 0.58950
  -4   5  -240001.44 2970.30   1 0.80732-0.93698 0.25604 0.11825-0.53166 0.32874
   1   4   153926.80 2857.66   1-0.41301 0.67156 0.35133-0.05278 0.84022-0.73906
  -5   1   159803.16 2523.21   1-0.16931-0.21867 0.86770-0.79303-0.46735 0.56857
   1   4   161137.05 2265.80   1 0.11231 0.14631 0.47681-0.17816-0.87179 0.97306
  -4   5  -149216.40 2716.16   1 0.29421-0.42353 0.06607 0.30723-0.95345 0.85218
  -1  -4  -156593.34 3730.09   1-0.58066 0.32117 0.45279-0.75243-0.67660 0.57505
  -5   1   151557.58 5198.25   1-0.32605-0.06318 0.50594-0.43103-0.79856 0.90011
  -4   5  -155434.16 2808.60   1 0.72834-0.85800 0.31001 0.06427-0.61106 0.50960
   1   4   077750.89 3419.12   1-0.44901 0.70768 0.65020-0.35151 0.61287-0.61287
  -5   1   090201.89 2863.74   1-0.05788-0.33006 0.74448-0.66982-0.66512 0.66512
  -4   5   073757.53 3223.30   1 0.20779-0.33711 0.28103 0.09227-0.93693 0.93693
  -1  -4   080920.83 5439.64   1-0.74675 0.48739 0.38466-0.68414-0.54257 0.54257
  -5   1   081376.81 4212.43   1-0.10218-0.28721 0.51817-0.44323-0.84914 0.84914
  -4   5   074238.39 2712.41   1 0.54732-0.67702 0.39926-0.02486-0.73554 0.73554
  -5   1  -152744.90 2974.87   1-0.39344 0.00561 0.26307-0.18843 0.88090-0.98206
  -1  -4   151567.32 4271.90   1-0.41553 0.15698 0.36395-0.66250 0.83358-0.73242
  -5   1  -163851.05 2351.90   1 0.10573-0.49368 0.48901-0.41435-0.86584 0.76458
  -4   5   161374.49 3415.38   1 0.10357-0.23288 0.49298-0.11968-0.86384 0.96511
  -1  -4   155279.94 4031.57   1-0.85179 0.59243 0.31732-0.61680-0.41682 0.51823
  -4   5   157064.01 2460.23   1 0.13706-0.26686 0.50207-0.12737-0.85389 0.95527
   4  -5  -160610.99 2235.04   1 0.87209-0.74243 0.19982-0.57412-0.44667 0.34521
  -1  -4   246928.29 4116.60   1-0.44207 0.18340 0.53884-0.83754 0.71708-0.51467
  -4   5   244436.07 2844.16   1-0.00213-0.12718 0.66718-0.29388-0.74488 0.94734
  -5   1  -248447.14 2091.33   1 0.26941-0.65736 0.13236-0.05770-0.95388 0.75135
  -1  -4   242032.00 5505.74   1-0.91689 0.65754 0.25596-0.55544-0.30623 0.50903
  -4   5   242896.49 2278.70   1-0.52366 0.39391 0.46905-0.09451-0.71116 0.91427
  -5   1  -247085.88 3716.89   1 0.27202-0.66142 0.47959-0.40465-0.83426 0.63148
   4  -5  -243868.72 1487.37   1 0.70951-0.57985 0.32121-0.69551-0.62722 0.42430
   5  -1   321795.31 3211.45   1-0.36659 0.75441 0.15996-0.23459 0.91652-0.61303
  -1  -4   326177.75 4583.04   1-0.44825 0.18957 0.62357-0.92226 0.64048-0.33687
  -4   5   322212.95 2219.58   1-0.09571-0.03360 0.79100-0.41769-0.60428 0.90796
   4  -5  -320686.51 1008.57   1 0.38343-0.25373 0.45359-0.82800-0.80450 0.50002
  -5   1  -322535.16 2590.46   1 0.39299-0.78208 0.45096-0.37607-0.80136 0.49688
   1   4  -324785.32 2990.46   1 0.95731-0.69815-0.20043 0.49968 0.20826-0.51272
   5  -1   429379.33 4341.67   1-0.40941 0.79724 0.33393-0.40856 0.84903-0.44438
  -1  -4   433083.6311806.55   1-0.44914 0.19047 0.66380-0.96249 0.59802-0.19320
  -4   5   432081.77 3586.67   1-0.17198 0.04265 0.87004-0.49670-0.46200 0.86687
  -5   1  -430391.86 3639.77   1 0.47297-0.86206 0.42642-0.35154-0.77100 0.36503
   4  -5  -435269.37 2978.65   1 0.99740-0.86782-0.07102-0.30303-0.01218-0.39376
   1   4  -440321.27 4826.50   1 0.98141-0.72225-0.14946 0.44871 0.12035-0.52630
   5  -1   510254.25 5083.98   1-0.42693 0.81476 0.42651-0.50115 0.79737-0.29156
  -1  -4   512144.25 6482.73   1-0.44905 0.19038 0.68028-0.97897 0.57927-0.07325
  -4   5   513614.35 2676.10   1-0.23392 0.10459 0.91534-0.54200-0.32775 0.83384
  -5   1  -511044.66 2642.87   1 0.52212-0.91121 0.40898-0.33410-0.74841 0.24094
   4  -5  -513562.15 1562.77   1 0.98320-0.85362 0.03092-0.40498-0.17985-0.32757
   1   4  -513812.49 3757.21   1 0.99401-0.73486-0.10182 0.40107 0.03947-0.54691
   5  -1   612657.07 4960.00   1-0.43384 0.82185 0.47203-0.54670 0.76743-0.16020
  -1  -4   614050.45 8744.96   1-0.44902 0.19034 0.68254-0.98123 0.57663 0.03059
  -4   5   613682.78 2972.13   1-0.28341 0.15408 0.93700-0.56366-0.20420 0.81150
  -5   1  -611493.85 2542.07   1 0.54858-0.93767 0.39876-0.32388-0.73487 0.12592
   1   4  -616490.81 4251.15   1 0.99773-0.73858-0.05654 0.35579-0.03629-0.57262
   5  -1   7 2582.42 1913.63   1-0.43626 0.82427 0.48960-0.56427 0.75495-0.04652
  -1  -4   7 4074.61 2568.24   1-0.44911 0.19044 0.67523-0.97392 0.58511 0.12332
  -4   5   7 2138.40 1063.31   1-0.32319 0.19386 0.94195-0.56861-0.09091 0.79943
  -5   1  -7 2812.38 2119.70   1 0.55810-0.94720 0.39493-0.32005-0.72975 0.01930
   1   4  -7 2309.33 2016.47   1 0.99403-0.73487-0.01293 0.31218-0.10833-0.60207
  -1  -4   8 4125.65 2890.29   1-0.44912 0.19045 0.66068-0.95937 0.60148 0.20815
  -4   5   8 4284.65 1674.12   1-0.35533 0.22595 0.93464-0.56113 0.01339 0.79628
  -5   1  -8 4398.07 2317.17   1 0.55439-0.94348 0.39644-0.32156-0.73176-0.08017
   1   4  -8 4961.32 2714.34   1 0.98366-0.72450 0.02952 0.26972-0.17759-0.63430
   5  -5   8 1618.90 2438.36   1-0.42186 0.63732 0.39739-0.77057 0.81492-0.00562
  -5   0   8 1180.32 1593.39   1-0.42087-0.01040 0.85763-0.85763 0.29551 0.51416
  -5   5  -8  455.24 1712.24   1 0.75487-0.97097 0.29324 0.08104-0.58665-0.22502
   5   0  -8 1085.91 1907.15   1 0.99643-0.56450-0.08383 0.08383 0.00925-0.82115
   5  -5   711996.27 6852.33   1-0.42059 0.63605 0.39046-0.76365 0.81892-0.11078
  -5   0   713404.06 8072.79   1-0.40978-0.02150 0.88111-0.88111 0.23605 0.47241
   0   5   7 8167.92 6559.96   1-0.38376 0.59940 0.91565-0.54215 0.11958 0.58888
  -5   5  -714005.90 6092.92   1 0.77005-0.98615 0.28307 0.09121-0.57173-0.13848
   5   0  -713561.34 5856.49   1 0.98327-0.55134-0.14417 0.14417 0.11131-0.82172
   5  -5   629309.1712149.10   1-0.41647 0.63193 0.36875-0.74193 0.83100-0.22402
  -5   0   632979.7213213.72   1-0.39682-0.03446 0.90106-0.90106 0.17495 0.43230
   0   5   632436.09 6702.31   1-0.35347 0.56911 0.93541-0.56191 0.00696 0.60029
  -5   5  -646631.82 6962.41   1 0.77816-0.99426 0.27745 0.09684-0.56344-0.04531
   5   0  -635829.16 4258.89   1 0.95366-0.52173-0.20649 0.20649 0.21881-0.82773
   5  -5   530143.8613407.00   1-0.40810 0.62355 0.32772-0.70090 0.85208-0.34627
  -5   0   534265.4612409.24   1-0.38174-0.04954 0.91752-0.91752 0.11146 0.39458
   0   5   527310.31 2603.36   1-0.31160 0.52715 0.94189-0.56855-0.12546 0.63155
  -5   0   533389.3114295.82   1-0.90344 0.47117 0.27067-0.27067-0.33246 0.83948
  -5   5  -549076.82 7148.27   1 0.77762-0.99372 0.27783 0.09645-0.56401 0.05671
   5  -5   4  287.67 1094.42   1-0.39294 0.60840 0.26103-0.63421 0.88173-0.47708
  -5   0   4  672.57  885.00   1-0.36406-0.06722 0.93032-0.93032 0.04430 0.36053
   0   5   4  462.95  398.56   1-0.25103 0.46658 0.92448-0.55114-0.28689 0.69176
  -5   0   4  188.50  857.31   1-0.82812 0.39586 0.33503-0.33503-0.44939 0.85500
   0  -5  -4  687.23  589.47   1-0.12380-0.09252 0.51815-0.89285-0.84627 0.44072
  -5   5  -4 1324.34 1738.82   1 0.76529-0.98139 0.28631 0.08797-0.57649 0.17065
   5  -5   367793.49 8087.40   1-0.36690 0.58236 0.16107-0.53425 0.91620-0.61271
  -5   0   372310.64 6147.96   1-0.34282-0.08846 0.93895-0.93895-0.02883 0.33246
   0   5   374275.78 5521.70   1-0.16027 0.37582 0.85957-0.48622-0.48523 0.78888
  -5   0   375007.17 6650.36   1-0.72194 0.28967 0.39716-0.39716-0.56661 0.87083
   0  -5  -379611.97 5947.43   1-0.42630 0.21006 0.49066-0.86521-0.75993 0.45528
  -5   5  -376329.88 7175.52   1 0.73519-0.95129 0.30580 0.06849-0.60495 0.30057
   0   5   368708.01 4773.99   1 0.91092-0.69482 0.15748 0.21681-0.38133 0.68571
   5  -5   2160630.5 6503.57   1-0.32440 0.53985 0.02177-0.39495 0.94566-0.74334
  -5   0   2132634.0 3850.19   1-0.31596-0.11512 0.94206-0.94206-0.11263 0.31506
   0   5   2171716.8 4581.39   1-0.02818 0.24370 0.70458-0.33128-0.70905 0.91151
   0  -5  -2156115.9 3642.76   1-0.68294 0.46670 0.41537-0.78991-0.60087 0.39776
  -5   0   2158125.3 5795.11   1-0.58144 0.14895 0.45255-0.45255-0.67610 0.87920
   0   5   2135775.7 2923.93   1 0.52201-0.30585 0.40902-0.03461-0.74846 0.95144
  -5   5  -2152705.9 5493.98   1 0.67569-0.89185 0.34016 0.03423-0.65400 0.45102
  -5   0   1119205.9 3456.24   1-0.27846-0.15263 0.93553-0.93553-0.21735 0.31856
  -5   5  -1115528.1 4800.69   1 0.26071-0.47624 0.15463 0.21867-0.95294 0.85168
   0  -5  -1107865.2 4124.26   1-0.82650 0.61037 0.33618-0.71053-0.45151 0.35010
  -5   0   1113527.7 6417.99   1-0.40841-0.02407 0.49388-0.49388-0.76764 0.86919
   0   5   198268.10 3142.90   1-0.03779 0.25412 0.51676-0.14206-0.85529 0.95667
  -5   5  -1105828.3 4042.31   1 0.56442-0.78058 0.39235-0.01794-0.72627 0.62478
  -5   0   0 1838.49  871.06   1-0.21554-0.21554 0.90379-0.90379-0.36971 0.36971
  -5   5   0 1475.09  973.73   1 0.17596-0.39149 0.35046 0.02284-0.91989 0.91989
   5   0   0 1376.72  424.80   1 0.21552 0.21552 0.26345-0.26345-0.94028 0.94028
   0   5   0 1219.94  597.80   1 0.28823-0.07270 0.08245 0.29084-0.95400 0.95400
   0  -5   0 3028.18 1568.51   1-0.90259 0.68646 0.27154-0.64590-0.33402 0.33402
  -5   0   0 2416.69 1300.68   1-0.21633-0.21633 0.51527-0.51527-0.82927 0.82927
  -5   5   0 2101.22 1045.63   1 0.36282-0.57898 0.45907-0.08467-0.81092 0.81092
   0  -5   1119003.8 4659.08   1-0.37766 0.16220 0.20058-0.57377 0.90395-0.80279
  -5   0  -1115785.0 2989.40   1-0.42000-0.01090 0.38730-0.38730 0.82072-0.92188
  -5   0  -1105579.9 2163.52   1-0.07905-0.35200 0.77112-0.77112-0.63176 0.53053
  -5   5   1106442.6 4282.78   1 0.07909-0.29462 0.53614-0.16284-0.84040 0.94163
  -5   0  -1119087.510186.00   1-0.02764-0.40502 0.51634-0.51634-0.85593 0.75454
  -5   5   1104789.7 3843.52   1 0.02998-0.24631 0.51295-0.13825-0.85789 0.95927
   0  -5   2165048.1 7481.45   1-0.41946 0.20400 0.38439-0.75758 0.82236-0.62004
  -5   0  -2155314.9 3327.88   1-0.43066-0.00062 0.82893-0.82893 0.35692-0.55934
  -5   5   2157702.3 5687.21   1-0.01634-0.19917 0.68787-0.31456-0.72564 0.92810
  -5   0  -2176244.7 9259.41   1 0.13636-0.56903 0.50216-0.50216-0.85395 0.65117
   0   5  -2178377.0 6519.69   1 0.97247-0.75651-0.17133 0.54539 0.15789-0.36087
   5   0   381835.17 6369.79   1-0.33869 0.76961 0.06611-0.06611 0.93857-0.63508
   0  -5   378440.5711354.99   1-0.43659 0.22103 0.49213-0.86550 0.75311-0.44950
  -5   0  -374595.20 5290.38   1-0.37056-0.06072 0.92629-0.92629 0.06824-0.37187
  -5   5   379456.71 6525.82   1-0.10141-0.11411 0.79757-0.42427-0.59463 0.89831
  -5   5   380163.54 6343.54   1-0.74478 0.52865 0.38569-0.01133-0.54454 0.84876
  -5   0  -387234.75 8041.87   1 0.26434-0.69700 0.48115-0.48115-0.83583 0.53167
   0   5  -392335.50 8052.72   1 0.98811-0.77214-0.12842 0.50249 0.08449-0.38896
   5   0   4  467.20  749.89   1-0.40370 0.83461 0.30748-0.30748 0.86167-0.45701
   0  -5   4  757.89 1177.78   1-0.44343 0.22787 0.55270-0.92606 0.70560-0.30078
  -5   5   4 1247.27 1315.42   1-0.17201-0.04353 0.87006-0.49672-0.46194 0.86681
  -5   5   4  184.94  376.64   1-0.92633 0.71020 0.24475 0.12960-0.28634 0.69196
  -5   0  -4  511.60  810.93   1 0.35648-0.78881 0.46070-0.46070-0.81281 0.40684
   0   5  -4  -56.95 1652.46   1 0.99599-0.78003-0.08791 0.46197 0.01609-0.42204
   5   0   524102.93 9444.50   1-0.42632 0.85723 0.42284-0.42284 0.79965-0.29384
   0  -5   532733.9315200.24   1-0.44605 0.23049 0.58441-0.95778 0.67785-0.17183
  -5   5   532736.53 3717.00   1-0.23064 0.01509 0.91340-0.54006-0.33540 0.84148
  -5   0  -531153.90 3922.68   1 0.41691-0.84923 0.44409-0.44409-0.79307 0.28561
   0   5  -535595.04 4840.86   1 0.99760-0.78163-0.04889 0.42295-0.04901-0.45842
   5  -5  -530115.31 2781.61   1 0.98978-0.77382-0.12205-0.25200 0.07367-0.58111
   0  -5   635801.3416013.65   1-0.44693 0.23137 0.59775-0.97111 0.66553-0.05830
  -5   5   639396.76 3958.02   1-0.27848 0.06293 0.93553-0.56219-0.21730 0.82460
  -5   0  -629326.91 3414.67   1 0.45278-0.88510 0.43305-0.43305-0.77939 0.17043
   0   5  -636379.70 5202.96   1 0.99366-0.77770-0.01078 0.38484-0.11186-0.49706
   0  -5   710783.09 6898.23   1-0.44698 0.23142 0.59851-0.97187 0.66482 0.04361
  -5   5   7 8877.26 4915.75   1-0.31764 0.10209 0.94208-0.56873-0.10763 0.81615
  -5   0  -712182.11 4692.57   1 0.46951-0.90184 0.42758-0.42758-0.77247 0.06203
   0   5  -7 8030.67 3698.96   1 0.98453-0.76857 0.02676 0.34729-0.17312-0.53729
   0  -5   8 1006.24 1120.23   1-0.44643 0.23087 0.58994-0.96331 0.67279 0.13684
  -5   5   8 1125.52 1349.66   1-0.34978 0.13414 0.93681-0.56330-0.00560 0.81528
  -5   0  -8 1088.08 1548.50   1 0.47099-0.90331 0.42709-0.42709-0.77185-0.04008
   0   5  -8 1642.83 2398.50   1 0.97030-0.75434 0.06403 0.31002-0.23324-0.57866
   1  -6   7 1125.07 1750.38   1-0.43947 0.26702 0.51526-0.96330 0.73577-0.02733
  -6   5   7  852.53 1089.22   1-0.31553 0.01377 0.94205-0.56871-0.11390 0.82242
  -5  -1  -7  727.30 1439.75   1 0.36424-0.83980 0.45871-0.53359-0.81050 0.10005
  -1   6  -7 1506.43 2256.56   1 0.96850-0.79562 0.06771 0.38143-0.23960-0.47061
   1  -6   620272.3810278.42   1-0.43840 0.26596 0.50640-0.95444 0.74252-0.13529
  -6   5   622415.67 3613.99   1-0.27763-0.02413 0.93526-0.56192-0.21953 0.82683
  -5  -1  -620557.39 3084.38   1 0.34006-0.81561 0.46481-0.53969-0.81749 0.20854
  -1   6  -624499.49 4536.30   1 0.98129-0.80851 0.03658 0.41228-0.18902-0.41989
   1  -6   5 4749.14 2759.53   1-0.43534 0.26289 0.48280-0.93083 0.75985-0.25382
  -6   5   5 4193.34 2159.08   1-0.23206-0.06970 0.91425-0.54091-0.33210 0.83818
  -5  -1  -5 4038.88 2790.34   1 0.29523-0.77079 0.47517-0.55005-0.82887 0.32141
  -1   6  -5 5370.24 3268.13   1 0.99023-0.81746 0.00594 0.44292-0.13924-0.36818
   1  -6   4 3812.93 2301.45   1-0.42894 0.25657 0.43871-0.88653 0.78964-0.38499
  -6   5   4 3890.80 1696.35   1-0.17719-0.12457 0.87451-0.50117-0.45146 0.85633
  -6   5   4 4229.92 2383.24   1-0.83579 0.53320 0.32950 0.04485-0.43917 0.84479
  -5  -1  -4 5207.66 2142.94   1 0.22478-0.70071 0.48861-0.56355-0.84304 0.43749
  -1   6  -4 4363.66 2390.46   1 0.99561-0.82284-0.02379 0.47266-0.09048-0.31546
   1  -6   311181.01 4743.39   1-0.41568 0.24331 0.36472-0.81254 0.83317-0.52968
  -6   5   311671.93 2206.01   1-0.11229-0.18944 0.80980-0.43650-0.57584 0.87953
  -6   5   311222.04 3502.61   1-0.64025 0.33751 0.43243-0.05788-0.63487 0.93953
  -5  -1  -313328.27 4789.45   1 0.12593-0.60186 0.50348-0.57842-0.85477 0.55061
  -1   6  -311492.33 3214.95   1 0.99769-0.82492-0.05238 0.50125-0.04321-0.26124
   1  -6   2111125.310671.84   1-0.38975 0.21739 0.24793-0.69575 0.88691-0.68458
  -6   5   2152154.711741.78   1-0.03514-0.26658 0.71420-0.34090-0.69905 0.90150
  -6   5   2116165.1 8539.53   1-0.35863 0.05588 0.50169-0.12714-0.78720 0.99030
  -5  -1  -2102663.3 9237.22   1-0.00298-0.47294 0.51510-0.59004-0.85712 0.65434
  -1   6  -2112005.6 8971.98   1 0.99684-0.82407-0.07933 0.52820 0.00171-0.20468
   1  -6   116248.92 6590.18   1-0.34132 0.16896 0.07453-0.52235 0.93698-0.83582
  -6   5   124918.01 4253.08   1 0.05126-0.35299 0.58352-0.21022-0.81047 0.91169
  -5  -1  -119812.78 7469.99   1-0.15700-0.31892 0.51765-0.59259-0.84106 0.73967
  -6   5   123090.25 8315.28   1-0.04657-0.25629 0.51708-0.14238-0.85466 0.95605
  -1   6  -117675.36 2581.09   1 0.99369-0.82092-0.10368 0.55255 0.04261-0.14409
  -5  -1   0 4051.78 1084.98   1-0.38679-0.08761 0.91266-0.98736 0.13200-0.13200
  -6   5   0 6938.64 2153.76   1 0.14072-0.44246 0.42234-0.04904-0.89544 0.89544
   5   1   0 2834.66  428.72   1 0.19382 0.28034 0.31206-0.23739-0.93008 0.93008
  -1   6   0 4777.63 1269.50   1 0.25970-0.08728 0.15720 0.29076-0.95280 0.95280
  -5  -1   0 5439.11 2630.39   1-0.32348-0.15225 0.50625-0.58116-0.79941 0.79941
  -6   5   0 4546.34 1914.17   1 0.22191-0.52478 0.48912-0.11442-0.84351 0.84351
  -1   6   0 5340.03 1955.45   1 0.98950-0.81673-0.12317 0.57204 0.07557-0.07557
  -5  -1   115904.09 3709.47   1-0.37812-0.09629 0.92064-0.99534 0.09715 0.00405
  -1   6   124568.76 2556.84   1 0.14383 0.02858 0.41620 0.03176-0.89782 0.99908
  -6   5  -116859.28 2276.30   1 0.22282-0.52456 0.24660 0.12669-0.94314 0.84188
  -5  -1   115642.42 3050.42   1-0.48605 0.01031 0.47827-0.55317-0.73144 0.83299
  -1   6   111832.17 2641.08   1-0.15164 0.32470 0.51777-0.06813-0.84196 0.94335
  -6   5  -117302.28 2515.58   1 0.41593-0.71856 0.44438-0.06997-0.79342 0.69193
  -1   6   117806.12 1720.07   1 0.98739-0.81462-0.13097 0.57984 0.08881 0.01266
  -5  -1   297691.25 7482.42   1-0.38224-0.09216 0.91706-0.99176 0.11349 0.08892
  -1   6   292906.07 6911.59   1 0.01357 0.15884 0.64355-0.19559-0.76528 0.96773
  -6   5  -2100554.2 7713.69   1 0.28921-0.59095 0.07978 0.29352-0.95393 0.75140
  -5  -1   292474.14 9193.01   1-0.63008 0.15434 0.43617-0.51108-0.64245 0.84555
  -6   5  -2102153.9 8097.64   1 0.54134-0.84397 0.40162-0.02721-0.73867 0.53569
  -1   6   286979.20 5699.98   1 0.67095-0.49807 0.34254 0.10660-0.65763 0.86055
  -1   6   287786.41 5834.58   1 0.99632-0.82355-0.08489 0.53376 0.01102 0.19194
   6  -5   313103.17 6098.40   1-0.33678 0.63842 0.06005-0.43323 0.93966-0.63617
  -5  -1   313342.61 5182.94   1-0.39009-0.08431 0.90915-0.98385 0.14579 0.15783
  -1   6   311429.86 1768.32   1-0.10385 0.27627 0.80035-0.35239-0.59046 0.89414
  -5  -1   314830.96 4977.05   1-0.74785 0.27236 0.38408-0.45895-0.54147 0.84568
  -6   5  -313045.19 3085.13   1 0.61836-0.92098 0.36872 0.00567-0.69402 0.38954
   6  -5   4 4806.68 4213.42   1-0.36834 0.66998 0.16622-0.53941 0.91470-0.51005
  -5  -1   4 3062.31 1790.21   1-0.39911-0.07529 0.89798-0.97268 0.18527 0.21956
  -1   6   4 3839.88 1286.05   1-0.19533 0.36777 0.88919-0.44119-0.41372 0.81859
  -5  -1   4 5255.99 4099.04   1-0.83903 0.36353 0.32710-0.40197-0.43477 0.84038
  -6   5  -4 2755.76 1538.89   1 0.66332-0.96595 0.34666 0.02774-0.66319 0.25722
   6  -5   5 3939.56 2016.31   1-0.38801 0.68965 0.24087-0.61406 0.88962-0.38380
  -5  -1   5 4660.44 2404.64   1-0.40828-0.06612 0.88376-0.95846 0.22861 0.27743
  -1   6   5 3147.31 1299.80   1-0.26471 0.43715 0.93058-0.48257-0.25287 0.75896
  -5  -1   5 5004.65 3404.01   1-0.90585 0.43035 0.26813-0.34300-0.32792 0.83494
  -6   5  -5 3595.77 2196.41   1 0.68700-0.98962 0.33405 0.04035-0.64531 0.13785
   6  -5   620596.18 8317.69   1-0.39964 0.70128 0.28949-0.66268 0.86975-0.26277
  -5  -1   627958.37 9326.85   1-0.41709-0.05732 0.86648-0.94119 0.27428 0.33297
  -1   6   617240.16 2278.04   1-0.31625 0.48869 0.94206-0.49405-0.11178 0.71908
  -6   5  -621095.30 4059.49   1 0.69591-0.99854 0.32911 0.04529-0.63826 0.02931
   5   1  -621072.85 4358.48   1 0.95221-0.47708-0.20883 0.28364 0.22289-0.83182
   6  -5   7  793.44 1060.46   1-0.40592 0.70756 0.31761-0.69080 0.85693-0.14879
  -5  -1   7 2452.74 1848.90   1-0.42522-0.04918 0.84606-0.92077 0.32147 0.38699
  -1   6   7  602.87  776.67   1-0.35494 0.52746 0.93480-0.48660 0.01204 0.69641
  -6   5  -7 1582.27 2004.34   1 0.69390-0.99652 0.33024 0.04416-0.63987-0.07056
   5   1  -7  912.14 2383.90   1 0.98101-0.50589-0.15055 0.22536 0.12221-0.83263
   2  -6   7  708.51 1630.55   1-0.43599 0.34976 0.48757-0.93560 0.75643-0.04799
  -6   4   7  595.03 1490.27   1-0.33374-0.01128 0.94087-0.64206-0.05809 0.76656
  -4  -2  -7  252.42 1186.45   1 0.35201-0.78434 0.46184-0.61160-0.81411 0.10367
  -2   6  -7  519.07 1482.09   1 0.94210-0.85566 0.11509 0.33405-0.31494-0.39527
   2  -6   6 8096.51 6023.76   1-0.43441 0.34819 0.47608-0.92411 0.76461-0.15737
  -6   4   6 4413.79 1523.94   1-0.30022-0.04465 0.94067-0.64200-0.15810 0.76540
  -4  -2  -6 4336.95 1663.21   1 0.32418-0.75650 0.46862-0.61838-0.82176 0.21280
  -2   6  -6 5810.14 2419.90   1 0.95748-0.87104 0.08942 0.35972-0.27427-0.33448
   6  -4  -6 6027.43 2084.33   1 0.97182-0.62628-0.17275-0.12649 0.16033-0.76926
   2  -6   5  368.81 1059.77   1-0.43042 0.34420 0.44908-0.89711 0.78298-0.27695
  -6   4   5 1150.02 1758.98   1-0.25948-0.08539 0.92838-0.62970-0.26603 0.77212
  -6   4   5 1276.61 1148.31   1-0.91172 0.56591 0.26177 0.03770-0.31657 0.82359
  -4  -2  -5  825.93  696.22   1 0.27205-0.70471 0.47959-0.62947-0.83425 0.32731
  -2   6  -5  854.43 1709.99   1 0.96941-0.88297 0.06574 0.38340-0.23645-0.27084
   2  -6   437881.58 9110.13   1-0.42248 0.33630 0.40083-0.84865 0.81291-0.40826
  -6   4   431024.96 3810.48   1-0.20963-0.13524 0.89972-0.60105-0.38281 0.78768
  -6   4   430598.31 4044.33   1-0.80121 0.45540 0.35315-0.05367-0.48305 0.88866
  -4  -2  -433125.86 4719.83   1 0.19128-0.62395 0.49425-0.64413-0.84801 0.44246
  -2   6  -438595.40 5463.25   1 0.97825-0.89186 0.04492 0.40395-0.20249-0.20345
   2  -6   3  542.40 1041.29   1-0.40697 0.32079 0.32246-0.77028 0.85462-0.55113
  -6   4   3  294.02 1000.15   1-0.14832-0.19654 0.84830-0.54963-0.50830 0.81195
  -6   4   3  561.59  966.11   1-0.62614 0.28015 0.43759-0.13796-0.64533 0.94999
  -4  -2  -3  973.14  756.27   1 0.07722-0.50988 0.50889-0.65877-0.85735 0.55319
  -2   6  -3  516.77 1287.77   1 0.98417-0.89779 0.02791 0.42096-0.17498-0.12948
   2  -6   222847.69 8624.24   1-0.37828 0.29210 0.20294-0.65076 0.90316-0.70084
  -6   4   222175.18 2160.28   1-0.07413-0.27070 0.76507-0.46643-0.63966 0.84211
  -6   4   218426.17 4332.12   1-0.38729 0.04130 0.49739-0.19775-0.77627 0.97938
  -4  -2  -226354.24 8943.21   1-0.06952-0.36314 0.51772-0.66760-0.85271 0.64994
  -2   6  -224184.43 3535.30   1 0.98732-0.90094 0.01729 0.43157-0.15774-0.04523
   2  -6   1 2120.70 1496.69   1-0.32801 0.24182 0.03277-0.48059 0.94410-0.84294
  -6   4   1 2199.41 1175.45   1 0.01450-0.35934 0.64212-0.34348-0.76646 0.86769
  -4  -2  -1 1858.56  974.74   1-0.23880-0.19368 0.51418-0.66400-0.82376 0.72221
  -6   4   1 2324.03 1708.38   1-0.11710-0.22902 0.51818-0.21842-0.84721 0.94859
  -2   6  -1 1631.96 1045.53   1 0.98706-0.90067 0.01824 0.43062-0.15928 0.05779
   4   2   089675.56 2034.08   1 0.02410 0.40695 0.62726-0.47793-0.77843 0.77843
  -6   4   096096.37 4485.11   1 0.11188-0.45673 0.47761-0.17897-0.87141 0.87141
  -4  -2   073731.14 5415.60   1-0.41300-0.01948 0.49307-0.64289-0.76570 0.76570
  -6   4   089234.23 4529.14   1 0.13245-0.47859 0.50266-0.20290-0.85427 0.85427
  -2   6   081615.75 3547.20   1 0.97843-0.89204 0.04444 0.40442-0.20173 0.20173
  -4  -2   1 2931.96 1899.57   1-0.43694 0.00566 0.80361-0.95301 0.40408-0.30287
  -2   6   1 2802.55 1275.24   1 0.14241-0.05620 0.41902 0.02894-0.89673 0.99799
  -6   4  -1 2287.73 1142.16   1 0.20569-0.55054 0.28574 0.01290-0.93596 0.83470
  -4  -2   1 2788.91 1368.85   1-0.57206 0.13957 0.45544-0.60526-0.68214 0.78369
  -2   6   1 1146.98  712.42   1-0.39841 0.48491 0.49558-0.04612-0.77179 0.87334
  -6   4  -1 1411.90  877.93   1 0.32830-0.67416 0.46765-0.16812-0.82068 0.71918
  -2   6   1 2529.96  604.77   1 0.91471-0.82827 0.15281 0.29633-0.37408 0.47554
  -4  -2   227755.40 2338.35   1-0.42644-0.00484 0.84253-0.99193 0.32906-0.12664
  -2   6   227672.21 2748.28   1 0.02516 0.06104 0.62558-0.17762-0.77974 0.98220
  -6   4  -252047.70 5230.19   1 0.28295-0.62780 0.09670 0.20194-0.95424 0.75172
  -4  -2   221004.83 3344.93   1-0.70379 0.27152 0.40568-0.55543-0.58317 0.78598
  -6   4  -221530.68 2717.94   1 0.46426-0.81013 0.42932-0.12979-0.77468 0.57170
   6  -4   3  638.66  896.46   1-0.33754 0.68227 0.06246-0.36100 0.93923-0.63574
  -4  -2   3  760.22 1015.94   1-0.42362-0.00766 0.85053-0.99993 0.31166-0.00803
  -2   6   3  910.18 1826.71   1-0.08262 0.16883 0.77546-0.32750-0.62596 0.92964
  -4  -2   3  643.10  867.78   1-0.80613 0.37387 0.34998-0.49972-0.47712 0.78134
  -6   4  -3  388.78 1273.86   1 0.55246-0.89832 0.39721-0.09769-0.73280 0.42832
   6  -4   436927.3110312.92   1-0.37243 0.71716 0.18111-0.47966 0.91021-0.50556
  -4  -2   439371.80 8568.63   1-0.42492-0.00636 0.84693-0.99633 0.31958 0.08525
  -2   6   437153.50 4348.18   1-0.17030 0.25652 0.86857-0.42056-0.46537 0.87024
  -4  -2   437652.2413359.57   1-0.88156 0.44929 0.29204-0.44178-0.37088 0.77650
  -6   4  -434942.00 4814.33   1 0.60655-0.95241 0.37415-0.07462-0.70150 0.29553
   6  -4   5  315.33  586.95   1-0.39323 0.73796 0.26221-0.56075 0.88125-0.37544
  -4  -2   5  708.78 1031.69   1-0.42828-0.00300 0.83686-0.98626 0.34092 0.16512
  -2   6   5 1692.23 1078.37   1-0.23988 0.32610 0.91870-0.47070-0.31372 0.81981
  -4  -2   5 1124.41 1735.21   1-0.93459 0.50232 0.23421-0.38395-0.26773 0.77475
  -6   4  -5 1041.90 1473.17   1 0.63698-0.98284 0.35986-0.06034-0.68171 0.17425
   6  -4   6 8080.88 4367.79   1-0.40499 0.74972 0.31335-0.61189 0.85894-0.25196
  -4  -2   6 6847.84 4264.02   1-0.43254 0.00126 0.82209-0.97149 0.37021 0.23704
  -2   6   6 5747.37 1609.71   1-0.29367 0.37989 0.93949-0.49148-0.17635 0.78365
  -6   4  -6 4901.95 2033.34   1 0.65069-0.99655 0.35309-0.05357-0.67224 0.06329
   4   2  -6 6132.32 2395.75   1 0.96967-0.53774-0.17732 0.32694 0.16820-0.77713
   6  -4   7  570.59  835.57   1-0.41105 0.75578 0.34178-0.64033 0.84511-0.13697
  -4  -2   7 1600.23 1976.42   1-0.43701 0.00572 0.80330-0.95270 0.40462 0.30384
  -2   6   7  315.93  579.86   1-0.33535 0.42161 0.94060-0.49239-0.05296 0.76143
  -6   4  -7  387.28 1450.85   1 0.65197-0.99783 0.35245-0.05293-0.67134-0.03909
   4   2  -7  847.95 1937.92   1 0.98976-0.55784-0.12211 0.27174 0.07378-0.78419
   3  -6   7  675.58 1268.98   1-0.43079 0.43079 0.45145-0.89949 0.78141-0.07297
  -6   3   7  615.43  998.33   1-0.35334-0.03481 0.93547-0.71136 0.00651 0.70195
  -3   6  -7  727.73 1441.40   1 0.90469-0.90469 0.16489 0.28425-0.39285-0.31736
   6  -3  -7   80.38 1087.28   1 0.98815-0.59942-0.12826-0.09616 0.08422-0.79463
   3  -6   6  582.39  764.49   1-0.42862 0.42862 0.43674-0.88456 0.79091-0.18393
  -6   3   6 1061.83 1772.43   1-0.32480-0.06318 0.94186-0.71785-0.08601 0.69331
  -3  -3  -6  154.61  592.48   1 0.28853-0.67763 0.47662-0.70126-0.83040 0.22145
  -3   6  -6 1151.28 1860.65   1 0.92047-0.92047 0.14552 0.30362-0.36270-0.24605
   6  -3  -6  388.47 1405.98   1 0.95498-0.56624-0.20434-0.02009 0.21506-0.82399
   3  -6   5  749.64 1152.97   1-0.42331 0.42331 0.40551-0.85333 0.81016-0.30434
  -6   3   5 1305.92 1811.22   1-0.28998-0.09799 0.93868-0.71468-0.18646 0.69254
  -6   3   5  405.84  673.75   1-0.89017 0.50113 0.28396-0.05935-0.35631 0.86333
  -3  -3  -5   51.10  488.79   1 0.22572-0.61512 0.48844-0.71326-0.84289 0.33595
  -3   6  -5  527.03 1670.33   1 0.93227-0.93227 0.12958 0.31956-0.33775-0.16954
   3  -6   486467.3010390.09   1-0.41317 0.41317 0.35212-0.79994 0.83981-0.43516
   3   3   473187.46 6752.15   1-0.44076 0.82877 0.78250-0.55849 0.43978-0.03496
  -6   3   483541.92 7979.87   1-0.24697-0.14100 0.92246-0.69845-0.29675 0.70162
  -6   3   475501.30 7480.23   1-0.78465 0.39561 0.36339-0.13878-0.50225 0.90786
  -3  -3  -499183.07 7148.25   1 0.12873-0.51813 0.50313-0.72795-0.85456 0.44901
  -3   6  -497946.19 7730.49   1 0.93987-0.93987 0.11850 0.33064-0.32031-0.08552
   3  -6   3  225.77 1047.38   1-0.39478 0.39478 0.26868-0.71650 0.87860-0.57512
   3   3   3  148.30  186.11   1-0.44658 0.83459 0.73419-0.51018 0.51138-0.20777
  -6   3   3 1097.21 1526.88   1-0.19294-0.19504 0.88734-0.66333-0.41880 0.72245
  -3  -3  -3  218.38  215.76   1 0.22957-0.61753 0.23079-0.45477-0.94553 0.64174
  -6   3   3  716.05  933.42   1-0.62983 0.24059 0.43626-0.21154-0.64263 0.94729
  -3  -3  -3  179.44  559.08   1-0.00650-0.38289 0.51530-0.74012-0.85698 0.55282
  -3   6  -3  344.83 1177.40   1 0.94236-0.94236 0.11470 0.33444-0.31432 0.00994
   3  -6   2  733.54  803.73   1-0.36270 0.36270 0.14620-0.59402 0.92036-0.71803
  -6   3   2  760.25  875.55   1-0.12489-0.26305 0.82343-0.59945-0.55349 0.75594
  -6   3   2  603.75  913.54   1-0.42579 0.03655 0.49076-0.26603-0.76016 0.96327
  -3  -3  -2 2309.47 1362.09   1-0.17465-0.21474 0.51714-0.74196-0.83788 0.63511
  -3   6  -2 1140.70 1170.99   1 0.93704-0.93704 0.12270 0.32644-0.32693 0.12401
  -6   3   1  311.25 1073.27   1-0.03825-0.34968 0.71845-0.49447-0.69452 0.79574
  -3   6  -1  203.74  771.73   1 0.31031-0.31031 0.02059 0.42737-0.95041 0.84914
  -3  -3  -1  211.75  640.46   1-0.35698-0.03225 0.50192-0.72665-0.78780 0.68624
  -6   3   1  405.19  564.80   1-0.19188-0.19751 0.51648-0.29166-0.83451 0.93590
  -3   6  -1  454.11 1274.59   1 0.91548-0.91548 0.15186 0.29728-0.37260 0.27114
  -3  -3   0237028.7 4068.50   1-0.38041-0.00740 0.21108-0.43499 0.90040-0.90040
  -6   3   0243738.0 5890.27   1 0.06497-0.45292 0.56050-0.33652-0.82559 0.82559
  -3  -3   0238489.2 7940.85   1-0.52943 0.14019 0.46754-0.69227-0.70788 0.70788
  -6   3   0223856.4 8020.92   1 0.03628-0.42568 0.51248-0.28766-0.85793 0.85793
  -3   6   0230808.9 5163.98   1 0.84556-0.84556 0.22457 0.22457-0.48434 0.48434
  -3  -3   1  341.00  447.91   1-0.44721 0.05920 0.60239-0.82640 0.66115-0.55995
  -3   6   1  155.27 1273.71   1 0.13346-0.13346 0.43655 0.01141-0.88972 0.99098
  -6   3  -1  211.96  604.05   1 0.17335-0.56130 0.35596-0.13197-0.91828 0.81701
  -3   6   1  -16.26  153.80   1-0.82211 0.82211 0.33926 0.10996-0.45720 0.55860
  -3  -3   1  377.70  993.68   1-0.67361 0.28437 0.41929-0.64402-0.60863 0.71018
  -6   3  -1  625.68 1039.67   1 0.22829-0.61769 0.48798-0.26316-0.84246 0.74107
  -3   6   1  269.82  442.95   1 0.53639-0.53639 0.40354 0.04573-0.74123 0.84272
  -3  -3   2  546.94  457.01   1-0.44772 0.05971 0.71779-0.94180 0.53321-0.33080
  -3   6   2 1113.59 1222.27   1 0.02679-0.02679 0.62303-0.17506-0.78173 0.98419
  -6   3  -2 1477.02 1037.04   1 0.26674-0.65469 0.13925 0.08472-0.95365 0.75112
  -3  -3   2 1081.36  944.47   1-0.78424 0.39520 0.36364-0.58825-0.50271 0.70552
  -6   3  -2  679.83  649.64   1 0.37268-0.76178 0.45649-0.23184-0.80791 0.60492
   6  -3   3  940.37 1014.34   1-0.33262 0.72044 0.04701-0.27092 0.94188-0.63839
  -3  -3   3   42.87  674.84   1-0.44403 0.05602 0.75953-0.98355 0.47533-0.17171
  -3   6   3   -0.16  879.84   1-0.07219 0.07219 0.76265-0.31469-0.64276 0.94644
  -3  -3   3  630.88 1061.58   1-0.86534 0.47630 0.30629-0.53090-0.39670 0.70091
  -6   3  -3  551.61 1504.98   1 0.47168-0.86078 0.42686-0.20221-0.77155 0.46708
   6  -3   4102730.0 8029.73   1-0.37314 0.76096 0.18371-0.40762 0.90940-0.50475
  -3  -3   486317.97 6778.90   1-0.44219 0.05418 0.77328-0.99729 0.45442-0.04960
  -3   6   481546.72 7729.07   1-0.15502 0.15502 0.85468-0.40668-0.49545 0.90032
  -3  -3   498610.13 8058.78   1-0.92236 0.53332 0.24957-0.47418-0.29489 0.70050
  -6   3  -481703.10 8316.15   1 0.53570-0.92480 0.40381-0.17917-0.74158 0.33561
   6  -3   5   85.40  672.66   1-0.39610 0.78393 0.27429-0.49820 0.87627-0.37046
  -3  -3   5  691.25 1149.94   1-0.44221 0.05420 0.77318-0.99720 0.45457 0.05145
  -3   6   5  223.14 1236.26   1-0.22295 0.22295 0.90865-0.46064-0.35304 0.85912
  -6   3  -5  798.90 1682.02   1 0.57405-0.96315 0.38834-0.16370-0.72086 0.21340
   3   3  -5 1196.51 2267.93   1 0.96077-0.57203-0.19440 0.41884 0.19778-0.70522
   6  -3   6  410.21 1336.81   1-0.40847 0.79630 0.32948-0.55339 0.85122-0.24424
  -3  -3   6  478.06 1036.92   1-0.44339 0.05537 0.76464-0.98866 0.46767 0.13955
  -3   6   6  817.72 1634.56   1-0.27710 0.27710 0.93509-0.48708-0.22092 0.82822
  -6   3  -6  935.84 2453.95   1 0.59366-0.98275 0.37990-0.15526-0.70939 0.10043
   3   3  -6 1837.20 2345.46   1 0.98424-0.59550-0.14127 0.36570 0.10635-0.71528
   6  -3   7   71.47  701.57   1-0.41455 0.80237 0.35900-0.58291 0.83621-0.12807
  -3  -3   7 -104.97 1379.70   1-0.44511 0.05710 0.74999-0.97401 0.48926 0.21917
  -3   6   7  376.83  857.77   1-0.32026 0.32026 0.94205-0.49404-0.09977 0.80829
  -6   3  -7  517.94 1504.60   1 0.59914-0.98824 0.37747-0.15283-0.70606-0.00437
   3   3  -7 -380.16 1949.95   1 0.99575-0.60702-0.08991 0.31435 0.01945-0.72986
   4  -6   7  271.84 1380.53   1-0.42350 0.50968 0.40654-0.85436 0.80954-0.10140
  -6   2   7   76.48  955.76   1-0.37342-0.05786 0.92428-0.77488 0.07902 0.62944
  -4   6  -7  279.63 1458.93   1 0.85579-0.94223 0.21535 0.23379-0.47035-0.23986
   6  -2  -7  939.71 2174.54   1 0.98022-0.54829-0.15268 0.00306 0.12586-0.83627
   4  -6   6 5755.21 4563.91   1-0.42008 0.50626 0.38770-0.83552 0.82049-0.21351
  -6   2   6 6339.27 5001.96   1-0.35025-0.08103 0.93664-0.78724-0.00403 0.61129
  -4   6  -6 7690.56 3490.58   1 0.86959-0.95602 0.20228 0.24686-0.45043-0.15832
   4  -6   5  672.54 1297.41   1-0.41305 0.49923 0.35155-0.79937 0.84011-0.33430
   2   4   5  481.43  500.78   1-0.40413 0.74916 0.89060-0.59180 0.20853 0.29751
  -6   2   5  404.65  918.69   1-0.32225-0.10884 0.94199-0.79266-0.09378 0.59986
  -6   2   5 1129.44 1684.93   1-0.87838 0.44612 0.29493-0.14518-0.37609 0.88311
  -2  -4  -5  840.56  600.58   1 0.14162-0.48775 0.50147-0.80123-0.85349 0.34656
  -4   6  -5 1130.94 2336.74   1 0.87794-0.96438 0.19397 0.25517-0.43770-0.06959
   4  -6   437738.9213800.42   1-0.40035 0.48653 0.29260-0.74042 0.86838-0.46373
   2   4   430581.47 3841.95   1-0.38028 0.72531 0.91881-0.62001 0.10566 0.29917
  -6   2   435888.19 4309.86   1-0.28764-0.14344 0.93812-0.78878-0.19282 0.59769
  -6   2   430046.84 9755.00   1-0.78092 0.34866 0.36561-0.21587-0.50643 0.91204
  -2  -4  -431991.27 4955.99   1 0.01967-0.36580 0.51369-0.81345-0.85775 0.45220
  -4   6  -440964.07 6292.14   1 0.87957-0.96601 0.19231 0.25683-0.43516 0.02932
   4  -6   3  269.69  851.40   1-0.37855 0.46473 0.20395-0.65177 0.90282-0.59934
   2   4   3  368.97  591.79   1-0.33710 0.68213 0.94027-0.64147-0.04738 0.35101
  -6   2   3  788.14 1049.67   1-0.24379-0.18730 0.92081-0.77147-0.30441 0.60806
  -2  -4  -3  234.54  299.42   1 0.25367-0.59851 0.17235-0.47100-0.95181 0.64802
  -6   2   3  332.08  858.76   1-0.64501 0.21252 0.43064-0.28082-0.63127 0.93593
  -2  -4  -3  619.53 1019.71   1-0.14407-0.20205 0.51792-0.81768-0.84320 0.53904
  -4   6  -3  505.89 1329.50   1 0.87148-0.95792 0.20042 0.24872-0.44758 0.14320
   4  -6   218866.97 2887.06   1-0.34273 0.42891 0.07906-0.52688 0.93609-0.73377
   2   4   219357.10 2256.36   1-0.39932 0.74406 0.28812 0.01042 0.87035-0.66803
   2   4   222975.29 1897.08   1-0.22798 0.57285 0.91179-0.61312-0.34154 0.54397
  -6   2   221746.53 2396.27   1-0.18642-0.24467 0.88216-0.73283-0.43246 0.63489
  -6   2   218082.60 3883.58   1-0.47022 0.03774 0.48181-0.33199-0.73942 0.94252
  -2  -4  -223181.77 2670.43   1-0.33230-0.01368 0.50518-0.80481-0.79647 0.59336
  -4   6  -221257.34 2859.34   1 0.84671-0.93315 0.22355 0.22559-0.48280 0.27988
   2   4   1 1622.20 1034.83   1-0.44880 0.79370 0.69246-0.39377 0.56485-0.46365
  -6   2   1 2108.36  914.90   1-0.10988-0.32116 0.80714-0.65781-0.58004 0.68126
   2   4   1 2735.81  672.00   1 0.05400 0.29083 0.57897-0.28032-0.81355 0.91478
  -4   6  -1 2605.74 1316.38   1 0.28786-0.37407 0.08346 0.36450-0.95402 0.85276
  -2  -4  -1 2272.71 1366.10   1-0.51559 0.16960 0.47113-0.77076-0.71567 0.61412
  -6   2   1 1904.35 1242.06   1-0.26841-0.16407 0.51188-0.36206-0.81604 0.91759
  -4   6  -1 2311.48 1431.46   1 0.78747-0.87390 0.27083 0.17831-0.55365 0.45219
   2   4   070637.08 3373.17   1-0.42680 0.77183 0.84143-0.54263 0.33138-0.33138
  -6   2   077266.24 2854.45   1-0.00752-0.42352 0.67510-0.52578-0.73768 0.73768
  -4   6   071838.89 3524.38   1 0.21136-0.29757 0.27295 0.17501-0.93851 0.93851
  -2  -4   072905.97 3315.15   1-0.66789 0.32190 0.42164-0.72128-0.61329 0.61329
  -6   2   088477.79 8138.60   1-0.06300-0.36966 0.51757-0.36769-0.85331 0.85331
  -4   6   073485.10 2867.00   1 0.64331-0.72977 0.35676 0.09251-0.67739 0.67739
  -2  -4   1 2703.42 1949.09   1-0.42194 0.07720 0.39782-0.69637 0.81467-0.71351
  -6   2  -1 2182.14  999.80   1 0.11535-0.54640 0.47114-0.32181-0.87448 0.77321
  -4   6   1 2401.61 1421.40   1 0.11867-0.20488 0.46489-0.01692-0.87737 0.97864
  -2  -4   1 1812.34 1193.44   1-0.78183 0.43601 0.36508-0.66456-0.50542 0.60682
  -6   2  -1 2462.24 1349.27   1 0.12084-0.55350 0.50411-0.35423-0.85514 0.75375
  -4   6   1 2185.71  887.88   1 0.25731-0.34377 0.48301-0.03372-0.83695 0.93844
   4  -6  -1 1615.61  737.61   1 0.99692-0.91054-0.03672-0.41214-0.06915-0.03233
  -2  -4   223676.26 2558.28   1-0.44466 0.09976 0.56653-0.86522 0.69376-0.49135
  -4   6   224700.42 2695.79   1 0.02097-0.10718 0.63213-0.18416-0.77457 0.97703
  -6   2  -224350.72 1940.19   1 0.23295-0.66401 0.22278-0.07345-0.94662 0.74409
  -2  -4   221238.18 3676.25   1-0.86328 0.51747 0.30800-0.60749-0.39982 0.60263
  -4   6   217497.29 1277.11   1-0.70886 0.62236 0.40384 0.04560-0.57829 0.78139
  -6   2  -225514.47 8643.84   1 0.26798-0.70065 0.48041-0.33053-0.83509 0.63231
   4  -6  -221452.57 1537.75   1 0.99054-0.90415-0.11893-0.32993 0.06839-0.27136
  -2  -4   3  494.19  936.97   1-0.44890 0.10400 0.64461-0.94330 0.61884-0.31522
  -4   6   3  894.91 1490.41   1-0.06996-0.01624 0.75987-0.31191-0.64628 0.94997
  -2  -4   3  917.34 1207.59   1-0.91966 0.57385 0.25275-0.55223-0.30053 0.60474
  -6   2  -3  171.03  984.85   1 0.37658-0.80891 0.45545-0.30568-0.80669 0.50221
   6  -2   435222.14 4647.54   1-0.36887 0.79978 0.16814-0.31741 0.91414-0.50949
  -2  -4   437651.72 4966.21   1-0.44905 0.10415 0.68049-0.97918 0.57903-0.17421
  -4   6   428646.11 3516.07   1-0.14754 0.06132 0.84754-0.39954-0.50979 0.91466
  -6   2  -428167.95 4076.32   1 0.45035-0.88268 0.43382-0.28406-0.78036 0.37439
   2   4  -437813.93 5088.40   1 0.95760-0.61206-0.19993 0.49918 0.20739-0.61334
   6  -2   5  905.61 1247.34   1-0.39595 0.82686 0.27362-0.42289 0.87655-0.37074
  -2  -4   5 1056.61 1654.60   1-0.44875 0.10385 0.69428-0.99297 0.56265-0.05663
  -4   6   5  884.65 1683.31   1-0.21274 0.12652 0.90188-0.45387-0.37595 0.88203
  -6   2  -5  773.75 1109.07   1 0.49725-0.92958 0.41805-0.26828-0.76024 0.25278
   2   4  -5 1350.20 2818.30   1 0.98138-0.63584-0.14954 0.44879 0.12048-0.62792
   6  -2   6 3887.38 2552.04   1-0.40975 0.84067 0.33556-0.48483 0.84823-0.24125
  -2  -4   6 5368.04 2448.58   1-0.44873 0.10383 0.69487-0.99356 0.56194 0.04528
  -4   6   6 5759.05 2155.47   1-0.26599 0.17977 0.93109-0.48308-0.24961 0.85691
  -6   2  -6 5580.63 2397.24   1 0.52363-0.95595 0.40841-0.25865-0.74766 0.13871
   2   4  -6 5170.60 2947.23   1 0.99412-0.64858-0.10116 0.40041 0.03837-0.64730
   6  -2   7  478.08 1082.51   1-0.41623 0.84714 0.36752-0.51679 0.83167-0.12353
  -2  -4   7  721.46 1410.35   1-0.44895 0.10405 0.68647-0.98516 0.57200 0.13643
  -4   6   7  415.64  976.07   1-0.30937 0.22315 0.94173-0.49373-0.13197 0.84049
  -6   2  -7  418.47 1249.42   1 0.53418-0.96650 0.40440-0.25463-0.74236 0.03192
   2   4  -7   30.53 1486.04   1 0.99772-0.65218-0.05438 0.35363-0.03988-0.67052
   5  -6   7 1705.30 1899.40   1-0.41315 0.58552 0.35206-0.79988 0.83985-0.13171
  -6   1   7 1257.41 1210.68   1-0.39302-0.08138 0.90579-0.83109 0.15832 0.55014
  -5   6  -7 1020.13 1486.29   1 0.79589-0.96876 0.26467 0.18447-0.54452-0.16569
   6  -1  -7  459.95 1506.21   1 0.97422-0.49910-0.16742 0.09261 0.15116-0.86157
   5  -6   619557.0411623.57   1-0.40830 0.58067 0.32869-0.77651 0.85161-0.24463
  -6   1   623522.49 9138.46   1-0.37543-0.09898 0.92278-0.84808 0.08672 0.52053
  -6   1   623603.68 4742.65   1-0.93565 0.46015 0.23280-0.15793-0.26525 0.87367
  -5   6  -617730.88 3700.06   1 0.80566-0.97854 0.25731 0.19183-0.53356-0.07519
   5  -6   5 3818.71 3130.37   1-0.39911 0.57147 0.28717-0.73499 0.87076-0.36495
  -6   1   5 4896.99 3052.13   1-0.35451-0.11990 0.93499-0.86029 0.01054 0.49550
   1   5   5 2965.50 1500.78   1-0.35127 0.65317 0.93627-0.56276-0.00056 0.50660
  -6   1   5 4155.66 3609.16   1-0.87457 0.39908 0.29832-0.22345-0.38224 0.88926
  -5   6  -5 3291.96 2145.41   1 0.80792-0.98080 0.25558 0.19356-0.53097 0.02367
   5  -6   4 3520.51 2816.02   1-0.38337 0.55573 0.22251-0.67033 0.89638-0.49173
  -6   1   4 3191.70 1303.22   1-0.32923-0.14518 0.94148-0.86678-0.07224 0.47708
   1   5   4 3464.62  962.87   1-0.30089 0.60266 0.94077-0.56743-0.15621 0.56108
  -6   1   4 2850.03 1528.62   1-0.78637 0.31088 0.36236-0.28749-0.50030 0.90592
  -1  -5  -4 4532.81 2161.11   1-0.17203-0.13083 0.51723-0.89193-0.83837 0.43282
  -5   6  -4 4058.74 2358.48   1 0.80017-0.97305 0.26147 0.18767-0.53976 0.13392
   5  -6   312035.34 4578.16   1-0.35778 0.53015 0.12913-0.57695 0.92483-0.62134
  -6   1   3 9470.16 1495.29   1-0.29777-0.17642 0.94027-0.86560-0.16496 0.46861
   1   5   310686.83 2991.43   1-0.21747 0.51924 0.90508-0.53174-0.36539 0.66904
  -6   1   312292.12 4502.02   1-0.66774 0.19200 0.42170-0.34679-0.61341 0.91807
  -1  -5  -311487.80 1658.95   1-0.36636 0.06362 0.50058-0.87513-0.78434 0.47968
  -5   6  -319179.49 4899.57   1 0.77749-0.95037 0.27792 0.17122-0.56414 0.25976
  -6   1   290493.82 6608.00   1-0.25671-0.21749 0.92715-0.85248-0.27293 0.47536
   1   5   299891.60 6939.25   1-0.07819 0.37993 0.77007-0.39677-0.63314 0.83559
  -1  -5  -299809.50 7262.57   1-0.55618 0.25344 0.46014-0.83468-0.69204 0.48894
  -6   1   298020.3111384.36   1-0.51800 0.04226 0.47051-0.39560-0.71433 0.91744
  -5   6  -2102477.4 8283.23   1 0.72982-0.90270 0.30911 0.14003-0.60975 0.40683
  -6   1   113731.16 1581.23   1-0.19961-0.27458 0.89244-0.81778-0.40458 0.50580
  -5   6  -117355.92 2199.33   1 0.26109-0.43351 0.15368 0.29428-0.95300 0.85173
  -1  -5  -116227.77 3374.29   1-0.70579 0.40320 0.40477-0.77912-0.58138 0.47998
  -6   1   115554.74 5590.22   1-0.34443-0.13130 0.50362-0.42872-0.79229 0.89384
  -5   6  -117255.32 2296.90   1 0.63630-0.80923 0.36019 0.08908-0.68218 0.58069
  -6   1   0 4675.74  842.96   1-0.11498-0.35917 0.81276-0.73810-0.57113 0.57113
  -5   6   0 3373.80 1229.62   1 0.18611-0.35853 0.32880 0.11916-0.92587 0.92587
   1   5   0 4787.44  781.30   1 0.29179 0.00995 0.07274 0.30055-0.95371 0.95371
  -1  -5   0 4192.15 2680.32   1-0.81149 0.50891 0.34646-0.72081-0.47056 0.47056
  -6   1   0 6662.43 3902.77   1-0.16237-0.31355 0.51751-0.44257-0.84012 0.84012
  -5   6   0 3631.74 1026.31   1 0.45399-0.62692 0.43266 0.01662-0.77890 0.77890
  -1  -5   117661.73 2708.84   1-0.38569 0.08405 0.23163-0.60482 0.89307-0.79191
  -6   1  -116548.81 1224.69   1 0.01086-0.48502 0.64768-0.57302-0.76182 0.66060
  -5   6   117334.68 2272.95   1 0.09883-0.27125 0.50093-0.05297-0.85982 0.96104
  -1  -5   118267.66 2671.49   1-0.88300 0.58042 0.29071-0.66506-0.36848 0.46988
  -6   1  -118871.84 7656.27   1 0.00900-0.48493 0.51439-0.43945-0.85750 0.75612
  -5   6   126847.86 7102.38   1 0.11106-0.28413 0.50527-0.05563-0.85578 0.95717
  -1  -5   2114878.7 8755.47   1-0.42517 0.12353 0.41610-0.78928 0.80379-0.60146
  -5   6   2110066.5 8468.66   1 0.00936-0.18178 0.64995-0.20199-0.75991 0.96236
  -1  -5   2112601.2 9005.79   1-0.93108 0.62850 0.23877-0.61313-0.27578 0.47859
  -5   6   294251.25 6560.47   1-0.40773 0.23473 0.49400-0.04454-0.76793 0.97103
  -6   1  -2104495.5 9327.99   1 0.15473-0.63066 0.49970-0.42476-0.85226 0.64949
   5  -6  -2102385.5 6964.97   1 0.82106-0.64818 0.24522-0.69438-0.51548 0.31256
  -1  -5   312701.42 7888.83   1-0.43994 0.13815 0.51929-0.89265 0.73265-0.42903
  -5   6   310706.85 2202.37   1-0.07418-0.09823 0.76513-0.31716-0.63958 0.94326
  -6   1  -313146.47 1659.69   1 0.28528-0.75944 0.09045-0.01578-0.95416 0.65037
  -5   6   3 9158.67 2009.31   1-0.84827 0.67537 0.32007 0.12914-0.42186 0.72608
  -6   1  -313338.92 6625.65   1 0.26824-0.74417 0.48036-0.40542-0.83504 0.53088
   1   5  -314670.22 3252.88   1 0.96307-0.66072-0.19022 0.56428 0.19053-0.49499
   6  -1   4 2318.47 1833.63   1-0.35592 0.82993 0.12278-0.19742 0.92641-0.52176
  -1  -5   4 4339.70 1725.98   1-0.44539 0.14360 0.57553-0.94889 0.68584-0.28102
  -5   6   4 3620.02 1320.04   1-0.14640-0.02603 0.84644-0.39843-0.51196 0.91682
  -6   1  -4 3550.68 1428.19   1 0.35103-0.82659 0.46209-0.38721-0.81440 0.40843
   1   5  -4 4641.64 2173.91   1 0.98324-0.68089-0.14426 0.51832 0.11147-0.51742
   6  -1   5 3388.50 2401.35   1-0.39121 0.86522 0.25387-0.32851 0.88458-0.37877
  -1  -5   5 5794.08 3121.62   1-0.44730 0.14551 0.60399-0.97735 0.65962-0.15360
  -5   6   5 3774.52 1219.75   1-0.20825 0.03581 0.89874-0.45074-0.38585 0.89193
  -6   1  -5 3333.75 1394.29   1 0.40628-0.88184 0.44719-0.37231-0.79683 0.28937
   1   5  -5 3838.38 2447.11   1 0.99427-0.69192-0.10026 0.47432 0.03685-0.54429
  -1  -5   634806.3713992.59   1-0.44787 0.14608 0.61502-0.98839 0.64895-0.04172
  -5   6   618306.17 2679.71   1-0.25976 0.08732 0.92850-0.48049-0.26533 0.87263
  -6   1  -616839.79 3337.41   1 0.43983-0.91539 0.43714-0.36226-0.78450 0.17555
   1   5  -620745.06 8678.37   1 0.99774-0.69539-0.05766 0.43172-0.03443-0.57449
  -1  -5   7  810.36 1675.01   1-0.44783 0.14604 0.61417-0.98753 0.64979 0.05864
  -5   6   7  964.82 1541.88   1-0.30247 0.13003 0.94100-0.49299-0.15174 0.86026
  -6   1  -7  985.83 1012.22   1 0.45604-0.93160 0.43200-0.35712-0.77807 0.06762
   1   5  -7  589.49 1479.72   1 0.99452-0.69217-0.01605 0.39011-0.10321-0.60720
   6  -6   7  657.19 1580.25   1-0.39922 0.65777 0.28767-0.73549 0.87055-0.16241
  -6   0   7 1021.91 1267.43   1-0.41114-0.10639 0.87860-0.87860 0.24292 0.46554
  -6   6  -7 1036.83 1571.80   1 0.72632-0.98564 0.31124 0.13790-0.61284-0.09737
   6   0  -7 1675.16 1980.52   1 0.97082-0.45251-0.17489 0.17489 0.16402-0.87443
   6  -6   611182.27 4908.41   1-0.39256 0.65111 0.25943-0.70725 0.88237-0.27539
  -6   0   613104.66 6083.94   1-0.39888-0.11865 0.89830-0.89830 0.18421 0.42304
  -6   0   614405.12 3855.57   1-0.93341 0.41469 0.23576-0.23576-0.27046 0.87888
  -6   6  -612630.88 3288.49   1 0.73074-0.99006 0.30854 0.14060-0.60893 0.00017
   6  -6   5 4107.79 2579.19   1-0.38077 0.63931 0.21243-0.66025 0.89993-0.39412
  -6   0   5 5786.63 3407.27   1-0.38486-0.13267 0.91459-0.91459 0.12406 0.38198
   0   6   5 3659.86 1043.59   1-0.29869 0.55735 0.94042-0.49242-0.16240 0.66849
  -6   0   5 4511.30 2578.65   1-0.87698 0.35827 0.29618-0.29618-0.37836 0.88538
  -6   6  -5 5560.16 2446.31   1 0.72547-0.98479 0.31175 0.13739-0.61358 0.10628
   6  -6   4 7015.03 3677.15   1-0.36162 0.62017 0.14241-0.59023 0.92138-0.51673
  -6   0   4 9285.43 5281.79   1-0.36881-0.14872 0.92744-0.92744 0.06173 0.34310
   0   6   4 7172.13 1429.50   1-0.23275 0.49141 0.91465-0.46665-0.33048 0.73535
  -6   0   4 7613.76 4649.67   1-0.79833 0.27962 0.35498-0.35498-0.48646 0.89207
  -6   6  -4 9201.75 3162.59   1 0.70713-0.96653 0.32273 0.12655-0.62912 0.22315
   6  -6   3 8985.74 3002.88   1-0.33209 0.59064 0.04537-0.49319 0.94215-0.63866
  -6   0   3 7486.65 3126.15   1-0.35023-0.16730 0.93665-0.93665-0.00409 0.30771
   0   6   3 7872.07 2326.83   1-0.13848 0.39714 0.83860-0.39060-0.52683 0.83048
   0  -6  -3 3895.24 1605.30   1-0.72169 0.46220 0.39777-0.84723-0.56650 0.26184
  -6   0   3 8363.39 4320.80   1-0.69507 0.17635 0.40961-0.40961-0.59083 0.89505
  -6   6  -3 9216.97 3306.64   1 0.66985-0.92925 0.34325 0.10603-0.65838 0.35390
  -6   0   231105.01 2786.00   1-0.32803-0.18928 0.94159-0.94159-0.07606 0.27850
   0   6   237436.35 3291.82   1-0.01223 0.27087 0.68195-0.23399-0.73128 0.93374
  -6   6  -239526.00 4108.66   1 0.28911-0.54774 0.08007 0.36789-0.95394 0.75141
   0  -6  -236995.39 3515.70   1-0.82711 0.56775 0.33575-0.78497-0.45071 0.24790
  -6   0   237428.0013306.88   1-0.56735 0.04837 0.45685-0.45685-0.68511 0.88822
  -6   6  -240630.64 4226.28   1 0.60312-0.86252 0.37569 0.07358-0.70362 0.50064
  -6   0   113206.18 1474.58   1-0.29975-0.21756 0.94060-0.94060-0.15943 0.26064
   0   6   117924.83 2202.37   1 0.13501 0.12361 0.43353 0.01442-0.89096 0.99222
  -6   6  -117649.93 2798.64   1 0.23023-0.48887 0.22923 0.21873-0.94574 0.84448
   0  -6  -118083.41 2359.61   1-0.89062 0.63126 0.28352-0.73275-0.35552 0.25412
  -6   0   117247.10 5049.87   1-0.41877-0.10021 0.49204-0.49204-0.76322 0.86478
  -6   6  -115579.05 2420.73   1 0.48921-0.74861 0.42087 0.02841-0.76389 0.66240
  -6   0   0 9978.96 1041.44   1-0.25865-0.25865 0.92802-0.92802-0.26809 0.26809
  -6   6   013208.28 2114.01   1 0.15718-0.41581 0.38939 0.05857-0.90755 0.90755
   6   0   010710.29 1195.83   1 0.25863 0.25863 0.15990-0.15990-0.95264 0.95264
   0   6   014415.11 1900.55   1 0.26403-0.00539 0.14620 0.30176-0.95336 0.95336
   0  -6   014119.93 3082.10   1-0.93146 0.67210 0.23829-0.68752-0.27493 0.27493
  -6   0   012762.70 5218.56   1-0.25949-0.25949 0.51263-0.51263-0.81845 0.81845
  -6   6   012136.59 3326.94   1 0.30176-0.56115 0.47374-0.02445-0.82734 0.82734
   0  -6   115273.69 2361.94   1-0.34985 0.09130 0.10237-0.55019 0.93119-0.83003
  -6   0  -115443.77 1658.13   1-0.42550-0.09184 0.41882-0.41882 0.80220-0.90340
  -6   0  -116132.54 1370.33   1-0.18225-0.33505 0.87875-0.87875-0.44109 0.33987
  -6   6   116456.57 2404.18   1 0.07537-0.33400 0.54263-0.09467-0.83657 0.93780
  -6   0  -117418.79 7518.44   1-0.10371-0.41548 0.51818-0.51818-0.84895 0.74757
  -6   6   115472.53 3542.65   1 0.01617-0.27577 0.51392-0.06428-0.85768 0.95906
   0   6  -119351.98 2888.87   1 0.95917-0.70001-0.19723 0.64610 0.20269-0.30417
   0  -6   243327.89 4888.77   1-0.39745 0.13890 0.28002-0.72784 0.87385-0.67152
  -6   0  -243641.32 3788.40   1-0.42602-0.09152 0.84378-0.84378 0.32640-0.52882
  -6   0  -237816.96 2676.59   1-0.01178-0.50547 0.68130-0.68130-0.73190 0.52945
  -6   6   241104.11 4196.27   1-0.00689-0.25173 0.67418-0.22622-0.73852 0.94098
  -6   6   232905.87 4803.55   1-0.34620 0.08671 0.50339-0.05393-0.79166 0.99477
  -6   0  -236645.13 5562.74   1 0.03586-0.55506 0.51251-0.51251-0.85792 0.65515
   0   6  -245609.34 4797.09   1 0.97805-0.71889-0.15828 0.60716 0.13546-0.33843
   0  -6   310329.10 5552.71   1-0.42144 0.16289 0.39511-0.84293 0.81625-0.51276
  -6   6   3 8001.93 2296.07   1-0.08357-0.17505 0.77661-0.32865-0.62440 0.92808
  -6   0  -3 5809.91  857.18   1 0.20033-0.71760 0.29770-0.29770-0.93339 0.62961
  -6   6   3 7165.26 2540.68   1-0.68366 0.42417 0.41506 0.03439-0.60026 0.90492
  -6   0  -3 8125.79 4971.59   1 0.15081-0.67001 0.50024-0.50024-0.85265 0.54848
   0   6  -310761.43 3283.37   1 0.99011-0.73095-0.12071 0.56958 0.07139-0.37586
   0  -6   4 8425.89 4028.28   1-0.43293 0.17425 0.46572-0.91376 0.77179-0.36697
  -6   6   4 6325.05 1955.18   1-0.15047-0.10817 0.85037-0.40236-0.50419 0.90906
  -6   0  -4 8133.42 2993.64   1 0.23867-0.75787 0.48609-0.48609-0.84068 0.43513
   0   6  -4 7707.37 2838.96   1 0.99642-0.73726-0.08394 0.53281 0.00943-0.41538
   0  -6   5 5639.59 3464.69   1-0.43847 0.17979 0.50690-0.95494 0.74215-0.23612
  -6   6   5 4519.11 1653.08   1-0.20862-0.05003 0.89901-0.45100-0.38503 0.89111
  -6   0  -5 4642.19 2756.14   1 0.30170-0.82049 0.47375-0.47375-0.82736 0.31990
   0   6  -5 3258.02 2009.97   1 0.99755-0.73839-0.04763 0.49650-0.05109-0.45634
   0  -6   610870.08 5975.83   1-0.44092 0.18225 0.52804-0.97607 0.72577-0.11854
  -6   6   610890.05 2421.48   1-0.25782-0.00083 0.92765-0.47964-0.27016 0.87746
  -6   0  -610903.21 2763.47   1 0.34211-0.86090 0.46431-0.46431-0.81692 0.20797
   0   6  -611590.60 3860.75   1 0.99379-0.73463-0.01154 0.46042-0.11061-0.49831
   0  -6   7 1642.34 1602.79   1-0.44167 0.18300 0.53500-0.98304 0.72020-0.01176
  -6   6   7  885.79 1196.04   1-0.29925 0.04059 0.94052-0.49251-0.16084 0.86935
  -6   0  -7 1156.41 1624.68   1 0.36412-0.88291 0.45874-0.45874-0.81053 0.10009
   0   6  -7 1187.83 2439.71   1 0.98524-0.72608 0.02447 0.42439-0.16940-0.54100
   1  -7   7 1283.74 1964.25   1-0.43074 0.21517 0.45111-0.97382 0.78163-0.07319
  -7   6   7  542.78 1216.51   1-0.29934-0.04553 0.94053-0.49252-0.16058 0.86910
  -6  -1  -7  963.68 1132.97   1 0.25798-0.82044 0.48241-0.55735-0.83709 0.12738
  -1   7  -7 1561.39 2341.95   1 0.96912-0.75303 0.06636 0.45764-0.23745-0.47276
   1  -7   6 4234.98 2973.67   1-0.42868 0.21322 0.43712-0.95957 0.79066-0.18369
  -7   6   6 5208.13 3062.58   1-0.25966-0.08520 0.92846-0.48045-0.26556 0.87287
  -6  -1  -6 3885.92 3071.01   1 0.23058-0.79305 0.48757-0.56251-0.84208 0.23375
  -1   7  -6 4748.83 2959.47   1 0.98137-0.76541 0.03634 0.48734-0.18863-0.42029
   1  -7   5 1904.20 2128.81   1-0.42366 0.20820 0.40744-0.92990 0.80900-0.30319
  -7   6   5 1416.58 1560.82   1-0.21315-0.13172 0.90216-0.45415-0.37504 0.88112
  -6  -1  -5 2155.44 1658.60   1 0.18442-0.74689 0.49532-0.57026-0.84890 0.34196
  -1   7  -5 2288.98 2579.98   1 0.98995-0.77399 0.00714 0.51653-0.14120-0.36623
   1  -7   410625.75 6163.60   1-0.41414 0.19868 0.35693-0.87939 0.83730-0.43265
  -7   6   4 9789.65 1977.87   1-0.15890-0.18597 0.85830-0.41029-0.48792 0.89278
  -6  -1  -412557.82 6536.69   1 0.11710-0.67956 0.50456-0.57950-0.85539 0.44984
  -1   7  -410500.79 2919.11   1 0.99521-0.77924-0.02074 0.54442-0.09551-0.31043
   1  -7   3 3715.33 1842.33   1-0.39698 0.18152 0.27801-0.80047 0.87470-0.57121
  -7   6   3 3425.14 1726.69   1-0.09721-0.24762 0.79274-0.34478-0.60175 0.90543
  -7   6   3 2518.45 1910.95   1-0.60287 0.25688 0.44564 0.00381-0.66177 0.96643
  -6  -1  -3 3183.96 2031.83   1 0.02706-0.58952 0.51317-0.58811-0.85785 0.55369
  -1   7  -3 3215.80 1843.88   1 0.99752-0.78156-0.04690 0.57059-0.05230-0.25215
   1  -7   222169.60 7856.21   1-0.36696 0.15150 0.16128-0.68374 0.91614-0.71381
  -7   6   220971.85 3350.40   1-0.02698-0.31785 0.70291-0.25495-0.71076 0.91321
  -7   6   214070.85 4915.87   1-0.33571-0.01027 0.50475-0.05529-0.79531 0.99841
  -6  -1  -218850.14 7033.71   1-0.08494-0.47751 0.51800-0.59294-0.85114 0.64837
  -1   7  -222884.66 4601.84   1 0.99742-0.78145-0.07060 0.59429-0.01287-0.19010
  -7   6   1 7863.27 2524.02   1 0.04856-0.39340 0.58798-0.14002-0.80741 0.90863
  -6  -1  -1 5549.14 2781.12   1-0.21447-0.34799 0.51537-0.59031-0.82969 0.72830
  -7   6   1 7854.77 4990.83   1-0.05787-0.28825 0.51743-0.06779-0.85376 0.95515
  -1   7  -1 8281.32 2706.97   1 0.99569-0.77972-0.09046 0.61414 0.02036-0.12185
  -6  -1   017616.42 1585.26   1-0.40400-0.15667 0.89082-0.96552 0.20788-0.20788
  -7   6   024087.48 3384.70   1 0.12497-0.46982 0.45292-0.00495-0.88274 0.88274
  -1   7   028145.92 3459.84   1 0.23956-0.02403 0.20696 0.31566-0.94856 0.94856
  -6  -1   027669.25 9954.84   1-0.35305-0.20918 0.50246-0.57737-0.78922 0.78922
  -7   6   018879.35 6724.98   1 0.17935-0.52548 0.49611-0.04647-0.84953 0.84953
  -1   7   024852.63 3479.08   1 0.99374-0.77777-0.10343 0.62712 0.04220-0.04220
  -6  -1   1 4751.15 1874.21   1-0.38965-0.17101 0.90964-0.98434 0.14394-0.04273
  -1   7   1 5657.76 1961.87   1 0.13562 0.07990 0.43235 0.09027-0.89144 0.99270
  -7   6  -1 4410.03 1580.01   1 0.19555-0.54040 0.30825 0.13971-0.93098 0.82972
  -6  -1   1 6711.24 3253.92   1-0.49055-0.07167 0.47722-0.55213-0.72911 0.83066
  -7   6  -1 5494.29 1779.99   1 0.35709-0.70296 0.46055-0.01126-0.81263 0.71114
  -1   7   1 4730.10 1225.20   1 0.99412-0.77815-0.10121 0.62489 0.03845 0.06303
  -6  -1   214734.55 2394.85   1-0.39018-0.17048 0.90905-0.98375 0.14619 0.05622
  -1   7   218814.18 2673.32   1 0.01836 0.19716 0.63618-0.11356-0.77131 0.97377
  -7   6  -220602.76 3349.26   1 0.25520-0.60005 0.16851 0.27944-0.95208 0.74956
  -6  -1   215611.27 7967.29   1-0.61702 0.05478 0.44082-0.51572-0.65189 0.85499
  -7   6  -217763.85 3579.06   1 0.47838-0.82424 0.42460 0.02468-0.76867 0.56568
  -6  -1   3 3042.05 1881.12   1-0.39570-0.16496 0.90250-0.97720 0.17000 0.13362
  -1   7   3 2857.86 1345.38   1-0.09200 0.30753 0.78666-0.26404-0.61048 0.91416
  -7   6  -3 1669.11  967.92   1 0.30144-0.64628 0.04592 0.40204-0.95237 0.64859
  -6  -1   3 3451.19 1374.18   1-0.72576 0.16382 0.39530-0.47017-0.56302 0.86723
  -7   6  -3 4198.51 2284.16   1 0.55740-0.90326 0.39522 0.05406-0.73013 0.42565
   7  -6   410239.32 2555.84   1-0.33459 0.67932 0.05317-0.50099 0.94086-0.53620
  -6  -1   4 8583.16 5277.80   1-0.40314-0.15752 0.89214-0.96684 0.20384 0.20099
  -1   7   4 9418.78 1747.64   1-0.18258 0.39813 0.87903-0.35635-0.44041 0.84528
  -6  -1   4 9657.87 4305.75   1-0.81485 0.25291 0.34421-0.41908-0.46639 0.87201
  -7   6  -4 9827.14 2868.40   1 0.60650-0.95236 0.37417 0.07511-0.70153 0.29556
   7  -6   5 2099.03 1586.32   1-0.35735 0.70208 0.12766-0.57548 0.92520-0.41938
  -6  -1   5 1639.28 1525.89   1-0.41120-0.14946 0.87849-0.95319 0.24322 0.26282
  -1   7   5 1454.93  975.74   1-0.25416 0.46971 0.92597-0.40329-0.27923 0.78531
  -6  -1   5 1667.77 1546.34   1-0.88410 0.32215 0.28970-0.36457-0.36665 0.87367
  -7   6  -5 1211.73 2001.62   1 0.63458-0.98044 0.36103 0.08825-0.68334 0.17588
   7  -6   6 5083.68 3593.05   1-0.37209 0.71682 0.17985-0.62767 0.91060-0.30362
  -6  -1   6 4058.10 2804.26   1-0.41920-0.14146 0.86166-0.93636 0.28600 0.32125
  -1   7   6 2502.95 1353.45   1-0.30864 0.52418 0.94167-0.41900-0.13409 0.74139
  -6  -1   6 5207.96 3665.76   1-0.93508 0.37314 0.23356-0.30843-0.26658 0.87500
  -7   6  -6 2728.45 2430.64   1 0.64749-0.99335 0.35469 0.09459-0.67449 0.06553
   7  -6   7  476.25 1100.91   1-0.38092 0.72565 0.21302-0.66084 0.89973-0.19159
  -6  -1   7  988.11 1493.24   1-0.42675-0.13391 0.84160-0.91630 0.33103 0.37743
  -7   6  -7  274.31 1566.73   1 0.64890-0.99476 0.35399 0.09529-0.67350-0.03693
   6   1  -7   17.79 1582.03   1 0.97000-0.40849-0.17663 0.25144 0.16702-0.87744
   2  -7   7 1298.97 2541.69   1-0.42719 0.29791 0.42804-0.95050 0.79641-0.08827
  -7   5   7 2143.81 1484.99   1-0.31655-0.07143 0.94207-0.56873-0.11089 0.81941
  -5  -2  -7 2144.01 1675.23   1 0.24191-0.76111 0.48549-0.63537-0.84010 0.13039
  -2   7  -7 2241.48 2490.49   1 0.94547-0.81581 0.10982 0.41418-0.30661-0.40360
   2  -7   618136.2810429.52   1-0.42445 0.29518 0.41196-0.93441 0.80630-0.19932
  -7   5   616881.01 3175.32   1-0.28038-0.10760 0.93612-0.56278-0.21227 0.81957
  -5  -2  -613555.89 7591.23   1 0.21095-0.73015 0.49101-0.64089-0.84522 0.23689
  -2   7  -618790.53 4589.02   1 0.96013-0.83047 0.08452 0.43948-0.26646-0.34229
   2  -7   5 8155.10 7031.95   1-0.41864 0.28937 0.38004-0.90250 0.82480-0.31898
  -7   5   5 8095.22 2105.00   1-0.23750-0.15048 0.91738-0.54404-0.31936 0.82545
  -7   5   5 6316.68 4006.78   1-0.89272 0.50368 0.28149 0.09286-0.35186 0.85888
  -5  -2  -5 7511.89 3628.10   1 0.15892-0.67812 0.49911-0.64899-0.85183 0.34490
  -2   7  -5 8553.93 3095.78   1 0.97147-0.84190 0.06141 0.46227-0.22903-0.27840
   2  -7   4 1472.36 1296.65   1-0.40798 0.27871 0.32718-0.84963 0.85234-0.44769
  -7   5   4 1582.60 1472.77   1-0.18663-0.20134 0.88234-0.50900-0.43201 0.83688
  -7   5   4 1008.31 1268.17   1-0.76915 0.38011 0.37244 0.00191-0.51932 0.92493
  -5  -2  -4 1080.31 1195.04   1 0.08316-0.60236 0.50830-0.65818-0.85715 0.45160
  -2   7  -4 1861.61 2661.24   1 0.97975-0.85017 0.04087 0.48280-0.19596-0.20998
   2  -7   323731.6310797.02   1-0.38940 0.26013 0.24650-0.76896 0.88746-0.58397
  -7   5   322458.17 3271.19   1-0.12736-0.26058 0.82603-0.45273-0.54903 0.85271
  -7   5   317685.20 4249.93   1-0.58666 0.19742 0.45091-0.07636-0.67267 0.97733
  -5  -2  -322833.68 8905.60   1-0.01749-0.50170 0.51587-0.66575-0.85648 0.55232
  -2   7  -325917.63 4533.50   1 0.98530-0.85572 0.02427 0.49940-0.16908-0.13537
   2  -7   252909.75 7935.49   1-0.35811 0.22883 0.13025-0.65270 0.92454-0.72222
  -7   5   277615.50 7916.90   1-0.05763-0.33031 0.74416-0.37086-0.66550 0.86795
  -7   5   265881.76 9840.63   1-0.35596-0.03327 0.50206-0.12752-0.78817 0.99127
  -5  -2  -267732.32 8049.52   1-0.14083-0.37836 0.51797-0.66785-0.84372 0.64094
  -2   7  -262699.59 6721.01   1 0.98828-0.85870 0.01376 0.50992-0.15198-0.05098
  -7   5   136464.25 3956.40   1 0.02040-0.40835 0.63301-0.25971-0.77386 0.87509
  -2   7  -121989.16 2447.45   1 0.30822-0.17891 0.02660 0.49602-0.95094 0.84967
  -5  -2  -127412.61 3476.25   1-0.27946-0.23952 0.51089-0.66071-0.81294 0.71139
  -7   5   130136.76 4987.29   1-0.11036-0.27903 0.51819-0.14349-0.84811 0.94949
  -2   7  -130087.51 3488.66   1 0.98829-0.85871 0.01372 0.50996-0.15192 0.05043
  -7   5   0 2040.37 1093.58   1 0.10232-0.49026 0.49457-0.12126-0.86309 0.86309
   5   2   0 1546.24  340.82   1 0.18388 0.33338 0.33359-0.18427-0.92460 0.92460
  -2   7   0 2178.78 1308.00   1 0.23441-0.10509 0.21931 0.30331-0.94707 0.94707
  -5  -2   0 3321.85 1593.00   1-0.42294-0.09604 0.49128-0.64110-0.76141 0.76141
  -7   5   0 4503.32 2628.80   1 0.11120-0.50060 0.50525-0.13055-0.85577 0.85577
  -2   7   0 2027.44  769.16   1 0.98186-0.85228 0.03492 0.48875-0.18634 0.18634
  -5  -2   132341.61 2890.86   1-0.43848-0.07906 0.79609-0.94549 0.41709-0.31588
  -2   7   136349.14 3989.62   1 0.13888-0.00956 0.42597 0.09665-0.89400 0.99527
  -7   5  -128530.76 3038.96   1 0.18101-0.56896 0.33973 0.03356-0.92293 0.82167
  -5  -2   124793.27 5360.61   1-0.55877 0.03978 0.45939-0.60920-0.69045 0.79201
  -7   5  -126547.58 3503.88   1 0.28757-0.67666 0.47682-0.10242-0.83062 0.72913
  -2   7   124199.33 2058.20   1 0.94132-0.81166 0.11629 0.40771-0.31684 0.41830
  -5  -2   260248.80 7716.14   1-0.42825-0.08928 0.83695-0.98635 0.34074-0.13832
  -2   7   2101875.3 7722.87   1 0.03250 0.09680 0.61398-0.09136-0.78864 0.99110
  -7   5  -2100765.7 7858.95   1 0.24836-0.63631 0.18549 0.18781-0.95073 0.74821
  -5  -2   252918.70 8178.03   1-0.67809 0.15911 0.41742-0.56724-0.60492 0.80803
  -7   5  -259868.16 6806.58   1 0.41454-0.80364 0.44479-0.07038-0.79392 0.59093
  -5  -2   325982.13 3751.27   1-0.42519-0.09234 0.84616-0.99557 0.32126-0.01763
  -2   7   322999.65 3100.10   1-0.06919 0.19851 0.75891-0.23628-0.64750 0.95118
  -7   5  -318305.23 2776.43   1 0.30039-0.68834 0.04885 0.32444-0.95256 0.64877
  -5  -2   317980.02 4019.81   1-0.77642 0.25770 0.36826-0.51800-0.51142 0.81563
  -7   5  -320790.39 3758.80   1 0.50084-0.88993 0.41677-0.04236-0.75858 0.45411
   7  -5   4 1355.40 1347.96   1-0.33706 0.72488 0.06094-0.43412 0.93950-0.53485
  -5  -2   4 1260.70 1350.69   1-0.42615-0.09138 0.84338-0.99278 0.32725 0.07758
  -2   7   4  661.99  581.77   1-0.15575 0.28508 0.85537-0.33269-0.49404 0.89891
  -5  -2   4 2125.85 1382.52   1-0.85404 0.33532 0.31554-0.46528-0.41357 0.81918
  -7   5  -4 1248.61 1399.48   1 0.55650-0.94559 0.39559-0.02118-0.73062 0.32465
   7  -5   5 8875.99 4490.11   1-0.36157 0.74939 0.14224-0.51542 0.92142-0.41561
  -5  -2   511281.41 5820.08   1-0.42919-0.08834 0.83390-0.98330 0.34697 0.15907
  -2   7   5 8923.51 2843.43   1-0.22708 0.35640 0.91124-0.38856-0.34361 0.84969
  -5  -2   5 8997.50 7720.03   1-0.91235 0.39364 0.26107-0.41082-0.31533 0.82235
  -7   5  -5 7956.68 3340.31   1 0.58980-0.97889 0.38159-0.00719-0.71170 0.20423
   7  -5   615858.26 6998.30   1-0.37699 0.76482 0.19809-0.57127 0.90478-0.29780
  -5  -2   616663.65 6113.65   1-0.43320-0.08434 0.81958-0.96898 0.37498 0.23227
  -2   7   614469.92 2744.09   1-0.28358 0.41291 0.93705-0.41437-0.20374 0.81104
  -7   5  -616457.29 4209.52   1 0.60661-0.99571 0.37412 0.00028-0.70146 0.09250
   5   2  -615656.92 4225.61   1 0.95396-0.43565-0.20600 0.35562 0.21795-0.82688
   7  -5   7 2887.32 2765.03   1-0.38597 0.77380 0.23277-0.60595 0.89265-0.18451
  -5  -2   7 2690.76 2594.37   1-0.43746-0.08007 0.80114-0.95054 0.40839 0.30007
  -7   5  -7 1788.64 2300.42   1 0.61083-0.99992 0.37220 0.00220-0.69881-0.01162
   5   2  -7 2090.46 2092.29   1 0.98071-0.46240-0.15136 0.30099 0.12360-0.83401
   3  -7   7 2641.97 2149.43   1-0.42176 0.37867 0.39685-0.91931 0.81524-0.10710
  -7   4   7 1269.83 1273.91   1-0.33552-0.09576 0.94057-0.64176-0.05242 0.76089
  -3   7  -7 1699.83 1516.82   1 0.91210-0.86888 0.15604 0.36796-0.37910-0.33111
   3  -7   611249.14 7971.19   1-0.41831 0.37521 0.37828-0.90074 0.82578-0.21880
  -7   4   612702.14 2793.82   1-0.30367-0.12741 0.94115-0.64248-0.14832 0.75563
  -4  -3  -611202.98 5731.93   1 0.17223-0.64816 0.49718-0.72200-0.85037 0.24205
  -3   7  -615714.72 4112.93   1 0.92742-0.88421 0.13629 0.38771-0.34827-0.26048
   3  -7   5 4164.89 2871.93   1-0.41139 0.36830 0.34345-0.86590 0.84426-0.33845
  -7   4   5 2761.54 1460.49   1-0.26553-0.16556 0.93091-0.63223-0.25079 0.75687
  -7   4   5 3228.88 2205.74   1-0.86758 0.43532 0.30438-0.00490-0.39324 0.90026
  -4  -3  -5 4891.97 3256.12   1 0.11179-0.58773 0.50518-0.73000-0.85573 0.34880
  -3   7  -5 3891.41 2526.62   1 0.93900-0.89578 0.11980 0.40420-0.32237-0.18492
   3  -7   4 4184.85 2266.34   1-0.39918 0.35609 0.28752-0.80998 0.87061-0.46596
  -7   4   4 4298.29 1706.92   1-0.21965-0.21144 0.90652-0.60784-0.36051 0.76538
  -7   4   4 4022.05 2398.46   1-0.75058 0.31831 0.38263-0.08315-0.53871 0.94432
  -4  -3  -4 4335.75 1961.07   1 0.02462-0.50055 0.51334-0.73816-0.85782 0.45228
  -3   7  -4 5804.38 2984.83   1 0.94672-0.90350 0.10783 0.41617-0.30346-0.10237
   3  -7   3 8991.41 4921.32   1-0.37867 0.33558 0.20443-0.72688 0.90266-0.59918
  -7   4   3 8310.62 2092.09   1-0.16423-0.26686 0.86317-0.56449-0.47745 0.78110
  -7   4   3 8185.30 3170.09   1-0.58838 0.15589 0.45036-0.15073-0.67154 0.97620
  -4  -3  -3 7676.94 3855.81   1-0.08933-0.38659 0.51806-0.74288-0.85066 0.54650
  -3   7  -3 7976.41 2868.43   1 0.94998-0.90676 0.10248 0.42152-0.29499-0.00938
   3  -7   256154.27 6018.05   1-0.34552 0.30243 0.08811-0.61057 0.93426-0.73193
  -7   4   263750.36 5484.04   1-0.09825-0.33279 0.79394-0.49530-0.59999 0.80244
  -7   4   257694.58 6290.83   1-0.38765-0.04483 0.49733-0.19770-0.77613 0.97923
  -4  -3  -253425.48 8548.08   1-0.22495-0.25097 0.51476-0.73958-0.82729 0.62451
  -3   7  -265473.50 6321.46   1 0.94686-0.90364 0.10760 0.41640-0.30310 0.10018
  -7   4   1 9895.31 1781.91   1-0.01995-0.41109 0.69302-0.39437-0.72064 0.82186
  -3   7  -1 9571.19 2104.43   1 0.29501-0.25191 0.06385 0.45877-0.95335 0.85209
  -4  -3  -1 9229.20 5292.02   1-0.37087-0.10486 0.49992-0.72465-0.78264 0.68109
  -7   4   113058.00 6207.11   1-0.17019-0.26246 0.51729-0.21753-0.83871 0.94010
  -3   7  -1 9528.04 2616.60   1 0.93128-0.88806 0.13097 0.39303-0.33993 0.23847
   4   3   0 4549.71  540.51   1-0.06751 0.54166 0.75679-0.53281-0.65016 0.65016
  -7   4   0 5133.64 1413.99   1 0.06698-0.49803 0.55708-0.25844-0.82774 0.82774
  -3   7   0 7022.03 1665.93   1 0.22367-0.18056 0.24464 0.27798-0.94346 0.94346
  -4  -3   0 6366.97 2369.46   1-0.51372 0.03798 0.47160-0.69633-0.71671 0.71671
  -7   4   0 6277.17 2537.36   1 0.03495-0.46762 0.51258-0.21282-0.85792 0.85792
  -3   7   0 5725.01 1264.14   1 0.88071-0.83749 0.19114 0.33286-0.43336 0.43336
  -4  -3   112303.95 3493.52   1-0.44747-0.02676 0.60710-0.83112 0.65665-0.55544
  -3   7   110272.75 2054.17   1 0.13459-0.09148 0.43436 0.08826-0.89062 0.99188
  -7   4  -110259.67 2043.52   1 0.15491-0.58597 0.39399-0.09535-0.90596 0.80469
  -4  -3   110713.72 4141.25   1-0.64124 0.16550 0.43206-0.65679-0.63413 0.73568
  -3   7   1 4982.83 1543.69   1-0.58092 0.62417 0.45271 0.07164-0.67644 0.77799
  -7   4  -1 9398.79 3916.87   1 0.20682-0.63948 0.49171-0.19195-0.84583 0.74445
  -3   7   1 8281.88  892.27   1 0.66081-0.61758 0.34795 0.17621-0.66501 0.76650
  -4  -3   261685.17 5924.75   1-0.44755-0.02667 0.72056-0.94458 0.52960-0.32719
  -3   7   2101540.2 8787.24   1 0.03698 0.00612 0.60682-0.08420-0.79397 0.99642
  -7   4  -271944.83 6072.43   1 0.23279-0.66385 0.22317 0.07546-0.94657 0.74404
  -4  -3   260232.74 6791.40   1-0.74700 0.27151 0.38452-0.60914-0.54232 0.74513
  -7   4  -254742.61 4981.41   1 0.33869-0.77102 0.46514-0.16562-0.81787 0.61489
  -4  -3   3 8249.36 3267.37   1-0.44384-0.03038 0.76104-0.98506 0.47307-0.16946
  -3   7   3 9537.41 2253.91   1-0.05697 0.10007 0.74331-0.22068-0.66651 0.97019
  -7   4  -3 8124.13 1951.50   1 0.29337-0.72443 0.06840 0.23024-0.95354 0.64976
  -4  -3   3 9140.39 5889.91   1-0.83076 0.35527 0.33315-0.55776-0.44590 0.75011
  -7   4  -3 9213.44 2765.60   1 0.43201-0.86433 0.43955-0.14003-0.78749 0.48302
   7  -4   4 4619.14 2164.01   1-0.33546 0.76638 0.05591-0.35445 0.94039-0.53573
  -4  -3   4 4594.10 2738.77   1-0.44204-0.03219 0.77431-0.99832 0.45281-0.04799
  -3   7   4 3504.15 1474.76   1-0.13883 0.18194 0.83895-0.31628-0.52618 0.93105
  -4  -3   4 5153.16 2977.48   1-0.89413 0.41864 0.28010-0.50471-0.34936 0.75498
  -7   4  -4 4270.46 2075.99   1 0.49471-0.92703 0.41894-0.11942-0.76140 0.35543
   7  -4   5 3721.39 2323.50   1-0.36283 0.79375 0.14666-0.44520 0.92023-0.41442
  -4  -3   5 2238.18 2135.90   1-0.44208-0.03215 0.77406-0.99808 0.45319 0.05283
  -3   7   5 3213.40 1708.29   1-0.20830 0.25141 0.89878-0.37611-0.38572 0.89181
  -4  -3   5 4039.69 2425.33   1-0.93999 0.46450 0.22687-0.45148-0.25481 0.76183
  -7   4  -5 2987.10 2020.51   1 0.53398-0.96631 0.40447-0.10495-0.74246 0.23500
   7  -4   6 9610.02 8115.87   1-0.37955 0.81047 0.20778-0.50633 0.90153-0.29455
  -4  -3   613471.03 9653.22   1-0.44327-0.03096 0.76552-0.98954 0.46634 0.14088
  -3   7   611617.62 2206.82   1-0.26501 0.30812 0.93070-0.40802-0.25209 0.85940
  -7   4  -615478.35 3732.24   1 0.55547-0.98780 0.39600-0.09648-0.73118 0.12222
   4   3  -616270.69 4401.19   1 0.97124-0.49612-0.17401 0.39844 0.16250-0.77142
   7  -4   7 1484.41 2004.82   1-0.38901 0.81992 0.24490-0.54345 0.88808-0.17994
  -4  -3   7 1182.13 1634.65   1-0.44501-0.02922 0.75092-0.97494 0.48792 0.22051
  -3   7   7  801.18  993.58   1-0.31090 0.35401 0.94184-0.41917-0.12752 0.83604
  -7   4  -7  989.71 1635.30   1 0.56317-0.99549 0.39287-0.09334-0.72697 0.01652
   4   3  -7 1401.12 2043.29   1 0.98976-0.51464-0.12214 0.34657 0.07382-0.78423
   4  -7   7  658.86 1383.94   1-0.41424 0.45733 0.35744-0.87990 0.83703-0.12889
  -7   3   7 1354.07 1121.13   1-0.35572-0.11869 0.93447-0.71037 0.01472 0.69374
  -4   7  -7 2381.08 2888.15   1 0.86828-0.91150 0.20356 0.32044-0.45238-0.25783
   7  -3  -7 1417.97 1617.05   1 0.97324-0.49812-0.16963-0.05480 0.15495-0.86536
   4  -7   614497.37 8844.38   1-0.40982 0.45291 0.33587-0.85833 0.84807-0.24109
  -7   3   611595.18 2635.01   1-0.32868-0.14573 0.94154-0.71743-0.07394 0.68120
  -7   3   610258.78 8878.55   1-0.92773 0.45224 0.24301-0.01840-0.28327 0.89170
  -4   7  -618001.19 4835.39   1 0.88225-0.92547 0.18955 0.33445-0.43091-0.17784
   4  -7   5 3865.98 3168.40   1-0.40148 0.44457 0.29760-0.82005 0.86616-0.36034
  -7   3   5 3576.66 1859.88   1-0.29634-0.17786 0.94001-0.71601-0.16896 0.67504
  -7   3   5 3084.34 2296.71   1-0.85358 0.37809 0.31590-0.09129-0.41423 0.92125
  -3  -4  -5 3049.69 1469.19   1 0.03278-0.46545 0.51274-0.81250-0.85791 0.35097
  -4   7  -5 4248.22 2264.11   1 0.89130-0.93452 0.17996 0.34404-0.41616-0.09113
   4  -7   4 4438.07 2580.89   1-0.38733 0.43042 0.23816-0.76062 0.89064-0.48599
  -7   3   4 3592.81 1271.41   1-0.25706-0.21713 0.92731-0.70330-0.27204 0.67691
  -7   3   4 4235.62 2935.35   1-0.74562 0.27013 0.38525-0.16064-0.54371 0.94932
  -3  -4  -4 4822.83 3006.58   1-0.06967-0.36298 0.51773-0.81749-0.85270 0.44715
  -4   7  -4 4152.69 2444.73   1 0.89445-0.93767 0.17652 0.34748-0.41084 0.00500
   4  -7   3 8686.92 5502.01   1-0.36447 0.40756 0.15242-0.67487 0.91865-0.61516
  -7   3   3 7217.02 3506.54   1-0.20880-0.26540 0.89913-0.67513-0.38464 0.68829
  -7   3   3 8342.04 5659.33   1-0.60202 0.12628 0.44592-0.22119-0.66235 0.96701
  -3  -4  -3 8984.70 3642.75   1-0.19907-0.23358 0.51616-0.81592-0.83303 0.52887
  -4   7  -3 9610.61 3052.23   1 0.88942-0.93264 0.18199 0.34201-0.41929 0.11490
   4  -7   264375.61 6087.72   1-0.32909 0.37218 0.03609-0.55855 0.94360-0.74128
  -7   3   252854.97 4436.57   1-0.14883-0.32536 0.84880-0.62479-0.50733 0.70976
  -7   3   260721.68 6972.64   1-0.42690-0.04883 0.49055-0.26582-0.75967 0.96278
  -3  -4  -268026.29 7189.14   1-0.34459-0.08789 0.50360-0.80324-0.79223 0.58912
  -4   7  -272159.28 6839.17   1 0.87075-0.91397 0.20114 0.32286-0.44868 0.24576
  -7   3   1 9497.08 1618.23   1-0.07507-0.39908 0.76623-0.54225-0.63816 0.73938
  -4   7  -123691.36 5453.91   1 0.27761-0.32072 0.11090 0.41172-0.95426 0.85300
  -3  -4  -1 9474.82 4477.91   1-0.49136 0.05887 0.47703-0.77667-0.72869 0.62714
  -7   3   1 8417.27 2917.06   1-0.23482-0.24091 0.51445-0.28972-0.82474 0.92629
  -4   7  -1 8671.20 2014.49   1 0.82434-0.86756 0.24256 0.28144-0.51148 0.41002
   3   4   0 2592.50 1313.29   1-0.33292 0.76402 0.94099-0.64232-0.06076 0.06076
  -7   3   0 5206.63 1394.73   1 0.01383-0.48798 0.64315-0.41917-0.76560 0.76560
  -4   7   0 5399.97 1585.30   1 0.20813-0.25124 0.28025 0.24237-0.93708 0.93708
  -3  -4   0 6060.89 3312.07   1-0.62379 0.19130 0.43843-0.73807-0.64703 0.64703
  -7   3   0 8054.20 3610.86   1-0.04680-0.42912 0.51709-0.29227-0.85464 0.85464
  -4   7   0 5445.17 1200.76   1 0.70796-0.75119 0.32225 0.20190-0.62843 0.62843
  -3  -4   111482.53 2680.45   1-0.42380-0.00710 0.40828-0.70682 0.80851-0.70734
  -7   3  -111406.50 2211.43   1 0.11131-0.58547 0.47868-0.25470-0.87090 0.76963
  -4   7   110886.76 2301.14   1 0.12435-0.16746 0.45409 0.06853-0.88223 0.98349
  -4   7   1 6926.42 1845.43   1-0.91493 0.87170 0.25819 0.26589-0.31020 0.41160
  -3  -4   111075.92 4556.54   1-0.73339 0.30112 0.39152-0.69100-0.55573 0.65714
  -7   3  -111742.62 7732.25   1 0.11859-0.59452 0.50438-0.27956-0.85529 0.75390
  -4   7   1 9555.44 1057.94   1 0.35731-0.40054 0.46049 0.06367-0.81256 0.91406
  -3  -4   270658.89 5908.91   1-0.44554 0.01442 0.57757-0.87626 0.68403-0.48161
  -4   7   2107894.8 9682.45   1 0.03413-0.07724 0.61138-0.08875-0.79059 0.99305
  -7   3  -255204.44 4413.67   1 0.20344-0.67760 0.29078-0.06680-0.93490 0.73238
  -3  -4   257890.78 5749.25   1-0.81965 0.38738 0.34095-0.64043-0.46034 0.66315
  -7   3  -267601.76 6549.40   1 0.25140-0.72733 0.48368-0.25886-0.83835 0.63558
  -3  -4   3 8339.77 4436.82   1-0.44905 0.01793 0.65313-0.95182 0.60972-0.30610
  -4   7   310913.43 2965.07   1-0.05283 0.00973 0.73791-0.21529-0.67281 0.97650
  -7   3  -3 9980.10 2060.48   1 0.27710-0.75126 0.11226 0.11172-0.95425 0.65047
  -3  -4   3 8884.38 5123.53   1-0.88465 0.45239 0.28918-0.58866-0.36572 0.66993
  -7   3  -3 7892.06 2321.95   1 0.35130-0.82686 0.46202-0.23737-0.81432 0.50984
   7  -3   4 4624.11 1830.92   1-0.32796 0.80197 0.03262-0.25653 0.94412-0.53947
  -3  -4   4 4742.26 2057.63   1-0.44893 0.01781 0.68722-0.98591 0.57112-0.16630
  -4   7   4 3756.21 1383.80   1-0.12978 0.08667 0.82972-0.30705-0.54287 0.94773
  -3  -4   4 5800.86 2433.58   1-0.93191 0.49964 0.23772-0.53720-0.27391 0.67953
  -7   3  -4 4200.15 2168.81   1 0.42089-0.89645 0.44291-0.21827-0.79162 0.38565
   7  -3   5 3301.55 2205.13   1-0.36011 0.83412 0.13718-0.36109 0.92276-0.41695
  -3  -4   5 2801.17 1750.75   1-0.44856 0.01744 0.69991-0.99860 0.55578-0.04976
  -4   7   5 2349.83 1218.67   1-0.19650 0.15339 0.89009-0.36741-0.41123 0.91731
  -7   3  -5 3300.88 1806.39   1 0.46651-0.94207 0.42858-0.20393-0.77374 0.26628
   3   4  -5 4390.99 2016.44   1 0.96475-0.53282-0.18707 0.48632 0.18508-0.69252
   7  -3   6 9872.00 4573.68   1-0.37915 0.85316 0.20625-0.43016 0.90205-0.29507
  -3  -4   614586.44 9357.62   1-0.44857 0.01744 0.69983-0.99852 0.55588 0.05134
  -4   7   612855.31 2691.42   1-0.25223 0.20912 0.92506-0.40238-0.28396 0.89126
  -7   3  -6 9699.39 2368.28   1 0.49325-0.96881 0.41946-0.19481-0.76207 0.15311
   3   4  -615884.61 4264.20   1 0.98540-0.55347-0.13763 0.43688 0.10015-0.70908
  -3  -4   7 1202.49 1198.88   1-0.44884 0.01772 0.69103-0.98972 0.56657 0.14186
  -4   7   7 1423.86 1515.35   1-0.29830 0.25519 0.94036-0.41768-0.16349 0.87201
   3   4  -7 1971.97 3090.08   1 0.99584-0.56391-0.08925 0.38849 0.01833-0.72874
   5  -7   7 2228.32 1688.76   1-0.40414 0.53342 0.30951-0.83196 0.86073-0.15259
  -7   2   7 2891.87 2855.25   1-0.37621-0.14133 0.92217-0.77277 0.08972 0.61874
  -5   7  -7 2250.90 1945.00   1 0.81406-0.94372 0.25079 0.27321-0.52382-0.18639
   7  -2  -7 3028.80 2114.30   1 0.96525-0.44694-0.18611 0.03648 0.18340-0.89381
   5  -7   614846.20 7628.14   1-0.39850 0.52777 0.28455-0.80700 0.87190-0.26493
  -7   2   616892.00 5182.09   1-0.35447-0.16306 0.93500-0.78560 0.01040 0.59685
  -7   2   613996.93 8047.34   1-0.91891 0.40019 0.25363-0.10389-0.30209 0.91052
  -5   7  -617906.28 4249.41   1 0.82480-0.95446 0.24218 0.28182-0.51091-0.09784
   5  -7   5 7805.76 4593.63   1-0.38841 0.51769 0.24250-0.76495 0.88900-0.38318
  -7   2   5 7221.95 1787.61   1-0.32857-0.18896 0.94155-0.79214-0.07428 0.58033
  -7   2   5 7940.33 5974.78   1-0.84848 0.32976 0.31991-0.17017-0.42157 0.92859
  -5   7  -5 9880.62 3355.22   1 0.82882-0.95848 0.23888 0.28512-0.50594-0.00135
   5  -7   4 1115.65 1280.70   1-0.37197 0.50124 0.17941-0.70187 0.91073-0.50608
  -7   2   4  745.34  856.03   1-0.29732-0.21998 0.94019-0.79085-0.16622 0.57109
  -7   2   4 1789.19 1299.22   1-0.75044 0.23172 0.38271-0.23297-0.53885 0.94447
  -2  -5  -4  821.23  565.98   1-0.21875-0.17064 0.51513-0.88983-0.82872 0.42317
  -5   7  -4 2586.94 2188.89   1 0.82411-0.95376 0.24275 0.28125-0.51177 0.10593
   5  -7   323074.96 9431.14   1-0.34647 0.47574 0.09122-0.61368 0.93361-0.63012
  -7   2   319198.79 2655.14   1-0.25871-0.25860 0.92804-0.77870-0.26795 0.57161
  -7   2   318026.84 3678.39   1-0.62379 0.10481 0.43843-0.28861-0.64703 0.95169
  -2  -5  -330086.79 4156.49   1-0.36102-0.02821 0.50135-0.87590-0.78632 0.48166
  -5   7  -321963.41 3786.90   1 0.80652-0.93618 0.25665 0.26735-0.53257 0.22819
  -7   2   257746.18 5674.65   1-0.20976-0.30755 0.89981-0.75047-0.38253 0.58497
   2   5   256271.91 4940.71   1-0.17454 0.56253 0.87225-0.49891-0.45683 0.65927
  -5   7  -240459.86 4374.67   1 0.30893-0.43825 0.02456 0.49806-0.95076 0.74823
  -2  -5  -264975.03 7207.46   1-0.50734 0.11810 0.47319-0.84774-0.72019 0.51709
  -7   2   257523.45 8617.35   1-0.47104-0.04794 0.48163-0.33181-0.73901 0.94212
  -7   2   126121.49 2517.33   1-0.14612-0.37119 0.84616-0.69683-0.51249 0.61371
   2   5   127677.56 2269.43   1 0.06728 0.32066 0.55658-0.18328-0.82806 0.92929
  -5   7  -140785.84 4710.17   1 0.25620-0.38552 0.16601 0.35661-0.95225 0.85099
  -2  -5  -127663.84 3539.53   1-0.63877 0.24953 0.43298-0.80753-0.63599 0.53443
  -7   2   129778.46 6495.45   1-0.30198-0.21700 0.50866-0.35884-0.80626 0.90781
  -5   7  -128284.04 3230.91   1 0.68812-0.81781 0.33344 0.19072-0.64444 0.54295
  -7   2   0 2509.72  965.38   1-0.06327-0.45399 0.75141-0.60209-0.65679 0.65679
  -5   7   0 2315.94 1170.22   1 0.18837-0.31769 0.32392 0.19870-0.92713 0.92713
   2   5   0 2297.27  746.57   1 0.28448 0.10346 0.09259 0.28071-0.95419 0.95419
  -2  -5   0 3112.44 1819.38   1-0.74543 0.35639 0.38535-0.75970-0.54390 0.54390
  -7   2   0 3917.05 2178.35   1-0.13167-0.38752 0.51809-0.36821-0.84512 0.84512
  -5   7   0 2224.99  916.07   1 0.52478-0.65448 0.40798 0.11618-0.74709 0.74709
  -2  -5   130507.75 4899.33   1-0.38850 0.00068 0.24288-0.61606 0.88885-0.78769
  -5   7   139074.26 4698.16   1 0.10924-0.23855 0.48253 0.04009-0.86903 0.97029
  -2  -5   128960.75 4980.93   1-0.82775 0.43871 0.33530-0.70965-0.44988 0.55128
  -7   2  -131243.4710743.30   1 0.02457-0.54377 0.51334-0.36346-0.85782 0.75644
  -5   7   128741.34 2980.83   1 0.17774-0.30754 0.49635 0.02822-0.84972 0.95111
  -2  -5   266770.77 7684.42   1-0.42786 0.04004 0.43209-0.80527 0.79386-0.59154
  -5   7   286342.50 6962.01   1 0.02550-0.15482 0.62505-0.10243-0.78016 0.98261
  -7   2  -267309.71 6252.77   1 0.15006-0.66733 0.40378-0.25445-0.90246 0.69993
  -2  -5   259271.31 8746.95   1-0.88886 0.49982 0.28521-0.65956-0.35856 0.56137
  -5   7   251953.69 4558.48   1-0.49696 0.36722 0.47571 0.04865-0.72575 0.92886
  -7   2  -262172.76 7155.93   1 0.15616-0.67536 0.49950-0.34962-0.85212 0.64934
  -2  -5   321982.03 4672.04   1-0.44153 0.05352 0.53365-0.90701 0.72129-0.41767
  -5   7   327962.01 3944.79   1-0.05509-0.07422 0.74086-0.21824-0.66938 0.97306
  -7   2  -331131.62 3752.35   1 0.24464-0.76191 0.19462-0.04530-0.94987 0.64609
  -2  -5   326241.71 4380.42   1-0.93304 0.54400 0.23624-0.61059-0.27131 0.57552
  -7   2  -325766.9510449.65   1 0.25912-0.77832 0.48218-0.33230-0.83686 0.53270
  -2  -5   4 1405.71 1209.27   1-0.44628 0.05827 0.58772-0.96109 0.67483-0.27001
  -5   7   4 1041.10  897.47   1-0.12809-0.00121 0.82680-0.30418-0.54770 0.95261
  -7   2  -4 1130.57 1592.74   1 0.33537-0.85416 0.46595-0.31619-0.81878 0.41281
   2   5  -4 1270.65 2209.16   1 0.96392-0.57518-0.18864 0.56270 0.18778-0.59373
  -2  -5   513096.98 5228.46   1-0.44784 0.05983 0.61448-0.98784 0.64949-0.14346
  -5   7   5 9124.99 2451.96   1-0.19058 0.06125 0.88549-0.36281-0.42375 0.92984
  -7   2  -5 7299.74 2115.95   1 0.38718-0.90597 0.45257-0.30280-0.80328 0.29582
   2   5  -5 9181.85 2898.01   1 0.98387-0.59513-0.14238 0.51645 0.10826-0.61570
  -2  -5   614849.68 7339.81   1-0.44827 0.06026 0.62428-0.99765 0.63977-0.03254
  -5   7   615009.33 2792.08   1-0.24455 0.11522 0.92121-0.39853-0.30258 0.90988
  -7   2  -614626.24 3161.29   1 0.41941-0.93820 0.44335-0.29359-0.79216 0.18321
   2   5  -618538.31 4735.77   1 0.99474-0.60601-0.09728 0.47134 0.03184-0.64076
  -2  -5   7 3397.88 2357.99   1-0.44820 0.06019 0.62257-0.99593 0.64148 0.06694
  -5   7   7 1342.87 1400.87   1-0.28995 0.16062 0.93868-0.41600-0.18654 0.89506
  -7   2  -7 2325.06 1808.71   1 0.43563-0.95442 0.43844-0.28868-0.78612 0.07567
   2   5  -7 2497.10 1957.53   1 0.99770-0.60896-0.05308 0.42714-0.04205-0.66835
   6  -7   7  447.34  949.08   1-0.39094 0.60640 0.25277-0.77523 0.88502-0.17688
  -7   1   7  144.81 1072.76   1-0.39604-0.16463 0.90207-0.82737 0.17149 0.53697
  -6   7  -7  171.70 1556.84   1 0.75029-0.96638 0.29623 0.22777-0.59102-0.11919
   7  -1  -7 1176.33 1984.65   1 0.96049-0.39898-0.19490 0.12008 0.19864-0.90905
   6  -7   6 3289.52 2312.63   1-0.38380 0.59925 0.22418-0.74664 0.89578-0.28881
  -7   1   6 4833.28 3436.89   1-0.37970-0.18096 0.91931-0.84460 0.10338 0.50387
  -7   1   6 3456.10 3088.99   1-0.91554 0.35360 0.25750-0.18263-0.30896 0.91739
  -6   7  -6 6600.38 3715.24   1 0.75639-0.97248 0.29225 0.23175-0.58520-0.02355
   6  -7   5 1705.78 1752.67   1-0.37166 0.58712 0.17828-0.70074 0.91108-0.40527
  -7   1   5 2085.35 1371.21   1-0.36062-0.20004 0.93216-0.85746 0.03197 0.47407
  -7   1   5 1979.36 1768.65   1-0.85029 0.28834 0.31850-0.24363-0.41899 0.92601
  -6   7  -5 1930.44 2008.53   1 0.75375-0.96985 0.29398 0.23003-0.58773 0.08043
   6  -7   4 9169.35 7459.59   1-0.35266 0.56812 0.11176-0.63422 0.92904-0.52439
  -7   1   4 9530.51 4647.54   1-0.33810-0.22256 0.94007-0.86537-0.04415 0.44899
  -7   1   411972.27 4608.77   1-0.76231 0.20036 0.37627-0.30140-0.52659 0.93220
  -6   7  -410077.91 2613.88   1 0.73946-0.95555 0.30313 0.22087-0.60108 0.19524
   6  -7   3 3099.56 1803.56   1-0.32439 0.53985 0.02175-0.54420 0.94567-0.64218
  -7   1   3 2329.78  881.02   1-0.31096-0.24946 0.94185-0.86718-0.12734 0.43099
   1   6   3 2234.42  808.45   1-0.19619 0.54107 0.88985-0.44184-0.41189 0.71554
  -7   1   3 3127.63 1562.71   1-0.65111 0.08887 0.42830-0.35339-0.62658 0.93124
  -1  -6  -3 2494.03 1484.22   1-0.59367 0.24768 0.44866-0.89812-0.66802 0.36336
  -6   7  -3 2885.91 1773.93   1 0.70813-0.92430 0.32215 0.20200-0.62829 0.32381
  -7   1   218041.16 2523.23   1-0.27703-0.28339 0.93507-0.86040-0.22111 0.42354
   1   6   219781.21 2377.92   1-0.06045 0.40529 0.74780-0.29984-0.66116 0.86361
  -6   7  -218749.49 3336.43   1 0.28449-0.50002 0.09256 0.43007-0.95419 0.75167
  -1  -6  -218896.58 2509.08   1-0.70878 0.36297 0.40339-0.85261-0.57870 0.37589
  -7   1   220422.65 6706.42   1-0.51813-0.04409 0.47048-0.39557-0.71426 0.91737
  -6   7  -219625.34 3567.24   1 0.64995-0.86612 0.35346 0.17070-0.67276 0.46978
  -7   1   1 5511.39 1149.05   1-0.23235-0.32807 0.91442-0.83975-0.33142 0.43264
   1   6   1 4974.51 1298.40   1 0.11080 0.23403 0.47962-0.03165-0.87044 0.97171
  -6   7  -1 7524.60 2546.55   1 0.23096-0.44648 0.22752 0.29510-0.94598 0.84472
  -1  -6  -1 5460.75 2091.31   1-0.79813 0.45232 0.35510-0.80433-0.48670 0.38529
  -7   1   1 6774.09 3655.55   1-0.37007-0.19216 0.50004-0.42513-0.78294 0.88449
  -6   7  -1 6675.77 1937.02   1 0.54676-0.76293 0.39948 0.12467-0.73583 0.63434
  -7   1   019491.15 1922.21   1-0.16955-0.39087 0.86791-0.79324-0.46688 0.46688
  -6   7   022308.21 3050.47   1 0.16482-0.38035 0.37372 0.14890-0.91277 0.91277
   1   6   022753.52 2421.49   1 0.25993 0.08490 0.15661 0.29135-0.95283 0.95283
  -1  -6   019607.66 3634.30   1-0.86401 0.51820 0.30740-0.75662-0.39872 0.39872
  -7   1   019386.51 7254.64   1-0.21758-0.34488 0.51520-0.44026-0.82899 0.82899
  -6   7   017730.14 2174.98   1 0.36697-0.58314 0.45799 0.06617-0.80967 0.80967
  -1  -6   1 4967.08 3033.62   1-0.35323 0.00850 0.11366-0.56148 0.92860-0.82744
  -7   1  -1 5502.65  968.98   1-0.07719-0.48316 0.76885-0.69419-0.63474 0.53352
  -6   7   1 6147.79 2058.79   1 0.08970-0.30523 0.51738 0.00523-0.85103 0.95226
  -1  -6   1 5864.02 3149.44   1-0.91196 0.56615 0.26151-0.71073-0.31611 0.41751
  -7   1  -1 8755.71 4291.05   1-0.07272-0.48974 0.51779-0.44285-0.85240 0.75102
  -6   7   1 4821.12 2271.70   1 0.06658-0.28291 0.50991 0.01466-0.85764 0.95903
  -1  -6   217033.88 8231.83   1-0.40159 0.05686 0.29808-0.74590 0.86594-0.66362
  -6   7   218602.51 2989.80   1 0.01214-0.22767 0.64572-0.12310-0.76346 0.96592
  -7   1  -224376.54 2921.96   1 0.04826-0.60862 0.58848-0.51382-0.80706 0.60461
  -6   7   216295.64 2967.36   1-0.36208 0.14584 0.50120 0.02316-0.78593 0.98903
  -7   1  -218016.70 7615.41   1 0.05456-0.61703 0.51098-0.43604-0.85785 0.65507
  -1  -6   3 3441.30 2464.09   1-0.42469 0.07996 0.41335-0.86117 0.80546-0.50197
  -6   7   3 3195.94 1467.86   1-0.06254-0.15298 0.75048-0.22786-0.65791 0.96160
  -7   1  -3 2345.76  669.08   1 0.17797-0.73835 0.34621-0.27154-0.92112 0.61733
  -7   1  -3 3238.00 2107.84   1 0.15869-0.72116 0.49914-0.42420-0.85186 0.54770
   1   6  -3 2717.14 1586.47   1 0.97073-0.62519-0.17509 0.62396 0.16436-0.46882
  -1  -6   411226.51 5438.56   1-0.43527 0.09037 0.48230-0.93033 0.76020-0.35538
  -6   7   410325.10 2174.20   1-0.12972-0.08581 0.82967-0.30699-0.54296 0.94783
  -7   1  -411309.43 5706.80   1 0.23850-0.80097 0.48612-0.41118-0.84071 0.43516
   1   6  -411874.15 3506.97   1 0.98657-0.64103-0.13379 0.58266 0.09362-0.49957
  -1  -6   5 1536.39 1284.98   1-0.44021 0.09532 0.52170-0.96974 0.73077-0.22474
  -6   7   5 1062.23 1356.56   1-0.18966-0.02588 0.88476-0.36208-0.42570 0.93178
  -7   1  -5 1855.40 1316.11   1 0.29635-0.85837 0.47493-0.40005-0.82862 0.32115
   1   6  -5 1367.86 1794.09   1 0.99531-0.64976-0.09337 0.54224 0.02526-0.53269
  -1  -6   6 4825.58 3034.33   1-0.44232 0.09743 0.54134-0.98938 0.71504-0.10781
  -6   7   6 4433.97 2796.54   1-0.24136 0.02581 0.91951-0.39683-0.31022 0.91752
  -7   1  -6 4822.93 2866.68   1 0.33383-0.89585 0.46632-0.39144-0.81920 0.21024
   1   6  -6 4255.34 2735.78   1 0.99771-0.65216-0.05355 0.50243-0.04126-0.56766
  -1  -6   7  261.78 1067.51   1-0.44290 0.09800 0.54714-0.99518 0.71025-0.00181
  -6   7   7  589.29 1645.59   1-0.28548 0.06993 0.93756-0.41489-0.19866 0.90717
  -7   1  -7  629.54 1643.03   1 0.35458-0.91660 0.46119-0.38631-0.81337 0.10292
   1   6  -7  138.13 1426.37   1 0.99422-0.64868-0.01412 0.46299-0.10638-0.60402
   7  -7   6  249.15  791.59   1-0.36514 0.66678 0.15479-0.67725 0.91799-0.31101
  -7   0   6  569.98  820.55   1-0.40298-0.20081 0.89238-0.89238 0.20311 0.40414
  -7   0   6  878.10  973.89   1-0.91670 0.31153 0.25618-0.25618-0.30662 0.91504
  -7   7  -6  497.66 1422.19   1 0.67904-0.98166 0.33837 0.18579-0.65146 0.04251
   7  -7   5  983.72 1437.87   1-0.35072 0.65236 0.10525-0.62771 0.93054-0.42473
  -7   0   5  582.64  988.20   1-0.39046-0.21333 0.90874-0.90874 0.14735 0.35869
  -7   0   5  429.19  802.09   1-0.85737 0.25220 0.31286-0.31286-0.40868 0.91570
  -7   7  -5  327.57 1419.07   1 0.66921-0.97183 0.34359 0.18057-0.65886 0.15140
   7  -7   436808.83 4592.95   1-0.32902 0.63066 0.03588-0.55834 0.94363-0.53898
  -7   0   440285.67 3787.07   1-0.37655-0.22724 0.92190-0.92190 0.09106 0.31377
  -7   0   435727.35 9056.10   1-0.77922 0.17405 0.36662-0.36662-0.50832 0.91394
  -7   7  -439873.17 5273.55   1 0.64539-0.94801 0.35574 0.16842-0.67595 0.26998
  -7   0   3  362.46  491.46   1-0.36117-0.24262 0.93187-0.93187 0.03393 0.26969
   0   7   3   62.03  516.00   1-0.12944 0.43118 0.82821-0.30559-0.54525 0.84893
  -7   7  -3  -14.03  848.94   1 0.29820-0.59995 0.05498 0.46764-0.95291 0.64912
  -7   0   3  822.60 1246.10   1-0.68209 0.07660 0.41573-0.41573-0.60159 0.90625
  -7   7  -3  137.93 1438.12   1 0.60191-0.90454 0.37624 0.14792-0.70437 0.39989
  -7   0   2   69.92  415.99   1-0.34409-0.25970 0.93861-0.93861-0.02464 0.22706
   0   7   2  220.04  731.21   1-0.00939 0.31113 0.67783-0.15521-0.73515 0.93760
  -7   7  -2  986.46 1476.12   1 0.25602-0.55776 0.16647 0.35615-0.95222 0.74970
   0  -7  -2 1024.65  855.93   1-0.91337 0.61079 0.25994-0.78404-0.31332 0.11051
  -7   0   2 1082.06 1758.67   1-0.56675-0.03873 0.45704-0.45704-0.68549 0.88860
  -7   7  -2 1031.69  806.70   1 0.52962-0.83225 0.40614 0.11801-0.74467 0.54169
  -7   0   1  380.63  450.26   1-0.32472-0.27881 0.94186-0.94186-0.08626 0.18747
   0   7   1  373.91 1040.88   1 0.12216 0.17957 0.45827 0.06435-0.88037 0.98163
  -7   7  -1  107.24  959.51   1 0.20205-0.50380 0.29387 0.22875-0.93424 0.83297
  -7   0   1  441.54  785.96   1-0.43785-0.16763 0.48847-0.48847-0.75477 0.85632
  -7   7  -1  567.75 1103.02   1 0.41444-0.71707 0.44482 0.07934-0.79395 0.69246
  -7   0   072407.31 6288.80   1-0.30176-0.30176 0.94090-0.94090-0.15375 0.15375
  -7   7   0118378.3 8439.40   1 0.13784-0.43958 0.42800 0.09462-0.89320 0.89320
   0   7   0114941.2 7238.00   1 0.23784 0.06389 0.21110 0.31152-0.94808 0.94808
  -7   0   088268.9613089.12   1-0.30274-0.30274 0.50858-0.50858-0.80603 0.80603
  -7   7   0101607.4 6618.26   1 0.23680-0.53967 0.48644 0.03813-0.84100 0.84100
   0   7   098949.16 6411.38   1 0.95592-0.65357-0.20277 0.72646 0.21234-0.21234
  -7   7   1  806.32 1973.08   1 0.06693-0.36866 0.55717-0.03455-0.82769 0.92891
  -7   0  -1  331.02 1116.80   1-0.17099-0.43474 0.51726-0.51726-0.83856 0.73718
  -7   7   1  334.67  502.03   1-0.01604-0.28681 0.51580 0.00877-0.85655 0.95794
   0   7  -1 1832.85 1415.17   1 0.97231-0.66996-0.17169 0.69537 0.15850-0.25999
   0  -7   2  144.28  773.26   1-0.37212 0.07048 0.17999-0.70244 0.91056-0.70823
  -7   7   2  397.35 1305.70   1-0.00516-0.29657 0.67164-0.14902-0.74085 0.94331
  -7   7   2  378.50  709.27   1-0.33295 0.03020 0.50510 0.01926-0.79625 0.99935
  -7   0  -2 1730.08 1455.46   1-0.05080-0.55492 0.51722-0.51722-0.85434 0.65156
   0   7  -2 1614.68 1594.08   1 0.98471-0.68236-0.13980 0.66349 0.10386-0.30684
   0  -7   3  105.00  870.08   1-0.40166 0.10002 0.29838-0.82084 0.86581-0.56232
  -7   7   3 1347.50 2112.36   1-0.07430-0.22743 0.76528-0.24265-0.63939 0.94307
  -7   0  -3  349.51 1287.00   1 0.05154-0.65727 0.51124-0.51124-0.85788 0.55372
   0   7  -3  733.92 1551.83   1 0.99302-0.69067-0.10733 0.63102 0.04877-0.35324
   0  -7   438609.31 5402.60   1-0.41799 0.11635 0.37661-0.89907 0.82670-0.42205
  -7   7   438569.40 3608.30   1-0.13675-0.16500 0.83687-0.31419-0.53004 0.93490
  -7   0  -443065.80 5177.82   1 0.13327-0.73900 0.50256-0.50256-0.85420 0.44865
   0   7  -454376.99 6477.04   1 0.99720-0.69485-0.07437 0.59806-0.00658-0.39936
   0  -7   5  359.95 1489.06   1-0.42680 0.12516 0.42571-0.94817 0.79787-0.29205
  -7   7   5  610.54 1726.15   1-0.19300-0.10875 0.88739-0.36471-0.41865 0.92474
  -7   0  -5  405.63  661.89   1 0.19436-0.80009 0.49376-0.49376-0.84759 0.34066
   0   7  -5 1410.96 1870.59   1 0.99722-0.69487-0.04097 0.56466-0.06212-0.44531
   0  -7   6  636.37 1205.40   1-0.43114 0.12935 0.45374-0.97644 0.77989-0.17266
  -7   7   6  110.44 1242.15   1-0.24209-0.05967 0.91990-0.39723-0.30847 0.91577
  -7   0  -6  280.66 1052.57   1 0.23635-0.84208 0.48652-0.48652-0.84108 0.23276
   0   7  -6  386.39 1942.72   1 0.99301-0.69065-0.00715 0.53084-0.11781-0.49111
   1  -8   6  469.45 1499.74   1-0.41557 0.15702 0.36417-0.96127 0.83346-0.22649
  -8   7   6  561.31 2002.96   1-0.24627-0.14170 0.92210-0.39942-0.29844 0.90574
  -7  -1  -6  876.81 1623.90   1 0.12896-0.77796 0.50311-0.57805-0.85454 0.24622
  -1   8  -6  671.20 1737.80   1 0.97966-0.72051 0.04112 0.55737-0.19636-0.41255
   1  -8   5   58.87 1134.49   1-0.40843 0.14988 0.32927-0.92636 0.85133-0.34551
  -8   7   5  423.77 1204.52   1-0.20002-0.18795 0.89275-0.37007-0.40370 0.90978
  -7  -1  -5  357.00  987.55   1 0.08400-0.73300 0.50821-0.58315-0.85712 0.35018
  -1   8  -5 1027.83 2481.83   1 0.98829-0.72914 0.01372 0.58477-0.15192-0.35551
   1  -8   423042.43 9614.14   1-0.39599 0.13744 0.27381-0.87091 0.87647-0.47182
  -8   7   421684.61 2989.29   1-0.14753-0.24045 0.84753-0.32486-0.50981 0.91468
  -7  -1  -421040.23 8643.40   1 0.02116-0.67016 0.51358-0.58852-0.85777 0.45222
  -1   8  -418333.00 3998.90   1 0.99386-0.73470-0.01192 0.61042-0.10999-0.29595
   1  -8   3  629.44 1033.70   1-0.37531 0.11676 0.19178-0.78888 0.90683-0.60334
  -8   7   3  201.44 1326.75   1-0.08969-0.29825 0.78392-0.26130-0.61433 0.91802
  -7  -1  -3  856.96 1439.83   1-0.05980-0.58919 0.51748-0.59242-0.85359 0.54943
  -1   8  -3  607.53 1367.26   1 0.99681-0.73765-0.03525 0.63374-0.07159-0.23287
   1  -8   2  440.53 1128.63   1-0.34198 0.08343 0.07663-0.67373 0.93657-0.73425
  -8   7   2  492.34 1311.30   1-0.02583-0.36211 0.70130-0.17868-0.71239 0.91484
  -8   7   2 1509.25  834.93   1-0.33582-0.05341 0.50474 0.01962-0.79527 0.99837
  -7  -1  -2  896.84 1416.31   1-0.15752-0.49147 0.51764-0.59258-0.84097 0.63819
  -1   8  -2 -329.95 1315.28   1 0.99773-0.73857-0.05527 0.65377-0.03840-0.16456
  -8   7   1 2845.75 2837.08   1 0.04103-0.42898 0.60027-0.07765-0.79873 0.89996
  -1   8  -1 1331.78 1786.09   1 0.29074-0.03210 0.07562 0.52166-0.95380 0.85254
  -7  -1  -1  441.54 1127.63   1-0.26798-0.38074 0.51192-0.58683-0.81616 0.71460
  -8   7   1  555.19  932.66   1-0.08501-0.30438 0.51800 0.00657-0.85113 0.95252
  -1   8  -1  962.03 1687.84   1 0.99743-0.73828-0.07023 0.66872-0.01350-0.08798
  -8   7   056684.67 5486.61   1 0.10775-0.49570 0.48529 0.03733-0.86768 0.86768
  -1   8   048629.25 4153.74   1 0.21668 0.04195 0.26081 0.33647-0.94075 0.94075
  -7  -1   046599.33 8035.52   1-0.38614-0.26258 0.49757-0.57248-0.77672 0.77672
  -8   7   048133.2612913.03   1 0.12961-0.51901 0.50302 0.02155-0.85449 0.85449
  -1   8   047784.71 4477.66   1 0.99707-0.73791-0.07638 0.67488-0.00321 0.00321
  -7  -1   1  602.59  580.09   1-0.40505-0.24187 0.88915-0.96385 0.21290-0.11169
  -1   8   1 1094.45 1452.83   1 0.12135 0.13728 0.45981 0.13747-0.87968 0.98094
  -8   7  -1  652.74 1181.27   1 0.16969-0.55765 0.36361 0.15901-0.91596 0.81470
  -7  -1   1  935.90 1047.10   1-0.50435-0.14437 0.47392-0.54883-0.72181 0.82336
  -8   7  -1  707.99  831.63   1 0.29542-0.68452 0.47513 0.04903-0.82883 0.72734
  -7  -1   2  617.38  604.23   1-0.40144-0.24548 0.89467-0.96937 0.19593 0.00648
  -1   8   2  252.72  951.02   1 0.01428 0.24435 0.64246-0.04518-0.76617 0.96863
  -8   7  -2  801.69 1653.30   1 0.22355-0.61151 0.24490 0.27772-0.94341 0.74089
  -7  -1   2  988.42 1312.63   1-0.61580-0.03293 0.44124-0.51615-0.65275 0.85586
  -8   7  -2  739.47 1656.86   1 0.41345-0.80254 0.44511 0.07905-0.79431 0.59132
  -7  -1   3  688.78  845.16   1-0.40409-0.24283 0.89067-0.96537 0.20833 0.09529
  -1   8   3  797.86  805.01   1-0.08913 0.34776 0.78326-0.18597-0.61527 0.91895
  -8   7  -3  652.37 1320.61   1 0.26735-0.65530 0.13769 0.38493-0.95371 0.64992
  -7  -1   3  495.34 1327.84   1-0.71499 0.06659 0.40048-0.47535-0.57305 0.87726
  -8   7  -3  558.64 1345.59   1 0.49403-0.88312 0.41918 0.10497-0.76171 0.45724
  -7  -1   423938.80 3130.98   1-0.40948-0.23744 0.88165-0.95635 0.23453 0.17030
  -1   8   425713.83 2746.14   1-0.17723 0.43589 0.87455-0.27721-0.45137 0.85624
  -8   7  -417121.07 2740.35   1 0.30090-0.68885 0.04744 0.47519-0.95247 0.54742
  -7  -1   422156.08 7063.22   1-0.79963 0.15124 0.35415-0.42902-0.48492 0.89053
  -8   7  -421802.02 3944.75   1 0.54664-0.93574 0.39953 0.12463-0.73589 0.32993
   8  -7   5   -3.65 1284.96   1-0.32510 0.71292 0.02391-0.54636 0.94537-0.43956
  -7  -1   5  477.84  560.56   1-0.41602-0.23090 0.86882-0.94352 0.26846 0.23758
  -7  -1   5  104.46  859.53   1-0.86837 0.21997 0.30371-0.37858-0.39202 0.89904
  -8   7  -5  258.98 1403.60   1 0.57868-0.96778 0.38638 0.13778-0.71821 0.21075
   8  -7   6  784.15 1018.57   1-0.34194 0.72977 0.07652-0.59898 0.93659-0.32962
  -7  -1   6  -68.57 1130.82   1-0.42287-0.22405 0.85253-0.92723 0.30719 0.30006
  -7  -1   6  537.62  730.23   1-0.92144 0.27304 0.25066-0.32553-0.29682 0.90524
  -8   7  -6  315.04 1994.84   1 0.59532-0.98442 0.37917 0.14499-0.70838 0.09943
   2  -8   6 5851.04 4167.63   1-0.41162 0.23926 0.34456-0.94165 0.84370-0.23672
  -8   6   6 3320.70 1832.16   1-0.26482-0.16627 0.93062-0.48261-0.25260 0.85990
  -6  -2  -6 8056.21 5928.67   1 0.10765-0.71338 0.50566-0.65554-0.85598 0.24766
  -2   8  -6 4098.36 2683.00   1 0.95986-0.78698 0.08502 0.51384-0.26726-0.34149
   2  -8   5 3441.25 2573.65   1-0.40392 0.23155 0.30848-0.90558 0.86121-0.35539
  -8   6   5 4067.78 2215.79   1-0.22124-0.20985 0.90755-0.45954-0.35692 0.86300
  -6  -2  -5 3840.08 2478.95   1 0.05799-0.66372 0.51068-0.66056-0.85780 0.35087
  -2   8  -5 3684.66 2285.19   1 0.97083-0.79805 0.06287 0.53562-0.23137-0.27606
   2  -8   4 4673.03 3102.86   1-0.39080 0.21844 0.25220-0.84930 0.88524-0.48059
  -8   6   4 4327.93 2169.19   1-0.17098-0.26011 0.86916-0.42115-0.46402 0.86888
  -6  -2  -4 4498.72 2749.73   1-0.01110-0.59463 0.51554-0.66542-0.85678 0.45124
  -2   8  -4 3683.28 2633.87   1 0.97878-0.80601 0.04350 0.55498-0.20021-0.20573
   2  -8   3 7517.58 4444.61   1-0.36950 0.19713 0.17040-0.76750 0.91347-0.60998
  -8   6   3 9945.80 2582.82   1-0.11439-0.31665 0.81211-0.36415-0.57217 0.87585
  -8   6   3 8677.25 3455.44   1-0.56521 0.13272 0.45749-0.00804-0.68646 0.99112
  -6  -2  -3 8475.32 3114.83   1-0.09942-0.50630 0.51815-0.66803-0.84948 0.54532
  -2   8  -3 7963.06 2622.60   1 0.98406-0.81129 0.02825 0.57024-0.17553-0.12892
   2  -8   224123.33 6490.34   1-0.33608 0.16371 0.05785-0.65494 0.94005-0.73772
  -8   6   238643.80 4766.34   1-0.05028-0.38077 0.73455-0.28659-0.67667 0.87913
  -8   6   220634.75 6589.23   1-0.34612-0.08636 0.50340-0.05395-0.79169 0.99480
  -6  -2  -220456.66 3732.62   1-0.20452-0.40120 0.51589-0.66577-0.83187 0.62910
  -2   8  -225705.63 3913.60   1 0.98679-0.81402 0.01919 0.57930-0.16083-0.04214
  -8   6   114994.00 2913.89   1 0.01886-0.44992 0.63540-0.18744-0.77194 0.87317
  -2   8  -112453.33 2395.78   1 0.28629-0.11387 0.08771 0.50957-0.95411 0.85285
  -6  -2  -113807.46 5213.53   1-0.32091-0.28457 0.50655-0.65637-0.80025 0.69870
  -8   6   112845.18 4330.95   1-0.12173-0.31093 0.51817-0.06853-0.84657 0.94795
  -2   8  -1 9858.75 2543.29   1 0.98644-0.81367 0.02041 0.57807-0.16281 0.06132
  -8   6   0 8913.51 2038.51   1 0.08959-0.52064 0.51758-0.06962-0.85092 0.85092
  -2   8   0 9053.83 1925.70   1 0.21659-0.04417 0.26100 0.33628-0.94072 0.94072
  -6  -2   0 8103.03 5115.37   1-0.44194-0.16353 0.48767-0.63749-0.75290 0.75290
  -8   6   0 9241.82 4251.92   1 0.07873-0.51139 0.50874-0.05910-0.85730 0.85730
  -2   8   0 7154.90 1907.25   1 0.97956-0.80679 0.04141 0.55708-0.19682 0.19682
  -6  -2   110530.47 4402.89   1-0.44257-0.16100 0.77068-0.92002 0.45845-0.35724
  -2   8   114671.79 2653.39   1 0.12905 0.04337 0.44509 0.15219-0.88613 0.98739
  -8   6  -112523.52 2355.46   1 0.15735-0.58840 0.38905 0.05891-0.90767 0.80641
  -6  -2   112247.61 5209.90   1-0.55919-0.04628 0.45926-0.60908-0.69019 0.79175
  -8   6  -112467.14 6058.91   1 0.24000-0.67266 0.48584-0.03620-0.84044 0.73905
  -6  -2   219334.66 7891.51   1-0.43279-0.17100 0.82116-0.97056 0.37199-0.16957
  -2   8   235054.87 4072.34   1 0.03146 0.14096 0.61565-0.01836-0.78739 0.98984
  -8   6  -225093.61 3219.29   1 0.21683-0.64789 0.26046 0.18750-0.94081 0.73829
  -6  -2   220888.95 4803.36   1-0.66607 0.06059 0.42238-0.57220-0.61476 0.81787
  -8   6  -220268.12 2907.01   1 0.36121-0.79354 0.45949-0.01020-0.81140 0.60842
  -6  -2   3 9111.40 5207.51   1-0.42907-0.17472 0.83429-0.98369 0.34617-0.04254
  -2   8   310049.33 2178.73   1-0.06412 0.23654 0.75250-0.15521-0.65545 0.95914
  -8   6  -3 7839.34 2397.92   1 0.26527-0.69633 0.14302 0.30493-0.95350 0.64971
  -6  -2   310218.86 5492.47   1-0.75814 0.15297 0.37856-0.52830-0.53094 0.83516
  -8   6  -3 8568.52 2777.56   1 0.44616-0.87848 0.43516 0.01412-0.78203 0.47755
  -6  -2   4 4871.20 2707.06   1-0.42929-0.17450 0.83358-0.98299 0.34761 0.05722
  -2   8   4 3541.23 1618.39   1-0.14822 0.32066 0.84820-0.25086-0.50850 0.91336
  -8   6  -4 2143.59 1220.34   1 0.30207-0.73313 0.04414 0.40382-0.95226 0.54721
  -6  -2   4 5090.81 2921.04   1-0.83442 0.22925 0.33050-0.48024-0.44102 0.84664
  -8   6  -4 3559.87 2125.69   1 0.50327-0.93559 0.41590 0.03338-0.75745 0.35148
   8  -6   5 3217.33 1871.74   1-0.32824 0.75916 0.03349-0.48131 0.94399-0.43818
  -6  -2   5 4865.57 3328.88   1-0.43166-0.17213 0.82536-0.97476 0.36392 0.14212
  -2   8   5 3496.37 1656.65   1-0.21976 0.39220 0.90659-0.30925-0.36025 0.86633
  -6  -2   5 3945.57 2707.12   1-0.89464 0.28947 0.27960-0.42934-0.34847 0.85549
  -8   6  -5 2997.48 1940.53   1 0.53918-0.97150 0.40246 0.04682-0.73980 0.23233
   8  -6   6 3799.26 2963.97   1-0.34612 0.77704 0.09009-0.53791 0.93385-0.32687
  -6  -2   6 5238.77 2613.96   1-0.43509-0.16870 0.81186-0.96126 0.38930 0.21795
  -2   8   6 4421.02 2080.64   1-0.27776 0.45019 0.93530-0.33796-0.21919 0.82649
  -6  -2   6 6103.79 3450.07   1-0.93980 0.33463 0.22713-0.37687-0.25527 0.86370
  -8   6  -6 4619.60 2912.75   1 0.55889-0.99122 0.39461 0.05466-0.72932 0.12036
   3  -8   6 8748.16 4292.58   1-0.40574 0.31956 0.31680-0.91389 0.85732-0.25034
  -8   5   610026.94 2729.48   1-0.28628-0.18791 0.93777-0.56443-0.19650 0.80380
  -5  -3  -6 8159.52 4938.28   1 0.06865-0.63112 0.50971-0.73453-0.85759 0.24927
  -3   8  -612890.89 4543.65   1 0.93009-0.84365 0.13263 0.46623-0.34253-0.26622
   3  -8   5 7524.71 4989.00   1-0.39720 0.31102 0.27896-0.87606 0.87430-0.36848
  -8   5   5 6767.48 1879.00   1-0.24637-0.22783 0.92215-0.54881-0.29821 0.80429
  -8   5   5 5515.02 3238.22   1-0.85089 0.37540 0.31803 0.05631-0.41812 0.92514
  -5  -3  -5 7181.29 4884.00   1 0.01282-0.57528 0.51414-0.73896-0.85760 0.35067
  -3   8  -5 8129.25 3335.65   1 0.94132-0.85488 0.11628 0.48257-0.31682-0.19047
   3  -8   4 1193.21 2431.00   1-0.38303 0.29685 0.22120-0.81829 0.89685-0.49220
  -8   5   4  801.81 1568.45   1-0.19964-0.27456 0.89246-0.51912-0.40452 0.80939
  -8   5   4  317.21  884.87   1-0.72676 0.25126 0.39481-0.02046-0.56208 0.96770
  -5  -3  -4 1044.01  854.76   1-0.06406-0.49839 0.51760-0.74241-0.85322 0.44767
  -3   8  -4  484.07 1656.04   1 0.94887-0.86243 0.10433 0.49453-0.29792-0.10791
   3  -8   314409.49 5924.41   1-0.36062 0.27444 0.13894-0.73603 0.92230-0.61881
  -8   5   312742.48 2109.99   1-0.14516-0.32904 0.84523-0.47189-0.51430 0.81795
  -8   5   311929.83 3111.72   1-0.56269 0.08695 0.45824-0.08369-0.68803 0.99268
  -5  -3  -317695.35 7604.89   1-0.16081-0.40164 0.51755-0.74237-0.84039 0.53623
  -3   8  -316150.78 3697.21   1 0.95222-0.86578 0.09869 0.50017-0.28899-0.01538
   3  -8   244374.73 5702.19   1-0.32652 0.24033 0.02821-0.62531 0.94476-0.74244
  -8   5   248776.17 4556.14   1-0.08314-0.39101 0.77609-0.40279-0.62511 0.82756
  -8   5   240857.2610628.86   1-0.36928-0.10645 0.50015-0.12561-0.78324 0.98635
  -5  -3  -239144.77 6036.29   1-0.27281-0.28942 0.51150-0.73622-0.81482 0.61171
  -3   8  -247572.05 5920.32   1 0.94978-0.86334 0.10282 0.49604-0.29553 0.09261
  -8   5   133191.19 4143.32   1-0.01298-0.46117 0.68303-0.30973-0.73026 0.83149
  -3   8  -181872.1610588.91   1 0.27734-0.19112 0.11163 0.48565-0.95426 0.85300
  -5  -3  -132890.10 5010.41   1-0.39384-0.16838 0.49633-0.72106-0.77364 0.67209
  -8   5   136510.5112381.28   1-0.16771-0.30822 0.51736-0.14266-0.83916 0.94055
  -3   8  -133591.30 4522.56   1 0.93650-0.85007 0.12349 0.47537-0.32817 0.22671
  -8   5   0 1010.48 1950.98   1 0.06167-0.53582 0.56611-0.19281-0.82201 0.82201
  -3   8   0  -35.00  898.41   1 0.21070-0.12449 0.27445 0.32283-0.93823 0.93823
  -5  -3   0  687.43 1082.66   1-0.51445-0.04777 0.47141-0.69614-0.71630 0.71630
  -8   5   0  228.40  632.04   1 0.01899-0.49492 0.51373-0.13903-0.85773 0.85773
  -3   8   0  413.35  725.58   1 0.89440-0.80796 0.17657 0.42229-0.41093 0.41093
  -5  -3   134075.52 3538.63   1-0.44615-0.11430 0.58589-0.80990 0.67651-0.57531
  -3   8   135330.12 4496.65   1 0.12907-0.04286 0.44505 0.15223-0.88615 0.98741
  -8   5  -138388.48 4647.05   1 0.13574-0.60991 0.43211-0.05880-0.89154 0.79028
  -5  -3   127163.45 5423.85   1-0.62655 0.06432 0.43744-0.66217-0.64502 0.74658
  -8   5  -128160.7011112.31   1 0.17580-0.65174 0.49664-0.12194-0.84996 0.74857
  -5  -3   250335.40 5428.21   1-0.44819-0.11226 0.70887-0.93289 0.54462-0.34221
  -3   8   276281.14 8467.27   1 0.03905 0.04715 0.60349-0.00620-0.79641 0.99886
  -8   5  -241720.39 3587.10   1 0.20247-0.67663 0.29295 0.08035-0.93444 0.73191
  -5  -3   245013.1115039.32   1-0.72439 0.16245 0.39597-0.62058-0.56431 0.76712
  -8   5  -240575.19 6149.14   1 0.29852-0.77408 0.47445-0.10005-0.82811 0.62512
  -5  -3   312887.34 5450.57   1-0.44485-0.11560 0.75243-0.97645 0.48574-0.18212
  -3   8   322156.73 3455.43   1-0.04967 0.13588 0.73375-0.13646-0.67759 0.98128
  -8   5  -322288.82 3685.03   1 0.25733-0.73149 0.16318 0.21012-0.95244 0.64865
  -5  -3   312989.73 4796.79   1-0.80627 0.24432 0.34989-0.57450-0.47696 0.78118
  -8   5  -315128.31 3274.68   1 0.38774-0.86329 0.45241-0.07801-0.80310 0.49862
  -5  -3   4  726.07  921.18   1-0.44303-0.11742 0.76732-0.99133 0.46361-0.05879
  -3   8   4 1146.88 1339.65   1-0.13048 0.21669 0.82929-0.23201-0.54335 0.94826
  -8   5  -4  481.76  887.50   1 0.29882-0.77299 0.05325 0.32004-0.95281 0.54776
  -5  -3   4 1070.37 1324.48   1-0.87170 0.30975 0.30084-0.52545-0.38681 0.79242
  -8   5  -4  570.27 1193.84   1 0.44968-0.92523 0.43404-0.05964-0.78063 0.37466
   8  -5   5 7103.31 2518.20   1-0.32797 0.80198 0.03266-0.40584 0.94412-0.43830
  -5  -3   5 7460.16 3058.20   1-0.44293-0.11752 0.76809-0.99211 0.46243 0.04359
  -3   8   5 6295.91 2230.78   1-0.19896 0.28518 0.89195-0.29461-0.40598 0.91207
  -5  -3   5 7128.64 5221.37   1-0.92178 0.35984 0.25026-0.47487-0.29610 0.80312
  -8   5  -5 5290.88 2182.89   1 0.48999-0.96555 0.42060-0.04619-0.76354 0.25608
   8  -5   6 6715.59 4859.06   1-0.34752 0.82152 0.09466-0.46784 0.93288-0.32590
  -5  -3   6 9306.25 4069.78   1-0.44394-0.11651 0.76023-0.98425 0.47429 0.13293
  -3   8   6 9594.06 2353.42   1-0.25706 0.34328 0.92730-0.32996-0.27206 0.87936
  -8   5  -6 8260.51 2666.87   1 0.51333-0.98889 0.41224-0.03784-0.75269 0.14373
   5   3  -6 8794.73 3203.69   1 0.95821-0.39671-0.19889 0.42332 0.20557-0.81450
   4  -8   6 8743.45 6560.05   1-0.39765 0.39765 0.28088-0.87797 0.87348-0.26650
  -8   4   6 9002.25 3559.91   1-0.31008-0.20722 0.94179-0.64312-0.12989 0.73719
  -8   4   6 7054.71 6341.50   1-0.91585 0.39713 0.25716 0.04232-0.30836 0.91678
  -4   8  -611375.20 5515.10   1 0.88919-0.88919 0.18224 0.41662-0.41966-0.18909
   4  -8   5  964.85 2430.33   1-0.38800 0.38800 0.24084-0.83793 0.88963-0.38382
  -8   4   5  704.94 1366.27   1-0.27485-0.24245 0.93435-0.63567-0.22680 0.73288
  -8   4   5  453.15 1154.83   1-0.83413 0.31541 0.33071-0.03123-0.44142 0.94844
  -4  -4  -5  539.38  910.80   1-0.05885-0.46034 0.51746-0.81722-0.85367 0.34674
  -4   8  -5  737.78 1615.41   1 0.89843-0.89843 0.17208 0.42678-0.40398-0.10331
   4  -8   4  736.69 1257.88   1-0.37245 0.37245 0.18117-0.77827 0.91019-0.50554
  -8   4   4 1079.83 1236.81   1-0.23311-0.28420 0.91486-0.61619-0.32966 0.73452
  -8   4   4 1648.40 1325.57   1-0.71934 0.20062 0.39841-0.09893-0.56904 0.97465
  -4  -4  -4  892.23  691.67   1-0.14501-0.37418 0.51790-0.81766-0.84305 0.43750
  -4   8  -4  493.47 1424.84   1 0.90224-0.90224 0.16773 0.43113-0.39725-0.00858
   4  -8   3  571.77 1357.07   1-0.34856 0.34856 0.09810-0.69520 0.93213-0.62864
  -8   4   3  423.60 1106.14   1-0.18348-0.33383 0.87977-0.58109-0.43856 0.74221
  -8   4   3   85.18  640.68   1-0.57275 0.05377 0.45523-0.15559-0.68169 0.98635
  -4  -4  -3  187.42  454.68   1-0.24987-0.26910 0.51338-0.81301-0.82097 0.51631
  -4   8  -3 1180.95 1789.69   1 0.89874-0.89874 0.17173 0.42713-0.40344 0.09906
  -8   4   236815.22 4277.58   1-0.12523-0.39202 0.82379-0.52515-0.55287 0.75533
  -8   4   237899.6913433.33   1-0.40145-0.11752 0.49507-0.19543-0.77054 0.97364
  -4  -4  -236125.53 5706.59   1-0.36789-0.15109 0.50036-0.80000-0.78376 0.58066
  -4   8  -243669.28 6072.18   1 0.88336-0.88336 0.18840 0.41046-0.42914 0.22622
  -8   4   1  507.57 1532.55   1-0.05651-0.46074 0.74271-0.44407-0.66721 0.76844
  -4   8  -1  273.21 1298.62   1 0.26427-0.26427 0.14559 0.45169-0.95339 0.85213
  -4  -4  -1  298.81  591.56   1-0.48883-0.03014 0.47762-0.77726-0.73000 0.62845
  -8   4   1 1522.20 1464.74   1-0.22043-0.29876 0.51503-0.21527-0.82834 0.92972
  -4   8  -1  306.67  920.21   1 0.84429-0.84429 0.22568 0.37318-0.48602 0.38456
  -8   4   0 3786.00 1660.56   1 0.02052-0.53778 0.63283-0.33419-0.77401 0.77401
  -4   8   0 2434.48 1393.35   1 0.19991-0.19991 0.29864 0.29864-0.93319 0.93319
  -4  -4   0 2846.57 2098.51   1-0.60321 0.08422 0.44552-0.74516-0.66154 0.66154
  -8   4   0 4478.10 1954.86   1-0.04757-0.47162 0.51711-0.21735-0.85459 0.85459
  -4   8   0 2184.36  980.30   1 0.74531-0.74531 0.29943 0.29943-0.59569 0.59569
  -4  -4   1  459.19  809.46   1-0.42086-0.09623 0.39193-0.69048 0.81808-0.71691
  -8   4  -1  273.79  925.27   1 0.10092-0.61818 0.49713-0.19848-0.86178 0.76055
  -4   8   1   88.76 1233.84   1 0.12303-0.12303 0.45661 0.14068-0.88111 0.98237
  -4  -4   1 1808.49 3137.52   1-0.70390 0.18518 0.40563-0.70512-0.58307 0.68447
  -8   4  -1  931.43 1367.87   1 0.10339-0.62259 0.50614-0.20638-0.85622 0.75484
  -4  -4   241246.30 5567.22   1-0.44510-0.07224 0.57192-0.87061 0.68904-0.48663
  -4   8   267715.60 8009.20   1 0.03934-0.03934 0.60302-0.00573-0.79675 0.99920
  -8   4  -235663.96 3939.00   1 0.17699-0.69426 0.34827-0.04963-0.92052 0.71800
  -4  -4   234719.60 4935.11   1-0.78854 0.26983 0.36104-0.66052-0.49783 0.70063
  -8   4  -235910.06 7341.36   1 0.22550-0.74470 0.48848-0.18872-0.84292 0.64015
  -4  -4   3  993.90 1305.76   1-0.44900-0.06834 0.64962-0.94831 0.61350-0.30989
  -4   8   3 1636.95 2397.60   1-0.04326 0.04326 0.72522-0.12793-0.68715 0.99083
  -8   4  -3  494.65 1427.73   1 0.24088-0.75815 0.20376 0.09488-0.94892 0.64513
  -4  -4   3  546.85  913.66   1-0.85649 0.33778 0.31357-0.61305-0.40997 0.71418
  -8   4  -3  362.48 1146.24   1 0.31909-0.83788 0.46981-0.17029-0.82307 0.51859
  -4  -4   4 1128.18  928.26   1-0.44899-0.06835 0.68445-0.98314 0.57439-0.16957
  -4   8   4 1205.32  928.56   1-0.11949 0.11949 0.81766-0.22038-0.56315 0.96806
  -8   4  -4 1010.15  983.77   1 0.28936-0.80663 0.07937 0.21926-0.95392 0.54887
  -4  -4   4 1709.75 1822.03   1-0.90899 0.39027 0.26477-0.56425-0.32191 0.72753
  -8   4  -4  850.72 1228.83   1 0.38576-0.90456 0.45295-0.15343-0.80374 0.39777
  -4  -4   5  607.75 1177.15   1-0.44865-0.06869 0.69755-0.99624 0.55868-0.05265
  -4   8   5  383.81 1083.45   1-0.18536 0.18536 0.88131-0.28396-0.43466 0.94074
  -8   4  -5  349.15 1879.21   1 0.43072-0.94952 0.43995-0.14042-0.78798 0.28052
   8  -4   6 5343.79 4420.27   1-0.34532 0.86242 0.08748-0.38602 0.93439-0.32741
  -4  -4   6 8429.37 5683.54   1-0.44864-0.06870 0.69775-0.99644 0.55844 0.04878
  -4   8   610942.85 4052.61   1-0.24246 0.24246 0.92010-0.32276-0.30759 0.91489
  -8   4  -610310.71 4614.11   1 0.45809-0.97688 0.43134-0.13181-0.77723 0.16828
   4   4  -610976.27 4936.07   1 0.97469-0.45638-0.16635 0.46560 0.14931-0.75824
   5  -8   6 9154.46 7525.24   1-0.38698 0.47317 0.23678-0.83387 0.89116-0.28418
  -8   3   6 8291.09 3666.52   1-0.33536-0.22530 0.94059-0.71649-0.05294 0.66020
  -8   3   6 8632.35 4097.16   1-0.90480 0.34286 0.26923-0.04462-0.32990 0.93832
  -5   8  -610031.23 4020.07   1 0.83695-0.92338 0.23204 0.36681-0.49564-0.11311
   5  -8   5 8613.33 4529.15   1-0.37597 0.46215 0.19425-0.79134 0.90603-0.40022
  -8   3   5 5214.60 1512.58   1-0.30576-0.25465 0.94140-0.71739-0.14236 0.64845
  -8   3   5 7166.07 3977.99   1-0.82708 0.26513 0.33577-0.11116-0.45076 0.95778
  -5   8  -5 8305.52 2703.13   1 0.84196-0.92839 0.22773 0.37113-0.48912-0.01817
   5  -8   4  254.00  988.91   1-0.35876 0.44495 0.13251-0.72960 0.92397-0.51932
  -8   3   4  666.58 1455.99   1-0.27046-0.28996 0.93279-0.70879-0.23819 0.64306
  -8   3   4  785.64 1225.99   1-0.72231 0.16036 0.39698-0.17237-0.56627 0.97188
  -3  -5  -4  517.05  729.65   1-0.26426-0.21147 0.51223-0.88678-0.81717 0.41096
  -5   8  -4 1236.83 2159.91   1 0.83905-0.92549 0.23024 0.36862-0.49292 0.08708
   5  -8   317820.31 3799.01   1-0.33314 0.41932 0.04862-0.64571 0.94162-0.63813
  -8   3   317427.54 5182.82   1-0.22792-0.33249 0.91176-0.68775-0.34166 0.64531
  -8   3   314762.24 6912.26   1-0.59168 0.02944 0.44930-0.22458-0.66935 0.97401
  -3  -5  -316277.40 3854.03   1-0.37587-0.09985 0.49917-0.87371-0.78073 0.47607
  -5   8  -318200.21 3782.15   1 0.82467-0.91111 0.24229 0.35657-0.51107 0.20669
  -8   3   246510.69 5007.84   1-0.17616-0.38425 0.87364-0.64964-0.45354 0.65598
  -5   8  -243787.42 4992.39   1 0.29681-0.38302 0.05886 0.53842-0.95311 0.75059
  -3  -5  -247522.26 7079.32   1-0.49320 0.01746 0.47660-0.85115-0.72773 0.52462
  -8   3   244663.92 6663.50   1-0.43994-0.12228 0.48806-0.26333-0.75381 0.95692
  -5   8  -253152.22 5461.97   1 0.79129-0.87773 0.26805 0.33081-0.54954 0.34662
  -8   3   128936.38 3426.96   1-0.11351-0.44685 0.81114-0.58716-0.57371 0.67494
  -5   8  -162004.31 8094.62   1 0.24734-0.33355 0.18800 0.40928-0.95051 0.84924
  -3  -5  -129458.55 4286.16   1-0.60543 0.12969 0.44478-0.81933-0.66001 0.55845
  -8   3   125224.46 6822.27   1-0.27785-0.28438 0.51104-0.28631-0.81340 0.91495
  -5   8  -132934.47 4087.50   1 0.72181-0.80825 0.31396 0.28490-0.61676 0.51530
  -8   3   0  551.96  851.92   1-0.03794-0.52242 0.71803-0.49404-0.69497 0.69497
  -5   8   0  314.77 1049.48   1 0.18484-0.27105 0.33154 0.26574-0.92515 0.92515
   3   5   0  419.30  541.78   1 0.25913 0.21502 0.15864 0.21466-0.95272 0.95272
  -3  -5   0  512.23  714.24   1-0.70431 0.22882 0.40544-0.77980-0.58270 0.58270
  -8   3   0 1177.15 1421.10   1-0.11904-0.44342 0.51818-0.29336-0.84694 0.84694
  -5   8   0  426.55  733.34   1 0.57356-0.66002 0.38855 0.21049-0.72114 0.72114
  -3  -5   132720.26 4734.55   1-0.38537-0.08863 0.23037-0.60355 0.89354-0.79237
  -8   3  -148779.93 5707.57   1 0.04733-0.60770 0.59000-0.36601-0.80601 0.70478
  -5   8   138483.92 5107.79   1 0.11201-0.19822 0.47737 0.11991-0.87152 0.97279
  -3  -5   126327.34 6707.02   1-0.78726 0.31177 0.36182-0.73617-0.49929 0.60069
  -8   3  -129066.20 9572.06   1 0.02451-0.58698 0.51335-0.28853-0.85782 0.75644
  -3  -5   251980.71 6447.66   1-0.42776-0.04624 0.43147-0.80465 0.79426-0.59193
  -5   8   281757.30 9093.43   1 0.03381-0.12002 0.61190-0.01462-0.79020 0.99266
  -8   3  -256169.55 4368.66   1 0.13415-0.69453 0.43520-0.21122-0.89027 0.68775
  -3  -5   246712.78 6672.42   1-0.85366 0.37816 0.31584-0.69020-0.41412 0.61693
  -8   3  -249581.34 8470.94   1 0.14512-0.70758 0.50101-0.27619-0.85318 0.65041
  -3  -5   316122.77 4114.10   1-0.44169-0.03253 0.53523-0.90859 0.72001-0.41640
  -5   8   335630.96 6303.50   1-0.04325-0.04295 0.72520-0.12792-0.68717 0.99085
  -8   3  -314430.95 2092.05   1 0.21090-0.77127 0.27400-0.05002-0.93831 0.63453
  -3  -5   316542.66 7522.84   1-0.90502 0.42953 0.26901-0.64336-0.32949 0.63370
  -8   3  -316006.43 9944.41   1 0.24023-0.80270 0.48580-0.26098-0.84040 0.53624
  -3  -5   4 1012.92 1280.11   1-0.44641-0.02782 0.58956-0.96292 0.67315-0.26833
  -5   8   4  291.36 1271.61   1-0.11495 0.02874 0.81273-0.21544-0.57118 0.97609
  -8   3  -4  852.18  962.35   1 0.27023-0.83061 0.13022 0.09376-0.95394 0.54889
  -8   3  -4  473.28  733.34   1 0.31178-0.87381 0.47149-0.24685-0.82491 0.41894
  -3  -5   515029.95 8727.84   1-0.44793-0.02630 0.61618-0.98954 0.64782-0.14179
  -5   8   5 8205.29 2354.74   1-0.17780 0.09159 0.87504-0.27769-0.45020 0.95629
  -8   3  -5 7085.87 2630.30   1 0.36127-0.92329 0.45948-0.23483-0.81139 0.30393
   3   5  -5 9458.67 3813.83   1 0.97049-0.49537-0.17559 0.54965 0.16522-0.67266
  -3  -5   610558.25 5105.30   1-0.44833-0.02589 0.62582-0.99918 0.63823-0.03100
  -5   8   6 9911.45 2970.18   1-0.23319 0.14697 0.91491-0.31756-0.32947 0.93677
  -8   3  -611711.38 3684.82   1 0.39281-0.95483 0.45101-0.22636-0.80142 0.19247
   3   5  -612407.58 4347.38   1 0.98779-0.51267-0.12956 0.50362 0.08643-0.69535
   6  -8   6 5000.66 5053.17   1-0.37335 0.54571 0.18449-0.78158 0.90915-0.30218
  -8   2   6 5387.85 3096.59   1-0.36114-0.24265 0.93189-0.78249 0.03382 0.57343
  -8   2   6 4412.45 2898.59   1-0.89990 0.29473 0.27432-0.12458-0.33899 0.94742
  -6   8  -6 6775.63 3978.11   1 0.77411-0.94699 0.28027 0.31859-0.56761-0.04114
   6  -8   5 4207.90 2667.18   1-0.36075 0.53312 0.13939-0.73648 0.92218-0.41636
  -8   2   5 2937.03 2385.05   1-0.33776-0.26603 0.94014-0.79074-0.04526 0.55131
  -8   2   5 3744.99 2968.10   1-0.82759 0.22242 0.33541-0.18567-0.45008 0.95710
  -6   8  -5 4452.05 3287.19   1 0.77324-0.94611 0.28088 0.31798-0.56850 0.06120
   6  -8   4 4272.28 3241.82   1-0.34168 0.51404 0.07567-0.67276 0.93676-0.53211
  -8   2   4 3848.03 1571.35   1-0.31010-0.29342 0.94179-0.79245-0.12983 0.53470
  -8   2   4 5235.24 4305.46   1-0.73290 0.12773 0.39176-0.24202-0.55620 0.96182
  -6   8  -4 6217.62 3229.52   1 0.76171-0.93459 0.28871 0.31014-0.58002 0.17418
  -8   2   3 8980.52 1733.80   1-0.27681-0.32672 0.93500-0.78566-0.22168 0.52533
  -8   2   3 8046.77 3805.87   1-0.61689 0.01141 0.44086-0.29104-0.65198 0.95664
  -2  -6  -3 8327.39 3170.13   1-0.54652 0.11403 0.46288-0.91234-0.69788 0.39322
  -6   8  -3 8717.94 3031.73   1 0.73468-0.90756 0.30611 0.29275-0.60541 0.30103
  -8   2   224795.74 2701.85   1-0.23585-0.36768 0.91645-0.76711-0.32325 0.52568
  -6   8  -234026.67 4658.12   1 0.27640-0.44882 0.11410 0.48318-0.95424 0.75171
  -2  -6  -223593.20 4851.98   1-0.64843 0.21594 0.42933-0.87879-0.62865 0.42554
  -8   2   224710.92 9067.75   1-0.48274-0.12274 0.47902-0.32920-0.73313 0.93624
  -6   8  -223050.06 3472.03   1 0.68291-0.85584 0.33628 0.26276-0.64848 0.44550
  -8   2   111708.25 1906.37   1-0.18419-0.41933 0.88035-0.73102-0.43708 0.53829
  -6   8  -113776.62 3142.58   1 0.22675-0.39917 0.23743 0.35985-0.94456 0.84330
  -2  -6  -112293.56 5478.16   1-0.73691 0.30465 0.38974-0.83896-0.55231 0.45091
  -8   2   115147.26 5498.69   1-0.33822-0.26725 0.50443-0.35461-0.79444 0.89600
  -6   8  -113112.67 2812.71   1 0.58838-0.76131 0.38221 0.21683-0.71254 0.61104
  -8   2   0 8728.29 1724.68   1-0.11822-0.48524 0.81629-0.66697-0.56540 0.56540
  -6   8   0 7644.13 2165.83   1 0.16593-0.33835 0.37143 0.22585-0.91351 0.91351
   2   6   0 9990.96 1774.63   1 0.24373 0.18732 0.19684 0.25112-0.94965 0.94965
  -2  -6   0 7541.18 4515.07   1-0.81037 0.37811 0.34720-0.79642-0.47194 0.47194
  -8   2   010538.17 5444.86   1-0.19363-0.41210 0.51641-0.36653-0.83416 0.83416
  -6   8   0 9193.14 1783.54   1 0.41564-0.58857 0.44447 0.15457-0.79352 0.79352
  -2  -6   113664.77 2320.93   1-0.35063-0.08028 0.10496-0.55278 0.93061-0.82944
  -8   2  -116378.98 2510.16   1-0.03475-0.56871 0.71367-0.56435-0.69961 0.59838
  -6   8   113730.70 2971.89   1 0.09643-0.26885 0.50528 0.09200-0.85754 0.95877
  -2  -6   111722.09 6805.99   1-0.86867 0.43640 0.30346-0.75268-0.39156 0.49296
  -8   2  -114443.73 7906.35   1-0.05896-0.54676 0.51746-0.36758-0.85366 0.75228
  -6   8   115834.73 5158.71   1 0.09874-0.27181 0.50666 0.09285-0.85647 0.95785
  -2  -6   224492.95 9066.57   1-0.40220-0.02871 0.30076-0.74858 0.86473-0.66241
  -6   8   228665.18 3811.20   1 0.02348-0.19590 0.62822-0.03093-0.77767 0.98013
  -8   2  -225005.61 2271.41   1 0.06167-0.66515 0.56610-0.41678-0.82202 0.61956
  -2  -6   226953.22 9789.97   1-0.91366 0.48140 0.25962-0.70884-0.31274 0.51554
  -8   2  -221512.35 9761.93   1 0.05816-0.66389 0.51067-0.36079-0.85780 0.65503
  -2  -6   310575.08 6035.91   1-0.42567-0.00523 0.41905-0.86687 0.80199-0.49850
  -6   8   311436.99 3093.66   1-0.04847-0.12394 0.73216-0.13488-0.67939 0.98307
  -8   2  -3 8613.41 3694.26   1 0.15389-0.75962 0.49981-0.34993-0.85234 0.54818
  -2  -6   4 4769.91 4275.55   1-0.43608 0.00496 0.48829-0.93632 0.75590-0.35108
  -6   8   4 3899.29 1769.90   1-0.11575-0.05666 0.81361-0.21632-0.56976 0.97467
  -8   2  -4 4210.13 2564.98   1 0.22771-0.83344 0.48809-0.33821-0.84256 0.43701
   2   6  -4 4465.10 2803.74   1 0.97158-0.53965-0.17327 0.62214 0.16123-0.56718
  -2  -6   5 3134.33 1734.39   1-0.44085 0.00972 0.52734-0.97538 0.72633-0.22030
  -6   8   5 3650.21 2031.10   1-0.17536 0.00292 0.87295-0.27561-0.45517 0.96126
  -8   2  -5 2909.77 2115.83   1 0.28121-0.88694 0.47769-0.32781-0.83230 0.32536
   2   6  -5 5218.96 3249.64   1 0.98742-0.55549-0.13087 0.57974 0.08864-0.59608
  -2  -6   6 4608.20 3225.91   1-0.44284 0.01172 0.54651-0.99455 0.71077-0.10354
  -6   8   6 4894.47 4040.97   1-0.22856 0.05612 0.91215-0.31480-0.34019 0.94749
  -8   2  -6 3331.97 2581.52   1 0.31739-0.92264 0.47020-0.32044-0.82350 0.21455
   2   6  -6 6105.42 3403.85   1 0.99588-0.56395-0.08891 0.53778 0.01776-0.62669
   7  -8   6  704.20  877.78   1-0.35631 0.61486 0.12409-0.72118 0.92608-0.31911
  -8   1   6  386.56  692.38   1-0.38610-0.26082 0.91337-0.83867 0.12913 0.47812
  -8   1   6  -29.06 1242.12   1-0.90009 0.25169 0.27412-0.19925-0.33864 0.94707
  -7   8  -6 1212.98 2251.12   1 0.70217-0.96157 0.32557 0.27347-0.63320 0.02424
   7  -8   5  665.54  955.90   1-0.34196 0.60050 0.07656-0.67366 0.93658-0.43077
  -8   1   5  680.70  879.40   1-0.36921-0.27771 0.92719-0.85249 0.06318 0.44286
  -8   1   5  -93.24 1339.97   1-0.83393 0.18553 0.33086-0.25599-0.44168 0.94870
  -7   8  -5  201.13 1317.98   1 0.69461-0.95401 0.32983 0.26920-0.63930 0.13184
  -8   1   420347.78 5835.26   1-0.34978-0.29714 0.93681-0.86211-0.00561 0.41045
  -8   1   424439.95 9653.91   1-0.74907 0.10067 0.38343-0.30856-0.54024 0.94585
  -7   8  -420871.09 4257.16   1 0.67403-0.93342 0.34104 0.25800-0.65525 0.24929
  -8   1   3  288.56 1012.92   1-0.32716-0.31947 0.94167-0.86701-0.07874 0.38239
  -7   8  -3 1021.35 1481.71   1 0.29165-0.55029 0.07311 0.52417-0.95372 0.64993
  -8   1   3  684.23 1378.67   1-0.64649-0.00223 0.43007-0.35516-0.63014 0.93479
  -7   8  -3  391.34 1227.84   1 0.63498-0.89438 0.36083 0.23821-0.68307 0.37859
  -8   1   2  749.43  907.09   1-0.30020-0.34643 0.94067-0.86600-0.15814 0.36058
  -7   8  -2 1002.76 1475.31   1 0.25236-0.51099 0.17560 0.42168-0.95156 0.74903
  -1  -7  -2   54.34  307.77   1-0.81972 0.43068 0.34091-0.86500-0.46025 0.25745
  -8   1   2  493.97 1019.00   1-0.52829-0.12043 0.46784-0.39293-0.70853 0.91164
  -7   8  -2 1039.41 1731.69   1 0.56826-0.82765 0.39076 0.20828-0.72414 0.52115
  -8   1   1  404.72  593.07   1-0.26676-0.37987 0.93139-0.85673-0.24764 0.34886
   1   7   1  266.72  713.45   1 0.09296 0.29498 0.51154 0.01107-0.85421 0.95543
  -7   8  -1 1033.08 1913.75   1 0.20265-0.46129 0.29254 0.30474-0.93453 0.83326
  -1  -7  -1  461.69  688.13   1-0.86800 0.47896 0.30403-0.82812-0.39260 0.29119
  -8   1   1  974.15 1111.20   1-0.40015-0.24857 0.49529-0.42038-0.77107 0.87263
  -7   8  -1  498.33  702.43   1 0.45855-0.71794 0.43119 0.16785-0.77704 0.67555
  -8   1   043814.87 3227.32   1-0.22272-0.42391 0.90851-0.83384-0.35355 0.35355
  -7   8   064837.46 6652.56   1 0.14353-0.40217 0.41679 0.18049-0.89759 0.89759
   1   7   052402.13 4023.46   1 0.22703 0.16091 0.23677 0.28585-0.94466 0.94466
  -1  -7   049974.95 5071.66   1-0.90704 0.51800 0.26686-0.79095-0.32565 0.32565
  -8   1   040801.52 6793.91   1-0.26959-0.37913 0.51178-0.43687-0.81571 0.81571
  -7   8   040583.14 5097.42   1 0.28233-0.54172 0.47793 0.12111-0.83178 0.83178
  -7   8   1  902.42 2062.30   1 0.07750-0.33613 0.53893 0.05835-0.83877 0.94000
  -1  -7   1  892.02 1768.63   1-0.93793 0.54889 0.22971-0.75381-0.25981 0.36121
  -8   1  -1  755.69 1284.98   1-0.14524-0.50375 0.51790-0.44296-0.84301 0.74163
  -7   8   1  369.17  722.94   1 0.01087-0.27047 0.51427 0.08524-0.85755 0.95894
  -1  -7   2 1489.71 1440.95   1-0.37346-0.01435 0.18490-0.70736 0.90902-0.70670
  -7   8   2  441.13 1502.37   1 0.00910-0.26773 0.65035-0.05307-0.75957 0.96202
  -8   1  -2 1538.89 1834.05   1-0.03353-0.61546 0.51659-0.44165-0.85557 0.65279
   1   7  -2  602.69 2081.26   1 0.96166-0.57292-0.19280 0.71649 0.19500-0.39798
  -1  -7   3  638.22 1203.42   1-0.40358 0.01575 0.30694-0.82940 0.86192-0.55843
  -7   8   3  497.76 1454.34   1-0.05806-0.20056 0.74472-0.14744-0.66483 0.96852
  -8   1  -3 -112.20  893.07   1 0.06083-0.70983 0.51043-0.43549-0.85776 0.55359
   1   7  -3 1303.47 2337.20   1 0.97903-0.59029-0.15581 0.67950 0.13122-0.43569
  -1  -7   424474.7411423.55   1-0.41975 0.03193 0.38596-0.90842 0.82148-0.41683
  -7   8   427624.93 4161.08   1-0.12105-0.13757 0.81934-0.22206-0.56036 0.96527
  -8   1  -424461.4313043.82   1 0.13608-0.78508 0.50220-0.42726-0.85397 0.44842
   1   7  -436328.30 5896.69   1 0.99055-0.60182-0.11888 0.64256 0.06830-0.47425
  -1  -7   5  109.14  845.66   1-0.42830 0.04048 0.43482-0.95727 0.79213-0.28632
  -7   8   5 -208.50 1251.61   1-0.17729-0.08136 0.87460-0.27725-0.45125 0.95734
  -8   1  -5  370.41 1469.61   1 0.19249-0.84149 0.49405-0.41911-0.84785 0.34091
   1   7  -5 1560.38 2798.03   1 0.99661-0.60788-0.08194 0.60562 0.00607-0.51351
  -1  -7   6 -251.84 1302.63   1-0.43242 0.04441 0.46225-0.98496 0.77416-0.16693
  -7   8   6 1182.64 1768.75   1-0.22801-0.03064 0.91181-0.31447-0.34147 0.94877
  -8   1  -6 -239.27 1204.58   1 0.23151-0.88051 0.48740-0.41246-0.84192 0.23360
   1   7  -6 -238.65 1427.80   1 0.99744-0.60870-0.04491 0.56860-0.05560-0.55332
   8  -8   6  834.08 2051.40   1-0.33541 0.68014 0.05575-0.65285 0.94041-0.33344
  -8   0   6 1079.46 1342.42   1-0.40880-0.28125 0.88286-0.88286 0.23116 0.37609
  -8   0   6 -155.02 1311.92   1-0.90436 0.21274 0.26970-0.26970-0.33072 0.93914
  -8   8  -6  865.54 1971.18   1 0.62325-0.96911 0.36643 0.23261-0.69085 0.08190
  -8   0   5  146.84  572.06   1-0.39809-0.29196 0.89937-0.89937 0.18066 0.32538
  -8   0   5  345.59  772.93   1-0.84466 0.15303 0.32286-0.32286-0.42697 0.93399
  -8   8  -5  833.60 1914.54   1 0.60905-0.95491 0.37301 0.22603-0.69993 0.19247
  -8   0   417921.39 7067.70   1-0.38666-0.30339 0.91280-0.91280 0.13145 0.27338
  -8   8  -417827.36 3037.98   1 0.29632-0.64117 0.06022 0.53706-0.95318 0.54813
  -8   0   424393.01 9106.68   1-0.76925 0.07762 0.37238-0.37238-0.51921 0.92482
  -8   8  -422606.20 4075.43   1 0.58017-0.92603 0.38575 0.21329-0.71735 0.31138
  -8   0   3  201.18  540.53   1-0.37477-0.31527 0.92328-0.92328 0.08420 0.21942
  -8   8  -3  566.83 1453.40   1 0.26507-0.60992 0.14354 0.45375-0.95348 0.64969
  -8   0   3  801.55 1306.71   1-0.67904-0.01293 0.41702-0.41702-0.60414 0.90880
  -8   8  -3  -51.78 1224.96   1 0.53136-0.87722 0.40548 0.19356-0.74379 0.43931
  -8   0   2 1555.88 1342.66   1-0.36292-0.32713 0.93095-0.93095 0.04020 0.16221
  -8   8  -2 1169.08 1739.16   1 0.22470-0.56955 0.24223 0.35505-0.94383 0.74131
  -8   0   2 1518.54 1805.19   1-0.57539-0.11659 0.45442-0.45442-0.68001 0.88312
  -8   8  -2 1323.98 1112.16   1 0.45469-0.80055 0.43244 0.16660-0.77862 0.57563
   0   8   1  703.67  950.21   1 0.10325 0.24159 0.49356 0.10372-0.86355 0.96481
  -8   8  -1 -172.57 1135.32   1 0.17520-0.52005 0.35205 0.24523-0.91943 0.81817
  -8   0   1  266.36  764.32   1-0.46251-0.22946 0.48346-0.48346-0.74319 0.84474
  -8   8  -1  172.58  812.28   1 0.33893-0.68479 0.46509 0.13395-0.81780 0.71631
  -8   8   059215.96 5972.35   1 0.11793-0.46278 0.46628 0.13100-0.87673 0.87673
   0   8   048729.57 4090.36   1 0.20946 0.13538 0.27726 0.32003-0.93768 0.93768
  -8   0   049014.63 6789.86   1-0.34599-0.34599 0.50342-0.50342-0.79174 0.79174
  -8   8   040519.61 5359.98   1 0.16956-0.51569 0.49757 0.10194-0.85068 0.85068
   0   8   051562.32 3911.34   1 0.97559-0.63005-0.16426 0.76275 0.14571-0.14571
  -8   8   1 1022.62 1989.79   1 0.05529-0.40014 0.57681 0.02046-0.81499 0.91622
   0   8  -1  694.50  853.14   1 0.29000 0.05483 0.07762 0.51966-0.95387 0.85260
  -8   0  -1  631.68 1045.31   1-0.23231-0.45966 0.51461-0.51461-0.82534 0.72379
  -8   8   1  187.16  551.56   1-0.06075-0.28537 0.51751 0.08200-0.85351 0.95490
   0   8  -1   41.98  877.49   1 0.98394-0.63839-0.14217 0.74067 0.10790-0.20939
   0  -8   2 1504.03 1574.91   1-0.34400-0.00072 0.08319-0.68028 0.93527-0.73294
  -8   8   2 1357.71 1333.38   1-0.00876-0.33607 0.67691-0.07963-0.73600 0.93846
  -8   0  -2  663.42 1217.43   1-0.12812-0.56413 0.51812-0.51812-0.84565 0.64287
   0   8  -2 1340.91 2445.83   1 0.99104-0.64549-0.11679 0.71529 0.06476-0.26774
   0  -8   3   37.88 1186.05   1-0.37810 0.03337 0.20228-0.79937 0.90339-0.59990
  -8   8   3   12.15 1256.85   1-0.07137-0.27346 0.76164-0.16435-0.64405 0.94773
  -8   0  -3  732.02  758.52   1-0.03714-0.65512 0.51673-0.51673-0.85533 0.55117
   0   8  -3  409.12 1768.40   1 0.99584-0.65030-0.08921 0.68771 0.01827-0.32273
   0  -8   424470.6310352.93   1-0.39875 0.05401 0.28562-0.88271 0.87144-0.46679
  -8   8   425868.16 3781.85   1-0.12933-0.21554 0.82926-0.23191-0.54368 0.94855
  -8   0  -419094.34 8066.69   1 0.03767-0.72994 0.51237-0.51237-0.85793 0.45238
   0   8  -430363.29 5758.76   1 0.99773-0.65218-0.06004 0.65854-0.03048-0.37546
   0  -8   5  609.78 1145.31   1-0.41092 0.06618 0.34113-0.93822 0.84544-0.33962
  -8   8   5   38.82 1355.46   1-0.18299-0.16187 0.87937-0.28202-0.43956 0.94565
  -8   0  -5  353.96  916.54   1 0.09555-0.78781 0.50700-0.50700-0.85662 0.34969
   0   8  -5  179.69 1302.16   1 0.99628-0.65074-0.02964 0.62813-0.08085-0.42658
   0  -8   6  564.34 1148.30   1-0.41779 0.07306 0.37560-0.97269 0.82726-0.22028
  -8   8   6  478.12 1426.11   1-0.23102-0.11384 0.91363-0.31629-0.33450 0.94180
  -8   0  -6  441.11  683.84   1 0.13694-0.82921 0.50209-0.50209-0.85390 0.24558
   0   8  -6  317.30 1543.74   1 0.99119-0.64564 0.00177 0.59672-0.13242-0.47650
   1  -9   5  409.62 1157.17   1-0.38994 0.08830 0.24869-0.92042 0.88661-0.38080
  -9   8   5  472.47 1684.21   1-0.19198-0.23911 0.88659-0.28924-0.42082 0.92690
  -8  -1  -5  608.28 1100.82   1-0.00819-0.72733 0.51539-0.59033-0.85691 0.34997
  -1   9  -5  297.46 1387.95   1 0.98506-0.68271 0.02504 0.64826-0.17032-0.33711
   1  -9   4 5840.04 4116.11   1-0.37470 0.07306 0.18951-0.86124 0.90756-0.50291
  -9   8   4 3959.36 2707.03   1-0.14182-0.28927 0.84193-0.24459-0.52060 0.92546
  -8  -1  -4 4036.41 3800.26   1-0.06577-0.66975 0.51764-0.59258-0.85306 0.44751
  -1   9  -4 3721.50 2730.41   1 0.99116-0.68881 0.00188 0.67142-0.13260-0.27334
   1  -9   3 1641.76 1487.14   1-0.35087 0.04923 0.10578-0.77751 0.93042-0.62693
  -9   8   3 1009.14 1972.94   1-0.08790-0.34314 0.78180-0.18451-0.61729 0.92097
  -8  -1  -3 1524.01 1262.97   1-0.13817-0.59735 0.51801-0.59295-0.84413 0.53997
  -1   9  -3 1836.61 1957.80   1 0.99487-0.69252-0.01834 0.69165-0.09945-0.20500
  -9   8   2 3616.60 1974.38   1-0.02969-0.40136 0.70668-0.10939-0.70690 0.90936
  -8  -1  -2 3137.69 2191.50   1-0.22384-0.51168 0.51483-0.58977-0.82755 0.62477
  -1   9  -2 1951.90 1443.16   1 0.99674-0.69439-0.03443 0.70774-0.07293-0.13004
  -9   8   1 1648.96 1735.58   1 0.03016-0.46121 0.61771-0.02042-0.78582 0.88705
  -1   9  -1 1269.43 1311.99   1 0.26263 0.03910 0.14977 0.52218-0.95320 0.85193
  -8  -1  -1 1475.87 1462.51   1-0.31947-0.41575 0.50672-0.58163-0.80072 0.69917
  -9   8   1  802.74  719.09   1-0.12389-0.30877 0.51815 0.08136-0.84626 0.94765
  -1   9  -1 1105.45 1364.03   1 0.99740-0.69505-0.04424 0.71755-0.05671-0.04477
  -9   8   0 9810.61 2620.65   1 0.08909-0.52014 0.51848 0.07880-0.85043 0.85043
  -1   9   010896.27 1929.09   1 0.19115 0.11058 0.31788 0.35406-0.92865 0.92865
  -8  -1   011688.58 3888.92   1-0.42151-0.31371 0.49155-0.56645-0.76204 0.76204
  -9   8   0 8146.76 4916.00   1 0.07390-0.50656 0.50922 0.09029-0.85745 0.85745
  -1   9   1 1539.43 1147.63   1 0.10223 0.19951 0.49544 0.17651-0.86260 0.96386
  -9   8  -1 1466.98 1790.88   1 0.14454-0.57560 0.41478 0.18250-0.89836 0.79709
  -8  -1   1 1167.65 1159.02   1-0.52438-0.21084 0.46887-0.54377-0.71075 0.81231
  -9   8  -1 1774.61 1367.25   1 0.22963-0.66230 0.48774 0.11177-0.84224 0.74085
  -1   9   2 2657.65 1266.41   1 0.00314 0.29859 0.65933 0.01260-0.75184 0.95429
  -9   8  -2 2029.95 1257.33   1 0.19346-0.62452 0.31284 0.28444-0.92989 0.72736
  -8  -1   2 4184.81 2156.79   1-0.62306-0.11216 0.43869-0.51360-0.64755 0.85066
  -9   8  -2 2036.92 1461.40   1 0.34616-0.77848 0.46331 0.13573-0.81579 0.61280
  -9   8  -3 1377.33 2000.16   1 0.23454-0.66560 0.21900 0.37828-0.94711 0.64332
  -8  -1   3 1125.55 1012.17   1-0.71306-0.02178 0.40139-0.47626-0.57481 0.87903
  -9   8  -3 1187.64 1920.50   1 0.42801-0.86034 0.44077 0.15827-0.78899 0.48452
  -8  -1   4 3685.39 3247.95   1-0.41754-0.31564 0.86549-0.94019 0.27674 0.12809
  -8  -1   4 3936.66 2599.99   1-0.79220 0.05735 0.35880-0.43367-0.49362 0.89924
  -9   8  -4 3730.43 2653.30   1 0.48367-0.91599 0.42279 0.17625-0.76635 0.36039
  -8  -1   5  803.08 1211.13   1-0.42231-0.31087 0.85399-0.92869 0.30387 0.20217
  -9   8  -5  404.87 1292.38   1 0.29230-0.72336 0.07134 0.52595-0.95366 0.44734
  -8  -1   5 1953.75 1943.51   1-0.85862 0.12377 0.31185-0.38672-0.40683 0.91385
  -9   8  -5  152.83 1127.64   1 0.51927-0.95160 0.41004 0.18900-0.74980 0.24234
   2  -9   5 1226.71 1278.79   1-0.38647 0.17101 0.23472-0.90645 0.89193-0.38611
  -9   7   5  550.26 1749.12   1-0.21022-0.26398 0.90013-0.37746-0.38151 0.88760
  -7  -2  -5  921.83 1152.20   1-0.03327-0.65898 0.51658-0.66646-0.85558 0.34865
  -2   9  -5  412.32 1496.03   1 0.96765-0.75155 0.06952 0.60419-0.24251-0.26478
   2  -9   4 3269.95 3747.40   1-0.37103 0.15557 0.17597-0.84770 0.91179-0.50714
  -9   7   4 2552.88 1903.55   1-0.16151-0.31268 0.86070-0.33802-0.48280 0.88767
  -7  -2  -4 2957.95 2352.87   1-0.09539-0.59687 0.51812-0.66800-0.84996 0.44442
  -2   9  -4 2184.18 1796.47   1 0.97550-0.75954 0.05190 0.62140-0.21374-0.19220
   2  -9   3 1416.21 1177.91   1-0.34730 0.13185 0.09396-0.76569 0.93303-0.62954
  -9   7   3 1244.13 1171.22   1-0.10818-0.36596 0.80524-0.28261-0.58299 0.88667
  -7  -2  -3 1143.25 1529.98   1-0.17286-0.51939 0.51720-0.66708-0.83822 0.53406
  -2   9  -3 1413.03 2049.73   1 0.98056-0.76460 0.03863 0.63467-0.19234-0.11212
  -9   7   211321.21 3321.05   1-0.04941-0.42473 0.73341-0.21079-0.67797 0.88043
  -9   7   2 6511.72 2603.53   1-0.35331-0.12241 0.50243 0.02193-0.78913 0.99223
  -7  -2  -2 6592.23 3702.20   1-0.26298-0.42899 0.51234-0.66216-0.81752 0.61441
  -2   9  -2 6159.34 2200.10   1 0.98287-0.76691 0.03191 0.64139-0.18147-0.02150
  -9   7   1 1935.41 1072.88   1 0.01238-0.48653 0.64537-0.12275-0.76376 0.86499
  -2   9  -1 1276.68 1272.70   1 0.26240-0.04687 0.15036 0.52158-0.95317 0.85190
  -7  -2  -1 2056.60 1427.61   1-0.36285-0.32912 0.50109-0.65091-0.78564 0.68409
  -9   7   1 2187.30 1479.73   1-0.14659-0.32933 0.51787 0.00670-0.84280 0.94418
  -2   9  -1  547.38 1203.68   1 0.98156-0.76559 0.03580 0.63750-0.18775 0.08627
  -9   7   0 6152.04 2300.40   1 0.07455-0.54871 0.54405-0.02142-0.83573 0.83573
  -2   9   0 4291.56 1660.92   1 0.19579 0.01973 0.30774 0.36421-0.93110 0.93110
  -7  -2   0 4294.73 2175.03   1-0.46669-0.22529 0.48257-0.63239-0.74116 0.74116
  -9   7   0 5167.94 2347.13   1 0.03768-0.51361 0.51237 0.01220-0.85793 0.85793
  -2   9   1 1739.74 1451.55   1 0.11427 0.10125 0.47315 0.19879-0.87353 0.97479
  -9   7  -1 1850.32 1439.22   1 0.13407-0.60823 0.43537 0.08725-0.89020 0.78894
  -7  -2   1 2198.35 1684.71   1-0.56887-0.12310 0.45640-0.60622-0.68415 0.78571
  -9   7  -1 1258.37 1067.34   1 0.18818-0.66411 0.49474 0.02983-0.84842 0.74703
  -2   9   2 8117.83 2048.14   1 0.02373 0.19178 0.62782 0.04411-0.77798 0.98044
  -9   7  -2 6792.00 2104.05   1 0.18719-0.66136 0.32646 0.19616-0.92648 0.72396
  -7  -2   2 7640.52 4044.41   1-0.66443-0.02754 0.42304-0.57286-0.61608 0.81918
  -9   7  -2 5785.77 4431.33   1 0.30441-0.77997 0.47315 0.05101-0.82671 0.62372
  -7  -2   3 1487.27 1227.94   1-0.43460-0.25545 0.81394-0.96334 0.38549-0.08186
  -2   9   3 1207.80  990.00   1-0.06621 0.28174 0.75515-0.08321-0.65219 0.95587
  -9   7  -3 1663.27 1450.24   1 0.23197-0.70614 0.22510 0.29752-0.94631 0.64252
  -7  -2   3 2049.57 1411.07   1-0.74939 0.05776 0.38327-0.53301-0.53992 0.84413
  -9   7  -3 2640.62 2260.46   1 0.38839-0.86395 0.45223 0.07192-0.80289 0.49841
  -7  -2   4 2506.42 2007.02   1-0.43387-0.25617 0.81690-0.96631 0.38001 0.02482
  -2   9   4 1825.80 1196.98   1-0.14723 0.36278 0.84725-0.17523-0.51038 0.91524
  -9   7  -4 2712.50 1944.33   1 0.26761-0.74178 0.13700 0.38562-0.95373 0.54868
  -7  -2   4 2555.72 2091.68   1-0.82234 0.13071 0.33910-0.48884-0.45690 0.86252
  -9   7  -4 2332.44 2040.57   1 0.44683-0.92239 0.43494 0.08922-0.78176 0.37579
  -7  -2   5  582.68  913.92   1-0.43535-0.25470 0.81078-0.96018 0.39128 0.11476
  -9   7  -5  230.71 1023.49   1 0.29452-0.76868 0.06522 0.45740-0.95341 0.44710
  -7  -2   5  851.98 1386.28   1-0.88215 0.19052 0.29150-0.44124-0.36990 0.87692
  -9   7  -5  207.65 1222.36   1 0.48513-0.96069 0.42229 0.10187-0.76571 0.25825
   3  -9   6 3365.61 2482.38   1-0.39087 0.26160 0.25249-0.92422 0.88513-0.27815
  -9   6   6 1605.89 1741.87   1-0.27286-0.24444 0.93366-0.48565-0.23197 0.83927
  -3   9  -6 4106.35 2863.66   1 0.92906-0.79941 0.13405 0.53967-0.34476-0.26399
   3  -9   5  198.26 1083.09   1-0.38071 0.25144 0.21223-0.88396 0.90000-0.39419
  -9   6   5  429.65 1876.00   1-0.23239-0.28491 0.91444-0.46643-0.33132 0.83741
  -6  -3  -5  139.64  451.24   1-0.07518-0.57381 0.51784-0.74266-0.85216 0.34522
  -3   9  -5   74.01 1534.79   1 0.93994-0.81028 0.11838 0.55534-0.32013-0.18716
   3  -9   4 3870.81 2764.80   1-0.36471 0.23543 0.15326-0.82499 0.91842-0.51376
  -9   6   4 3095.41 1867.24   1-0.18616-0.33114 0.88195-0.43394-0.43300 0.83787
  -6  -3  -4 3165.50 2382.80   1-0.14250-0.50648 0.51794-0.74276-0.84345 0.43791
  -3   9  -4 4800.76 2337.96   1 0.94714-0.81748 0.10714 0.56658-0.30238-0.10345
   3  -9   3  362.76  730.93   1-0.34060 0.21133 0.07221-0.74394 0.93742-0.63394
  -9   6   3  584.74 1186.55   1-0.13384-0.38346 0.83391-0.38590-0.53541 0.83906
  -9   6   3  457.27  720.89   1-0.55177 0.03278 0.46140-0.01195-0.69473 0.99939
  -6  -3  -3 2142.68 1287.60   1-0.22534-0.42365 0.51474-0.73956-0.82720 0.52303
  -3   9  -3  422.21 1202.79   1 0.95016-0.82050 0.10217 0.57154-0.29451-0.00986
  -9   6   2 8281.11 2331.53   1-0.07631-0.44094 0.76776-0.31980-0.63617 0.83862
  -3   9  -2 4830.80 1780.08   1 0.30589-0.17657 0.03329 0.63865-0.95148 0.74895
  -9   6   2 6703.59 2405.00   1-0.36726-0.15171 0.50045-0.05099-0.78400 0.98710
  -6  -3  -2 7752.64 3942.95   1-0.31995-0.32877 0.50666-0.73139-0.80057 0.59746
  -3   9  -2 8207.21 2396.22   1 0.94741-0.81775 0.10670 0.56702-0.30168 0.09876
  -9   6   1  137.08 1105.63   1-0.01334-0.50391 0.68355-0.23559-0.72977 0.83100
  -3   9  -1 1732.86 2694.89   1 0.25741-0.12809 0.16297 0.50897-0.95245 0.85119
  -6  -3  -1  639.73 1320.97   1-0.42223-0.22650 0.49141-0.71614-0.76172 0.66017
  -9   6   1   74.29  943.00   1-0.17992-0.33927 0.51696-0.06732-0.83688 0.93827
  -3   9  -1  365.70 1394.99   1 0.93411-0.80445 0.12696 0.54676-0.33363 0.23217
  -9   6   014054.60 4156.48   1 0.05187-0.56913 0.58251-0.13455-0.81115 0.81115
  -3   9   0 5648.00 1708.50   1 0.19429-0.06497 0.31102 0.36092-0.93032 0.93032
  -6  -3   0 7441.16 3689.34   1-0.52560-0.12313 0.46855-0.69328-0.71007 0.71007
  -9   6   0 6575.02 3503.58   1-0.00796-0.51123 0.51538-0.06574-0.85692 0.85692
  -9   6  -1  992.26 1714.12   1 0.11589-0.63316 0.47011-0.02214-0.87496 0.77369
  -3   9   1  483.70 1353.00   1 0.11837 0.01094 0.46545 0.20650-0.87712 0.97838
  -6  -3   1  469.93 1055.30   1-0.62428-0.02444 0.43826-0.66298-0.64667 0.74823
  -9   6  -1  521.77  948.62   1 0.13732-0.65652 0.50204-0.05240-0.85387 0.75248
  -3   9   211132.81 3060.51   1 0.03461 0.09470 0.61062 0.06131-0.79116 0.99361
  -9   6  -2 8213.23 2501.00   1 0.17420-0.69147 0.35417 0.09379-0.91881 0.71628
  -6  -3   2 8144.82 3380.23   1-0.71347 0.06507 0.40120-0.62581-0.57444 0.77725
  -9   6  -2 7850.97 4641.86   1 0.25221-0.77141 0.48353-0.03389-0.83820 0.63542
  -6  -3   3  225.83  403.36   1-0.44666-0.20002 0.73319-0.95721 0.51275-0.20914
  -3   9   3  679.23 1356.87   1-0.04916 0.17848 0.73308-0.06113-0.67836 0.98204
  -9   6  -3  132.04  894.52   1 0.22383-0.74110 0.24425 0.20371-0.94352 0.63973
  -6  -3   3  492.85  951.49   1-0.79115 0.14275 0.35945-0.58406-0.49484 0.79905
  -9   6  -3  639.96 1661.60   1 0.33931-0.85810 0.46499-0.01571-0.81770 0.51322
  -6  -3   4 2345.73 2026.19   1-0.44489-0.20178 0.75201-0.97602 0.48635-0.08153
  -3   9   4 2558.15 1594.77   1-0.12722 0.25654 0.82589-0.15394-0.54928 0.95419
  -9   6  -4 3919.10 1823.88   1 0.26336-0.78063 0.14790 0.30006-0.95329 0.54823
  -6  -3   4 3752.22 2064.76   1-0.85584 0.20744 0.31410-0.53871-0.41093 0.81655
  -9   6  -4 2962.40 2281.38   1 0.40085-0.91964 0.44874 0.00053-0.79871 0.39274
  -6  -3   5  400.55  586.45   1-0.44456-0.20212 0.75504-0.97906 0.48194 0.02408
  -3   9   5  654.78 1421.38   1-0.19486 0.32419 0.88883-0.21682-0.41472 0.92080
  -9   6  -5  864.65 1252.70   1 0.29303-0.81030 0.06934 0.37862-0.95358 0.44727
  -6  -3   5 1919.61 2150.34   1-0.90752 0.25913 0.26634-0.49095-0.32473 0.83175
  -9   6  -5  366.04 1391.06   1 0.44224-0.96104 0.43639 0.01289-0.78356 0.27610
  -6  -3   6 1733.66 1747.99   1-0.44525-0.20142 0.74859-0.97261 0.49127 0.11596
  -3   9   6 2611.18 1544.11   1-0.25341 0.38274 0.92562-0.25361-0.28105 0.88836
  -9   6  -6 1867.80 1863.96   1 0.46737-0.98616 0.42829 0.02098-0.77338 0.16443
   4  -9   6 1310.69 1572.14   1-0.38348 0.34039 0.22295-0.89468 0.89623-0.28925
  -9   5   6  591.50 1511.32   1-0.29492-0.26549 0.93974-0.56640-0.17288 0.78018
  -4   9  -6 1551.07 2057.15   1 0.89126-0.84804 0.18001 0.49371-0.41623-0.19253
   4  -9   5  369.32 1127.13   1-0.37254 0.32945 0.18151-0.85324 0.91009-0.40427
  -9   5   5  223.76  968.83   1-0.25817-0.30224 0.92780-0.55446-0.26929 0.77537
  -9   5   5  474.16  700.94   1-0.82139 0.25945 0.33975 0.03459-0.45811 0.96513
  -5  -4  -5  139.84  479.27   1-0.13918-0.46655 0.51799-0.81775-0.84398 0.33704
  -4   9  -5  314.86 1349.98   1 0.90038-0.85716 0.16986 0.50385-0.40056-0.10673
   4  -9   4 9217.48 6051.33   1-0.35566 0.31257 0.12189-0.79362 0.92663-0.52197
  -9   5   410682.66 2336.49   1-0.21563-0.34478 0.90385-0.53051-0.36951 0.77438
  -9   5   4 8512.92 3257.75   1-0.70300 0.14105 0.40604-0.03169-0.58387 0.98949
  -5  -4  -4 7772.79 4939.54   1-0.21205-0.39367 0.51550-0.81526-0.83023 0.42468
  -4   9  -410027.55 3297.59   1 0.90428-0.86106 0.16537 0.50835-0.39360-0.01223
   4  -9   3  120.13 1520.46   1-0.33080 0.28771 0.04137-0.71310 0.94279-0.63930
  -9   5   3  528.55 1700.23   1-0.16658-0.39384 0.86527-0.49193-0.47280 0.77645
  -9   5   3  192.37  761.24   1-0.55679-0.00543 0.45996-0.08541-0.69167 0.99633
  -5  -4  -3  600.98  746.41   1-0.29929-0.30618 0.50894-0.80858-0.80708 0.50243
  -4   9  -3  524.28 1511.50   1 0.90123-0.85801 0.16890 0.50482-0.39906 0.09468
  -9   5   2 2623.04 1423.60   1-0.11118-0.44918 0.80858-0.43528-0.57778 0.78023
  -4   9  -2 2316.79 1477.96   1 0.29583-0.25272 0.06159 0.61035-0.95325 0.75072
  -5  -4  -2 3396.38 1848.04   1-0.39724-0.20824 0.49577-0.79541-0.77227 0.56916
  -9   5   2 2988.77 2388.81   1-0.39147-0.17075 0.49672-0.12217-0.77460 0.97770
  -4   9  -2 3147.08 1917.89   1 0.88710-0.84388 0.18446 0.48925-0.42309 0.22017
  -9   5   1  875.96 1814.74   1-0.04855-0.51181 0.73227-0.35897-0.67927 0.78050
  -4   9  -1 1001.17 3251.36   1 0.24824-0.20514 0.18579 0.48616-0.95071 0.84945
  -5  -4  -1  500.97 1263.97   1-0.49903-0.10645 0.47522-0.77485-0.72466 0.62310
  -9   5   1 2084.67 1545.51   1-0.22138-0.34108 0.51497-0.14027-0.82812 0.92950
  -4   9  -1  252.45  744.01   1 0.85124-0.80802 0.21950 0.45422-0.47665 0.37519
  -9   5   021436.92 2830.39   1 0.01881-0.57918 0.63548-0.26218-0.77188 0.77188
  -4   9   018457.07 2698.67   1 0.18773-0.14462 0.32531 0.34663-0.92678 0.92678
  -5  -4   017870.69 7072.33   1-0.59818-0.00729 0.44719-0.74682-0.66497 0.66497
  -9   5   020472.33 7531.92   1-0.06127-0.50118 0.51752-0.14282-0.85346 0.85346
  -9   5  -1  807.81 1525.98   1 0.08723-0.64760 0.52179-0.14849-0.84859 0.74737
  -4   9   1  524.60 1561.35   1 0.11625-0.07315 0.46943 0.20251-0.87527 0.97654
  -5  -4   1  622.63  857.47   1-0.68942 0.08394 0.41257-0.71221-0.59537 0.69692
  -9   5  -1 1390.97 1515.85   1 0.07830-0.64076 0.50879-0.13409-0.85732 0.75593
  -4   9   2 5047.59 2447.19   1 0.03809 0.00500 0.60502 0.06691-0.79529 0.99774
  -9   5  -2 3432.04 1734.59   1 0.15196-0.71234 0.39995-0.02664-0.90384 0.70132
  -5  -4   2 2758.06 2250.40   1-0.76907 0.16389 0.37248-0.67196-0.51940 0.72221
  -9   5  -2 2490.68 1473.09   1 0.19223-0.75470 0.49410-0.11940-0.84788 0.64511
  -5  -4   3  574.84  711.73   1-0.44861-0.15495 0.63367-0.93236 0.63024-0.32662
  -4   9   3 2048.37 3930.18   1-0.04023 0.08334 0.72113-0.04919-0.69162 0.99530
  -9   5  -3  751.80  892.38   1 0.20800-0.76837 0.28056 0.09274-0.93702 0.63323
  -5  -4   3 1010.22 1047.02   1-0.83637 0.23120 0.32907-0.62855-0.43839 0.74260
  -9   5  -3  721.70 1895.35   1 0.28026-0.84273 0.47789-0.10319-0.83250 0.52834
  -5  -4   410056.31 4454.20   1-0.44913-0.15443 0.67203-0.97072 0.58876-0.18394
  -4   9   410386.44 2356.24   1-0.11408 0.15719 0.81178-0.13983-0.57270 0.97761
  -9   5  -411387.37 2492.78   1 0.25296-0.81333 0.17411 0.19918-0.95167 0.54662
  -5  -4   410929.93 7731.45   1-0.89085 0.28567 0.28331-0.58279-0.35513 0.76074
  -9   5  -4 7819.87 2867.51   1 0.34573-0.90775 0.46341-0.08901-0.81591 0.40994
  -5  -4   5  174.88  606.32   1-0.44893-0.15463 0.68712-0.98581 0.57123-0.06521
  -4   9   5  271.46  993.35   1-0.17926 0.22237 0.87626-0.20425-0.44724 0.95332
  -9   5  -5  118.55  872.96   1 0.28662-0.84700 0.08682 0.28648-0.95410 0.44778
  -5  -4   5  946.94 1783.29   1-0.93311 0.32794 0.23615-0.53563-0.27114 0.77816
  -9   5  -5   43.19 1298.12   1 0.39041-0.95244 0.45167-0.07727-0.80222 0.29476
  -5  -4   6  804.06 1061.68   1-0.44890-0.15466 0.68855-0.98724 0.56953 0.03769
  -4   9   6  428.77 1568.86   1-0.23684 0.27995 0.91701-0.24500-0.32092 0.92822
  -9   5  -6  782.05 1787.72   1 0.41855-0.98057 0.44361-0.06920-0.79247 0.18352
   5   4  -6 1909.04 1750.59   1 0.96421-0.35951-0.18809 0.48734 0.18684-0.79576
   5  -9   6 1325.40 2582.81   1-0.37368 0.41677 0.18571-0.85744 0.90877-0.30179
  -9   4   6  751.23 1466.54   1-0.31906-0.28447 0.94207-0.64340-0.10340 0.71070
  -9   4   6  454.18  817.99   1-0.89458 0.28941 0.27966 0.01982-0.34857 0.95699
  -5   9  -6  695.54 1350.88   1 0.84308-0.88630 0.22674 0.44697-0.48763-0.12112
   5  -9   5  720.84 1490.37   1-0.36174 0.40483 0.14282-0.81455 0.92127-0.41545
  -9   4   5  716.99 1123.64   1-0.28695-0.31658 0.93794-0.63927-0.19470 0.70078
  -9   4   5  166.29  800.75   1-0.81171 0.20654 0.34631-0.04683-0.47029 0.97731
  -5   9  -5  462.90 1487.37   1 0.84850-0.89172 0.22195 0.45176-0.48038-0.02691
   5  -9   4 8543.70 5162.08   1-0.34374 0.38683 0.08233-0.75406 0.93544-0.53079
  -9   4   4 9364.57 2233.30   1-0.24943-0.35410 0.92369-0.62502-0.29080 0.69566
  -9   4   4 8499.47 3763.73   1-0.70301 0.09784 0.40604-0.10656-0.58386 0.98948
  -4  -5  -4 7609.87 4217.86   1-0.31021-0.25201 0.50777-0.88232-0.80369 0.39748
  -5   9  -412616.44 3814.94   1 0.84647-0.88969 0.22376 0.44996-0.48311 0.07727
  -9   4   3  597.29  773.18   1-0.20546-0.39806 0.89675-0.59808-0.39193 0.69558
  -9   4   3  837.01  804.15   1-0.57147-0.03400 0.45562-0.15598-0.68251 0.98717
  -4  -5  -3  473.62  947.36   1-0.40058-0.16164 0.49521-0.86976-0.77089 0.46624
  -5   9  -3  386.22 1045.71   1 0.83378-0.87700 0.23473 0.43899-0.49970 0.19532
  -9   4   2 1775.54 1008.28   1-0.15399-0.44954 0.85371-0.55504-0.49744 0.69988
  -5   9  -2 6106.60 4740.20   1 0.28232-0.32543 0.09837 0.57357-0.95425 0.75173
  -4  -5  -2 2665.53 1623.45   1-0.49730-0.06493 0.47563-0.85018-0.72557 0.52247
  -9   4   2 2902.30 1948.49   1-0.42322-0.18226 0.49123-0.19160-0.76129 0.96440
  -5   9  -2 2418.74 1211.53   1 0.80355-0.84677 0.25892 0.41479-0.53596 0.33304
  -9   4   1  257.44 1022.88   1-0.09481-0.50865 0.78995-0.49130-0.60579 0.70702
  -5   9  -1  744.16 1489.98   1 0.23524-0.27835 0.21731 0.45463-0.94732 0.84606
  -4  -5  -1  403.16  673.65   1-0.59330 0.03107 0.44878-0.82333-0.66826 0.56671
  -9   4   1  913.76 1419.53   1-0.26894-0.33653 0.51183-0.21220-0.81589 0.91744
  -5   9  -1 -247.11  730.20   1 0.73986-0.78308 0.30288 0.37084-0.60071 0.49925
  -9   4   021234.90 2661.00   1-0.02745-0.57601 0.70357-0.40492-0.71009 0.71009
  -5   9   019494.85 2906.20   1 0.17679-0.21990 0.34870 0.32325-0.92040 0.92040
  -4  -5   016100.87 5513.56   1-0.68266 0.12042 0.41549-0.79003-0.60111 0.60111
  -9   4   018694.83 8897.21   1-0.12060-0.48512 0.51817-0.21841-0.84672 0.84672
  -9   4  -1 2444.84 4015.04   1 0.04468-0.64816 0.59433-0.29569-0.80297 0.70174
  -5   9   1  552.36 1422.33   1 0.10903-0.15214 0.48291 0.18903-0.86885 0.97011
  -4  -5   1  166.10 1234.28   1-0.76114 0.19920 0.37691-0.75126-0.52781 0.62921
  -9   4  -1  448.75  770.73   1 0.01246-0.61820 0.51416-0.21440-0.85759 0.75621
  -4  -5   2 3002.84 2169.30   1-0.42452-0.13566 0.41238-0.78556 0.80605-0.60372
  -5   9   2 5751.86 3049.20   1 0.03568-0.07879 0.60890 0.06304-0.79244 0.99489
  -9   4  -2 3567.33 1451.53   1 0.11636-0.71984 0.46924-0.17059-0.87536 0.67284
  -4  -5   2 3061.87 2440.24   1-0.82787 0.26593 0.33521-0.70956-0.44971 0.65252
  -9   4  -2 4111.11 2427.25   1 0.12445-0.73018 0.50367-0.20391-0.85488 0.65211
  -4  -5   3  653.82 1320.61   1-0.44041-0.12004 0.52346-0.89682 0.72939-0.42577
  -5   9   3 1189.82 1804.18   1-0.03775-0.00534 0.71777-0.04582-0.69525 0.99893
  -9   4  -3  775.58 1010.99   1 0.18079-0.78427 0.34021-0.04156-0.92280 0.61901
  -4  -5   3  449.70  906.05   1-0.88227 0.32032 0.29139-0.66574-0.36970 0.67392
  -9   4  -3  869.58 1647.43   1 0.21358-0.81931 0.49056-0.19080-0.84482 0.54066
  -4  -5   4 9243.49 5090.13   1-0.44579-0.11466 0.58085-0.95421 0.68108-0.27626
  -5   9   4 8739.84 2024.80   1-0.10750 0.06440 0.80447-0.13253-0.58417 0.98908
  -9   4  -410317.08 2376.41   1 0.23350-0.83699 0.22147 0.07717-0.94679 0.54174
  -4  -5   4 9065.95 6437.69   1-0.92499 0.36304 0.24640-0.62075-0.28926 0.69488
  -9   4  -4 9138.39 5660.41   1 0.28091-0.88664 0.47775-0.17799-0.83236 0.42681
  -4  -5   5 1209.86 1381.77   1-0.44757-0.11288 0.60904-0.98241 0.65477-0.14875
  -5   9   5  925.16 1700.28   1-0.16986 0.12675 0.86818-0.19617-0.46625 0.97234
  -9   4  -5  420.79 1630.98   1 0.32959-0.93484 0.46734-0.16782-0.82033 0.31287
   4   5  -5  159.37 1442.82   1 0.95711-0.39561-0.20076 0.57483 0.20884-0.71628
  -4  -5   6 1642.79 2106.15   1-0.44808-0.11237 0.61960-0.99296 0.64444-0.03721
  -5   9   6  888.84 1425.88   1-0.22581 0.18270 0.91045-0.23844-0.34651 0.95381
  -9   4  -6 1234.25 1918.31   1 0.36084-0.96609 0.45959-0.16006-0.81152 0.20256
   4   5  -6 1304.01 2252.59   1 0.97937-0.41786-0.15492 0.52898 0.12969-0.73862
   6  -9   6 3296.73 2180.06   1-0.36118 0.49045 0.14088-0.81261 0.92179-0.31481
  -9   3   6 1772.24 1336.53   1-0.34438-0.30254 0.93852-0.71442-0.02366 0.63092
  -9   3   6 1715.14 1471.14   1-0.88770 0.23930 0.28632-0.06171-0.36055 0.96898
  -6   9  -6 2755.70 1650.49   1 0.78490-0.91455 0.27268 0.40104-0.55639-0.05236
   6  -9   5  995.31 1555.01   1-0.34806 0.47733 0.09644-0.76817 0.93249-0.42668
  -9   3   5  315.00  925.57   1-0.31776-0.32887 0.94208-0.71807-0.10727 0.61335
  -9   3   5  553.72  744.65   1-0.81022 0.16182 0.34730-0.12269-0.47214 0.97916
  -6   9  -5 -100.73 1427.57   1 0.78504-0.91470 0.27257 0.40114-0.55624 0.04894
   6  -9   4 3297.69 1965.31   1-0.32875 0.45803 0.03506-0.70679 0.94376-0.53911
  -9   3   4 2835.53 1796.68   1-0.28655-0.36008 0.93784-0.71384-0.19576 0.60063
  -9   3   4 3873.78 2237.73   1-0.71125 0.06285 0.40224-0.17763-0.57647 0.98208
  -6   9  -4 5056.54 3122.23   1 0.77521-0.90487 0.27951 0.39420-0.56649 0.16065
  -9   3   3  627.81 1056.79   1-0.24967-0.39696 0.92381-0.69981-0.29021 0.59386
  -6   9  -3  600.91 1182.28   1 0.30188-0.43120 0.04466 0.62729-0.95229 0.64850
  -9   3   3 -247.83 1075.12   1-0.59321-0.05551 0.44881-0.22408-0.66832 0.97298
  -3  -6  -3  358.14  574.30   1-0.53330 0.01431 0.46651-0.91596-0.70565 0.40099
  -6   9  -3  896.39 1296.21   1 0.75088-0.88054 0.29584 0.37788-0.59045 0.28607
  -9   3   2 7229.25 2384.43   1-0.20566-0.44097 0.89690-0.67289-0.39149 0.59392
  -6   9  -2 9276.02 3063.57   1 0.26542-0.39474 0.14263 0.52932-0.95352 0.75099
  -3  -6  -2 7000.96 3569.76   1-0.62041 0.10143 0.43963-0.88908-0.64946 0.44636
  -9   3   2 6598.36 3252.46   1-0.46044-0.18828 0.48390-0.25917-0.74419 0.94729
  -6   9  -2 8258.18 2102.40   1 0.70331-0.83301 0.32492 0.34900-0.63227 0.42928
  -9   3   1  758.70 1388.67   1-0.15287-0.49377 0.85265-0.62865-0.49960 0.60081
  -6   9  -1  -75.58 1374.83   1 0.21866-0.34798 0.25624 0.41571-0.94155 0.84029
  -3  -6  -1  866.93 1370.83   1-0.70160 0.18288 0.40668-0.85590-0.58511 0.48371
  -9   3   1  819.57 1234.90   1-0.32103-0.32769 0.50654-0.28181-0.80021 0.90177
  -6   9  -1  -68.52  745.13   1 0.61457-0.74427 0.37048 0.30344-0.69644 0.59495
  -9   3   0 6922.16 1426.56   1-0.09028-0.55629 0.78462-0.56064-0.61336 0.61336
  -6   9   0 7837.79 2625.80   1 0.16197-0.29129 0.37959 0.29236-0.91086 0.91086
  -3  -6   0 7404.72 3002.23   1-0.77401 0.25529 0.36965-0.81888-0.51405 0.51405
  -9   3   0 9545.63 3824.39   1-0.18441-0.46458 0.51679-0.29197-0.83601 0.83601
  -9   3  -1  191.32  774.48   1-0.01773-0.62884 0.68984-0.46586-0.72373 0.62251
  -6   9   1  265.25 1382.37   1 0.09713-0.22644 0.50402 0.16792-0.85821 0.95943
  -3  -6   1  574.88 1199.60   1-0.83537 0.31665 0.32980-0.77903-0.43974 0.54114
  -9   3  -1  803.05 1381.35   1-0.05874-0.59025 0.51745-0.29263-0.85368 0.75230
  -3  -6   2 7845.77 4553.44   1-0.39884-0.11825 0.28602-0.73384 0.87127-0.66894
  -6   9   210270.22 3141.35   1 0.02839-0.15771 0.62050 0.05144-0.78368 0.98614
  -9   3  -2 7815.66 1447.28   1 0.06009-0.70667 0.56877-0.34479-0.82029 0.61784
  -3  -6   2 6680.25 3783.93   1-0.88558 0.36687 0.28831-0.73753-0.36415 0.56695
  -9   3  -2 7402.77 2880.76   1 0.05007-0.69906 0.51137-0.28655-0.85789 0.65512
  -3  -6   3  667.34 1337.87   1-0.42435-0.09274 0.41137-0.85919 0.80665-0.50316
  -6   9   3 1310.84 5428.21   1-0.04057-0.08874 0.72158-0.04964-0.69113 0.99481
  -3  -6   3  267.97 1004.99   1-0.92533 0.40661 0.24598-0.69521-0.28853 0.59274
  -9   3  -3  -10.85 1298.77   1 0.13921-0.78821 0.50179-0.27697-0.85370 0.54954
  -3  -6   4 3537.06 2436.68   1-0.43542-0.08192 0.48337-0.93141 0.75944-0.35462
  -9   3  -4 2848.23 1794.22   1 0.20848-0.85748 0.49143-0.26661-0.84559 0.44004
   3   6  -4 3098.86 1779.05   1 0.95560-0.43729-0.20331 0.65218 0.21326-0.61921
  -3  -6   5  225.71 1090.17   1-0.44044-0.07690 0.52370-0.97173 0.72920-0.22318
  -6   9   5  140.09 1115.03   1-0.16570 0.03637 0.86449-0.19248-0.47454 0.98062
  -9   3  -5 1313.32 2216.76   1 0.25926-0.90826 0.48215-0.25733-0.83684 0.32990
   3   6  -5  372.50 1617.77   1 0.97717-0.45886-0.16046 0.60934 0.13920-0.64664
  -3  -6   6 2701.71 2243.85   1-0.44254-0.07480 0.54350-0.99154 0.71326-0.10603
  -6   9   6 3029.43 1962.25   1-0.21960 0.09027 0.90649-0.23447-0.36061 0.96792
  -9   3  -6 2583.96 2010.46   1 0.29418-0.94267 0.47540-0.25076-0.82912 0.22016
   3   6  -6 2269.39 2183.69   1 0.99084-0.47253-0.11763 0.56650 0.06618-0.67511
   7  -9   5 1306.66 1779.34   1-0.33122 0.54668 0.04267-0.71440 0.94258-0.43677
  -9   2   5  533.18  643.06   1-0.34927-0.34078 0.93699-0.78758-0.00734 0.51339
  -9   2   5  612.08 1240.97   1-0.81507 0.12345 0.34406-0.19432-0.46611 0.97313
  -7   9  -5  534.41 1627.21   1 0.71168-0.92785 0.32009 0.35383-0.62532 0.11786
  -9   2   4 2364.57 1443.39   1-0.32538-0.36436 0.94182-0.79248-0.08421 0.48908
  -7   9  -4 1686.56 1225.62   1 0.31071-0.52624 0.01944 0.65250-0.95030 0.54525
  -9   2   4 2385.23 2185.88   1-0.72563 0.03400 0.39536-0.24562-0.56315 0.96876
  -7   9  -4 3299.74 2160.88   1 0.69332-0.90948 0.33056 0.34336-0.64033 0.23436
  -9   2   3 1109.34  888.65   1-0.29740-0.39235 0.94020-0.79087-0.16601 0.46966
  -7   9  -3 2161.63 2318.06   1 0.28233-0.49786 0.09835 0.57359-0.95425 0.65047
  -9   2   3 1212.08 1520.21   1-0.62010-0.07187 0.43973-0.28992-0.64968 0.95434
  -7   9  -3 1062.64  999.53   1 0.65739-0.87355 0.34970 0.32422-0.66748 0.36300
  -9   2   2 5754.12 1299.92   1-0.26404-0.42571 0.93030-0.78097-0.25457 0.45700
  -7   9  -2 9310.23 3277.15   1 0.24515-0.46068 0.19336 0.47858-0.95000 0.74747
  -9   2   2 8028.26 4763.74   1-0.50156-0.19041 0.47460-0.32479-0.72331 0.92641
  -7   9  -2 6315.31 2094.41   1 0.59467-0.81083 0.37946 0.29446-0.70878 0.50579
  -9   2   1 1802.05 1594.53   1-0.22335-0.46639 0.90891-0.75957-0.35212 0.45334
  -7   9  -1 1217.19 1393.13   1 0.19868-0.41421 0.30136 0.37059-0.93257 0.83131
  -2  -7  -1 1478.63 1412.01   1-0.81652 0.34103 0.34308-0.86718-0.46429 0.36289
  -9   2   1 2274.28 1574.82   1-0.37615-0.31582 0.49912-0.34931-0.78062 0.88217
  -7   9  -1 1426.90 1162.95   1 0.48884-0.70500 0.42100 0.25292-0.76406 0.66256
  -9   2   0 4541.52 1222.82   1-0.17256-0.51718 0.87054-0.72120-0.46083 0.46083
  -7   9   0 9751.60 3842.21   1 0.14363-0.35915 0.41661 0.25534-0.89766 0.89766
  -2  -7   0 4699.99 3656.95   1-0.86473 0.38924 0.30679-0.83089-0.39762 0.39762
  -9   2   0 5365.39 2631.12   1-0.25107-0.44090 0.51329-0.36347-0.82066 0.82066
  -7   9   0 3671.42 1954.53   1 0.31152-0.52768 0.47155 0.20237-0.82497 0.82497
  -7   9   1 2060.26 1756.71   1 0.08179-0.29731 0.53141 0.14052-0.84315 0.94437
  -2  -7   1 2178.98 1542.88   1-0.90468 0.42919 0.26936-0.79345-0.33012 0.43152
  -9   2  -1 2135.74 1784.83   1-0.13389-0.55837 0.51806-0.36818-0.84479 0.74340
  -2  -7   2 7530.01 4115.63   1-0.37050-0.10350 0.17403-0.69649 0.91238-0.71005
  -7   9   2 9801.04 2708.89   1 0.01696-0.23248 0.63834 0.03359-0.76956 0.97201
  -2  -7   2 7448.02 3193.79   1-0.93677 0.46128 0.23129-0.75539-0.26259 0.46540
  -9   2  -2 7198.81 4224.88   1-0.02956-0.66270 0.51642-0.36654-0.85581 0.65304
  -2  -7   3 1907.59 1604.33   1-0.40263-0.07137 0.30270-0.82515 0.86386-0.56037
  -7   9   3 2565.10 2016.04   1-0.04782-0.16769 0.73130-0.05936-0.68036 0.98404
  -9   2  -3 2643.42 1535.03   1 0.05827-0.75054 0.51066-0.36078-0.85780 0.55364
   2   7  -3 1693.94 1232.81   1 0.96157-0.48644-0.19297 0.71666 0.19530-0.49976
  -2  -7   4 3466.35 2048.87   1-0.41948-0.05451 0.38451-0.90697 0.82230-0.41764
  -7   9   4 1875.58 1537.77   1-0.10975-0.10576 0.80699-0.13505-0.58026 0.98517
  -9   2  -4 3921.74 2803.83   1 0.12843-0.82069 0.50317-0.35329-0.85458 0.44903
   2   7  -4 3737.34 2611.86   1 0.97960-0.50448-0.15431 0.67800 0.12865-0.53460
  -2  -7   5  585.76  722.76   1-0.42826-0.04574 0.43452-0.95698 0.79232-0.28650
  -7   9   5  866.18 1185.04   1-0.16602-0.04952 0.86478-0.19276-0.47390 0.97999
  -9   2  -5 1538.58 1258.57   1 0.18130-0.87356 0.49581-0.34593-0.84929 0.34235
   2   7  -5  383.46 1622.44   1 0.99133-0.51620-0.11551 0.63920 0.06260-0.57004
  -9   1   5   -6.05  831.66   1-0.37979-0.35339 0.91923-0.84453 0.10371 0.40233
  -9   1   5  491.92 1214.26   1-0.82482 0.08996 0.33737-0.26250-0.45370 0.96072
  -8   9  -5  656.98 1391.47   1 0.63085-0.93348 0.36282 0.31110-0.68584 0.17837
  -9   1   4 4514.56 2924.77   1-0.36367-0.36951 0.93053-0.85583 0.04289 0.36194
  -8   9  -4 4183.53 2473.09   1 0.28894-0.59068 0.08052 0.59143-0.95395 0.54890
  -9   1   4 5400.30 4721.36   1-0.74457 0.00971 0.38580-0.31093-0.54476 0.95038
  -8   9  -4 4432.59 2792.42   1 0.60433-0.90695 0.37515 0.29877-0.70288 0.29691
  -9   1   3  498.80  562.03   1-0.34569-0.38749 0.93814-0.86344-0.01933 0.32296
  -8   9  -3  784.95 1420.25   1 0.25934-0.56108 0.15811 0.51383-0.95275 0.64896
  -9   1   3 1002.64 1737.95   1-0.65067-0.08455 0.42847-0.35356-0.62692 0.93158
  -8   9  -3 1456.53 1426.50   1 0.55840-0.86103 0.39481 0.27911-0.72959 0.42511
  -9   1   2 2442.40  893.85   1-0.32544-0.40741 0.94181-0.86715-0.08403 0.28646
  -8   9  -2 3619.70 2294.01   1 0.22153-0.52327 0.24961 0.42234-0.94266 0.74013
  -9   1   2 4343.05 2632.45   1-0.54528-0.18994 0.46323-0.38832-0.69862 0.90173
  -8   9  -2 2604.76 1378.44   1 0.48468-0.78731 0.42244 0.25148-0.76590 0.56292
  -8   9  -1  890.29 1288.62   1 0.17544-0.47718 0.35155 0.32039-0.91957 0.81831
  -9   1   1 1567.05 2210.25   1-0.43313-0.30209 0.48938-0.41447-0.75690 0.85845
  -8   9  -1  957.47  901.29   1 0.37038-0.67301 0.45709 0.21683-0.80862 0.70713
  -8   9   014066.03 3306.59   1 0.12203-0.42377 0.45852 0.21342-0.88026 0.88026
  -9   1   010755.87 4102.13   1-0.31980-0.41542 0.50668-0.43177-0.80062 0.80062
  -8   9   0 7122.12 3258.72   1 0.19641-0.49927 0.49342 0.18103-0.84731 0.84731
  -8   9   1  611.67 1350.47   1 0.06307-0.36481 0.56373 0.10820-0.82354 0.92477
   1   8  -1 2067.50 2347.76   1 0.28291 0.14814 0.09682 0.50046-0.95424 0.85298
  -9   1  -1 1628.57 1278.01   1-0.21159-0.52394 0.51553-0.44059-0.83033 0.72894
   1   8  -1  943.39 1236.33   1 0.96020-0.52827-0.19541 0.79391 0.19954-0.30103
  -1  -8   2 3085.66 2152.62   1-0.34168-0.08922 0.07569-0.67278 0.93675-0.73443
  -8   9   2 3615.93 1785.42   1 0.00193-0.30367 0.66113 0.01080-0.75026 0.95271
  -9   1  -2 4202.16 2462.35   1-0.11302-0.62250 0.51819-0.44325-0.84776 0.64498
   1   8  -2 2293.97 1719.99   1 0.97539-0.54347-0.16472 0.76321 0.14650-0.34948
  -1  -8   3 1696.09  939.55   1-0.37773-0.05318 0.20085-0.79794 0.90386-0.60037
  -8   9   3 1208.49 2247.53   1-0.05889-0.24284 0.74579-0.07384-0.66356 0.96724
  -9   1  -3  802.66 1288.83   1-0.02792-0.70761 0.51635-0.44141-0.85591 0.55175
   1   8  -3  774.81 1607.80   1 0.98685-0.55492-0.13284 0.73134 0.09200-0.39647
  -1  -8   4 4081.42 3378.32   1-0.39907-0.03184 0.28701-0.88411 0.87083-0.46618
  -8   9   4 5399.35 2681.12   1-0.11708-0.18464 0.81506-0.14311-0.56741 0.97232
  -9   1  -4 3040.27 1991.20   1 0.04182-0.77735 0.51204-0.43710-0.85793 0.45238
   1   8  -4 3907.10 2572.95   1 0.99431-0.56238-0.10004 0.69854 0.03649-0.44244
  -1  -8   5  518.62  670.32   1-0.41145-0.01945 0.34374-0.94083 0.84412-0.33830
  -8   9   5 1070.10 2231.12   1-0.17021-0.13155 0.86849-0.19648-0.46555 0.97164
  -9   1  -5 1635.84 1694.06   1 0.09576-0.83129 0.50698-0.43204-0.85661 0.34968
   1   8  -5  454.30 1740.07   1 0.99759-0.56566-0.06648 0.66497-0.01976-0.48767
  -9   9  -4 1292.87 1526.41   1 0.26351-0.65146 0.14753 0.52441-0.95330 0.54825
  -9   0   4 1601.56 1935.81   1-0.76680-0.01127 0.37376-0.37376-0.52183 0.92745
  -9   9  -4 1989.32 1587.50   1 0.51148-0.90058 0.41292 0.26100-0.75357 0.34760
  -9   9  -3  122.45 1316.38   1 0.23281-0.62077 0.22311 0.44884-0.94658 0.64279
  -9   0   3  882.07 1187.57   1-0.68374-0.09473 0.41503-0.41503-0.60020 0.90486
  -9   9  -3  693.22 1553.00   1 0.45804-0.84713 0.43135 0.24257-0.77725 0.47278
  -9   9  -2 3662.41 1952.54   1 0.19458-0.58253 0.31038 0.36156-0.93048 0.72795
  -9   0   2 4257.29 3613.95   1-0.59056-0.18791 0.44966-0.44966-0.67009 0.87320
  -9   9  -2 2940.35 1872.53   1 0.37780-0.76689 0.45512 0.21880-0.80630 0.60332
  -9   9  -1  951.60 2137.22   1 0.14907-0.53702 0.40577 0.26617-0.90173 0.80047
  -9   0   1  821.46 1156.92   1-0.49095-0.28752 0.47713-0.47713-0.72891 0.83046
  -9   9  -1  677.39  995.21   1 0.26051-0.64991 0.48191 0.19254-0.83659 0.73520
  -9   9   0 1916.80 1786.89   1 0.09712-0.48507 0.50403 0.16790-0.85820 0.85820
  -9   0   0 2985.67 2649.06   1-0.38923-0.38923 0.49708-0.49708-0.77549 0.77549
  -9   9   0 3309.04 2441.70   1 0.09876-0.48815 0.50665 0.16780-0.85647 0.85647
  -9   9   1  343.54 2322.99   1 0.04131-0.42926 0.59982 0.07212-0.79906 0.90029
   0   9  -1   51.92  863.83   1 0.25717 0.13078 0.16359 0.50836-0.95241 0.85115
  -9   0  -1  507.01 1165.33   1-0.29022-0.48825 0.50987-0.50987-0.80981 0.70826
   0   9  -1   82.00  836.62   1 0.99272-0.60398-0.10888 0.78219 0.05138-0.15287
  -9   9   2 4113.30 1999.92   1-0.01626-0.37168 0.68774-0.01580-0.72576 0.92822
  -9   0  -2 3938.87 2368.68   1-0.19889-0.57990 0.51617-0.51617-0.83307 0.63029
   0   9  -2 4271.62 2486.24   1 0.99578-0.60705-0.08969 0.76300 0.01908-0.22205
   0  -9   3  293.11  519.31   1-0.35113-0.03669 0.10662-0.77835 0.93023-0.62674
  -9   9   3  461.59 1304.86   1-0.07327-0.31467 0.76400-0.09205-0.64104 0.94472
  -9   0  -3  808.96 1276.17   1-0.11796-0.66083 0.51818-0.51818-0.84709 0.54293
   0   9  -3  835.36 1600.91   1 0.99757-0.60884-0.06687 0.74018-0.01909-0.28536
   0  -9   4 1475.16 1426.05   1-0.37569-0.01212 0.19321-0.86494 0.90637-0.50172
  -9   9   4 1510.53 1274.13   1-0.12781-0.26013 0.82651-0.15457-0.54821 0.95312
  -9   0  -4 3268.07 3969.68   1-0.05007-0.72872 0.51719-0.51719-0.85439 0.44885
   0   9  -4 1134.03 1429.74   1 0.99725-0.60852-0.04147 0.71478-0.06130-0.34465
   1 -10   4  333.39  709.85   1-0.35034 0.00560 0.10398-0.85035 0.93083-0.52618
 -10   9   4  154.19  984.98   1-0.14072-0.33347 0.84085-0.16884-0.52264 0.92751
  -9  -1  -4  235.85 1484.54   1-0.14585-0.67620 0.51788-0.59282-0.84292 0.43737
  -1  10  -4  533.83 1385.01   1 0.98650-0.64096 0.02019 0.72792-0.16245-0.24349
 -10   9   3   41.95 1278.66   1-0.09057-0.38358 0.78496-0.11302-0.61288 0.91656
  -9  -1  -3  182.23  441.79   1-0.21040-0.61166 0.51559-0.59053-0.83059 0.52643
  -1  10  -3  289.93 1216.93   1 0.99085-0.64531 0.00326 0.74485-0.13487-0.16959
 -10   9   2 8780.10 4172.09   1-0.03729-0.43686 0.71713-0.04519-0.69593 0.89839
  -1  10  -2 6339.16 2830.21   1 0.28556 0.05928 0.08969 0.65691-0.95415 0.75162
  -9  -1  -2 5426.98 3050.72   1-0.28538-0.53633 0.51034-0.58525-0.81123 0.60813
 -10   9   1  -34.08 1418.00   1 0.01677-0.49093 0.63863 0.03331-0.76933 0.87055
  -1  10  -1  454.01 1475.56   1 0.23240 0.11244 0.22410 0.52250-0.94644 0.84518
  -9  -1  -1  481.95 1103.18   1-0.36935-0.45237 0.50014-0.57505-0.78321 0.68166
 -10   9   0  304.47 1270.32   1 0.06969-0.54385 0.55244 0.11949-0.83062 0.83062
  -9  -1   0  507.23  851.47   1-0.45843-0.36329 0.48432-0.55923-0.74516 0.74516
 -10   9   0  -64.78  780.42   1 0.01275-0.48868 0.51415 0.16030-0.85760 0.85760
 -10   9  -1 1109.31 2112.83   1 0.11967-0.59383 0.46300 0.20895-0.87824 0.77697
  -9  -1   1  697.85 1600.90   1-0.54877-0.27295 0.46225-0.53716-0.69653 0.79809
 -10   9  -1  393.50  707.95   1 0.16152-0.63745 0.49874 0.17571-0.85156 0.75017
 -10   9  -2 5782.88 3001.98   1 0.16433-0.63849 0.37474 0.29720-0.91244 0.70992
  -9  -1   2 5651.96 3870.33   1-0.63653-0.18518 0.43381-0.50872-0.63766 0.84077
 -10   9  -2 5559.25 4171.92   1 0.27492-0.75086 0.47900 0.19545-0.83365 0.63087
 -10   9  -3  441.89 1346.27   1 0.20269-0.67685 0.29246 0.37948-0.93454 0.63075
  -9  -1   3  515.56 1260.43   1-0.71801-0.10329 0.39905-0.47392-0.57027 0.87448
 -10   9  -3  338.37 1069.35   1 0.35908-0.83464 0.46004 0.21388-0.81204 0.50756
 -10   9  -4  -83.83 1094.77   1 0.23422-0.70838 0.21977 0.45217-0.94701 0.54196
  -9  -1   4 1325.60 1439.85   1-0.79129-0.03001 0.35936-0.43423-0.49468 0.90029
 -10   9  -4  303.30 1106.49   1 0.41741-0.89297 0.44394 0.22998-0.79289 0.38692
   2 -10   4  359.67  756.75   1-0.34867 0.09012 0.09845-0.84481 0.93206-0.52740
 -10   8   4  324.12 1465.63   1-0.15718-0.36012 0.85671-0.25936-0.49125 0.89612
  -8  -2  -4  383.99  913.84   1-0.17241-0.60638 0.51721-0.66709-0.83830 0.43275
  -2  10  -4  333.68 1320.83   1 0.96968-0.71052 0.06541 0.68270-0.23545-0.17049
 -10   8   3 1705.39 1435.55   1-0.10724-0.41001 0.80418-0.20690-0.58461 0.88830
  -8  -2  -3 1712.36 1115.37   1-0.23993-0.53854 0.51410-0.66392-0.82348 0.51882
  -2  10  -3 1691.37 2143.41   1 0.97439-0.71524 0.05460 0.69351-0.21809-0.08637
 -10   8   211661.33 3083.67   1-0.05332-0.46393 0.73855-0.14127-0.67207 0.87453
  -2  10  -2 9177.39 2678.30   1 0.28634-0.02771 0.08756 0.65904-0.95411 0.75158
  -8  -2  -2 6634.67 3624.35   1-0.31871-0.45976 0.50681-0.65663-0.80097 0.59787
  -2  10  -2 6498.84 2278.83   1 0.97592-0.71676 0.05087 0.69725-0.21208 0.00910
 -10   8   1 4236.33 2178.89   1 0.00236-0.51962 0.66049-0.06321-0.75082 0.85205
  -2  10  -1 5200.19 2229.79   1 0.23640 0.02222 0.21454 0.53206-0.94767 0.84640
  -8  -2  -1 4597.25 2162.59   1-0.40511-0.37336 0.49445-0.64426-0.76902 0.66747
 -10   8   1 3987.74 2458.99   1-0.18213-0.33706 0.51687 0.08263-0.83645 0.93784
 -10   8   0  -12.55 1423.34   1 0.05778-0.57504 0.57266 0.02461-0.81775 0.81775
  -2  10   0  136.57 1062.28   1 0.17215 0.08647 0.35846 0.38814-0.91753 0.91753
  -8  -2   0 -174.93 1277.47   1-0.49528-0.28319 0.47611-0.62593-0.72664 0.72664
 -10   8   0  100.38  727.69   1-0.01046-0.50873 0.51551 0.08400-0.85681 0.85681
  -2  10   1 3318.05 1601.06   1 0.09484 0.16379 0.50816 0.23843-0.85601 0.95724
 -10   8  -1 6105.44 2614.46   1 0.11081-0.62808 0.47961 0.11768-0.87045 0.76919
  -8  -2   1 4528.43 2829.93   1-0.58504-0.19343 0.45142-0.60124-0.67374 0.77529
 -10   8  -1 4575.11 2127.72   1 0.13173-0.65093 0.50276 0.09675-0.85432 0.75294
  -2  10   2 7440.49 1841.85   1 0.01041 0.24821 0.64836 0.09823-0.76125 0.96371
 -10   8  -210747.13 3099.90   1 0.15869-0.67596 0.38631 0.21097-0.90861 0.70608
  -8  -2   2 5939.42 5102.23   1-0.67053-0.10794 0.42056-0.57038-0.61114 0.81425
 -10   8  -2 6240.36 4585.42   1 0.24304-0.76224 0.48527 0.11423-0.83989 0.63712
 -10   8  -3 2384.52 1734.21   1 0.20000-0.71727 0.29844 0.29884-0.93323 0.62944
  -8  -2   3 2182.52 2769.55   1-0.74831-0.02976 0.38384-0.53358-0.54101 0.84522
 -10   8  -3 1708.87 1486.99   1 0.32742-0.84621 0.46786 0.13118-0.82091 0.51643
 -10   8  -4  518.63 1185.40   1 0.23394-0.75122 0.22042 0.37687-0.94693 0.54188
  -8  -2   4  696.31 1195.95   1-0.81692 0.03885 0.34281-0.49255-0.46379 0.86941
 -10   8  -4  209.24 1232.18   1 0.38711-0.90590 0.45258 0.14645-0.80330 0.39733
   3 -10   5 1717.86 2167.25   1-0.36189 0.18952 0.14334-0.88971 0.92113-0.41531
 -10   7   5 1047.40 1381.19   1-0.22318-0.33723 0.90880-0.38612-0.35250 0.85859
  -7  -3  -5 1310.98 1101.58   1-0.15517-0.58036 0.51769-0.74251-0.84137 0.33443
  -3  10  -5 2347.11 2370.75   1 0.93507-0.76219 0.12558 0.62300-0.33145-0.17584
   3 -10   4  822.06 1093.07   1-0.34417 0.17180 0.08371-0.83008 0.93516-0.53051
 -10   7   4 1127.97 1812.19   1-0.17827-0.38214 0.87543-0.35275-0.44925 0.85412
  -7  -3  -4 1281.33 1101.52   1-0.21393-0.52159 0.51540-0.74022-0.82981 0.42426
  -3  10  -4  707.73 1350.45   1 0.94177-0.76890 0.11559 0.63298-0.31573-0.09010
 -10   7   3 2882.17 1749.81   1-0.12867-0.43175 0.82857-0.30590-0.54488 0.84853
  -7  -3  -3 3723.73 2736.48   1-0.28486-0.45036 0.51039-0.73511-0.81138 0.50672
  -3  10  -3 2843.65 2092.32   1 0.94408-0.77120 0.11202 0.63656-0.31009 0.00571
 -10   7   2 7837.24 2559.06   1-0.07556-0.48480 0.76683-0.24421-0.63738 0.83983
  -3  10  -216018.42 5897.43   1 0.28304-0.11061 0.09647 0.65014-0.95424 0.75171
 -10   7   2 5069.13 3907.82   1-0.37882-0.18341 0.49872 0.02564-0.77959 0.98270
  -7  -3  -2 6583.06 3281.51   1-0.36634-0.36888 0.50058-0.72531-0.78434 0.58124
  -3  10  -2 4440.37 1957.04   1 0.94019-0.76731 0.11801 0.63057-0.31954 0.11662
 -10   7   1 5789.44 2517.58   1-0.01876-0.54160 0.69131-0.16869-0.72230 0.82353
  -3  10  -1 7632.33 2654.61   1 0.23527-0.06284 0.21726 0.52935-0.94733 0.84607
  -7  -3  -1 7101.02 3129.87   1-0.45407-0.28115 0.48523-0.70995-0.74723 0.64568
 -10   7   1 5293.31 2010.69   1-0.20378-0.35867 0.51593 0.00864-0.83203 0.93342
 -10   7   0 2232.77 1815.80   1 0.03900-0.59937 0.60355-0.08093-0.79636 0.79636
  -3  10   0 1427.09 1432.80   1 0.17483-0.00241 0.35284 0.39377-0.91920 0.91920
  -7  -3   0 1387.35 1099.41   1-0.54368-0.19154 0.46367-0.68840-0.69957 0.69957
 -10   7   0 1914.23 1935.67   1-0.04369-0.51877 0.51698 0.00759-0.85487 0.85487
 -10   7  -1 6166.34 1897.88   1 0.09511-0.65548 0.50766 0.01495-0.85628 0.75505
  -3  10   1 8890.11 2544.23   1 0.10337 0.06904 0.49334 0.25326-0.86366 0.96492
  -7  -3   1 6022.51 3763.27   1-0.63086-0.10436 0.43589-0.66062-0.64187 0.74342
 -10   7  -1 6044.36 3100.74   1 0.09259-0.65506 0.50732 0.01725-0.85676 0.75537
  -3  10   2 9518.14 2765.96   1 0.02474 0.14767 0.62624 0.12035-0.77923 0.98168
 -10   7  -2 7671.10 2432.51   1 0.14705-0.70743 0.40980 0.11282-0.90024 0.69771
  -7  -3   2 8960.76 5242.03   1-0.71163-0.02321 0.40206-0.62667-0.57612 0.77893
 -10   7  -2 7017.86 4898.43   1 0.20209-0.76456 0.49250 0.03207-0.84652 0.64374
  -3  10   3 5528.31 2625.74   1-0.05456 0.22698 0.74017 0.00642-0.67019 0.97387
 -10   7  -3 4364.03 2345.37   1 0.19207-0.75244 0.31588 0.20674-0.92915 0.62536
  -7  -3   3 3699.83 2589.59   1-0.78408 0.04923 0.36373-0.58835-0.50289 0.80710
 -10   7  -3 3931.12 3830.97   1 0.28697-0.84899 0.47695 0.04721-0.83075 0.52628
  -3  10   4  978.40 1065.46   1-0.12966 0.30208 0.82844-0.08184-0.54485 0.94976
 -10   7  -4 1519.90 1469.42   1 0.22918-0.78955 0.23172 0.29090-0.94539 0.54034
  -7  -3   4 1763.76 1081.38   1-0.84635 0.11150 0.32156-0.54617-0.42459 0.83021
 -10   7  -4 1004.83 1868.21   1 0.34835-0.91037 0.46276 0.06140-0.81516 0.40919
 -10   7  -5 1665.93 1323.75   1 0.25820-0.81857 0.16100 0.36162-0.95258 0.44626
  -7  -3   5 1372.52 1824.63   1-0.89776 0.16291 0.27649-0.50110-0.34289 0.84991
 -10   7  -5 1304.89 1480.70   1 0.39082-0.95285 0.45156 0.07260-0.80208 0.29462
   4 -10   5  607.26 1235.82   1-0.35504 0.26885 0.11977-0.86613 0.92714-0.42133
 -10   6   5  497.01 1055.12   1-0.24619-0.35733 0.92206-0.47405-0.29864 0.80472
  -4  10  -5 1326.77 2438.47   1 0.89771-0.81127 0.17289 0.57569-0.40524-0.10205
   4 -10   4 7555.90 6209.93   1-0.33691 0.25072 0.06046-0.80682 0.93959-0.53494
 -10   6   4 5848.77 3367.91   1-0.20400-0.39952 0.89569-0.44768-0.39510 0.79997
  -6  -4  -4 4822.55 3740.96   1-0.27331-0.41866 0.51145-0.81109-0.81468 0.40847
  -4  10  -4 5593.82 2481.35   1 0.90124-0.81480 0.16888 0.57969-0.39904-0.00679
 -10   6   3  822.80 1072.98   1-0.15661-0.44692 0.85617-0.40816-0.49237 0.79602
 -10   6   3  759.22  812.25   1-0.55313-0.05234 0.46101-0.01156-0.69390 0.99856
  -6  -4  -3  754.72  925.02   1-0.34748-0.34449 0.50322-0.80286-0.79121 0.48655
  -4  10  -3  763.99 1031.12   1 0.89780-0.81136 0.17278 0.57579-0.40507 0.10069
 -10   6   2  546.89 1061.82   1-0.10471-0.49875 0.80133-0.35337-0.58898 0.79143
  -4  10  -2 1423.47 2282.46   1 0.27605-0.18984 0.11503 0.63158-0.95423 0.75170
  -6  -4  -2  621.42  753.42   1-0.43027-0.26170 0.48992-0.78956-0.75817 0.55507
 -10   6   2  194.99  732.96   1-0.39469-0.21079 0.49619-0.04674-0.77330 0.97641
  -4  10  -2  921.69 1658.08   1 0.88332-0.79688 0.18844 0.56014-0.42921 0.22629
 -10   6   1 1091.51 1455.25   1-0.04779-0.55567 0.73126-0.28330-0.68041 0.78163
  -4  10  -1  950.29 1211.02   1 0.22975-0.14354 0.23037 0.51624-0.94559 0.84432
  -6  -4  -1 1120.45 1564.74   1-0.51724-0.17473 0.47071-0.77034-0.71476 0.61321
 -10   6   1  777.94 1026.36   1-0.23451-0.37096 0.51447-0.06501-0.82481 0.92636
 -10   6   017008.39 2657.77   1 0.01176-0.61523 0.64631-0.19835-0.76298 0.76298
  -4  10   014271.71 2583.30   1 0.17219-0.08597 0.35840 0.38821-0.91755 0.91755
  -6  -4   015720.95 7941.61   1-0.60371-0.08827 0.44536-0.74499-0.66120 0.66120
 -10   6   014930.31 6521.86   1-0.08522-0.52050 0.51801-0.06837-0.85111 0.85111
 -10   6  -1  822.69 1098.00   1 0.07123-0.67470 0.54979-0.10183-0.83225 0.73102
  -4  10   1 1509.27 1679.64   1 0.10499-0.01878 0.49036 0.25624-0.86516 0.96642
  -6  -4   1  759.68  576.17   1-0.68555-0.00642 0.41425-0.71389-0.59867 0.70022
 -10   6  -1 1131.95 1521.44   1 0.04525-0.65098 0.51177-0.06213-0.85792 0.75654
  -4  10   2  612.41  952.81   1 0.03148 0.05472 0.61561 0.13098-0.78741 0.98987
 -10   6  -2  202.00  996.53   1 0.12753-0.73101 0.44801-0.00004-0.88488 0.68235
  -6  -4   2  659.57 1333.20   1-0.75934 0.06772 0.37790-0.67738-0.52969 0.73250
 -10   6  -2 1349.82 1751.32   1 0.15280-0.75853 0.49996-0.05032-0.85245 0.64968
  -4  10   3 2815.07 3037.22   1-0.04289 0.12910 0.72471 0.02188-0.68770 0.99138
 -10   6  -3  663.72  833.70   1 0.17719-0.78067 0.34785 0.10011-0.92064 0.61686
  -6  -4   3 1062.62 1079.02   1-0.82395 0.13233 0.33797-0.63745-0.45482 0.75903
 -10   6  -3  873.09 1832.43   1 0.23718-0.84292 0.48637-0.03673-0.84094 0.53678
  -4  10   4 6080.22 2245.93   1-0.11412 0.20033 0.81182-0.06521-0.57264 0.97755
 -10   6  -4 5812.13 2020.51   1 0.21849-0.82197 0.25665 0.19131-0.94148 0.53643
  -6  -4   4 5914.64 3685.79   1-0.87816 0.18654 0.29513-0.59461-0.37645 0.78207
 -10   6  -4 5914.10 5014.00   1 0.30123-0.90649 0.47386-0.02457-0.82747 0.42150
  -4  10   5  598.19 1389.34   1-0.17802 0.26424 0.87522-0.12854-0.44976 0.95585
 -10   6  -5  255.14 1491.98   1 0.25084-0.85432 0.17937 0.26859-0.95126 0.44494
  -6  -4   5 1152.34 1637.50   1-0.92183 0.23021 0.25020-0.54968-0.29600 0.80302
 -10   6  -5  653.09 1236.67   1 0.34589-0.95115 0.46337-0.01409-0.81586 0.30840
   5 -10   5  443.01  998.68   1-0.34564 0.34564 0.08851-0.83488 0.93418-0.42836
 -10   5   5 -130.47  968.94   1-0.27248-0.37415 0.93353-0.56019-0.23296 0.73904
  -5  10  -5 1125.64 2082.25   1 0.84923-0.84923 0.22130 0.52727-0.47939-0.02790
   5 -10   419239.23 5305.25   1-0.32686 0.32686 0.02925-0.77562 0.94461-0.53996
 -10   5   417472.66 3381.55   1-0.23416-0.41248 0.91547-0.54213-0.32721 0.73208
 -10   5   412086.08 7420.94   1-0.69288 0.04448 0.41058-0.03622-0.59273 0.99835
  -5  10  -417145.71 4120.43   1 0.84733-0.84733 0.22300 0.52557-0.48197 0.07613
 -10   5   3  220.08  984.10   1-0.19040-0.45624 0.88535-0.51201-0.42414 0.72779
  -5  10  -3  319.78  926.80   1 0.30085-0.30085 0.04755 0.69905-0.95248 0.64869
 -10   5   3   88.21  547.68   1-0.56258-0.08614 0.45827-0.08372-0.68809 0.99275
  -5  -5  -3   62.09  900.37   1-0.43088-0.21784 0.48980-0.86435-0.75790 0.45324
  -5  10  -3  138.70  993.01   1 0.83506-0.83506 0.23365 0.51493-0.49807 0.19369
 -10   5   2 1467.20 1263.73   1-0.14082-0.50582 0.84094-0.46760-0.52247 0.72490
  -5  10  -2 1190.49 1374.70   1 0.26562-0.26562 0.14212 0.60449-0.95354 0.75101
  -5  -5  -2 1803.75 1340.34   1-0.51213-0.13660 0.47200-0.84655-0.71758 0.51448
 -10   5   2 1646.61 1341.00   1-0.41914-0.22959 0.49198-0.11743-0.76307 0.96617
  -5  10  -2  515.30  741.70   1 0.80580-0.80580 0.25720 0.49137-0.53340 0.33048
 -10   5   1  463.50  862.09   1-0.08602-0.56055 0.77955-0.40625-0.62039 0.72162
  -5  10  -1  851.11 1982.95   1 0.22033-0.22033 0.25238 0.49423-0.94220 0.84094
  -5  -5  -1  367.13  978.17   1-0.59480-0.05392 0.44829-0.82284-0.66725 0.56570
 -10   5   1  558.56 1100.23   1-0.27267-0.37605 0.51151-0.13696-0.81486 0.91641
 -10   5   036740.92 3415.06   1-0.02601-0.62056 0.70155-0.32825-0.71214 0.71214
  -5  10   044960.13 4760.54   1 0.16502-0.16502 0.37330 0.37330-0.91291 0.91291
  -5  -5   030672.8411524.20   1-0.67438 0.02565 0.41897-0.79352-0.60799 0.60799
 -10   5   034168.0015271.75   1-0.13355-0.51544 0.51807-0.14337-0.84484 0.84484
 -10   5  -1  531.51 2420.75   1 0.03623-0.68281 0.60802-0.23472-0.79308 0.69186
  -5  10   1  -22.59 1381.83   1 0.10098-0.10098 0.49701 0.24958-0.86184 0.96307
  -5  -5   1  240.03  740.15   1-0.74701 0.09861 0.38452-0.75887-0.54231 0.64372
 -10   5  -1  391.42 1280.08   1-0.00913-0.63986 0.51544-0.14074-0.85687 0.75548
  -5  10   2 1150.24 1857.92   1 0.03218-0.03218 0.61450 0.13210-0.78825 0.99071
 -10   5  -2 1023.11  908.74   1 0.09703-0.74361 0.50419-0.13089-0.85812 0.65566
  -5  -5   2 1349.98 1063.63   1-0.81132 0.16293 0.34657-0.72092-0.47077 0.67358
 -10   5  -2 1891.02 2300.05   1 0.09598-0.74498 0.50696-0.13226-0.85660 0.65383
  -5  10   3  482.95 1408.44   1-0.03780 0.03780 0.71783 0.02877-0.69518 0.99887
 -10   5  -3  270.68  791.06   1 0.15261-0.79920 0.39865-0.02534-0.90431 0.60052
  -5  -5   3  228.68  561.02   1-0.86590 0.21750 0.30581-0.68016-0.39583 0.70004
 -10   5  -3  324.11 1112.23   1 0.18047-0.82946 0.49593-0.12123-0.84939 0.54523
  -5  10   413727.07 4871.55   1-0.10529 0.10529 0.80198-0.05538-0.58798 0.99289
  -5  -5   414848.13 8994.04   1-0.91053 0.26213 0.26308-0.63744-0.31891 0.72453
 -10   5  -413267.78 8791.08   1 0.24516-0.89416 0.48488-0.11018-0.83951 0.43396
  -5  10   5  151.56 1001.24   1-0.16659 0.16659 0.86528-0.11860-0.47278 0.97886
 -10   5  -5  290.41 1130.85   1 0.29282-0.94131 0.47570-0.10129-0.82943 0.32197
   6 -10   5  422.56 1763.14   1-0.33355 0.41973 0.04992-0.79628 0.94140-0.43559
 -10   4   5 1447.21 1472.50   1-0.30139-0.38836 0.94084-0.64217-0.15481 0.66089
 -10   4   5  328.94  800.69   1-0.79900 0.10738 0.35455-0.05507-0.48567 0.99269
  -6  10  -5  473.22 2054.93   1 0.78997-0.87641 0.26901 0.47956-0.55096 0.04366
 -10   4   4 7364.22 2223.79   1-0.26813-0.42161 0.93192-0.63325-0.24415 0.64902
 -10   4   4 7217.64 4435.85   1-0.69785 0.00622 0.40837-0.10889-0.58841 0.99403
  -6  10  -4 8341.10 3967.55   1 0.78089-0.86733 0.27553 0.47305-0.56061 0.15477
 -10   4   3 1629.66 1406.66   1-0.22970-0.46004 0.91284-0.61417-0.33755 0.64120
  -6  10  -3  962.98 1708.65   1 0.28727-0.37348 0.08506 0.66155-0.95406 0.65027
 -10   4   3  611.15  929.22   1-0.57987-0.11210 0.45304-0.15340-0.67712 0.98178
  -6  10  -3 1310.45 1528.42   1 0.75784-0.84428 0.29129 0.45729-0.58380 0.27942
 -10   4   2  455.26  855.55   1-0.18528-0.50447 0.88123-0.58256-0.43484 0.63727
  -6  10  -2  526.06 1592.42   1 0.25190-0.33811 0.17674 0.56986-0.95147 0.74894
  -4  -6  -2  332.09  461.36   1-0.61226 0.00678 0.44246-0.89191-0.65525 0.45214
 -10   4   2  828.49 1118.24   1-0.45008-0.24189 0.48604-0.18641-0.74912 0.95222
  -6  10  -2  189.76  750.23   1 0.71225-0.79871 0.31976 0.42904-0.62485 0.42187
 -10   4   1  698.19  676.20   1-0.13419-0.55555 0.83426-0.53559-0.53477 0.63599
  -6  10  -1  267.94 1243.23   1 0.20734-0.29355 0.28204 0.46456-0.93672 0.83546
  -4  -6  -1 1519.49 1257.74   1-0.68522 0.07974 0.41439-0.86385-0.59894 0.49739
 -10   4   1  918.21 1564.11   1-0.31640-0.37557 0.50707-0.20744-0.80172 0.90327
 -10   4   016636.77 2152.09   1-0.07679-0.61289 0.76835-0.46971-0.63540 0.63540
  -6  10   021127.27 4331.42   1 0.15389-0.24011 0.39605 0.35055-0.90523 0.90523
  -4  -6   018533.60 6455.33   1-0.75256 0.14739 0.38158-0.83080-0.53669 0.53669
 -10   4   018267.79 6789.76   1-0.18730-0.50496 0.51667-0.21691-0.83544 0.83544
 -10   4  -1 1157.49  917.82   1-0.01368-0.67599 0.68404-0.38540-0.72931 0.62808
  -6  10   1 1387.73 1983.64   1 0.09289-0.17910 0.51167 0.23492-0.85414 0.95536
  -4  -6   1 1404.93 1467.33   1-0.81287 0.20770 0.34554-0.79476-0.46886 0.57026
 -10   4  -1 1211.91 1076.16   1-0.06938-0.62287 0.51772-0.21796-0.85272 0.75134
  -6  10   2  548.28 1809.70   1 0.02789-0.11410 0.62129 0.12530-0.78307 0.98553
  -4  -6   2  211.88  724.72   1-0.86452 0.25935 0.30697-0.75619-0.39794 0.60075
 -10   4  -2  579.83 1686.61   1 0.03259-0.72486 0.51276-0.21300-0.85791 0.65513
  -6  10   3 1337.42 1860.30   1-0.03809-0.04811 0.71823 0.02837-0.69475 0.99843
  -4  -6   3 1178.26 1266.94   1-0.90723 0.30206 0.26665-0.71588-0.32528 0.62949
 -10   4  -3 1204.28 1961.86   1 0.11651-0.80877 0.50463-0.20487-0.85543 0.55127
  -6  10   4 6848.36 1951.32   1-0.10200 0.01579 0.79824-0.05164-0.59363 0.99854
 -10   4  -4 5681.25 4334.58   1 0.18227-0.87453 0.49566-0.19590-0.84917 0.44362
  -4  -6   5  683.84 1222.28   1-0.43887-0.16469 0.51024-0.95828 0.73961-0.23358
  -6  10   5  260.49 1088.74   1-0.16054 0.07432 0.85981-0.11313-0.48471 0.99079
 -10   4  -5  492.32  943.41   1 0.23103-0.92330 0.48749-0.18773-0.84200 0.33506
   4   6  -5  220.21 1295.82   1 0.96690-0.36220-0.18291 0.63178 0.17787-0.68531
 -10   3   5  676.32  901.82   1-0.33190-0.40127 0.94114-0.71704-0.06388 0.56993
 -10   3   5  833.69 1348.35   1-0.80170 0.06685 0.35284-0.12823-0.48246 0.98948
  -7  10  -5 2622.59 2335.69   1 0.72112-0.89405 0.31452 0.43428-0.61729 0.10983
 -10   3   4 1276.90 1166.78   1-0.30486-0.42800 0.94130-0.71729-0.14495 0.54981
  -7  10  -4  876.04 1406.99   1 0.29820-0.47063 0.05498 0.69162-0.95291 0.54786
 -10   3   4 1367.39 1699.01   1-0.70955-0.02529 0.40303-0.17842-0.57801 0.98362
  -7  10  -4  893.68 1391.64   1 0.70401-0.87694 0.32453 0.42428-0.63170 0.22573
 -10   3   3 3993.48 2099.01   1-0.27352-0.45933 0.93389-0.70989-0.23026 0.53391
  -7  10  -3 3727.07 2648.36   1 0.27057-0.44299 0.12935 0.61726-0.95396 0.65018
 -10   3   3 5906.47 4300.74   1-0.60305-0.13217 0.44558-0.22085-0.66165 0.96630
  -7  10  -3 2736.52 1857.42   1 0.66984-0.84277 0.34326 0.40555-0.65839 0.35391
 -10   3   2 6852.45 1829.64   1-0.23691-0.49594 0.91705-0.69305-0.32074 0.52317
  -7  10  -2 8934.69 3682.87   1 0.23496-0.40738 0.21800 0.52861-0.94724 0.74471
 -10   3   2 7585.47 4723.16   1-0.48589-0.24933 0.47830-0.25357-0.73152 0.93462
  -7  10  -2 5852.41 2122.02   1 0.60929-0.78222 0.37290 0.37590-0.69978 0.49680
 -10   3   1 5106.04 1326.25   1-0.19381-0.53905 0.88802-0.66401-0.41695 0.51817
  -7  10  -1 7516.16 2479.57   1 0.19098-0.36341 0.31825 0.42836-0.92856 0.82730
  -3  -7  -1 5124.00 3487.92   1-0.78329 0.22134 0.36421-0.88830-0.50378 0.40238
 -10   3   1 6146.10 3033.89   1-0.36431-0.37091 0.50088-0.27615-0.78510 0.88665
  -7  10   0 2688.82 2517.36   1 0.13919-0.31161 0.42536 0.32125-0.89425 0.89425
  -3  -7   0 2548.23 2187.26   1-0.83393 0.27199 0.33085-0.85495-0.44167 0.44167
 -10   3   0 1989.25 1581.77   1-0.24492-0.49030 0.51374-0.28902-0.82223 0.82223
  -7  10   1 6791.30 2363.98   1 0.08091-0.25333 0.53295 0.21364-0.84226 0.94349
  -3  -7   1 5932.88 7121.58   1-0.87794 0.31600 0.29532-0.81942-0.37681 0.47821
 -10   3  -1 8020.85 2948.59   1-0.13432-0.60120 0.51806-0.29324-0.84472 0.74334
  -7  10   2 6682.20 2942.73   1 0.01936-0.19178 0.63463 0.11197-0.77257 0.97502
  -3  -7   2 7401.67 4457.07   1-0.91485 0.35291 0.25828-0.78237-0.31035 0.51316
 -10   3  -2 6899.43 4471.31   1-0.03632-0.69920 0.51670-0.29188-0.85539 0.65261
  -7  10   311708.96 6740.86   1-0.04292-0.12949 0.72476 0.02184-0.68765 0.99133
 -10   3  -3 4993.39 4056.68   1 0.04616-0.78169 0.51169-0.28687-0.85792 0.55376
  -3  -7   4 1671.82 1345.25   1-0.41698-0.14320 0.37136-0.89382 0.82958-0.42493
  -7  10   4  589.26 1677.01   1-0.10337-0.06904 0.79981-0.05320-0.59128 0.99619
 -10   3  -4 2525.46 2545.22   1 0.11227-0.84780 0.50513-0.28031-0.85570 0.45016
   3   7  -4  549.04 1075.54   1 0.96765-0.40614-0.18142 0.70511 0.17530-0.58125
  -3  -7   5 1623.33 1271.04   1-0.42656-0.13362 0.42428-0.94674 0.79876-0.29294
  -7  10   5 1360.85 1302.98   1-0.15908-0.01334 0.85847-0.11179-0.48755 0.99364
 -10   3  -5 1103.71 1989.21   1 0.16242-0.89796 0.49861-0.27379-0.85147 0.34453
   3   7  -5 1172.58 1871.29   1 0.98399-0.42248-0.14202 0.66571 0.10764-0.61508
 -10   2   4  114.42  580.82   1-0.34267-0.43364 0.93899-0.78959-0.02931 0.43415
  -8  10  -4   68.53 2642.34   1 0.27911-0.53774 0.10695 0.63966-0.95428 0.54923
 -10   2   4  527.00 1125.84   1-0.72636-0.05171 0.39500-0.24526-0.56245 0.96807
  -8  10  -4  277.01 1117.18   1 0.61956-0.87896 0.36816 0.38064-0.69324 0.28727
 -10   2   3 1259.64  854.09   1-0.31992-0.45605 0.94206-0.79272-0.10082 0.40447
  -8  10  -3 3295.92 3267.41   1 0.25070-0.50934 0.17971 0.56690-0.95123 0.64744
 -10   2   3 2574.09 1847.40   1-0.63063-0.14784 0.43597-0.28616-0.64204 0.94670
  -8  10  -3 2292.13 1843.20   1 0.57541-0.83481 0.38776 0.36104-0.72008 0.41561
  -8  10  -2 8106.51 2873.43   1 0.21484-0.47348 0.26501 0.48159-0.94000 0.73747
 -10   2   2 8060.53 4233.76   1-0.52526-0.25321 0.46864-0.31882-0.71025 0.91336
  -8  10  -2 5866.17 2285.18   1 0.50332-0.76272 0.41588 0.33292-0.75743 0.55444
  -8  10  -1 6792.58 3206.08   1 0.17143-0.43007 0.35997 0.38663-0.91707 0.81581
 -10   2   1 4593.62 2599.12   1-0.41522-0.36325 0.49268-0.34286-0.76475 0.86630
  -8  10   0 -128.85 1519.43   1 0.12120-0.37984 0.46009 0.28652-0.87955 0.87955
  -2  -8   0  100.42  427.70   1-0.90983 0.39112 0.26384-0.86281-0.32027 0.32027
 -10   2   0  702.05 1322.27   1-0.30584-0.47263 0.50825-0.35843-0.80507 0.80507
  -8  10   1 4464.30 2532.55   1 0.06548-0.32411 0.55965 0.18695-0.82613 0.92736
  -2  -8   1 4298.25 1971.93   1-0.93568 0.41696 0.23275-0.83172-0.26516 0.36657
 -10   2  -1 3299.49 2277.18   1-0.20277-0.57602 0.51598-0.36610-0.83225 0.73086
  -8  10   2 7774.56 2119.23   1 0.00715-0.26578 0.65331 0.09329-0.75705 0.95950
 -10   2  -2 9157.68 5382.78   1-0.10964-0.66915 0.51819-0.36831-0.84820 0.64543
   2   8  -2 7599.38 2643.76   1 0.95734-0.43903-0.20038 0.79888 0.20817-0.41114
  -8  10   3 3345.35 2859.40   1-0.05165-0.20697 0.73636 0.01023-0.67460 0.97829
 -10   2  -3 2877.17 1875.62   1-0.02958-0.74920 0.51643-0.36655-0.85581 0.55165
   2   8  -3 2423.60 2300.47   1 0.97456-0.45625-0.16665 0.76514 0.14982-0.45429
  -2  -8   4   -9.55 1149.23   1-0.39676-0.12033 0.27709-0.87418 0.87509-0.47044
  -8  10   4  417.79 1620.31   1-0.10875-0.14987 0.80587-0.05926-0.58201 0.98692
   2   8  -4  648.90 1382.92   1 0.98709-0.46878-0.13202 0.73052 0.09061-0.49656
  -9  10  -4  327.62 2342.04   1 0.25671-0.60156 0.16473 0.58188-0.95234 0.54729
 -10   1   4  556.37 1117.80   1-0.74700-0.07429 0.38452-0.30965-0.54232 0.94794
  -9  10  -4  284.03 1527.88   1 0.53045-0.87631 0.40583 0.34297-0.74425 0.33828
  -9  10  -3 -115.99 1313.89   1 0.22761-0.57245 0.23542 0.51118-0.94486 0.64107
 -10   1   3  699.90 1365.97   1-0.66139-0.16033 0.42426-0.34935-0.61851 0.92316
  -9  10  -3  397.05  971.04   1 0.47840-0.82426 0.42459 0.32421-0.76866 0.46419
  -9  10  -2 5737.27 3117.24   1 0.19159-0.53643 0.31693 0.42967-0.92889 0.72636
 -10   1   2 6815.67 3818.44   1-0.56710-0.25462 0.45693-0.38202-0.68527 0.88838
  -9  10  -2 3442.87 1901.38   1 0.39885-0.74471 0.44931 0.29949-0.79939 0.59641
  -9  10  -1  -93.33 1588.20   1 0.14882-0.49366 0.40627 0.34034-0.90155 0.80028
 -10   1   1  915.20 1483.70   1-0.46810-0.35362 0.48227-0.40736-0.74046 0.84202
  -9  10   0   85.18 1408.06   1 0.09986-0.44470 0.49906 0.24754-0.86079 0.86079
 -10   1   0 1258.84 1602.73   1-0.36867-0.45305 0.50024-0.42533-0.78347 0.78347
  -9  10   1  207.93 3737.72   1 0.04691-0.39175 0.59068 0.15591-0.80553 0.90676
 -10   1  -1  302.73  846.35   1-0.27324-0.54848 0.51146-0.43655-0.81470 0.71315
  -9  10   2 7217.83 3244.25   1-0.00832-0.33651 0.67628 0.07032-0.73659 0.93904
 -10   1  -2 5874.17 4791.75   1-0.18622-0.63583 0.51672-0.44178-0.83565 0.63288
   1   9  -2 5172.92 2750.55   1 0.98670-0.51158-0.13337 0.80668 0.09290-0.29588
  -9  10   3  518.35 1528.90   1-0.06378-0.28105 0.75206-0.00546-0.65599 0.95967
 -10   1  -3  524.55 1440.10   1-0.10964-0.71241 0.51819-0.44325-0.84820 0.54404
   1   9  -3  256.34 1286.01   1 0.99320-0.51808-0.10639 0.77970 0.04718-0.35164
  -1  -9   4  392.65  872.26   1-0.37379-0.10020 0.18614-0.85787 0.90863-0.50398
  -9  10   4  295.28 1447.76   1-0.11761-0.22722 0.81563-0.06903-0.56648 0.97139
 -10   1  -4  777.85  969.84   1-0.04568-0.77638 0.51705-0.44211-0.85473 0.44918
   1   9  -4   29.62 1420.59   1 0.99698-0.52186-0.07758 0.75089-0.00121-0.40473
 -10  10  -3  433.78 1001.80   1 0.20121-0.63227 0.29575 0.45086-0.93383 0.63004
 -10   0   3 1753.63 1695.31   1-0.69401-0.17051 0.41008-0.41008-0.59175 0.89596
 -10  10  -3  585.04 1024.17   1 0.38163-0.81396 0.45408 0.29472-0.80508 0.50060
 -10  10  -2 5805.20 2704.24   1 0.16521-0.59627 0.37293 0.37368-0.91303 0.71050
 -10   0   2 5338.40 3106.91   1-0.61048-0.25448 0.44307-0.44307-0.65649 0.85960
 -10  10  -2 3818.29 3127.23   1 0.29837-0.73069 0.47449 0.27431-0.82814 0.62516
 -10  10  -1 1979.12 1667.00   1 0.12323-0.55429 0.45623 0.29038-0.88128 0.78002
 -10   0   1 1613.83 1627.34   1-0.52205-0.34292 0.46947-0.46947-0.71207 0.81362
 -10  10   0 1528.15 1981.22   1 0.07597-0.50702 0.54159 0.20500-0.83719 0.83719
 -10   0   0  371.55 1129.81   1-0.43248-0.43248 0.48950-0.48950-0.75719 0.75719
 -10  10   1 2287.25 2090.17   1 0.02548-0.45653 0.62508 0.12151-0.78013 0.88136
 -10   0  -1 1674.83 1595.52   1-0.34547-0.51950 0.50349-0.50349-0.79192 0.69037
 -10  10   2 8447.61 3497.93   1-0.02674-0.40431 0.70257 0.04402-0.71110 0.91356
 -10   0  -2 4315.86 3167.65   1-0.26446-0.60051 0.51222-0.51222-0.81712 0.61401
 -10  10   3 1315.38 1407.47   1-0.07893-0.35212 0.77097-0.02437-0.63195 0.93563
 -10   0  -3 1309.79 1605.95   1-0.19286-0.67247 0.51644-0.51644-0.83431 0.53015
   0  10  -3 1286.66 1246.15   1 0.99720-0.56527-0.04058 0.78870-0.06277-0.24168
 -11  10   1  458.71 1141.31   1 0.00139-0.51865 0.66194 0.08466-0.74955 0.85077
 -10  -1  -1  333.00 1187.96   1-0.41810-0.49012 0.49216-0.56707-0.76351 0.66196
 -11  10   0 1257.21 2125.54   1 0.04935-0.56661 0.58668 0.15992-0.80831 0.80831
 -10  -1   0 1006.25 1466.69   1-0.49644-0.41177 0.47583-0.55074-0.72602 0.72602
 -11  10  -1 1006.66 1348.12   1 0.09449-0.61175 0.50879 0.23780-0.85568 0.75445
 -10  -1   1  822.64 1605.48   1-0.57630-0.33191 0.45414-0.52905-0.67942 0.78097
 -11   9   2 1733.44 1743.32   1-0.06088-0.49948 0.74836-0.07641-0.66049 0.86294
  -2  11  -2 3203.54 2720.98   1 0.25807 0.04366 0.16132 0.65995-0.95256 0.75003
  -9  -2  -2 2282.14 1648.16   1-0.37220-0.49276 0.49972-0.64954-0.78213 0.57902
 -11   9   1  513.12 1568.53   1-0.01033-0.55003 0.67919-0.00725-0.73388 0.83511
  -2  11  -1   51.63  903.51   1 0.20811 0.09362 0.28030 0.54096-0.93707 0.83581
  -9  -2  -1  469.84 1114.53   1-0.44761-0.41736 0.48654-0.63636-0.75027 0.64872
 -11   9   0  621.97 3074.99   1 0.03957-0.59994 0.60263 0.06930-0.79703 0.79703
  -9  -2   0 1209.91 1307.68   1-0.52657-0.33840 0.46829-0.61811-0.70951 0.70951
 -11   9  -1   61.32 1101.87   1 0.08708-0.64745 0.52206 0.14988-0.84844 0.74722
  -9  -2   1  242.68  843.79   1-0.60588-0.25908 0.44463-0.59444-0.65969 0.76125
 -11   9  -1  117.01  679.34   1 0.07079-0.63326 0.50951 0.16494-0.85754 0.75615
 -11   9  -2 2777.22 2251.08   1 0.13079-0.69117 0.44172 0.23022-0.88756 0.68503
  -9  -2   2 2150.99 1742.03   1-0.68247-0.18250 0.41557-0.56539-0.60127 0.80437
 -11   9  -2 2127.35 2121.83   1 0.17906-0.74152 0.49615 0.17830-0.84956 0.64679
 -11   8   3  998.72 1155.46   1-0.12908-0.47438 0.82784-0.23055-0.54590 0.84958
  -3  11  -3  809.36 1494.40   1 0.29455-0.07902 0.06514 0.75613-0.95341 0.64962
  -8  -3  -3  880.42 1252.21   1-0.34181-0.47991 0.50397-0.72869-0.79320 0.48854
 -11   8   2 3975.23 2279.85   1-0.07939-0.52407 0.77154-0.17426-0.63119 0.83365
  -3  11  -2 5046.60 2789.09   1 0.25809-0.04257 0.16125 0.66002-0.95256 0.75004
  -8  -3  -2 3481.23 2103.16   1-0.41224-0.40948 0.49321-0.71794-0.76602 0.56292
 -11   8   1 1603.12 1663.58   1-0.02787-0.57559 0.70416-0.10687-0.70949 0.81071
  -3  11  -1  620.75 1299.24   1 0.21084 0.00468 0.27414 0.54713-0.93829 0.83702
  -8  -3  -1  648.08  773.05   1-0.48827-0.33345 0.47775-0.70248-0.73029 0.62874
 -11   8   1  536.14  808.35   1-0.23702-0.36845 0.51430 0.08496-0.82420 0.92575
 -11   8   0  825.72 1471.03   1 0.02386-0.62734 0.62762-0.03033-0.77815 0.77815
  -3  11   0  252.59 1197.21   1 0.15249 0.06303 0.39890 0.42237-0.90422 0.90422
  -8  -3   0  376.96  548.38   1-0.56659-0.25512 0.45708-0.68181-0.68559 0.68559
 -11   8   0  203.78  615.76   1-0.08683-0.51890 0.51803 0.08148-0.85094 0.85094
 -11   8  -1  532.75 1250.09   1 0.07388-0.67736 0.54521 0.05206-0.83503 0.73380
  -3  11   1  519.93  978.64   1 0.08413 0.13139 0.52728 0.29397-0.84551 0.94673
  -8  -3   1 1450.67 2164.16   1-0.64388-0.17784 0.43107-0.65579-0.63213 0.73368
 -11   8  -1  371.02  835.04   1 0.04232-0.64805 0.51200 0.08751-0.85793 0.75655
  -3  11   2 2455.82 1611.02   1 0.01014 0.20538 0.64878 0.17248-0.76090 0.96336
 -11   8  -2 6122.40 2771.70   1 0.12044-0.72393 0.46153 0.13575-0.87890 0.67638
  -8  -3   2 4047.98 3088.17   1-0.71679-0.10450 0.39963-0.62424-0.57139 0.77420
 -11   8  -2 2583.98 1920.71   1 0.14758-0.75332 0.50068 0.09883-0.85295 0.65018
 -11   8  -3  616.89 1225.11   1 0.16140-0.76488 0.38077 0.21652-0.91047 0.60668
  -8  -3   3 1490.39 1597.71   1-0.78368-0.03761 0.36397-0.58858-0.50334 0.80755
 -11   8  -3  387.13  923.71   1 0.22972-0.83545 0.48773 0.11178-0.84222 0.53806
 -11   7   3  227.95  900.89   1-0.15226-0.49437 0.85208-0.32940-0.50076 0.80441
  -4  11  -3  186.45 1034.64   1 0.28967-0.16035 0.07854 0.74272-0.95389 0.65010
  -7  -4  -3  636.91  874.50   1-0.39488-0.38358 0.49616-0.79580-0.77322 0.46856
 -11   7   2 2839.83 1868.85   1-0.10398-0.54259 0.80049-0.27787-0.59024 0.79269
  -4  11  -2 4974.55 2691.46   1 0.25420-0.12488 0.17102 0.65025-0.95190 0.74938
  -7  -4  -2 2087.54 2420.55   1-0.46573-0.31274 0.48278-0.78241-0.74162 0.53852
 -11   7   2 1704.15 1135.47   1-0.40922-0.23951 0.49374 0.03062-0.76730 0.97041
 -11   7   1 1936.17 2511.04   1-0.05217-0.59440 0.73704-0.21442-0.67382 0.77505
  -4  11  -1  504.30 1009.31   1 0.20887-0.07955 0.27859 0.54268-0.93742 0.83615
 -11   7   1  350.07  678.39   1-0.25796-0.39076 0.51275 0.01161-0.81886 0.92041
 -11   7   0 1068.86 1081.95   1 0.00100-0.64758 0.66252-0.13990-0.74904 0.74904
  -4  11   0 1134.33 1701.20   1 0.15361-0.02429 0.39663 0.42464-0.90503 0.90503
  -7  -4   0 1788.33 1749.79   1-0.61662-0.16185 0.44095-0.74059-0.65217 0.65217
 -11   7   0 1437.27 1592.36   1-0.11765-0.53133 0.51818 0.00639-0.84713 0.84713
 -11   7  -1 1240.81 2161.98   1 0.05350-0.70008 0.57980-0.05718-0.81299 0.71176
  -4  11   1  545.86 1399.41   1 0.08945 0.03985 0.51783 0.30343-0.85079 0.95201
  -7  -4   1 1128.60 1534.61   1-0.68951-0.08856 0.41205-0.71154-0.59563 0.69704
 -11   7  -1  692.29  880.59   1 0.00547-0.65447 0.51460 0.00997-0.85740 0.75602
  -4  11   2 2229.95 1683.21   1 0.02022 0.10908 0.63329 0.18796-0.77364 0.97609
 -11   7  -2 1991.56 1660.45   1 0.10322-0.74981 0.49361 0.02901-0.86353 0.66100
  -7  -4   2 2742.39 2632.84   1-0.75751-0.02056 0.37890-0.67839-0.53160 0.73441
 -11   7  -2 4144.02 2968.98   1 0.10795-0.75695 0.50563 0.01894-0.85596 0.65319
  -4  11   3  -19.64 1379.84   1-0.05059 0.17991 0.73497 0.08629-0.67620 0.97989
 -11   7  -3  433.87 1072.81   1 0.14761-0.79420 0.40868 0.11394-0.90065 0.59687
  -7  -4   3   -1.41  920.75   1-0.81835 0.04027 0.34184-0.64132-0.46199 0.76620
 -11   7  -3  935.53 1908.92   1 0.18949-0.83848 0.49453 0.03004-0.84824 0.54408
 -11   6   4 3196.33 2776.34   1-0.22414-0.46560 0.90941-0.46140-0.35032 0.75519
  -5  11  -4 1866.42 1383.88   1 0.30827-0.26516 0.02647 0.79479-0.95092 0.54587
  -5  11  -4 2058.38 1632.66   1 0.84204-0.79882 0.22765 0.59578-0.48901 0.08317
 -11   6   3  221.34 1588.70   1-0.18158-0.50816 0.87820-0.43019-0.44247 0.74612
  -5  11  -3 1391.09 3042.68   1 0.28165-0.23854 0.10019 0.72108-0.95427 0.65048
 -11   6   3  488.58  654.25   1-0.56418-0.12779 0.45780-0.00834-0.68710 0.99176
  -6  -5  -3  -21.82  764.60   1-0.46467-0.27055 0.48300-0.85755-0.74214 0.43748
 -11   6   2  795.72 1414.08   1-0.13463-0.55512 0.83471-0.38670-0.53397 0.73640
  -5  11  -2  393.16 1972.94   1 0.24676-0.20366 0.18942 0.63185-0.95038 0.74785
  -6  -5  -2  564.74  726.85   1-0.53379-0.20143 0.46637-0.84092-0.70537 0.50226
 -11   6   2  581.68 1088.62   1-0.42611-0.26586 0.49070-0.04124-0.76002 0.96312
 -11   6   1  307.75  926.33   1-0.08426-0.60541 0.77744-0.32948-0.62327 0.72450
  -5  11  -1  -99.66 1020.25   1 0.20284-0.15973 0.29212 0.52914-0.93462 0.83335
  -6  -5  -1  265.57  867.08   1-0.60545-0.12977 0.44477-0.81932-0.66000 0.55844
 -11   6   1  776.69 1288.68   1-0.28701-0.40496 0.51018-0.06072-0.81076 0.91231
 -11   6   0 7348.32 2039.58   1-0.03054-0.65913 0.70787-0.25990-0.70568 0.70568
  -5  11   0 9347.24 3290.77   1 0.15000-0.10690 0.40389 0.41738-0.90242 0.90242
  -6  -5   0 6463.78 3646.55   1-0.67609-0.05913 0.41826-0.79281-0.60659 0.60659
 -11   6   0 7167.50 5034.16   1-0.15591-0.53635 0.51768-0.06804-0.84124 0.84124
 -11   6  -1  271.94 1154.34   1 0.02400-0.71368 0.62741-0.17945-0.77831 0.67708
  -5  11   1  267.30 1056.07   1 0.08927-0.04616 0.51816 0.30310-0.85061 0.95183
  -6  -5   1  156.06 1063.40   1-0.74237 0.00752 0.38694-0.76129-0.54695 0.64835
 -11   6  -1  279.10 1070.50   1-0.03865-0.65360 0.51679-0.06715-0.85523 0.75384
  -5  11   2  199.48 2055.38   1 0.02405 0.01905 0.62733 0.19392-0.77837 0.98083
 -11   6  -2  323.37  843.22   1 0.07680-0.76649 0.54014-0.09218-0.83805 0.63560
  -6  -5   2  224.01 1005.99   1-0.80288 0.06803 0.35208-0.72643-0.48104 0.68385
 -11   6  -2  498.23  958.75   1 0.06092-0.75319 0.51042-0.06078-0.85775 0.65498
  -5  11   3 1038.61 2590.76   1-0.04275 0.08585 0.72452 0.09673-0.68791 0.99159
  -6  -5   3  810.20 1432.60   1-0.85586 0.12101 0.31408-0.68844-0.41091 0.71512
 -11   6  -3 1015.95 1547.88   1 0.14173-0.83399 0.50146-0.05182-0.85348 0.54932
  -5  11   4 2914.49 1477.71   1-0.10790 0.15100 0.80492 0.01634-0.58348 0.98839
  -6  -5   4 3620.93 3067.85   1-0.90056 0.16571 0.27364-0.64799-0.33778 0.74339
 -11   6  -4 2979.63 2435.19   1 0.20441-0.89667 0.49211-0.04247-0.84618 0.44064
 -11   5   4 2204.41 1486.46   1-0.25483-0.47803 0.92628-0.55294-0.27758 0.68244
  -6  11  -4 1708.01 1400.62   1 0.29740-0.34051 0.05723 0.76404-0.95303 0.54798
 -11   5   4 2679.99 1918.67   1-0.69276-0.04208 0.41063-0.03627-0.59283 0.99845
  -6  11  -4 4084.30 2622.97   1 0.77930-0.82252 0.27665 0.54679-0.56226 0.15642
 -11   5   3  -18.81  936.73   1-0.21627-0.51658 0.90428-0.53094-0.36808 0.67173
  -6  11  -3  377.46 1264.80   1 0.27060-0.31370 0.12928 0.69199-0.95397 0.65018
 -11   5   3  188.95 1196.84   1-0.57631-0.15891 0.45414-0.07959-0.67941 0.98407
 -11   5   2  708.87 1337.28   1-0.17293-0.55993 0.87086-0.49752-0.46009 0.66252
  -6  11  -2 1095.99 1959.01   1 0.23602-0.27913 0.21546 0.60581-0.94755 0.74503
  -5  -6  -2  415.71  640.10   1-0.61674-0.07523 0.44091-0.89036-0.65208 0.44897
 -11   5   2  720.73 1132.68   1-0.45040-0.28482 0.48598-0.11143-0.74897 0.95207
 -11   5   1  267.51 1331.06   1-0.12520-0.60758 0.82376-0.45046-0.55293 0.65415
  -6  11  -1 -205.17 1058.13   1 0.19315-0.23626 0.31351 0.50776-0.92972 0.82846
  -5  -6  -1  499.75  995.34   1-0.68127-0.01070 0.41608-0.86553-0.60227 0.50072
 -11   5   1  974.91 1461.16   1-0.32253-0.41269 0.50636-0.13181-0.79972 0.90128
 -11   5   0 7197.85 2852.44   1-0.07266-0.66012 0.76324-0.38994-0.64201 0.64201
  -6  11   011466.54 5129.90   1 0.14230-0.18540 0.41923 0.40203-0.89665 0.89665
  -5  -6   0 6969.09 4159.22   1-0.74286 0.05124 0.38669-0.83591-0.54646 0.54646
 -11   5   0 5084.38 4507.56   1-0.20028-0.53524 0.51610-0.14140-0.83277 0.83277
 -11   5  -1  513.68 1024.44   1-0.01729-0.71548 0.68923-0.31592-0.72433 0.62310
  -6  11   1 1281.72 2070.18   1 0.08447-0.12757 0.52669 0.29457-0.84584 0.94707
  -5  -6   1  180.17  620.25   1-0.80003 0.10840 0.35390-0.80313-0.48445 0.58585
 -11   5  -1  319.11 1047.97   1-0.08901-0.64651 0.51806-0.14336-0.85069 0.74931
  -6  11   2   79.84 1321.39   1 0.02273-0.06584 0.62939 0.19187-0.77675 0.97920
  -5  -6   2  -30.02 1118.10   1-0.85075 0.15912 0.31814-0.76737-0.41833 0.62114
 -11   5  -2  763.48 1501.45   1 0.00732-0.74285 0.51449-0.13979-0.85746 0.65468
  -6  11   3 1466.16 2808.21   1-0.04044-0.00265 0.72141 0.09984-0.69131 0.99499
  -5  -6   3  292.05  995.03   1-0.89416 0.20254 0.28007-0.72929-0.34931 0.65352
 -11   5  -3  345.57 1247.34   1 0.08703-0.82256 0.50790-0.13320-0.85700 0.55284
  -6  11   4 2577.18 1626.61   1-0.10232 0.05921 0.79861 0.02264-0.59307 0.99798
  -5  -6   4 4333.29 2949.26   1-0.92994 0.23831 0.24024-0.68946-0.27837 0.68398
 -11   5  -4 3463.67 2650.27   1 0.15004-0.88557 0.50034-0.12564-0.85272 0.44717
 -11   4   3  155.62  751.31   1-0.25582-0.52014 0.92674-0.62807-0.27511 0.57876
  -7  11  -3  856.55 2936.85   1 0.25655-0.38587 0.16514 0.65613-0.95231 0.64852
 -11   4   3  431.19 1007.47   1-0.59506-0.18341 0.44821-0.14857-0.66708 0.97174
  -7  11  -3  612.22 1214.98   1 0.67279-0.80248 0.34170 0.48198-0.65619 0.35171
 -11   4   2 2269.62 1226.06   1-0.21821-0.55776 0.90557-0.60690-0.36375 0.56618
  -7  11  -2 3105.61 2093.43   1 0.22212-0.35143 0.24825 0.57302-0.94288 0.74036
 -11   4   2 1952.32 1471.97   1-0.48040-0.29807 0.47955-0.17991-0.73432 0.93743
 -11   4   1  220.47  671.75   1-0.17541-0.60056 0.87299-0.57432-0.45508 0.55630
  -7  11  -1  793.64 1231.30   1 0.18010-0.30941 0.34169 0.47958-0.92239 0.82113
  -4  -7  -1  305.99  653.95   1-0.76496 0.11656 0.37479-0.89889-0.52378 0.42238
 -11   4   1 1070.74 1401.25   1-0.36314-0.41533 0.50105-0.20141-0.78553 0.88709
  -7  11   0 2260.65 2270.21   1 0.13094-0.26026 0.44143 0.37983-0.88768 0.88768
  -4  -7   0  971.85  915.86   1-0.81445 0.16605 0.34448-0.86858-0.46689 0.46689
 -11   4   0 1257.21 1415.54   1-0.24928-0.52919 0.51342-0.21378-0.82112 0.82112
  -7  11   1  313.45 1273.46   1 0.07567-0.20498 0.54212 0.27914-0.83688 0.93811
  -4  -7   1 1238.40 1413.11   1-0.85915 0.21075 0.31141-0.83551-0.40604 0.50744
 -11   4  -1 1536.06 1622.56   1-0.14458-0.63421 0.51791-0.21815-0.84312 0.74174
  -7  11   2 1690.62 1566.42   1 0.01706-0.14637 0.63819 0.18307-0.76968 0.97214
  -4  -7   2 2521.99 2433.40   1-0.89805 0.24965 0.27619-0.80029-0.34235 0.54516
 -11   4  -2 2745.39 2681.81   1-0.05197-0.72682 0.51725-0.21750-0.85424 0.65147
  -7  11   3 2536.90 3285.16   1-0.04278-0.08652 0.72457 0.09668-0.68786 0.99154
  -4  -7   3 1510.53 2481.71   1-0.93066 0.28226 0.23932-0.76341-0.27675 0.58096
 -11   4  -3  304.50  760.95   1 0.02609-0.80489 0.51324-0.21348-0.85784 0.55368
  -8  11  -3  875.99 1833.59   1 0.23950-0.45503 0.20709 0.61418-0.94855 0.64476
 -11   3   3  566.07 1453.40   1-0.61889-0.20283 0.44016-0.21543-0.65055 0.95521
  -8  11  -3  869.92 1300.34   1 0.58258-0.79874 0.38472 0.43897-0.71595 0.41147
  -8  11  -2 4662.80 2408.36   1 0.20514-0.42067 0.28698 0.53429-0.93571 0.73318
 -11   3   2 4772.75 3153.29   1-0.51479-0.30693 0.47133-0.24660-0.71612 0.91922
  -8  11  -1  447.24 1375.47   1 0.16386-0.37939 0.37570 0.44557-0.91213 0.81087
 -11   3   1 1005.06 1142.01   1-0.40767-0.41405 0.49401-0.26928-0.76795 0.86950
  -8  11   0  360.13 2466.55   1 0.11626-0.33179 0.46943 0.35184-0.87528 0.87528
  -3  -8   0  362.89  646.88   1-0.88494 0.27977 0.28891-0.88787-0.36523 0.36523
 -11   3   0 1305.59 1111.22   1-0.30249-0.51923 0.50861-0.28388-0.80610 0.80610
  -8  11   1  304.03 1423.21   1 0.06332-0.27885 0.56331 0.25795-0.82381 0.92504
  -3  -8   1  909.94 1420.50   1-0.91496 0.30979 0.25815-0.85712-0.31013 0.41154
 -11   3  -1  620.37  966.11   1-0.20433-0.61773 0.51590-0.29108-0.83191 0.73052
  -8  11   2 2888.03 1667.63   1 0.00760-0.22312 0.65263 0.16863-0.75763 0.96009
 -11   3  -2 4588.12 2811.13   1-0.11605-0.70600 0.51819-0.29337-0.84735 0.64457
  -8  11   3 1530.80 2142.14   1-0.04912-0.16640 0.73302 0.08823-0.67842 0.98210
 -11   3  -3  720.79 1383.52   1-0.04030-0.78176 0.51685-0.29203-0.85512 0.55096
   3   8  -3  228.21 1189.47   1 0.96223-0.35754-0.19175 0.79025 0.19319-0.49765
  -9  11  -2 1138.42 1454.51   1 0.18515-0.48689 0.33088 0.49039-0.92533 0.72280
 -11   2   2 2185.21 2048.03   1-0.55245-0.31251 0.46121-0.31139-0.69431 0.89742
  -9  11  -1  122.83 1919.48   1 0.14460-0.44635 0.41466 0.40660-0.89840 0.79714
 -11   2   1  412.46  850.60   1-0.45508-0.40988 0.48502-0.33520-0.74675 0.84831
  -9  11   0 1050.79 2252.76   1 0.09817-0.39991 0.50213 0.31913-0.85919 0.85919
 -11   2   0 1211.66 1990.46   1-0.35856-0.50641 0.50170-0.35188-0.78722 0.78722
  -9  11   1   34.25 2395.13   1 0.04778-0.34951 0.58926 0.23199-0.80652 0.90775
 -11   2  -1  605.47 1074.49   1-0.26688-0.59809 0.51201-0.36219-0.81646 0.71491
  -9  11   2 1869.37 1737.46   1-0.00521-0.29652 0.67171 0.14954-0.74078 0.94324
 -11   2  -2 2976.47 1890.48   1-0.18396-0.68136 0.51680-0.36693-0.83610 0.63332
   2   9  -2 1578.62 1269.41   1 0.97467-0.41316-0.16640 0.83971 0.14940-0.35238
 -10  11  -1  401.63 1466.50   1 0.12243-0.51038 0.45776 0.36350-0.88060 0.77933
 -11   1   1 1478.09 1475.06   1-0.50449-0.40373 0.47389-0.39898-0.72173 0.82329
 -10  11   0  800.03 1400.53   1 0.07752-0.46547 0.53888 0.28238-0.83880 0.83880
 -11   1   0 1634.78 1869.77   1-0.41658-0.49163 0.49244-0.41753-0.76417 0.76417
 -10  11   1 1675.04 1838.95   1 0.02930-0.41725 0.61907 0.20219-0.78478 0.88601
 -11   1  -1  634.41 1362.97   1-0.33214-0.57607 0.50520-0.43029-0.79652 0.69497
 -12   8   1  923.10 1389.12   1-0.06039-0.62928 0.74773-0.15045-0.66124 0.76247
  -4  12  -1  712.77 1273.07   1 0.18558-0.01315 0.32995 0.56598-0.92557 0.82431
  -8  -4  -1  985.22 1241.93   1-0.56814-0.29682 0.45662-0.75625-0.68461 0.58306
 -12   8   1  194.15  525.68   1-0.29022-0.40176 0.50987 0.08940-0.80981 0.91137
 -12   8   0  686.19 1877.41   1-0.01252-0.67716 0.68237-0.08508-0.73089 0.73089
  -4  12   0  302.70 1323.51   1 0.13213 0.04028 0.43913 0.45680-0.88865 0.88865
  -8  -4   0  150.49  545.41   1-0.63487-0.23009 0.43442-0.73406-0.63890 0.63890
 -12   8   0  197.98  587.50   1-0.15743-0.53482 0.51764 0.08187-0.84098 0.84098
 -12   8  -1  172.68 1667.91   1 0.03435-0.72403 0.61104-0.01375-0.79085 0.68962
  -4  12   1  335.08  921.37   1 0.07074 0.10167 0.55063 0.34529-0.83174 0.93297
  -8  -4   1 1177.60 1772.91   1-0.70000-0.16452 0.40740-0.70688-0.58652 0.68792
 -12   8  -1  972.48  988.57   1-0.04030-0.65196 0.51685 0.08265-0.85512 0.75373
 -12   7   2 1814.28 1507.77   1-0.13388-0.59898 0.83394-0.31127-0.53535 0.73778
  -5  12  -2 1693.05 1768.07   1 0.22572-0.13951 0.23985 0.65608-0.94420 0.74167
 -12   7   1  566.90 1406.17   1-0.08768-0.64510 0.78154-0.25891-0.61766 0.71888
  -5  12  -1  522.29 1024.57   1 0.18285-0.09664 0.33580 0.56012-0.92401 0.82274
  -7  -5  -1 1026.09 1324.54   1-0.62247-0.19925 0.43890-0.81345-0.64798 0.54643
 -12   7   1  348.40  855.78   1-0.31049-0.42473 0.50774 0.01661-0.80361 0.90516
 -12   7   0 1157.31 3216.95   1-0.03932-0.69346 0.71990-0.19728-0.69295 0.69295
  -5  12   0 -148.81 1406.89   1 0.13199-0.04578 0.43941 0.45652-0.88853 0.88853
  -7  -5   0  911.24 1226.08   1-0.68512-0.13660 0.41443-0.78898-0.59903 0.59903
 -12   7   0  900.30 1172.33   1-0.18630-0.54922 0.51671 0.00786-0.83563 0.83563
 -12   7  -1  393.29 1242.45   1 0.00905-0.74184 0.65043-0.12781-0.75950 0.65828
  -5  12   1 1122.64 1558.77   1 0.07397 0.01223 0.54506 0.35085-0.83512 0.93634
  -7  -5   1  273.04  918.28   1-0.74513-0.07616 0.38550-0.75986-0.54420 0.64560
 -12   7  -1  636.48 1055.41   1-0.07502-0.66050 0.51784 0.00673-0.85217 0.75079
  -5  12   2 2819.26 1829.32   1 0.01179 0.07441 0.64627 0.24965-0.76301 0.96547
 -12   6   2 1743.64 1240.07   1-0.16703-0.60894 0.86567-0.41767-0.47191 0.67434
  -6  12  -2 2791.65 1956.96   1 0.21786-0.21786 0.25809 0.63784-0.94123 0.73870
  -6  -6  -2 1689.05 1254.44   1-0.62970-0.14877 0.43631-0.88577-0.64273 0.43962
 -12   6   2 1498.52 1227.53   1-0.46026-0.31821 0.48394-0.03448-0.74428 0.94738
 -12   6   1  322.44 1347.50   1-0.12260-0.65328 0.82100-0.37304-0.55760 0.65882
  -6  12  -1 -244.52 1062.69   1 0.17632-0.17632 0.34969 0.54624-0.92012 0.81885
  -6  -6  -1  146.94  522.86   1-0.68654-0.09193 0.41382-0.86328-0.59783 0.49627
 -12   6   1  413.52 1041.94   1-0.33800-0.44047 0.50446-0.05500-0.79452 0.89607
 -12   6   0  182.25  785.93   1-0.07495-0.70093 0.76609-0.31812-0.63834 0.63834
  -6  12   0 1403.71 2517.16   1 0.12755-0.12755 0.44796 0.44796-0.88490 0.88490
  -6  -6   0  642.94 1365.60   1-0.74217-0.03589 0.38704-0.83626-0.54714 0.54714
 -12   6   0  481.46  709.56   1-0.22189-0.55690 0.51494-0.06530-0.82800 0.82800
  -6  12   1  545.65 1125.88   1 0.07236-0.07236 0.54784 0.34807-0.83344 0.93466
  -6  -6   1  558.94 1341.32   1-0.79525 0.01718 0.35691-0.80613-0.49007 0.59148
 -12   6  -1  817.76  896.09   1-0.11631-0.66248 0.51819-0.06855-0.84731 0.74593
  -6  12   2 2306.11 1533.05   1 0.01345-0.01345 0.64373 0.25219-0.76512 0.96758
  -6  -6   2 1693.57 1282.00   1-0.84365 0.06557 0.32362-0.77285-0.42838 0.63118
 -12   6  -2 2469.19 1626.55   1-0.02465-0.75413 0.51621-0.06657-0.85610 0.65333
  -7  12  -2 1834.17 1817.48   1 0.20682-0.29303 0.28321 0.61272-0.93648 0.73396
  -7  12  -1  852.62 1724.30   1 0.16635-0.25256 0.37056 0.52537-0.91378 0.81252
  -5  -7  -1  762.00 1197.29   1-0.75805 0.02320 0.37861-0.90270-0.53103 0.42963
 -12   5   1  331.59  700.06   1-0.37136-0.45036 0.49985-0.12530-0.78245 0.88400
  -7  12   0  573.92 1432.80   1 0.11935-0.20556 0.46360 0.43233-0.87796 0.87796
  -5  -7   0  -79.85  874.49   1-0.80462 0.06977 0.35096-0.87505-0.47896 0.47896
 -12   5   0  438.87  637.22   1-0.26268-0.55904 0.51236-0.13782-0.81760 0.81760
  -7  12   1 1846.81 2268.85   1 0.06661-0.15282 0.55771 0.33820-0.82735 0.92857
  -5  -7   1  382.05  980.19   1-0.84800 0.11315 0.32028-0.84438-0.42225 0.52365
 -12   5  -1  250.70  987.67   1-0.16320-0.65885 0.51749-0.14279-0.83997 0.73859
  -7  12   2 2677.83 2002.57   1 0.01060-0.09681 0.64808 0.24784-0.76149 0.96395
  -8  12  -1  661.48 1886.16   1 0.15318-0.32560 0.39750 0.49843-0.90472 0.80345
 -12   4   1 1520.33 1543.22   1-0.40939-0.45557 0.49371-0.19407-0.76723 0.86878
  -8  12   0  354.68 1454.26   1 0.10774-0.28017 0.48529 0.41064-0.86768 0.86768
 -12   4   0  755.96 1716.21   1-0.30841-0.55655 0.50797-0.20833-0.80426 0.80426
  -8  12   1  124.86 1323.90   1 0.05721-0.22964 0.57360 0.32231-0.81712 0.91835
  -4  -8   1  687.69 1293.86   1-0.89989 0.20826 0.27433-0.87329-0.33902 0.44042
 -12   4  -1  686.90  870.42   1-0.21479-0.65053 0.51535-0.21559-0.82961 0.72823
;
_shelx_hkl_checksum              9828
loop_
_space_group_symop_operation_xyz
'x, y, z'
'-y, x-y, z'
'-x+y, -x, z'
'-x, -y, z+1/2'
'y, -x+y, z+1/2'
'x-y, x, z+1/2'
'-y, -x, z'
'-x+y, y, z'
'x, x-y, z'
'y, x, z+1/2'
'x-y, -y, z+1/2'
'-x, -x+y, z+1/2'
loop_
_atom_site_label
_atom_site_type_symbol
_atom_site_fract_x
_atom_site_fract_y
_atom_site_fract_z
_atom_site_U_iso_or_equiv
_atom_site_adp_type
_atom_site_occupancy
_atom_site_site_symmetry_order
_atom_site_calc_flag
_atom_site_refinement_flags_posn
_atom_site_refinement_flags_adp
_atom_site_refinement_flags_occupancy
Cd1 Cd 1.0000 1.0000 0.581(4) 0.0477(9) Uani 1 6 d S T P
Br1 Br 0.7378(3) 0.86889(15) 0.835(4) 0.0688(10) Uani 1 2 d S T P
N1 N 0.3333 0.6667 1.253(2) 0.059(10) Uani 1 6 d DS T P
C2 C 0.3894(18) 0.6106(18) 1.411(2) 0.127(14) Uani 0.66667(15) 2 d DS TU P
C1 C 0.405(3) 0.595(3) 1.139(11) 0.127(14) Uani 0.66667(15) 2 d DS TU P
Cl1 Cl 0.273(3) 0.547(6) 1.6109(4) 0.30(4) Uani 0.33333(15) 2 d DS TU P
loop_
_atom_site_aniso_label
_atom_site_aniso_U_11
_atom_site_aniso_U_22
_atom_site_aniso_U_33
_atom_site_aniso_U_23
_atom_site_aniso_U_13
_atom_site_aniso_U_12
Cd1 0.0573(11) 0.0573(11) 0.0286(12) 0.000 0.000 0.0286(6)
Br1 0.0592(15) 0.0868(16) 0.0513(15) 0.0065(9) 0.0129(18) 0.0296(7)
N1 0.052(12) 0.052(12) 0.07(3) 0.000 0.000 0.026(6)
C2 0.117(15) 0.117(15) 0.13(3) -0.038(13) 0.038(13) 0.047(18)
C1 0.117(15) 0.117(15) 0.13(3) -0.038(13) 0.038(13) 0.047(18)
Cl1 0.15(3) 0.32(7) 0.48(9) 0.27(7) 0.13(3) 0.16(3)
loop_
_atom_type_symbol
_atom_type_description
_atom_type_scat_dispersion_real
_atom_type_scat_dispersion_imag
_atom_type_scat_source
C C 0.0033 0.0016 'International Tables Vol C Tables 4.2.6.8 and 6.1.1.4'
H H 0.0000 0.0000 'International Tables Vol C Tables 4.2.6.8 and 6.1.1.4'
N N 0.0061 0.0033 'International Tables Vol C Tables 4.2.6.8 and 6.1.1.4'
Cl Cl 0.1484 0.1585 'International Tables Vol C Tables 4.2.6.8 and 6.1.1.4'
Br Br -0.2901 2.4595 'International Tables Vol C Tables 4.2.6.8 and 6.1.1.4'
Cd Cd -0.8075 1.2024 'International Tables Vol C Tables 4.2.6.8 and 6.1.1.4'
loop_
_geom_angle_atom_site_label_1
_geom_angle_atom_site_label_2
_geom_angle_atom_site_label_3
_geom_angle
_geom_angle_site_symmetry_1
_geom_angle_site_symmetry_3
Br1 Cd1 Br1 85.08(15) 6_654 5_564
Br1 Cd1 Br1 85.08(15) 6_654 4_774
Br1 Cd1 Br1 85.08(15) 5_564 4_774
Br1 Cd1 Br1 179.19(19) 6_654 3_675
Br1 Cd1 Br1 95.52(5) 5_564 3_675
Br1 Cd1 Br1 95.52(5) 4_774 3_675
Br1 Cd1 Br1 95.52(5) 6_654 .
Br1 Cd1 Br1 95.52(5) 5_564 .
Br1 Cd1 Br1 179.19(19) 4_774 .
Br1 Cd1 Br1 83.88(15) 3_675 .
Br1 Cd1 Br1 95.52(5) 6_654 2_765
Br1 Cd1 Br1 179.19(19) 5_564 2_765
Br1 Cd1 Br1 95.52(5) 4_774 2_765
Br1 Cd1 Br1 83.88(15) 3_675 2_765
Br1 Cd1 Br1 83.88(15) . 2_765
Cd1 Br1 Cd1 78.16(6) 4_775 .
C1 N1 C1 92(5) 3_565 2_665
C1 N1 C1 92(5) 3_565 .
C1 N1 C1 92(5) 2_665 .
C1 N1 C2 134(2) 3_565 2_665
C1 N1 C2 84(4) 2_665 2_665
C1 N1 C2 134(2) . 2_665
C1 N1 C2 84(4) 3_565 3_565
C1 N1 C2 134(2) 2_665 3_565
C1 N1 C2 134(2) . 3_565
C2 N1 C2 67.4(11) 2_665 3_565
C1 N1 C2 134(2) 3_565 .
C1 N1 C2 134(2) 2_665 .
C1 N1 C2 84(4) . .
C2 N1 C2 67.4(11) 2_665 .
C2 N1 C2 67.4(11) 3_565 .
N1 C2 C2 56.3(5) . 3_565
N1 C2 C2 56.3(5) . 2_665
C2 C2 C2 59.998(14) 3_565 2_665
N1 C2 Cl1 118.2(15) . .
C2 C2 Cl1 61.9(10) 3_565 .
C2 C2 Cl1 91.9(16) 2_665 .
N1 C2 Cl1 118.2(15) . 2_665
C2 C2 Cl1 91.9(16) 3_565 2_665
C2 C2 Cl1 61.9(10) 2_665 2_665
Cl1 C2 Cl1 60(3) . 2_665
N1 C2 C1 48(2) . .
C2 C2 C1 97(2) 3_565 .
C2 C2 C1 97(2) 2_665 .
Cl1 C2 C1 148.5(17) . .
Cl1 C2 C1 148.5(17) 2_665 .
N1 C1 C2 48(2) . .
C2 Cl1 C2 56.2(19) . 3_565
C2 Cl1 Cl1 59.8(16) . 2_665
C2 Cl1 Cl1 88.1(16) 3_565 2_665
C2 Cl1 Cl1 88.1(16) . 3_565
C2 Cl1 Cl1 59.8(16) 3_565 3_565
Cl1 Cl1 Cl1 60.001(1) 2_665 3_565
loop_
_geom_bond_atom_site_label_1
_geom_bond_atom_site_label_2
_geom_bond_distance
_geom_bond_site_symmetry_2
Cd1 Br1 2.767(4) 6_654
Cd1 Br1 2.767(4) 5_564
Cd1 Br1 2.767(4) 4_774
Cd1 Br1 2.799(4) 3_675
Cd1 Br1 2.799(4) .
Cd1 Br1 2.799(4) 2_765
Br1 Cd1 2.767(4) 4_775
N1 C1 1.43(3) 3_565
N1 C1 1.43(3) 2_665
N1 C1 1.43(3) .
N1 C2 1.44(3) 2_665
N1 C2 1.44(3) 3_565
N1 C2 1.44(3) .
C2 C2 1.60(5) 3_565
C2 C2 1.60(5) 2_665
C2 Cl1 1.7000(15) .
C2 Cl1 1.7000(15) 2_665
C2 C1 1.93(7) .
Cl1 C2 1.7000(15) 3_565
Cl1 Cl1 1.71(8) 2_665
Cl1 Cl1 1.71(8) 3_565
