#------------------------------------------------------------------------------
#$Date: 2019-11-25 17:57:17 +0200 (Mon, 25 Nov 2019) $
#$Revision: 241482 $
#$URL: file:///home/coder/svn-repositories/cod/cif/4/13/12/4131227.cif $
#------------------------------------------------------------------------------
#
# This file is available in the Crystallography Open Database (COD),
# http://www.crystallography.net/
#
# All data on this site have been placed in the public domain by the
# contributors.
#
data_4131227
loop_
_publ_author_name
'DeGayner, Jordan A.'
'Jeon, Ie-Rang'
'Sun, Lei'
'Dinc\(a, Mircea'
'Harris, T. David'
_publ_section_title
;
 2D Conductive Iron-Quinoid Magnets Ordering up to T<sub>c</sub> = 105 K
 via Heterogenous Redox Chemistry.
;
_journal_issue                   11
_journal_name_full               'Journal of the American Chemical Society'
_journal_page_first              4175
_journal_page_last               4184
_journal_paper_doi               10.1021/jacs.7b00705
_journal_volume                  139
_journal_year                    2017
_chemical_formula_moiety         '0.5(C18 Cl6 Fe2 O12), 3(C0.67 H2.67 N0.33)'
_chemical_formula_sum            'C11 H8 Cl3 Fe N O6'
_chemical_formula_weight         412.38
_chemical_name_systematic        (Cp2Co)(Me2NH2)[Fe2(CA)3]
_space_group_crystal_system      trigonal
_space_group_IT_number           162
_space_group_name_Hall           '-P 3 2'
_space_group_name_H-M_alt        'P -3 1 m'
_atom_sites_solution_hydrogens   geom
_atom_sites_solution_primary     dual
_audit_creation_date             2017-01-20
_audit_creation_method
;
Olex2 1.2
(compiled 2017.01.04 svn.r3372 for OlexSys, GUI svn.r5292)
;
_cell_angle_alpha                90
_cell_angle_beta                 90
_cell_angle_gamma                120
_cell_formula_units_Z            2
_cell_length_a                   13.5835(11)
_cell_length_b                   13.5835(11)
_cell_length_c                   8.6796(13)
_cell_measurement_reflns_used    994
_cell_measurement_temperature    100
_cell_measurement_theta_max      44.74
_cell_measurement_theta_min      3.76
_cell_volume                     1386.9(3)
_computing_cell_refinement       'SAINT V8.34A (Bruker, 2013)'
_computing_data_collection       'APEX2 V2014.11-0 (Bruker, 2014)'
_computing_data_reduction        'Bruker SAINT'
_computing_molecular_graphics    'Olex2 (Dolomanov et al., 2009)'
_computing_publication_material  'Olex2 (Dolomanov et al., 2009)'
_computing_structure_refinement  'XL (Sheldrick, 2008)'
_computing_structure_solution    'XT (Sheldrick, 2015)'
_diffrn_ambient_temperature      99.99
_diffrn_detector_area_resol_mean 8
_diffrn_measured_fraction_theta_full 0.774
_diffrn_measured_fraction_theta_max 0.969
_diffrn_measurement_device_type  'Bruker Kappa APEX CCD area detector'
_diffrn_measurement_method       '\w and \f scans'
_diffrn_radiation_monochromator  'MX optics'
_diffrn_radiation_type           CuK\a
_diffrn_radiation_wavelength     1.54178
_diffrn_reflns_av_R_equivalents  0.0799
_diffrn_reflns_av_unetI/netI     0.0469
_diffrn_reflns_Laue_measured_fraction_full 0.774
_diffrn_reflns_Laue_measured_fraction_max 0.969
_diffrn_reflns_limit_h_max       13
_diffrn_reflns_limit_h_min       -15
_diffrn_reflns_limit_k_max       15
_diffrn_reflns_limit_k_min       -13
_diffrn_reflns_limit_l_max       9
_diffrn_reflns_limit_l_min       -9
_diffrn_reflns_number            4588
_diffrn_reflns_point_group_measured_fraction_full 0.774
_diffrn_reflns_point_group_measured_fraction_max 0.969
_diffrn_reflns_theta_full        67.679
_diffrn_reflns_theta_max         58.977
_diffrn_reflns_theta_min         5.096
_diffrn_source                   microsource
_exptl_absorpt_coefficient_mu    7.169
_exptl_absorpt_correction_T_max  0.7516
_exptl_absorpt_correction_T_min  0.4707
_exptl_absorpt_correction_type   multi-scan
_exptl_absorpt_process_details
'SADABS-2012/1 (Bruker,2012) was used for absorption correction. wR2(int) was 0.1063 before and 0.0531 after correction. The Ratio of minimum to maximum transmission is 0.6263. The \l/2 correction factor is 0.0015.'
_exptl_crystal_colour            black
_exptl_crystal_colour_primary    black
_exptl_crystal_density_diffrn    0.987
_exptl_crystal_description       hexagonal
_exptl_crystal_F_000             412
_exptl_crystal_size_max          0.191
_exptl_crystal_size_mid          0.088
_exptl_crystal_size_min          0.041
_refine_diff_density_max         0.953
_refine_diff_density_min         -0.413
_refine_diff_density_rms         0.157
_refine_ls_extinction_method     none
_refine_ls_goodness_of_fit_ref   1.105
_refine_ls_hydrogen_treatment    constr
_refine_ls_matrix_type           full
_refine_ls_number_parameters     48
_refine_ls_number_reflns         711
_refine_ls_number_restraints     13
_refine_ls_restrained_S_all      1.097
_refine_ls_R_factor_all          0.1602
_refine_ls_R_factor_gt           0.1222
_refine_ls_shift/su_max          0.000
_refine_ls_shift/su_mean         0.000
_refine_ls_structure_factor_coef Fsqd
_refine_ls_weighting_details
'w=1/[\s^2^(Fo^2^)+(0.2000P)^2^] where P=(Fo^2^+2Fc^2^)/3'
_refine_ls_weighting_scheme      calc
_refine_ls_wR_factor_gt          0.2762
_refine_ls_wR_factor_ref         0.3189
_reflns_Friedel_coverage         0.000
_reflns_number_gt                399
_reflns_number_total             711
_reflns_threshold_expression     'I > 2\s(I)'
_cod_data_source_file            ja7b00705_si_002.cif
_cod_data_source_block           jd_p-31m
_cod_database_code               4131227
_shelxl_version_number           2014-3
_shelx_space_group_comment
;
The symmetry employed for this shelxl refinement is uniquely defined
by the following loop, which should always be used as a source of
symmetry information in preference to the above space-group names.
They are only intended as comments.
;
_olex2_refinement_description
;
1. Fixed Uiso
 At 1.2 times of:
  All N(H,H) groups
 At 1.5 times of:
  All C(H,H,H) groups
2. Restrained distances
 C3_$1-C3
 2.47 with sigma of 0.04
3. Uiso/Uaniso restraints and constraints
Uanis(C3) \\sim Ueq, Uanis(N1) \\sim Ueq: with sigma of 0.1 and sigma for
terminal atoms of 0.2
4. Others
 Fixed Sof: N1(0.16667) H1A(0.16667) H1B(0.16667) C3(0.33333) H3A(0.33333)
 H3B(0.33333) H3C(0.33333)
5.a Secondary CH2 refined with riding coordinates:
 N1(H1A,H1B)
5.b Me refined with riding coordinates:
 C3(H3A,H3B,H3C)
;
_shelx_res_file
;
TITL jd_p-31m_a.res in P-31m
REM Old TITL jd_P-31m in P-31m
REM SHELXT solution in P-31m
REM R1 0.279, Rweak 0.028, Alpha 0.045, Orientation as input
REM Formula found by SHELXT: C9 N3 O6 Cl3 Fe
CELL 1.54178 13.5835 13.5835 8.6796 90 90 120
ZERR 2 0.0011 0.0011 0.0013 0 0 0
LATT 1
SYMM -Y,+X-Y,+Z
SYMM +Y-X,-X,+Z
SYMM -Y,-X,-Z
SYMM +Y-X,+Y,-Z
SYMM +X,+X-Y,-Z
SFAC C H Cl Fe N O
UNIT 22 16 6 2 2 12
EQIV $1 -X,-X+Y,+Z
DANG 2.47 C3_$1 C3
ISOR C3 N1

L.S. 5
PLAN  20
TEMP -173.16
BOND $H
MORE -1
list 4
ABIN
fmap 2
acta
OMIT 0 4 2
OMIT 2 2 1
OMIT -1 3 1
OMIT -2 4 1
OMIT 0 2 1
OMIT -3 6 1
OMIT 1 2 1
OMIT 1 1 3
OMIT -1 3 0
OMIT -1 2 1
OMIT 0 1 2
OMIT 0 1 0
OMIT -1 3 2
OMIT 0 0 4
OMIT -2 4 2
OMIT -1 4 1
OMIT 2 2 4
OMIT -4 9 0
OMIT 2 7 1
OMIT 2 3 3
OMIT 1 1 2
OMIT 1 3 2
REM <olex2.extras>
REM <HklSrc "%.\\jd_P-31m.hkl">
REM </olex2.extras>

WGHT    0.200000
FVAR       0.65703
FE1   4    0.333333    0.666667    1.000000    10.16667    0.06983    0.06983 =
         0.13555    0.00000    0.00000    0.03492
CL1   3    0.000000    0.392485    0.681516    10.50000    0.11074    0.11555 =
         0.14045   -0.02747    0.00000    0.05537
O1    6    0.201624    0.557527    0.865383    11.00000    0.07568    0.08843 =
         0.12833   -0.01354   -0.00124    0.04158
C2    1    0.000000    0.452903    0.854872    10.50000    0.09553    0.06878 =
         0.11559    0.00172    0.00000    0.04776
C1    1    0.103457    0.528309    0.926175    11.00000    0.06272    0.06206 =
         0.13016   -0.00623    0.00347    0.03030
N1    5    0.000000    0.795793    0.726726    10.16667    0.02934    0.08272 =
         0.14449    0.02545    0.00000    0.01467
AFIX  23
H1A   2    0.000000    0.838895    0.806989    10.16667   -1.20000
H1B   2    0.000000    0.827531    0.634396    10.16667   -1.20000
AFIX   0
C3    1    0.102918    0.749535    0.742483    10.33333    0.12314    0.08578 =
         0.25501    0.07455   -0.05332   -0.00479
AFIX  33
H3A   2    0.179746    0.815698    0.738008    10.33333   -1.50000
H3B   2    0.092493    0.709911    0.840709    10.33333   -1.50000
H3C   2    0.092493    0.697836    0.657301    10.33333   -1.50000
AFIX   0
HKLF 4

REM  jd_p-31m_a.res in P-31m
REM R1 =  0.1222 for     399 Fo > 4sig(Fo)  and  0.1602 for all     711 data
REM     48 parameters refined using     13 restraints

END

WGHT      0.2000      0.0000

REM Highest difference peak  0.953,  deepest hole -0.413,  1-sigma level  0.157
Q1    1   0.3333  0.6667  0.9033  10.33333  0.05    0.95
Q2    1   0.0000  0.3967  0.8112  10.50000  0.05    0.55
Q3    1   0.0770  0.7746  0.8765  11.00000  0.05    0.52
Q4    1   0.0000  0.7539  0.8403  10.50000  0.05    0.47
Q5    1   0.0000  0.6694  0.9849  10.50000  0.05    0.45
Q6    1   0.1498  0.5478  0.8926  11.00000  0.05    0.38
Q7    1   0.1123  0.5790  0.9505  11.00000  0.05    0.37
Q8    1   0.0890  0.9110  0.5000  10.50000  0.05    0.35
Q9    1   0.0000  0.3968  0.5949  10.50000  0.05    0.31
Q10   1   0.1568  0.6786  0.8785  11.00000  0.05    0.31
Q11   1   0.0000  1.0000  0.9273  10.16667  0.05    0.29
Q12   1   0.0000  1.0000  0.5000  10.08333  0.05    0.27
Q13   1   0.0000  0.4274  0.9485  10.50000  0.05    0.24
Q14   1   0.0000  0.7317  1.0681  10.50000  0.05    0.23
Q15   1   0.0000  0.8452  0.5242  10.50000  0.05    0.22
Q16   1   0.0000  0.2479  0.7968  10.50000  0.05    0.21
Q17   1   0.2184  0.6898  0.6822  11.00000  0.05    0.19
Q18   1  -0.1186  0.8814  0.6872  10.50000  0.05    0.18
Q19   1   0.2045  0.9254  0.6917  11.00000  0.05    0.13
Q20   1   0.3333  0.6667  0.6663  10.33333  0.05    0.11
;
_shelx_res_checksum              32224
_shelx_hkl_file
;
  -1   1   0 1638.94   70.89
   0  -1   0 1713.73   70.89
   0  -1   0 1723.93   87.09
   1  -1   0 1682.23   70.99
   0   1   0 1698.83   70.89
  -1   0   0 1688.33   86.29
   2  -1   0 1893.71   89.59
   1   1   0 1740.13   73.59
   1  -2   0 1728.53   90.79
   1  -2   0 1825.72   73.79
   2  -1   0 1850.11   73.69
  -1   2   0 1752.92   73.79
  -1  -1   0 1642.34   90.19
  -2   1   0 1625.94   73.59
  -2   1   0 1726.63   90.49
   0  -2   0  347.77   14.80
   0  -2   0  353.66   18.90
  -2   2   0  329.77   14.90
   2  -2   0  315.77   14.90
  -2   0   0  373.26   18.10
   3  -1   0 4912.11  205.48
  -3   2   0 4725.23  252.47
  -1  -2   0 5304.77  252.47
  -3   2   0 4932.21  205.58
   1  -3   0 5017.20  205.78
  -1  -2   0 4783.72  205.48
  -1  -2   0 4763.42  252.17
   1  -3   0 5047.19  252.77
   2  -3   0 4849.51  205.78
  -3   1   0 4819.82  251.97
   3  -2   0 4810.42  205.68
   0  -3   0 3912.71  163.58
   0  -3   0 4115.19  201.18
  -3   3   0 3613.24  163.68
   3  -3   0 3858.91  163.68
  -3   0   0 4001.60  199.08
   4  -2   0  546.55   23.30
   2  -4   0  497.65   30.10
  -4   2   0  559.34   23.10
  -2  -2   0  579.94   29.40
   2  -4   0  553.24   23.60
  -4   2   0  532.05   29.30
  -2  -2   0  519.15   28.80
  -1  -3   0   78.59    4.30
   1  -4   0   72.69    4.90
   1  -4   0   69.09    8.40
  -1  -3   0   63.09    7.00
   4  -1   0   77.99    4.30
  -4   3   0   77.39    4.60
  -4   1   0   90.09    6.10
  -3  -1   0   86.09    6.30
   4  -3   0   70.89    4.80
   3  -4   0   75.39    5.30
   0  -4   0  329.67   13.70
   0  -4   0  300.17   18.40
   4  -4   0  300.67   14.00
  -4   0   0  287.67   16.90
  -5   3   0   20.70    5.80
   2  -5   0   10.60    3.30
   5  -2   0   10.10    2.80
  -5   3   0    3.50    1.50
  -2  -3   0    8.20    5.80
   2  -5   0   18.70    6.80
  -2  -3   0   10.10    5.20
   3  -5   0    9.90    3.50
   5  -3   0   15.40    3.20
  -5   2   0    3.80    4.60
  -3  -2   0    8.20    4.40
  -3  -2   0   14.70    6.60
  -3  -2   0   11.90    4.10
   1  -5   0   61.59    8.10
  -1  -4   0   58.59    7.60
   1  -5   0   53.89    4.50
  -1  -4   0   52.39    4.00
  -5   1   0   46.70    5.30
   5  -4   0   58.39    4.80
  -4  -1   0   49.00    6.20
   4  -5   0   46.30    4.90
   0  -5   0 1904.91   77.09
   0  -5   0 1929.51   95.89
  -5   0   0 1608.64   93.89
   5  -5   0 1851.81   77.39
  -3  -3   0  173.28   11.10
  -3  -3   0  159.68   11.20
  -3  -3   0  127.89   12.50
   3  -6   0  169.28    8.90
   2  -6   0  345.67   21.80
  -2  -4   0  347.87   20.60
   2  -6   0  347.57   16.00
   4  -6   0  354.56   16.30
  -6   2   0  368.56   20.10
  -4  -2   0  338.37   19.90
  -4  -2   0  330.87   19.40
  -4  -2   0  335.97   21.10
  -1  -5   0  127.49   11.00
   1  -6   0  112.09   11.30
   1  -6   0  124.99    7.20
  -1  -5   0  106.99    6.60
  -5  -1   0  116.39    9.60
  -5  -1   0  120.29   10.10
  -6   1   0  129.29    8.90
   5  -6   0  121.69    7.70
  -5  -1   0  114.39    9.70
   0  -6   0  180.58    9.80
   0  -6   0  221.08   15.10
   6  -6   0  191.08   10.70
  -3  -4   0  278.97   17.80
   3  -7   0  297.57   14.10
  -3  -4   0  290.57   18.00
   4  -7   0  293.07   14.10
  -4  -3   0  261.97   17.70
  -4  -3   0  301.27   17.70
  -2  -5   0 1064.39   58.19
   2  -7   0 1089.59   46.70
  -5  -2   0 1078.29   57.39
   5  -7   0 1057.29   46.90
  -5  -2   0 1100.99   57.49
  -5  -2   0 1088.29   58.49
   1  -7   0  474.85   28.40
  -1  -6   0  424.66   20.50
   1  -7   0  470.75   21.10
  -1  -6   0  468.95   28.00
  -6  -1   0  431.06   26.60
   6  -7   0  437.76   21.60
  -7   1   0  531.95   26.40
  -6  -1   0  465.25   27.40
   0  -7   0   20.00    4.70
   0  -7   0   24.10    9.40
  -7   0   0   22.80    9.90
  -4  -4   0   25.20    7.60
   4  -8   0   31.90    5.60
  -4  -4   0   23.20    7.90
  -3  -5   0   64.89   10.40
   3  -8   0   75.39    7.20
  -3  -5   0   70.49   10.00
   5  -8   0   97.69    7.60
  -5  -3   0   76.19    9.90
  -5  -3   0   81.19   11.00
   2  -8   0  184.28   11.00
  -2  -6   0  197.78   14.80
  -2  -6   0  184.78   15.60
  -6   8   0  200.38   11.40
  -6  -2   0  195.98   10.20
  -6  -2   0  193.78   15.50
   6  -8   0  207.68   12.00
  -8   7   0  351.66   19.70
  -7   8   0  364.96   19.50
  -1  -7   0  396.16   23.50
  -1  -7   0  397.86   25.40
   1  -8   0  403.76   18.20
  -8   1   0  375.56   17.80
  -7  -1   0  380.06   17.80
  -8   8   0    8.80    5.30
   0  -8   0   -6.80    7.80
  -8   0   0    6.30    3.20
  -8   0   0    7.80    8.10
  -9   5   0   17.00   10.40
  -4  -5   0   24.00    9.60
  -4  -5   0    5.00    8.60
  -5   9   0   11.90    5.10
  -9   4   0   29.80   11.30
  -5  -4   0   22.30    9.80
  -5  -4   0    4.80    6.30
  -5  -4   0   14.20    8.80
   5  -9   0   11.40    6.20
  -9   6   0   20.70   10.80
  -6   9   0   35.00    5.90
  -3  -6   0   31.60    9.40
  -3  -6   0   23.40    9.90
   6  -9   0   12.00    6.80
  -6  -3   0   38.70   10.20
  -6  -3   0   12.10    5.90
  -6  -3   0   38.60    7.50
  -9   3   0   28.90   10.80
  -2  -7   0   62.69    6.70
  -7   9   0   89.69    8.40
  -2  -7   0   75.89   12.40
  -9   2   0   86.29   12.50
  -7  -2   0   74.99    9.80
  -7  -2   0   74.69    9.00
  -9   2   0   69.39    5.40
  -8   9   0  226.18   14.00
  -9   8   0  212.98   14.10
  -1  -8   0  245.48   12.10
  -1  -8   0  243.08   21.30
  -9   1   0  231.38   11.70
  -9   1   0  251.27   17.50
  -8  -1   0  221.08   16.40
  -9   1   0  223.88   13.90
  -8  -1   0  249.28   14.00
   0  -9   0  375.76   17.90
  -9   9   0  384.56   20.60
  -9   0   0  377.66   19.90
  -9   0   0  386.56   23.70
  -5  10   0  323.07   16.10
  -5  -5   0  262.07   21.90
 -10   5   0  245.18   21.70
  -5  -5   0  288.37   15.20
  -4  -6   0   64.09   13.00
  -6  10   0   62.39    8.60
 -10   6   0   64.29   13.60
  -4  -6   0   65.49    7.60
  -4  10   0   81.99    7.90
 -10   4   0   62.09   13.30
  -6  -4   0   60.29    9.70
  -6  -4   0   69.09    8.60
 -10   7   0    0.60   11.90
  -3  -7   0    1.80    5.10
  -3  -7   0    1.30   11.00
  -7  10   0    4.90    6.70
 -10   3   0    6.30   11.30
  -7  -3   0   -3.40    7.70
  -7  -3   0   12.30    7.30
  -2  -8   0  242.48   12.60
  -8  10   0  235.38   14.80
  -2  -8   0  209.08   20.80
 -10   2   0  237.58   11.90
 -10   2   0  217.48   14.50
 -10   2   0  233.58   18.60
  -8  -2   0  245.28   14.50
  -8  -2   0  242.48   16.70
  -9  10   0   93.39   10.50
  -1  -9   0   94.49    7.70
 -10   1   0   87.69   13.30
 -10   1   0   84.99   11.60
  -9  -1   0   84.49   12.20
  -9  -1   0  107.59   11.60
 -10  10   0   17.20    7.80
 -10   0   0   12.80    9.60
 -10   0   0   22.50    9.00
 -11   6   0   -5.10   13.50
  -5  -6   0    8.00   12.70
  -5  -6   0    5.10    6.50
  -6  11   0    1.40    7.00
  -5  11   0   -4.90    6.30
 -11   5   0    5.30   13.20
  -6  -5   0   -2.10    6.90
  -7  11   0   21.80    8.20
  -4  -7   0   28.30    6.50
 -11   7   0   45.40   14.60
  -4  -7   0   25.90   14.50
 -11   4   0   15.90   12.70
  -4  11   0   38.30    6.70
  -7  -4   0   38.30    8.40
  -7  -4   0   21.80    9.00
  -8  11   0   28.40    8.30
  -3  -8   0   38.00    6.50
 -11   8   0   29.60   14.00
 -11   3   0   49.80   13.00
  -8  -3   0   57.49    9.00
  -8  -3   0   31.80    9.50
  -3  11   0   38.50    6.60
  -2  -9   0    3.10    5.70
 -11   9   0  -24.20   13.20
  -9  11   0    1.80    8.20
  -9  -2   0   21.70    9.10
 -11   2   0    3.70    8.40
  -9  -2   0    3.50    8.80
 -11   2   0   -5.10   11.10
  -1 -10   0   12.80    5.60
 -10  11   0   15.60    8.50
 -10  -1   0    7.40    9.40
 -10  -1   0   28.30    9.50
 -11   1   0   15.10   10.20
 -11   1   0   12.20    9.30
 -11   0   0   42.60   10.30
 -11   0   0   38.50   10.60
  -6  12   0    4.70    7.90
 -12   6   0    1.30   13.40
  -6  -6   0   -5.90    7.60
  -5  -7   0   33.80    7.60
 -12   7   0   26.30   14.40
  -7  12   0   28.40    8.50
  -7  -5   0   21.50    8.30
 -12   5   0   40.30   13.90
  -5  12   0   15.90    7.40
  -4  -8   0    5.30    6.80
 -12   8   0   -7.60   14.10
  -8  12   0  -11.40    8.40
  -8  -4   0    0.90    8.40
  -4  12   0   -4.00    6.50
 -12   4   0   -0.90   12.80
 -12   9   0   -8.70   14.50
  -3  -9   0    6.00    6.50
  -9  12   0    2.50    9.00
  -9  -3   0   12.70    9.10
 -12   3   0    1.20   11.40
  -3  12   0    2.50    6.30
  -9  -3   0   16.30    8.90
 -10  12   0    6.60    8.90
 -12  10   0   -5.90   14.40
  -2 -10   0   -2.80    6.10
 -10  -2   0    7.80    9.70
 -12   2   0   -3.60   10.00
 -12   2   0    4.30    9.10
 -10  -2   0   -3.70    8.90
  -2  12   0    6.00    6.30
 -12  11   0   21.60   14.60
 -11  12   0   36.80    9.20
 -12   1   0   39.10    9.70
 -11  -1   0   20.20   10.30
 -12   1   0   29.80   10.10
 -11  -1   0   27.80    9.40
  -1  12   0   36.90    6.60
 -12  12   0  -18.40   14.20
 -12   0   0   -3.60    8.50
   0  12   0    8.00    5.50
 -12   0   0    2.30    9.00
  -7  13   0    4.40    7.80
  -6  -7   0   -6.10    7.80
 -13   7   0   -5.70   13.10
  -6  13   0   -5.50    7.50
 -13   6   0   14.00   12.90
  -7  -6   0    4.40    7.90
  -8  13   0   32.50    8.90
  -5  -8   0   50.19    8.10
 -13   8   0   26.10   14.40
  -8  -5   0   37.80    9.10
  -5  13   0   36.50    7.90
 -13   5   0   36.80   12.70
  -9  13   0    4.40    9.00
 -13   9   0   22.40   14.00
  -4  -9   0   10.10    7.10
  -9  -4   0   17.00    8.70
  -4  13   0    8.30    6.90
 -13   4   0    8.70   11.10
  -3 -10   0   17.00    6.60
 -10  13   0   -5.90    8.70
 -13  10   0    5.20   13.80
  -3  13   0    5.70    6.50
 -13   3   0   10.90    9.70
 -10  -3   0   -1.90    9.00
  -2 -11   0    5.10    6.10
 -13  11   0  -13.90   13.50
 -11  13   0    8.00    8.70
 -11  -2   0    8.50    9.10
  -2  13   0   -2.40    6.10
 -13   2   0   13.30    9.30
 -13  12   0   11.20   13.60
 -12  13   0   -3.40   13.30
  -1  13   0    2.90    5.50
 -12  -1   0   -0.30    8.20
 -13   1   0   -1.60    8.10
 -12  -1   0    6.50    8.00
 -13  13   0  -16.20   11.90
 -13   0   0    4.70    7.30
 -14   7   0    1.50   11.20
  -7  14   0    1.60    7.10
  -7  -7   0    7.80    7.50
  -6  -8   0   27.10    7.40
 -14   8   0    6.30   11.20
  -8  14   0   16.70    7.70
  -6  14   0   10.10    6.70
 -14   6   0   36.00   11.30
  -8  -6   0   15.20    7.80
  -5  -9   0   11.30    7.00
 -14   9   0   13.90   12.10
  -9  14   0   -4.30    8.10
 -14   5   0   10.00   10.00
  -9  -5   0   -8.60    8.30
  -5  14   0   -2.10    6.30
 -10  14   0   -6.80    7.70
 -14  10   0  -10.20   11.80
  -4 -10   0    6.90    6.30
  -4  14   0   -0.90    6.00
 -10  -4   0    6.60    7.80
 -14   4   0    3.30    8.70
 -14  11   0   16.30   11.90
  -3 -11   0    3.70    5.60
 -11  14   0   -8.00    7.70
 -11  -3   0   -4.60    7.90
  -3  14   0    4.60    5.80
 -14   3   0    0.10    7.80
  -8  15   0   13.10    6.60
 -15   8   0   -9.00    8.90
  -7  -8   0   -2.50    6.30
  -8  -7   0   -0.90    6.80
  -7  15   0   -2.20    5.90
 -15   7   0   -3.40    8.30
  -9  15   0   21.70    6.70
  -6  15   0   13.40    5.90
   0   0   1 8383.26  430.36
  -1   1  -1 1719.53   68.69
   0  -1   1 1687.13   84.39
   0  -1   1 1567.54   88.09
  -1   1   1 1634.54   88.29
   0  -1   1 1707.13   68.59
  -1   1   1 1627.84   84.49
  -1   0  -1 1606.64   68.69
   0   1  -1 1695.43   68.79
  -1   0   1 1546.85   88.29
   1  -1   1 1682.83   84.69
   1  -1   1 1648.94   68.69
  -1   0   1 1458.65   84.09
  -1  -1  -1 2209.08  113.89
   1  -2   1 2184.38  112.19
  -2   1   1 2047.90  118.69
   1  -2   1 2228.58   92.39
   1  -2   1 2214.38  117.99
   1  -2   1 2243.78  113.69
  -2   1  -1 1246.78   51.79
  -1  -1   1 1248.48   62.99
   2  -1   1 1180.88   51.79
  -1  -1   1 1125.99   66.79
  -1   2   1 1310.27   64.29
  -1  -1   1 1237.68   63.29
   0  -2   1  135.59    8.50
   0  -2   1  129.59    6.20
   0  -2   1  112.49    7.70
   0  -2  -1  135.89    9.50
  -2   2   1  125.99   10.40
   2  -2  -1  124.29    6.30
  -2   0  -1  135.99    6.50
   2  -2   1  134.49    6.50
   1  -3   1 9653.03  493.55
   1  -3   1 9999.00  497.75
  -1  -2  -1 9859.11  497.85
  -3   2   1 9679.03  497.65
  -1  -2  -1 9607.34  405.76
   1  -3   1 9819.22  405.86
  -3   2   1 9081.59  518.45
  -2  -1  -1 9747.33  405.86
  -2  -1  -1 9692.53  497.85
   2  -3   1 9967.20  497.85
   3  -2  -1 9804.52  405.76
   2  -3   1 9327.57  493.35
   2  -3   1 9734.53  405.86
  -2  -1  -1 9666.03  497.85
   2  -4   1 1297.27   65.39
  -2  -2  -1 1154.78   65.39
  -4   2   1 1224.98   64.49
  -2  -2  -1 1219.28   64.99
  -2  -2  -1 1221.78   52.09
   4  -2  -1 1244.18   52.09
   2  -4   1 1255.57   52.39
   1  -3  -1 1774.32   72.59
  -1  -2   1 1681.63   88.89
  -2   3   1 1661.43   93.19
  -1  -2   1 1744.43   88.39
   3  -1   1 1755.52   72.59
  -3   2  -1 1628.24   72.49
   1  -3  -1 1674.33   89.89
  -2  -1   1 1618.34   88.39
   3  -2   1 1728.43   72.59
  -1   3   1 1862.91   90.39
   2  -3  -1 1815.52   72.59
  -3   1  -1 1647.94   89.39
  -3   1  -1 1763.42   72.49
  -3   3   1  190.38   14.50
   0  -3  -1  212.68   14.00
   0  -3   1  216.98   10.10
   0  -3   1  213.18   13.40
   0  -3  -1  233.28   10.30
   0  -3   1  213.68   12.50
   3  -3   1  232.78   10.50
  -3   0  -1  220.68   13.50
   3  -3  -1  240.18   10.40
   1  -4   1 4213.38  222.78
   1  -4   1 4411.56  181.18
  -4   3   1 4238.08  222.78
  -1  -3  -1 4449.45  181.08
  -1  -3  -1 4359.46  222.88
   3  -4   1 4123.39  222.98
  -3  -1  -1 4361.56  222.88
   4  -3  -1 4453.95  181.18
   3  -4   1 4301.47  181.38
  -3  -1  -1 4221.88  180.98
  -2  -3  -1 1658.43   88.89
   2  -5   1 1739.13   71.89
  -5   3   1 1615.04   88.79
  -2  -3  -1 1743.63   71.49
   2  -5   1 1807.62   89.49
  -3  -2  -1 1665.13   89.59
  -5   2   1 1709.23   88.09
  -3  -2  -1 1667.03   88.89
  -3  -2  -1 1629.04   71.29
  -3  -2  -1 1712.83   71.49
   3  -5   1 1668.03   71.89
   5  -3  -1 1687.63   71.69
   3  -5   1 1721.43   89.59
   3  -6   1 4169.68  176.48
  -6   3   1 4443.06  216.98
  -3  -3  -1 3957.70  217.08
  -2   4   1  920.81   53.79
  -4   2  -1 1004.90   41.50
  -4   2  -1  930.91   51.69
   2  -4  -1  962.30   52.19
   2  -4  -1 1035.70   41.70
  -2  -2   1  974.40   50.69
   4  -2   1  975.00   41.60
  -1  -3   1  224.18   12.70
  -1  -3   1  209.18   13.20
  -3   4   1  195.58   14.60
  -4   3  -1  218.58   10.50
   1  -4  -1  224.68   10.50
   1  -4  -1  239.08   14.90
   4  -1   1  205.38   10.30
  -4   1  -1  200.78   12.10
   3  -4  -1  228.08   10.50
   4  -3   1  225.38   10.50
  -4   1  -1  219.88   13.50
  -3  -1   1  231.18   12.90
   0  -4  -1   59.59    4.50
   0  -4   1   52.29    5.80
   0  -4   1   60.39    7.40
   0  -4   1   58.19    4.20
   0  -4  -1   49.40    8.10
  -4   0  -1   47.80    5.70
  -4   0  -1   69.19    7.30
   4  -4   1   59.09    5.10
   4  -4  -1   58.59    4.80
   1  -5   1 1218.18   53.29
  -1  -4  -1 1224.88   53.19
  -1  -4  -1 1229.28   66.59
   1  -5   1 1253.27   66.79
  -4  -1  -1 1263.97   66.69
   5  -4  -1 1285.17   53.49
   4  -5   1 1281.57   53.59
  -2  -4  -1  802.32   33.80
  -2  -4  -1  811.22   43.50
   2  -6   1  734.03   44.00
   2  -6   1  787.22   34.30
   4  -6   1  755.52   34.40
  -4  -2  -1  767.42   43.30
  -6   2   1  834.22   42.20
   3  -7   1   29.50    5.20
  -3  -4  -1   17.50    8.60
  -4  -3  -1   18.70    9.00
   4  -7   1   23.80    5.20
   4  -8   1   92.09    7.80
  -4  -4  -1   82.59   11.30
  -4  -4  -1  102.39   13.00
   2  -5  -1   40.40    4.30
   5  -2   1   28.90    4.10
  -2  -3   1   27.70    5.10
  -3   5   1   38.40    7.30
   2  -5  -1   15.20    7.50
  -2  -3   1   23.20    5.00
   3  -5  -1   34.20    4.40
   5  -3   1   24.90    4.20
  -3  -2   1   24.70    5.20
  -2   5   1   21.00    7.90
  -1  -4   1   18.50    6.20
  -1  -4   1   18.60    4.80
   1  -5  -1   20.60    7.60
   1  -5  -1   26.20    4.00
   5  -4   1   17.30    4.30
   4  -5  -1   21.40    4.30
  -5   1  -1   18.60    6.40
  -4  -1   1   19.50    5.30
  -5   1  -1   18.50    4.00
   0  -5   1  279.27   13.20
   0  -5   1  296.07   16.70
   0  -5  -1  300.87   18.90
   0  -5  -1  284.77   13.40
   0  -5   1  278.37   18.40
  -5   0  -1  259.07   16.50
   5  -5   1  296.07   13.90
   5  -5  -1  285.47   13.80
  -5   0  -1  289.67   18.10
  -1  -5  -1  132.99    7.50
   1  -6   1  123.89    7.60
   1  -6   1  128.79   12.50
   1  -6   1  125.39    9.50
  -1  -5  -1  139.09   12.30
   5  -6   1  130.79    8.10
  -5  -1  -1  110.39   10.10
   2  -7   1  175.98    9.90
   2  -7   1  172.78   11.90
  -2  -5  -1  170.68    9.00
  -2  -5  -1  191.88   15.00
  -7   2   1  202.98   12.60
   5  -7   1  168.18   10.40
  -5  -2  -1  165.38   13.30
  -3  -5  -1    6.20    9.90
   3  -8   1    5.80    5.30
   5  -8   1    6.00    5.70
  -5  -3  -1   -4.80    7.70
  -4  -5  -1   47.90   10.30
  -4  -5  -1   43.10    5.80
  -4  -5  -1   56.99   12.40
  -9   4   1   57.79   11.70
  -5  -4  -1   37.40   10.00
  -5  -4  -1   52.99    7.00
 -10   5   1    3.90   11.90
  -5  -5  -1    6.10    5.80
  -3  -3   1  300.47   18.20
  -3  -3   1  303.37   17.70
   3  -6  -1  311.97   14.80
  -2  -4   1  263.77   15.90
  -2  -4   1  271.87   16.60
   2  -6  -1  261.27   12.80
  -4  -2   1  247.08   16.00
   4  -6  -1  252.87   13.00
  -1  -5   1    8.50    5.40
   1  -6  -1   -1.30    8.00
  -1  -5   1    7.10    7.20
   1  -6  -1    8.90    4.20
   5  -6  -1    7.90    4.80
   6  -5   1   -3.60    4.60
   0  -6   1  284.87   16.40
   0  -6  -1  268.97   13.10
   0  -6   1  249.68   18.50
   0  -6  -1  308.27   19.20
   0  -6   1  245.88   12.60
  -6   0  -1  249.08   16.50
   6  -6   1  270.67   13.80
   1  -7   1  111.09    9.30
  -1  -6  -1   90.89   11.80
   1  -7   1   96.39   12.90
   1  -7   1   76.49    6.80
  -1  -6  -1   96.09    6.60
  -6  -1  -1   76.99   10.40
   6  -7   1   92.59    8.10
  -2  -6  -1  557.64   32.20
   2  -8   1  495.25   23.80
   2  -8   1  541.15   29.00
  -6   8  -1  494.45   25.40
   6  -8   1  498.15   24.40
  -6  -2  -1  538.45   30.70
  -9   6   1  219.68   17.50
  -3  -6  -1  247.98   18.90
  -3  -6  -1  203.98   11.30
  -9   6   1  166.48   13.30
  -6   9  -1  221.68   12.40
  -6  -3  -1  192.88   13.60
  -6  -3  -1  210.18   12.10
  -9   3   1  184.68   10.60
  -9   3   1  222.08   16.90
  -6  -3  -1  189.18   17.20
  -4  -6  -1   10.30    5.60
  -6  10  -1    3.30    6.00
  -4  -6  -1   -3.30   11.60
 -10   6   1   -0.70   12.30
 -10   4   1   15.10   12.00
  -6  -4  -1   -8.10    6.90
  -6  -4  -1    0.60    6.30
 -11   6   1    9.20   13.30
  -6  11  -1    2.00    6.80
  -5  -6  -1    7.70    6.70
  -6  -5  -1   12.60    7.40
  -5  11  -1   -3.90    6.30
 -11   5   1   10.10   13.30
  -6  -6  -1   40.90    8.20
  -6  12  -1   35.10    7.60
 -12   6   1   45.00   14.00
   3  -7  -1  180.48   10.20
  -3  -4   1  167.08   12.60
  -3  -4   1  180.48   13.00
  -4  -3   1  179.28   12.00
  -4  -3   1  171.88   13.00
   4  -7  -1  176.48   10.30
   2  -7  -1  144.99    9.20
  -2  -5   1  169.08   13.40
  -2  -5   1  163.38   12.10
   5  -7  -1  152.58    9.80
  -5  -2   1  151.38   12.20
  -1  -6   1  385.06   22.10
   1  -7  -1  367.66   17.70
  -1  -6   1  373.16   24.20
   0  -7   1  127.19   14.00
   0  -7   1  115.39   10.00
   0  -7  -1  100.19    7.30
  -7   7   1   91.59    8.10
   0  -7   1   92.59    7.00
  -7   8  -1  119.19    9.40
  -8   7   1  140.69   10.30
   1  -8   1  136.69   11.40
  -1  -7  -1  140.49    8.50
  -1  -7  -1  155.88   15.40
   1  -8   1  136.39    8.80
  -8   1   1  140.29    8.00
  -8   1   1  150.18   12.70
  -9   7   1   64.39    7.90
  -7   9  -1   51.29    6.70
  -2  -7  -1   59.99    7.00
  -2  -7  -1   70.09   14.00
  -9   2   1   84.09   11.40
  -9   2   1   46.10    5.20
  -7  -2  -1   47.50    7.60
  -7  -2  -1   60.19    8.40
  -9   2   1   50.59    7.40
  -3  -7  -1   21.10   13.10
 -10   7   1   10.60   12.50
 -10   7   1   24.20    8.10
  -3  -7  -1   24.30    6.00
  -7  10  -1   31.70    7.10
  -7  -3  -1    7.50    7.60
 -10   3   1   24.00    4.50
  -7  -3  -1   18.90    7.40
 -10   3   1   34.80   11.90
 -10   3   1   10.50    7.20
  -7  11  -1   -4.80    7.50
 -11   7   1   19.30   13.40
  -4  -7  -1    6.50    6.20
 -11   4   1   20.60   13.10
  -7  -4  -1    6.20    7.90
  -7  12  -1   19.30    8.30
  -5  -7  -1    8.90    7.10
 -12   7   1   32.50   14.10
 -12   5   1   14.00   13.30
  -7  -5  -1    8.70    8.10
  -5  12  -1    8.30    6.70
  -6  -7  -1    1.80    7.50
  -7  13  -1   11.90    7.90
 -13   7   1  -20.10   12.30
  -7  -6  -1   -0.80    8.20
 -13   6   1   12.90   12.80
  -6  13  -1  -10.90    7.10
 -14   7   1   -3.10   10.50
  -7  -7  -1    4.30    7.50
  -7  14  -1    2.00    6.70
  -4  -4   1  102.89   11.20
  -4  -4   1  113.89   10.60
  -4   8   1  101.69    7.40
   4  -8  -1  113.59    8.50
  -3  -5   1  250.07   16.50
   3  -8  -1  229.88   12.50
  -3  -5   1  229.98   16.90
  -5   8   1  205.38   12.40
  -5  -3   1  229.38   14.50
   5  -8  -1  229.68   12.90
  -5  -3   1  237.78   16.60
  -3   8   1  226.98   12.10
  -6   8   1    8.80    4.80
  -2  -6   1    8.80    9.50
   2  -8  -1   17.90    5.40
  -2  -6   1   19.40    7.50
   6  -8  -1   21.50    6.00
  -6  -2   1   11.10    3.50
   1  -8  -1  581.74   27.60
  -1  -7   1  631.24   34.40
  -7   8   1  590.94   29.90
  -1  -7   1  586.64   36.50
  -7  -1   1  627.74   33.40
  -7  -1   1  620.54   28.10
   0  -8   1  222.38   15.30
  -8   8   1  202.38   12.80
   0  -8   1  206.18   18.70
   0  -8  -1  189.48   11.00
   0  -8   1  185.28   11.20
  -8   0   1  204.68   14.90
  -8   0  -1  191.18   14.90
  -8   0   1  188.58   12.40
  -8   0   1  202.18   10.50
  -9   8   1   24.20    7.30
  -1  -8  -1   17.10    5.30
  -8   9  -1   18.10    5.70
  -8  -1  -1   11.80    7.70
  -9   1   1   31.60    9.50
  -9   1   1   11.80    6.90
  -8  -1  -1   21.90    8.30
  -9   1   1   15.30    4.40
 -10   8   1   32.80    8.40
  -8  10  -1   24.70    7.20
 -10   8   1   34.60   13.10
  -2  -8  -1   33.50    6.30
  -8  -2  -1   31.70    8.70
 -10   2   1   48.70   11.40
 -10   2   1   28.40    4.70
  -8  -2  -1    7.00    8.70
 -10   2   1   36.30    8.10
  -3  -8  -1  -14.60    6.00
 -11   8   1   -4.30   13.70
  -8  11  -1   -6.40    7.60
 -11   3   1    3.10    4.40
  -8  -3  -1    2.90    8.50
  -8  -3  -1    6.30    8.70
 -11   3   1   -2.30   11.40
  -8  12  -1   11.10    8.00
 -12   8   1  -12.90   13.20
  -4  -8  -1   -0.80    6.90
  -4  12  -1    6.00    6.40
  -8  -4  -1   13.70    8.80
 -12   4   1   -6.10   12.20
  -8  13  -1   -6.10    7.60
  -5  -8  -1   -5.50    7.30
 -13   8   1    7.30   13.40
  -5  13  -1    7.50    6.70
  -8  -5  -1   -2.70    8.30
 -13   5   1   14.00   11.90
 -14   8   1   15.00   11.70
  -6  -8  -1   19.30    8.00
  -8  14  -1    8.90    7.30
  -6  14  -1    6.30    6.70
  -8  -6  -1   10.90    7.40
 -14   6   1   14.70   10.20
  -8  15  -1    2.20    5.90
  -7  15  -1   -9.20    5.40
  -4  -5   1   13.40    8.50
  -4  -5   1   11.50    8.70
  -5   9   1   13.20    5.30
  -9   5  -1   21.10   10.50
  -5  -4   1    6.40    9.20
   5  -9  -1    3.90    6.50
  -9   4  -1   -6.60   10.70
  -4   9   1    5.70    4.70
  -5  -4   1    9.80    8.10
  -5  -4   1   11.40    5.40
  -5  -4   1    4.70    6.80
  -6   9   1  110.99    8.60
  -3  -6   1   78.49   11.90
  -3  -6   1   97.19    7.60
   6  -9  -1   73.59    9.20
  -6  -3   1   92.29    6.70
  -6  -3   1   88.69   10.40
  -9   3  -1   93.99   13.70
  -6  -3   1   99.39   10.30
  -3   9   1  105.49    7.50
  -6  -3   1  104.19    8.70
  -7   9   1    3.00    5.80
  -2  -7   1    5.60    4.80
  -2  -7   1    4.00   10.30
  -2  -7   1    0.50    4.20
  -9   2  -1   -5.20    9.70
  -7  -2   1    4.60    5.80
  -7  -2   1    3.00    4.00
  -7  -2   1    3.10    7.40
  -1  -8   1   97.79    8.00
   1  -9  -1  116.29    7.90
  -1  -8   1   78.79   15.00
  -8   9   1  123.89   10.10
  -8  -1   1   91.09   11.70
  -9   1  -1   73.19   12.50
  -8  -1   1  122.49    9.70
  -8  -1   1  100.39    7.00
  -9   9   1  292.57   17.20
   0  -9   1  274.37   15.70
   0  -9  -1  287.37   14.80
  -9   0   1  302.47   16.70
  -9   0  -1  266.07   16.30
  -9   0   1  309.97   14.50
  -9   0   1  314.47   19.70
  -9   0  -1  238.18   19.10
  -1  -9  -1   15.80    6.10
 -10   9   1   16.80    8.30
  -9  10  -1   20.40    6.90
 -10   1   1   23.30    8.70
  -9  -1  -1   24.50    9.10
 -10   1   1   20.30    4.70
  -9  -1  -1   17.10    8.50
 -10   1   1   48.70   10.90
  -2  -9  -1   10.80    6.20
 -11   9   1   16.10   13.80
  -9  11  -1    4.50    7.20
 -11   9   1   17.70    8.40
 -11   2   1    9.10    8.70
 -11   2   1   13.20    4.70
  -9  -2  -1    3.50    8.60
  -9  -2  -1   14.50    8.80
 -11   2   1   15.90   11.50
 -12   9   1   55.19   15.40
  -3  -9  -1   48.60    7.60
  -9  12  -1   55.59    9.00
 -12   3   1   48.00    6.20
  -9  -3  -1   71.89   10.00
  -9  -3  -1   48.30    9.50
 -12   3   1   60.49   12.60
 -13   9   1    2.80   13.00
  -9  13  -1   -2.10    7.90
  -4  -9  -1    5.90    7.30
 -13   4   1   -0.40   10.70
  -9  -4  -1   -2.70    8.30
  -4  13  -1    9.00    6.30
 -14   9   1    4.70   11.40
  -5  -9  -1   -7.60    7.10
  -9  14  -1    0.70    7.40
  -9  -5  -1    0.80    7.20
 -14   5   1   17.50    9.80
  -5  14  -1   14.70    6.60
 -10   5  -1   -2.40   12.20
  -5  -5   1   13.30    9.60
  -5  10   1    0.20    5.80
  -5  -5   1    9.20    5.90
  -6  10   1  125.99    9.90
 -10   6  -1  125.79   16.20
  -4  -6   1  100.29   14.30
  -4  -6   1  121.69    8.80
  -6  -4   1   85.69   12.50
  -6  -4   1  128.79   11.90
  -4  10   1  124.99    9.10
  -6  -4   1  112.09    9.90
 -10   4  -1  118.69   16.20
  -3  -7   1   36.40    5.80
  -7  10   1   43.90    7.40
 -10   7  -1   28.30   12.40
  -3  -7   1   37.90   12.30
  -7  -3   1   39.30    8.70
  -7  -3   1   45.30    7.30
 -10   3  -1   38.30   12.00
  -3  10   1   38.00    5.90
  -2  -8   1   68.29   15.40
  -2  -8   1   94.09    8.00
  -8  10   1  125.89   10.80
   2 -10  -1  106.89    8.10
  -2  10   1  102.99    8.30
  -8  -2   1  126.29   11.10
  -8  -2   1  104.89   12.00
 -10   2  -1   91.89   13.10
   1 -10  -1   55.99    6.90
  -9  10   1   58.19    9.10
  -1  10   1   70.39    7.30
 -10   1  -1   61.39   11.30
  -9  -1   1   67.09    6.80
  -9  -1   1   61.19   10.20
  -9  -1   1   71.49    9.60
 -10  10   1   35.90    9.20
   0 -10  -1   31.10    6.50
 -10   0   1   55.19   10.60
   0  10   1   33.80    6.10
 -10   0   1   51.19    6.40
 -10   0  -1   43.50    9.50
 -10   0  -1   43.70   10.00
 -10   0   1   36.70    9.80
 -11  10   1   13.00    8.70
 -11  10   1   -5.20   13.70
  -1 -10  -1    8.50    6.30
 -11   1   1   11.10   10.40
 -11   1   1   24.80    9.40
 -10  -1  -1    5.30    9.20
 -10  -1  -1    9.50    9.00
  -2 -10  -1    9.80    6.50
 -10  12  -1    8.80    8.00
 -12  10   1    2.50   14.50
 -10  -2  -1   11.70    9.20
 -10  -2  -1    1.50    8.70
 -12   2   1    6.70   10.50
  -3 -10  -1   17.40    7.20
 -10  13  -1   -4.70    7.80
 -13  10   1    0.70   13.50
  -3  13  -1    4.50    6.10
 -10  -3  -1   -0.10    8.70
 -13   3   1   17.50   10.10
  -4 -10  -1   -1.50    6.80
 -10  14  -1    7.80    7.30
 -14  10   1   -7.40   11.50
 -10  -4  -1   15.10    7.70
 -14   4   1    0.90    8.40
  -4  14  -1    6.10    6.00
  -5  -6   1    5.30    6.50
  -5  -6   1   -4.60   11.60
 -11   6  -1   -5.60   13.20
  -6  11   1   -1.40    7.00
  -6  -5   1   16.60   12.90
  -6  -5   1   -9.20    6.70
  -5  11   1   -6.80    6.90
 -11   5  -1  -20.10   12.90
  -7  11   1  341.67   18.70
  -4  -7   1  326.87   16.60
 -11   7  -1  273.67   24.10
  -7  -4   1  317.67   17.20
  -4  11   1  334.37   17.90
 -11   4  -1  297.87   23.70
  -8  11   1  191.98   14.10
  -3  -8   1  169.68   10.80
 -11   8  -1  156.28   18.90
  -3  11   1  157.78   11.40
  -8  -3   1  181.68   14.60
  -8  -3   1  173.68   13.00
 -11   3  -1  145.89   16.80
  -9  11   1   71.19    9.90
 -11   9  -1   56.79   14.80
  -2  -9   1   55.09    6.60
  -9  -2   1   52.49   10.00
  -2  11   1   53.49    7.70
 -11   2  -1   64.79   12.00
  -9  -2   1   64.19   10.10
   1 -11  -1   12.70    5.80
 -10  11   1   23.00    9.40
 -10  -1   1    8.60    9.80
 -11   1  -1   13.80   10.20
  -1  11   1   24.80    6.10
 -10  -1   1   20.00    9.90
   0 -11  -1   10.30    5.80
 -11  11   1    9.40    9.10
 -11  11   1   -4.80   14.60
 -11   0  -1    4.80    9.00
   0  11   1    9.10    5.70
 -11   0   1  -11.60    9.80
 -11   0  -1   -0.20    8.70
 -11   0   1    2.50    9.30
 -12  11   1    7.90   14.30
  -1 -11  -1    6.30    6.00
 -12  11   1    3.20    8.90
 -12   1   1   -1.50    9.80
 -12   1   1   -3.80    9.40
 -11  -1  -1  -13.90    8.70
 -11  -1  -1    5.20    8.60
 -13  11   1    3.30   13.00
  -2 -11  -1    3.50    6.40
 -11  -2  -1   -3.10    8.20
 -13   2   1   13.70    9.10
  -2  13  -1   16.20    6.00
 -14  11   1  -11.50   11.10
  -3 -11  -1    0.40    6.00
  -3  14  -1    1.00    5.30
 -14   3   1   -8.20    7.60
 -11  -3  -1   -9.20    7.10
 -12   6  -1   14.50   14.10
  -6  12   1   16.00    7.50
  -6  -6   1   16.40    7.30
  -7  12   1   68.09    9.40
 -12   7  -1   79.99   15.30
  -5  -7   1   80.59    9.40
  -7  -5   1   77.99   10.20
 -12   5  -1   50.09   14.10
  -5  12   1   75.39    9.50
  -4  -8   1   -8.70    6.80
  -8  12   1  -14.20    8.70
 -12   8  -1   -7.40   14.00
  -4  12   1    0.50    7.10
  -8  -4   1   -6.50    7.90
 -12   4  -1   -0.40   12.10
 -12   9  -1   -7.90   13.90
  -3  -9   1    3.10    6.20
  -9  12   1   13.10    9.30
  -9  -3   1   11.50    9.40
  -9  -3   1   13.70    9.50
 -12   3  -1   25.50   11.40
  -3  12   1   -8.30    6.40
 -12  10  -1    2.10   13.90
 -10  12   1    9.70    9.90
 -10  -2   1   -1.30    9.30
 -12   2  -1   -3.70    9.70
 -10  -2   1    7.70    9.30
  -2  12   1   -5.20    6.20
 -12  11  -1    2.40   14.60
 -11  12   1    5.00   14.40
 -11  12   1    7.00    9.40
  -1  12   1   19.90    6.20
 -11  -1   1   19.30    9.80
 -11  -1   1   23.40   10.20
 -12   1  -1    0.90    8.80
 -12  12   1    5.80   14.00
 -12  12   1   -1.50    8.70
   0 -12  -1   -1.20    6.00
 -12  12  -1  -10.00   14.00
 -12   0   1   20.10    9.50
 -12   0   1    5.30    9.00
 -12   0  -1   -1.60    8.00
 -12   0  -1   -4.40    8.50
 -12  13  -1  -19.40   12.40
 -13  12   1   -2.20   12.60
  -1 -12  -1    1.30    5.50
 -13   1   1   -4.80    8.00
 -12  -1  -1    4.90    8.00
  -1  13  -1   -5.70    5.20
 -13   7  -1   -4.60   12.90
  -6  -7   1   -7.30    7.20
  -7  13   1   -2.80    8.00
  -7  -6   1   -1.90    7.50
 -13   6  -1  -11.40   12.20
  -6  13   1   14.90    7.60
  -5  -8   1   13.30    6.90
 -13   8  -1    7.50   13.40
  -8  13   1    3.60    8.70
 -13   5  -1  -10.30   11.60
  -5  13   1   -3.30    6.80
  -8  -5   1   14.00    8.30
 -13   9  -1  -10.60   13.10
  -4  -9   1   -2.50    6.20
  -9  13   1   -6.90    9.10
  -4  13   1   -8.30    6.70
 -13   4  -1   11.20   10.90
  -9  -4   1    0.70    8.50
 -10  13   1   14.90    9.60
 -13  10  -1   15.20   13.70
  -3 -10   1   10.40    6.00
  -3  13   1   10.70    6.60
 -13   3  -1    5.10    9.40
 -10  -3   1   15.40    9.10
 -11  13   1   -1.10    9.10
 -13  11  -1  -22.00   12.80
 -11  13   1   -7.90   13.20
 -11  -2   1   13.50    9.30
 -13   2  -1    4.70    8.40
  -2  13   1    5.30    6.00
 -13  12  -1    4.30   13.00
 -12  13   1   20.40   12.70
 -12  13   1    4.40    8.30
   1  12  -1  -11.70    4.90
 -12  -1   1    2.00    8.20
 -12  -1   1    5.70    8.70
 -13   1  -1    9.30    7.40
   0  13  -1    3.40    4.50
  -7  14   1   13.70    7.60
  -7  -7   1   15.00    7.50
 -14   7  -1    7.00   11.10
  -6  -8   1   -0.30    6.60
  -8  14   1   -6.60    8.00
 -14   8  -1   14.20   11.50
  -6  14   1   -1.00    6.60
 -14   6  -1    1.90   10.30
  -8  -6   1    8.40    7.90
  -9  14   1    6.40    8.30
 -14   9  -1    6.00   11.70
  -5  -9   1    6.00    6.30
 -14   5  -1   24.70    9.90
  -5  14   1    0.30    6.30
  -9  -5   1    5.60    7.80
  -4 -10   1   16.80    5.80
 -10  14   1   17.50    8.80
 -14  10  -1   13.00   11.80
  -4  14   1   22.30    6.30
 -14   4  -1    8.80    8.60
 -10  -4   1   27.80    8.20
 -14  11  -1    3.40   11.20
 -11  14   1   -3.30    8.10
 -11  14   1   -0.30   10.80
 -11  -3   1    5.80    7.90
 -14   3  -1   -7.40    7.20
  -3  14   1    0.10    5.40
  -8  15   1    2.30    6.40
  -7  15   1   -3.50    6.10
   0   0   2  117.39   10.20
  -1   1   2 1075.49   60.99
   1   0   2 1092.29   58.19
  -1   1   2 1146.69   58.39
   0  -1   2 1096.69   57.89
   0  -1   2 1089.89   60.69
  -1   0   2 1095.79   58.09
   1  -1   2 1064.69   57.89
  -1   0   2 1110.69   60.99
   0   1   2 1067.39   58.29
  -2   1   2 4285.77  222.08
   1  -2   2 4430.36  180.88
   1  -2   2 4377.66  231.58
   1  -2   2 4221.38  222.18
  -2   1   2 4206.48  232.08
  -1   2   2 4799.02  237.38
  -1  -1   2 4398.56  236.58
  -1  -1   2 4570.74  246.98
   0  -2   2  285.37   18.80
   0  -2   2  295.17   17.10
  -2   2   2  271.97   17.50
  -2   2   2  288.07   19.50
   2  -2   2  281.17   17.40
   0   2   2  258.37   18.60
  -2   0   2  276.37   16.60
   2  -2   2  288.87   13.20
  -2   0   2  296.27   20.10
  -3   2   2  428.76   26.60
   1  -3   2  411.96   18.40
   1  -3   2  422.46   24.00
  -3   2   2  367.76   24.20
   1  -3   2  437.96   25.00
   2  -3   2  396.46   24.00
   2  -3   2  425.86   18.60
   2  -3   2  403.76   25.20
  -3   1   2  444.86   26.50
   2  -4   2 5526.05  241.18
  -4   2   2 5632.34  296.27
  -4   2   2 6158.88  309.87
   2  -4   2 5671.93  296.47
  -2   3   2  139.09   12.60
  -1  -2   2  129.49    9.80
  -2   3   2  100.59   11.30
  -1  -2   2  133.59   12.70
  -1   3   2  119.69   11.90
  -2  -1   2  135.49   13.50
   3  -2   2  141.29    7.50
  -2  -1   2  121.89    9.30
   0  -3   2   47.80    8.70
   0  -3   2   45.60    7.30
  -3   3   2   53.39    9.90
   0  -3   2   39.10    5.20
   0  -3   2   43.20    4.10
  -3   0  -2   29.50    4.50
   3  -3   2   29.10    7.30
   3  -3   2   27.30    4.50
   1  -4   2  326.17   14.90
   1  -4   2  312.57   20.00
  -4   3   2  322.77   22.10
   1  -4   2  323.87   18.10
  -1  -3  -2  325.17   15.20
   3  -4   2  329.57   15.20
   4  -3  -2  326.07   15.10
   3  -4   2  318.07   20.60
  -2  -3  -2 1398.86   61.09
   2  -5   2 1442.66   61.19
   2  -5   2 1418.16   76.49
   2  -5   2 1470.35   74.09
   3  -5   2 1424.76   61.29
  -5   2   2 1440.86   75.79
   3  -6   2 2723.83  113.29
  -3  -3  -2 2623.84  112.79
   4  -2   2  231.58   11.90
  -2   4   2  254.77   18.10
  -2   4   2  237.18   18.30
   2  -4  -2  256.07   12.00
  -2  -2   2  223.98   14.60
   1  -4  -2  202.68   15.40
  -1  -3   2  215.38   12.90
  -3   4   2  209.88   16.60
   1  -4  -2  211.18   10.90
  -1  -3   2  207.48   14.00
  -3   4   2  227.68   16.20
   3  -4  -2  208.58   10.80
   4  -3   2  209.48   10.90
   0  -4  -2  213.68   15.70
   0  -4  -2  205.08   10.20
   0  -4   2  208.18   12.40
  -4   4   2  186.98   16.80
   0  -4   2  178.28   13.90
   0  -4   2  184.48    9.60
   4  -4  -2  187.58   10.20
   4  -4   2  187.08   10.20
   1  -5   2 1061.79   54.49
  -1  -4  -2  985.60   44.80
   1  -5   2 1063.29   56.59
   1  -5   2 1036.40   44.80
  -1  -4  -2 1053.89   57.09
   4  -5   2 1047.20   45.10
   2  -6   2   30.50    5.10
   2  -6   2   31.50    9.50
  -2  -4  -2   29.70    5.10
   2  -6   2   25.30    5.50
  -4  -2  -2   21.40    4.10
   4  -6   2   24.70    5.40
  -6   2   2   20.30    7.40
   3  -7   2  697.43   32.10
  -3  -4  -2  713.83   31.60
   4  -7   2  753.22   32.40
  -8   4   2  552.34   29.20
   4  -8   2  600.04   26.80
   2  -5  -2    4.40    4.50
  -3   5   2   11.00    9.30
  -2  -3   2    3.60    6.40
  -2  -3   2   12.90    5.30
   5  -2   2   10.60    4.70
  -3  -2   2    9.90    5.80
   3  -5  -2   10.30    4.60
   5  -3   2    9.70    4.60
  -2   5   2   -0.60   10.30
   1  -5  -2  345.37   16.40
  -1  -4   2  359.26   21.40
  -1  -4   2  343.97   19.80
  -4   5   2  324.27   23.50
   4  -5  -2  350.66   16.70
   5  -4   2  333.77   16.50
   0  -5   2 1334.37   68.19
   0  -5  -2 1419.06   71.49
   0  -5   2 1290.27   69.99
   0  -5   2 1272.97   55.59
   0  -5  -2 1222.78   56.09
   5  -5   2 1317.87   56.39
   1  -6   2    8.50    5.70
   1  -6   2    3.80    4.60
  -1  -5  -2   15.20   10.00
   1  -6   2    7.90    9.30
  -1  -5  -2    9.70    4.60
   5  -6   2    3.00    5.50
   2  -7   2   76.29    8.60
  -2  -5  -2   77.69    7.20
  -2  -5  -2  104.89   13.60
   2  -7   2   89.39    7.30
   5  -7   2   77.99    7.80
  -7   2   2   68.19    9.40
   3  -8   2    4.10    5.80
  -8   5   2    0.30    6.90
  -3  -5  -2    5.60    4.40
  -8   3   2   -1.10    6.30
   5  -8   2   17.10    6.50
  -8   3   2    2.00    4.30
  -9   5   2   21.50    8.20
  -9   5   2   19.40   10.40
  -4  -5  -2   17.90    5.80
  -9   5   2   24.70    4.80
  -9   4   2   13.40    7.30
  -5  -4  -2   29.80   11.50
  -5  -4  -2   24.70    6.20
  -9   4   2   22.30    4.80
  -9   4   2   24.30   10.20
  -5  -5  -2    8.70    6.20
 -10   5   2    1.10    4.90
 -10   5   2   -3.70   11.40
 -10   5   2    0.80    7.70
   3  -6  -2  116.39    8.40
  -3  -3   2  115.79   10.30
   2  -6  -2  418.26   18.90
  -2  -4   2  427.86   23.00
  -2  -4   2  368.56   23.60
   6  -4   2  373.56   18.90
   4  -6  -2  412.06   19.00
  -2   6   2  336.27   26.90
   1  -6  -2    1.60    5.10
  -1  -5   2    0.50    8.30
  -1  -5   2   17.80    6.30
   6  -5   2    3.60    5.80
   5  -6  -2   -0.60    5.40
   0  -6   2   92.29   12.90
   0  -6   2  101.69    9.70
   0  -6   2   84.39    6.80
   0  -6  -2   97.69    7.70
   6  -6   2   93.49    8.30
   1  -7   2   85.79    6.90
   1  -7   2   73.29   13.40
  -1  -6  -2   89.19    7.50
   1  -7   2  101.39    9.50
  -7   6   2   70.39    8.40
   6  -7   2   77.99    8.30
  -8   6   2   34.20    7.30
  -2  -6  -2   31.40    5.70
   2  -8   2   29.80    6.30
   6  -8   2   37.10    7.20
  -8   2   2   26.10    4.80
  -8   2   2   30.30    6.70
  -9   6   2   26.70   10.90
  -3  -6  -2    8.90    5.40
  -9   6   2    4.70    7.70
  -9   3   2    3.20    9.20
  -9   3   2    2.90    4.70
  -6  -3  -2    2.20    6.10
  -9   3   2   -4.70    7.00
  -6  10  -2  -12.60    6.00
  -4  -6  -2  -10.40    6.00
 -10   6   2   -8.20   11.10
 -10   6   2    3.30    8.10
 -10   4   2  -10.60    7.40
 -10   4   2   -1.00    5.00
  -6  -4  -2   11.60    6.60
 -10   4   2    9.50   10.80
  -6  11  -2   17.90    6.80
 -11   6   2    9.10   12.30
  -5  -6  -2   11.60    6.70
 -11   6   2    5.10    8.20
 -11   5   2   17.60   11.60
  -6  -5  -2   27.30    7.30
 -11   5   2    6.10    5.20
 -12   6   2   16.10   12.20
  -6  12  -2    4.20    6.70
  -6  -6  -2    0.50    7.10
   3  -7  -2  395.26   20.30
  -3  -4   2  423.46   24.90
  -3  -4   2  412.66   24.60
   4  -7  -2  417.26   20.60
  -4  -3   2  434.96   24.20
   2  -7  -2   19.50    6.10
  -2  -5   2    4.70    8.90
  -2  -5   2   19.30    7.20
   5  -7  -2    6.50    6.30
  -6   7   2   43.90    6.40
  -1  -6   2   52.99   11.30
   1  -7  -2   39.90    6.60
  -1  -6   2   54.29    8.80
  -7   7   2   33.70    6.10
   0  -7   2   32.60   12.50
   0  -7  -2   31.30    6.50
   0  -7   2   40.20    7.80
  -7   0   2   43.60    4.90
   1  -8   2  192.38   14.20
  -8   7   2  174.08   12.80
   1  -8   2  186.98   11.30
  -8   1   2  198.48   12.20
  -8   1   2  204.08   14.20
   7  -8   2  164.28   12.40
  -8   1   2  195.08   10.60
  -9   7   2   73.79   10.30
  -9   7   2  101.19   13.70
  -7   9  -2   71.99    8.10
  -2  -7  -2   81.99    8.00
   2  -9   2   85.39    7.20
  -7  -2  -2   90.09    9.40
  -9   2   2   87.29    7.00
  -9   2   2   97.49   12.00
  -9   2   2   97.09   10.00
 -10   7   2   47.70    9.50
 -10   7   2   43.70   12.50
  -7  10  -2   34.20    6.90
  -3  -7  -2   26.10    6.80
 -10   3   2   44.40    6.10
 -10   3   2   53.29   11.20
  -7  -3  -2   43.40    8.00
  -4  -7  -2   58.79    7.60
  -7  11  -2   47.10    8.00
 -11   7   2  103.99   15.40
 -11   7   2   51.09    9.20
  -7  -4  -2   51.29    8.60
 -11   4   2   54.39   12.30
 -11   4   2   47.30    6.40
  -5  -7  -2    4.70    7.10
 -12   7   2   -8.30   12.10
  -7  12  -2    0.00    7.30
  -7  -5  -2    6.00    7.70
  -5  12  -2   -0.30    6.30
 -12   5   2    4.30   11.40
  -7  13  -2    0.60    7.40
 -13   7   2    4.60   11.30
  -6  -7  -2    4.80    7.80
  -7  -6  -2    3.20    7.60
 -13   6   2    7.20   10.90
  -6  13  -2   -4.60    6.70
 -14   7   2   52.69   10.30
  -7  14  -2   46.70    7.40
  -7  -7  -2   57.89    8.20
   4  -8  -2   10.20    6.60
  -4  -4   2    8.80    7.50
  -4   8   2    2.90    4.40
  -4  -4   2   -0.20    3.70
  -5   8   2  271.47   14.50
  -3  -5   2  274.07   19.80
  -3  -5   2  283.37   18.50
   3  -8  -2  262.27   15.00
  -3   8   2  275.17   14.10
  -5  -3   2  252.77   13.40
   5  -8  -2  256.97   15.30
  -2  -6   2   38.10   12.00
  -2  -6   2   61.99    9.50
  -6   8   2   50.99    7.00
  -2  -6   2   59.59    6.00
   2  -8  -2   47.80    7.60
  -2   8   2   56.69    5.80
  -6  -2   2   47.10    5.70
  -6  -2   2   40.90    7.40
  -1  -7   2   50.99    9.60
  -1  -7   2   71.99    6.70
  -1  -7   2   61.99   13.70
  -7   8   2   74.79    8.60
  -7  -1   2   58.59    6.90
  -7  -1   2   68.09    6.20
  -1   8   2   63.09    5.80
  -7  -1   2   64.59    9.30
   0  -8   2   99.79    8.10
  -8   8   2   99.69    9.70
   0  -8   2   92.29   16.70
  -8   0   2  121.49   10.00
  -8   0   2  110.19   11.30
  -8   0  -2   85.49   11.30
  -8   0   2  104.39    7.50
  -9   8   2   65.89   12.30
  -1  -8  -2   53.39    7.00
  -9   8   2   53.99    8.80
   1  -9   2   55.19    6.40
  -8  -1  -2   47.00    8.30
  -9   1   2   40.90    8.40
  -9   1   2   61.19    9.90
  -9   1   2   58.99    6.50
 -10   8   2   -3.40   11.90
 -10   8   2    6.50    8.70
  -2  -8  -2    9.50    6.50
 -10   2   2    6.20    8.20
 -10   2   2   -3.90   10.00
 -10   2   2    0.90    5.00
  -8  -2  -2   10.40    8.10
  -8  11  -2   10.60    7.50
 -11   8   2    1.80   12.40
 -11   8   2    7.70    9.20
  -3  -8  -2   -6.60    6.60
 -11   3   2   -0.20    5.10
 -11   3   2   17.60   10.90
  -8  -3  -2  -15.50    8.20
 -12   8   2    0.90    8.40
  -4  -8  -2   23.90    7.30
 -12   8   2   13.10   12.80
  -8  12  -2   21.80    7.90
  -8  -4  -2   13.40    8.60
 -12   4   2   10.80   11.20
 -12   4   2   26.50    5.20
  -8  13  -2    8.70    7.50
 -13   8   2   -1.70   11.20
  -5  -8  -2    2.30    7.40
  -5  13  -2   -6.60    6.10
  -8  -5  -2   11.70    8.40
 -13   5   2   13.10   10.60
  -8  14  -2   11.70    6.50
 -14   8   2   27.20    9.90
  -6  -8  -2   21.10    7.30
 -14   6   2    5.60    9.00
  -8  -6  -2   16.50    7.30
  -6  14  -2   23.40    6.70
  -4  -5   2    0.30    9.80
  -4  -5   2    1.10    5.20
  -4  -5   2    2.30    4.90
  -5   9   2    9.70    5.20
  -9   5  -2    1.50   10.50
  -5  -4   2    7.90    5.20
  -5  -4   2   -0.80    4.90
  -9   4  -2    4.60   10.70
  -4   9   2    1.10    5.10
  -5  -4   2    2.20    4.20
  -5  -4   2    1.70    8.50
  -5  -4   2   -7.60    7.10
  -3  -6   2  415.96   21.00
  -3  -6   2  390.26   18.80
  -6   9   2  419.76   21.10
  -3  -6   2  396.96   27.50
  -6  -3   2  394.46   19.40
  -6  -3   2  392.86   19.30
  -6  -3   2  415.66   23.30
  -9   3  -2  370.46   25.50
  -3   9   2  401.56   20.30
  -2  -7   2   59.99    7.20
  -7   9   2   53.79    7.50
  -2  -7   2   38.70   14.00
  -7  -2   2   61.79    9.70
  -7  -2   2   40.40    7.20
  -2   9   2   45.50    6.60
  -7  -2   2   60.49    6.30
  -9   2  -2   37.80   10.60
  -1  -8   2   -0.90    5.50
  -8   9   2    7.90    7.30
  -1  -8   2    3.50   13.90
  -1   9   2   -1.30    4.80
  -9   1  -2    3.80    8.90
  -8  -1   2    3.90    5.00
  -8  -1   2   -6.60    7.00
  -8  -1   2   -0.30    7.80
   0  -9  -2   55.49    7.20
  -9   9   2   70.29    9.60
   0  -9   2   62.59    7.50
  -9   0  -2   40.70    9.30
  -9   0   2   51.49    8.80
  -9   0   2   66.59    7.10
  -9   0   2   64.09   10.10
   1 -10   2   11.90    5.60
 -10   9   2    5.00   12.30
  -1  -9  -2   13.10    6.60
 -10   9   2   -1.90    9.00
 -10   1   2    6.40    5.30
  -9  -1  -2    4.90    8.20
 -10   1   2    7.80    9.50
 -10   1   2   13.60    8.50
  -9  -1  -2    3.50    8.40
 -11   9   2    0.40    9.20
  -2  -9  -2    7.60    7.00
 -11   9   2   11.70   13.10
  -9  -2  -2   -4.00    8.40
 -11   2   2   10.10    5.30
 -11   2   2    1.40   10.00
 -12   9   2    2.70    8.50
 -12   9   2    5.20   12.80
  -3  -9  -2   18.90    7.20
  -9  -3  -2   17.40    8.50
 -12   3   2    0.50   10.10
 -12   3   2   15.90    5.20
 -13   9   2   -7.60   11.60
  -4  -9  -2  -10.30    6.70
  -9  13  -2   12.00    7.60
 -13   4   2    7.30    9.30
  -9  -4  -2   -1.80    7.60
  -4  13  -2    7.10    6.20
  -9  14  -2   -7.00    6.60
  -5  -9  -2    2.80    6.90
 -14   9   2   17.80    9.90
 -14   5   2   -1.40    8.10
  -9  -5  -2    2.20    7.10
  -5  14  -2    7.20    5.90
  -5  -5   2   -8.70    9.40
  -5  10   2    0.30    5.90
 -10   5  -2   -3.00   12.00
  -5  -5   2   -7.60    5.70
  -6  10   2   15.80    6.80
  -4  -6   2   28.80    6.20
 -10   6  -2   27.80   12.60
  -4  -6   2   24.30    5.90
  -4  -6   2   31.90   12.20
  -6  -4   2   27.00    5.30
  -6  -4   2   25.60    6.50
 -10   4  -2   38.90   12.80
  -4  10   2   22.80    6.30
  -7  10   2   23.20    7.50
  -3  -7   2   14.90    5.60
 -10   7  -2   29.20   12.30
  -3  -7   2   23.70    6.50
  -3  -7   2   -7.70   12.30
  -7  -3   2   26.40    8.70
  -3  10   2   25.50    6.20
  -7  -3   2   34.30    5.50
 -10   3  -2   26.10   11.50
  -7  -3   2   11.40    7.10
  -2  -8   2   53.29    8.10
  -2  -8   2   35.20   14.70
  -8  10   2   58.59    9.10
  -8  -2   2   67.39    9.70
  -8  -2   2   44.40    6.00
 -10   2  -2   41.80   10.90
  -2  10   2   48.90    7.30
  -8  -2   2   46.40    8.40
  -1  -9   2    0.00    6.20
  -9  10   2   -5.10    8.90
   1 -10  -2    2.10    6.30
  -9  -1   2    0.40    5.10
  -9  -1   2    8.00    8.80
  -1  10   2    1.10    5.50
 -10   1  -2   -5.80    9.30
  -9  -1   2  -15.20    8.40
   0 -10  -2   34.80    7.30
 -10  10   2   31.40   13.00
   0 -10   2   36.50    6.70
 -10  10   2   28.90    9.80
 -10   0   2   38.80    5.90
 -10   0  -2   23.40    9.20
 -10   0   2   35.70    9.90
 -10   0   2   22.40    9.40
  -1 -10  -2   43.90    7.60
 -11  10   2   44.90   13.70
 -11  10   2   44.70   10.20
 -10  -1  -2   37.50    9.00
 -11   1   2   56.39   10.60
 -11   1   2   55.69   10.40
 -11   1   2   45.40    6.00
 -12  10   2   -8.00   12.70
 -12  10   2    3.00    9.10
  -2 -10  -2   -3.90    6.50
 -10  -2  -2    3.80    8.10
 -12   2   2    5.70    5.00
 -12   2   2   12.40   10.00
 -13  10   2   13.00   11.90
  -3 -10  -2    4.50    6.80
 -10  -3  -2    7.30    7.60
  -3  13  -2    2.20    6.10
 -13   3   2    7.70    8.90
 -14  10   2   10.50    9.80
  -4 -10  -2    3.60    6.50
  -4  14  -2    1.20    5.40
 -14   4   2   14.30    7.90
 -10  -4  -2   10.70    6.90
 -11   6  -2    5.30   13.30
  -6  11   2   18.00    7.50
  -5  -6   2   14.20    6.60
  -5  11   2   -0.70    6.70
 -11   5  -2   31.20   13.60
  -6  -5   2   22.10    6.90
  -4  -7   2   48.00    6.80
  -7  11   2   77.59   10.90
 -11   7  -2   40.90   14.20
  -4  11   2   60.19    8.30
  -7  -4   2   55.69    8.40
 -11   4  -2   56.49   13.20
 -11   8  -2   38.60   13.40
  -8  11   2   38.90    9.10
  -3  11   2   46.10    7.10
  -8  -3   2   48.40    8.70
  -8  -3   2   44.60    9.70
 -11   3  -2   22.90   11.60
  -9  11   2    5.80    9.40
   2 -11  -2    6.10    6.30
 -11   9  -2   16.10   13.30
  -2  11   2    1.40    6.10
 -11   2  -2   -0.50    9.90
  -9  -2   2    2.50    8.90
  -9  -2   2    8.30    9.10
 -10  11   2    9.50   12.70
   1 -11  -2    3.40    6.40
 -10  11   2   -9.30    9.70
 -11   1  -2  -16.50    8.90
 -10  -1   2    5.30    5.50
 -10  -1   2    7.90    9.00
 -10  -1   2    8.30    9.20
 -11  11   2   23.50   10.20
   0 -11  -2   18.30    6.70
 -11  11   2   28.10   13.30
 -11   0   2   23.10    9.50
 -11   0  -2   14.40    8.50
 -11   0   2   16.20    9.80
 -12  11   2   46.10   13.10
 -12  11   2   16.60    9.80
  -1 -11  -2   29.10    6.70
 -12   1   2    8.30    8.90
 -13  11   2   25.50    8.80
 -13  11   2   41.20   12.00
  -2 -11  -2   23.00    6.70
  -2  13  -2   21.40    5.90
 -13   2   2   34.70    8.90
 -11  -2  -2   14.20    7.40
 -14  11   2   -4.70    9.10
  -3 -11  -2    9.20    6.00
 -14   3   2    8.20    7.30
 -11  -3  -2    0.30    6.20
  -3  14  -2   -2.50    4.80
  -6  -6   2  221.48   13.60
  -6  12   2  212.78   14.60
 -12   6  -2  196.08   20.40
 -12   7  -2   42.40   14.50
  -7  12   2   75.39   10.80
  -5  -7   2   49.10    7.10
 -12   5  -2   27.50   13.00
  -7  -5   2   41.20    8.40
  -5  12   2   36.40    7.60
  -4  -8   2    9.90    6.10
 -12   8  -2   29.40   14.20
  -8  12   2    9.40    8.70
  -8  -4   2   11.00    8.00
 -12   4  -2  -12.60   11.10
  -4  12   2    7.70    6.70
  -9  12   2   24.40    9.90
 -12   9  -2   34.10   14.30
   3 -12  -2   30.50    6.50
  -9  -3   2   36.20    9.20
  -3  12   2   30.30    6.60
 -12   3  -2   35.20   10.60
 -10  12   2  -13.80    9.70
 -12  10  -2   22.20   13.40
   2 -12  -2    4.70    6.00
 -12   2  -2    6.00    9.00
  -2  12   2   -0.40    5.80
 -10  -2   2    0.20    9.00
 -10  -2   2   30.30    9.50
 -11  12   2    6.00   12.10
 -11  12   2   17.80   10.30
   1 -12  -2   13.00    6.00
 -12  11  -2   28.10   13.30
 -11  -1   2   25.80    9.60
 -11  -1   2    8.40    9.40
 -12   1  -2   10.20    8.20
 -12  12   2    8.40   12.00
 -12  12  -2   10.10   13.10
 -12  12   2   22.30    9.60
   0 -12  -2   11.40    5.80
 -12   0   2   14.20    8.80
 -13  12   2  -13.50   10.40
 -12  13  -2  -16.70   12.10
 -13  12   2   -5.20    7.60
  -1 -12  -2   10.40    5.40
 -13   1   2   -1.10    7.80
  -1  13  -2    1.30    5.10
  -7  13   2   15.40    8.30
  -6  -7   2   11.10    7.10
 -13   7  -2    8.40   12.50
  -7  -6   2    5.40    7.60
  -6  13   2    3.50    7.50
 -13   6  -2   -3.90   12.10
  -5  -8   2    8.70    6.60
  -8  13   2   10.80    8.50
 -13   8  -2   -3.30   12.80
 -13   5  -2   -2.80   11.10
  -8  -5   2   16.00    7.80
  -5  13   2    1.60    7.00
  -9  13   2   11.10    9.30
 -13   9  -2   11.00   12.60
 -13   4  -2   -1.80    9.50
  -4  13   2  -10.00    6.60
  -9  -4   2   12.20    8.40
 -13  10  -2   20.30   12.90
 -10  13   2   25.40    9.70
  -3  13   2   26.80    6.60
 -10  -3   2   30.90    9.10
 -13   3  -2   10.40    8.50
 -11  13   2   11.80    9.60
 -13  11  -2  -10.50   12.30
 -11  -2   2    7.00    8.60
 -13   2  -2   -8.40    7.30
 -12  13   2    7.50    8.70
 -13  12  -2    3.60   12.30
  -7  14   2    1.00    6.90
  -7  -7   2    4.50    6.70
 -14   7  -2   -5.20    9.90
  -6  -8   2    6.00    6.20
 -14   8  -2   13.40   10.60
  -8  14   2   12.20    7.50
  -8  -6   2   13.70    7.40
 -14   6  -2   12.10    9.30
  -6  14   2    8.60    7.10
  -9  14   2   14.10    8.40
  -5  -9   2    4.60    5.80
 -14   9  -2    7.50   11.10
  -9  -5   2   23.30    7.50
 -14   5  -2    2.70    8.50
  -5  14   2    4.10    6.50
 -10  14   2    6.90    8.20
 -14  10  -2    9.20   11.00
 -10  -4   2    9.50    7.40
 -14   4  -2   -3.00    7.10
  -4  14   2   12.00    6.10
 -14  11  -2   11.40   10.70
 -11  14   2    2.30    8.00
  -3  14   2    4.40    5.80
 -11  -3   2   -7.00    7.20
 -14   3  -2    2.00    6.40
   0   0   3  227.48   17.10
   0   0   3  221.88   18.40
   0  -1   3    9.20    9.70
  -1   1   3   21.40    8.90
   0  -1   3   -2.20    8.60
   1   0   3   14.50    9.00
  -1   1   3    2.10   10.00
  -1   0   3    8.80    9.10
  -1   0   3   25.90   10.20
   1  -1   3   19.40    8.10
   0   1   3   25.80    9.70
   1  -2   3   21.50    8.40
  -2   1   3   22.90    9.90
  -2   1   3   15.60   10.70
   1  -2   3   37.20   11.00
  -1   2   3  543.15   34.30
  -1  -1   3  602.34   36.00
  -1   2   3  610.24   36.20
  -1  -1   3  571.34   33.50
   0  -2   3   25.60    8.10
  -2   2   3   19.00   10.80
  -2   2   3    3.20    9.30
   0  -2   3   32.30   11.00
  -2   0   3    3.20   10.70
   2  -2   3   13.70    7.30
   0   2   3   26.20   10.80
  -2   0   3    4.80    8.60
   1  -3   3   23.50   10.20
  -3   2   3   25.60   11.30
  -3   2   3   36.00    9.60
   1  -3   3   29.50    8.30
   2  -3   3   27.40    8.60
  -3   1   3   40.90   12.20
   2  -3   3   22.20   10.90
  -3   1   3   20.10    8.30
  -4   2   3  919.51   50.59
   2  -4   3  927.51   53.19
   2  -4   3  890.11   51.19
   2  -4   3  913.61   40.30
  -4   2   3  996.50   54.99
  -1  -2   3   31.30   11.70
  -2   3   3   15.20   10.60
  -1  -2   3   27.80    8.60
  -2   3   3   22.60   10.70
  -2  -1   3   16.50    9.20
  -2  -1   3    6.40   11.20
  -3   3   3 1265.87   68.49
   0  -3   3 1272.07   71.09
   0  -3   3 1258.57   67.49
  -3   3   3 1251.47   71.89
  -3   0   3 1282.27   71.89
  -3   0   3 1224.58   67.29
   3  -3   3 1266.47   54.29
   1  -4   3  581.54   34.40
  -4   3   3  557.04   36.10
   1  -4   3  538.85   32.80
  -4   3   3  556.74   33.20
  -4   1   3  521.45   31.80
   3  -4   3  584.74   25.50
  -4   1   3  627.44   36.90
   3  -4   3  548.15   34.70
   2  -5   3  148.99    9.10
  -5   3   3  150.68   18.20
   2  -5   3  162.28   14.30
  -5   3   3  144.29   13.80
   3  -5   3  147.79    9.50
   3  -6   3 1257.17   54.49
  -3  -3  -3 1259.17   54.59
  -2  -2   3   90.69   10.60
  -2   4   3   97.29   15.90
  -3   4   3  407.06   27.30
  -1  -3   3  403.46   25.50
  -3   4   3  428.06   28.80
  -3  -1   3  422.26   25.20
   4  -3   3  420.46   19.90
   0  -4  -3  295.37   15.00
  -4   4   3  297.47   23.00
  -4   4   3  302.57   20.90
   0  -4   3  258.77   19.50
  -4   0   3  269.97   18.10
   4  -4   3  272.17   14.40
  -1  -4  -3  313.47   16.40
  -5   4   3  342.07   24.80
  -5   4   3  330.87   22.50
   1  -5   3  327.67   22.20
  -5   1   3  272.07   19.40
   4  -5   3  341.97   16.00
  -2  -4  -3  174.78   10.90
   2  -6   3  193.18   10.50
  -6   4   3  202.88   16.80
  -6   2   3  154.58   13.50
   4  -6   3  175.18   11.00
   3  -7   3  429.06   20.00
  -3  -4  -3  443.26   20.20
  -7   4   3  414.06   22.00
  -7   4   3  394.76   20.20
  -7   3   3  403.56   19.80
  -7   3   3  393.76   21.70
  -4  -3  -3  396.56   19.60
   4  -7   3  434.46   20.40
  -4  -4  -3   69.19    7.30
  -8   4   3   56.59    8.50
  -4  -4  -3   56.89    7.30
   4  -8   3   71.99    6.60
  -8   4   3   66.19    6.50
   2  -5  -3  116.79    9.40
  -3   5   3  127.69   16.50
  -2  -3   3  132.29   12.70
  -3  -2   3  135.59   12.10
   3  -5  -3  137.89    9.50
   5  -3   3  107.79    9.00
  -2   5   3  120.69   17.50
   1  -5  -3  374.46   18.70
  -1  -4   3  403.16   24.30
  -4   5   3  406.16   27.80
  -4   5   3  384.66   26.30
   4  -5  -3  359.66   18.60
  -4  -1   3  356.16   22.80
   5  -4   3  360.76   18.30
   0  -5   3   12.60   10.30
  -5   5   3   14.30   10.30
   0  -5  -3    4.90    6.10
  -5   5   3   19.60   12.50
  -5   0   3    4.60    7.20
   5  -5   3    1.90    5.90
   1  -6   3   -1.50   10.50
  -1  -5  -3    4.40    6.30
  -6   5   3   -2.10   11.40
  -6   1   3    3.50    7.10
   5  -6   3    6.70    6.30
  -2  -5  -3  226.38   12.90
   2  -7   3  217.08   12.00
  -7   5   3  217.18   13.60
  -7   5   3  210.28   19.90
  -7   5   3  192.28   11.70
   5  -7   3  214.18   13.00
  -7   2   3  211.88   13.00
  -7   2   3  221.98   11.50
  -7   2   3  178.68   15.20
  -5  -2  -3  214.58   11.70
   3  -8   3   53.09    6.20
  -3  -5  -3   44.20    5.80
  -8   5   3   55.09    8.80
  -8   5   3   51.29    6.20
  -8   3   3   59.59    8.70
   5  -8   3   45.60    6.30
  -8   3   3   37.00    8.30
  -8   3   3   47.30    5.80
   4  -9   3   42.30    6.00
  -9   5   3   42.40   10.10
  -9   5   3   60.39    9.10
  -4  -5  -3   61.99    7.80
  -9   5   3   48.50    6.40
  -9   4   3   49.10    6.60
  -9   4   3   54.09    9.90
  -5  -4  -3   55.79    7.00
  -9   4   3   51.29    8.60
  -5  -5  -3  214.78   13.50
 -10   5   3  222.08   16.80
 -10   5   3  169.08   20.10
 -10   5   3  219.78   12.40
 -10   5   3  254.17   15.30
  -3  -3   3  229.18   16.30
  -3   6   3  217.68   21.70
   3  -6  -3  205.58   13.10
  -2  -4   3  719.83   40.70
  -4   6   3  762.32   45.00
   2  -6  -3  727.03   32.60
  -2   6   3  680.43   45.60
   4  -6  -3  713.33   32.70
   6  -4   3  635.24   32.10
  -4  -2   3  732.73   39.60
  -5   6   3   -9.00   12.60
  -1  -5   3   11.40   10.70
   1  -6  -3   16.10    7.00
   6  -5   3    8.20    6.60
   0  -6   3   46.40   12.60
  -6   6   3   35.30   13.50
   0  -6  -3   33.20    7.60
  -6   6   3   32.60    6.30
  -6   0   3   37.90    5.40
   6  -6   3   43.20    7.50
  -7   6   3  107.29   16.60
  -7   6   3   84.69    7.90
  -1  -6  -3  105.59    9.70
  -7   6   3   99.09    9.20
   1  -7   3  104.09    7.70
   6  -7   3  120.09    9.90
  -7   1   3  103.79    7.60
   2  -8   3    6.50    4.90
  -8   6   3   -7.60    7.70
  -8   6   3   -4.10    5.20
  -8   6   3   -5.70   14.10
  -8   2   3    3.40    5.20
  -6  -2  -3   -8.40    5.90
  -8   2   3   -2.40    7.90
  -8   2   3    4.90    7.10
  -9   6   3    7.20    9.50
  -9   6   3   -2.00    5.10
  -3  -6  -3    1.60    6.00
  -9   6   3    1.40    8.60
   3  -9   3   -3.20    5.20
  -9   6   3   -2.50   14.10
  -9   3   3   -1.50    5.30
  -9   3   3    9.20    7.90
  -6  -3  -3   -7.00    6.20
  -9   3   3    0.00    8.10
  -9   3   3   -6.30    9.80
 -10   6   3    2.40   10.20
  -4  -6  -3    2.40    6.70
 -10   6   3   -3.50   14.30
 -10   6   3    1.50    5.40
 -10   6   3   11.30    9.00
 -10   4   3   -3.90    9.20
 -10   4   3    1.40   11.90
  -6  -4  -3   -0.80    6.40
 -10   4   3    5.80    5.60
 -10   4   3  -12.40    8.60
 -11   6   3   35.50   10.80
  -5  -6  -3   25.70    7.20
 -11   6   3    9.90    8.60
  -6  11  -3   10.00    6.70
 -11   6   3   27.10    5.90
 -11   5   3   20.00    5.90
  -6  -5  -3    9.70    6.90
 -11   5   3   12.00   10.00
 -11   5   3   27.20    9.10
  -6  12  -3    1.70    6.60
  -6  -6  -3    5.70    7.10
 -12   6   3   -5.10    5.30
 -12   6   3  -14.50    9.70
   3  -7  -3   18.60    7.30
  -3  -4   3   13.90   10.40
  -4   7   3    4.40    4.60
   4  -7  -3    0.10    7.20
  -3   7   3    7.70    4.40
  -4  -3   3    8.00    9.10
   2  -7  -3  171.58   11.90
  -5   7   3  157.28   10.40
  -2  -5   3  168.28   16.20
  -5  -2   3  161.28    9.40
   1  -7  -3   92.99   10.00
  -6   7   3  102.19    8.80
  -1  -6   3  124.19   15.70
  -1  -6   3   97.39    7.80
  -6   7   3   73.99    7.60
  -6  -1   3  101.99    7.30
  -7   7   3    3.60    5.30
   0  -7   3   -3.90   12.80
  -7   7   3    5.90    6.50
   0  -7   3    6.50    5.30
  -7   0   3    4.60    5.10
  -7   0   3   -0.60    6.20
  -7   0   3   -7.90    6.20
  -8   7   3    3.40    5.60
  -8   7   3    0.20    7.60
   1  -8   3   13.90    5.70
  -8   1   3   -5.10    6.70
  -8   1   3    9.70    5.40
  -8   1   3   -2.50    6.80
  -9   7   3    0.10    4.90
  -9   7   3    7.40    8.70
   2  -9   3    2.10    5.80
  -2  -7  -3   -3.50    6.10
  -9   7   3   -5.40   15.70
  -9   2   3    4.00    8.10
  -7  -2  -3   -3.40    6.80
  -9   2   3    6.30    5.70
 -10   7   3    8.80    5.50
   3 -10   3   -2.50    6.00
 -10   7   3  -15.90   16.20
 -10   7   3    1.60    9.70
 -10   7   3   15.10   10.50
  -3  -7  -3   -9.00    6.70
 -10   3   3   -0.80    5.80
 -10   3   3    8.60    9.00
  -7  -3  -3   -5.90    7.10
  -7  11  -3   -7.60    6.40
 -11   7   3  -15.40    8.60
  -4  -7  -3   -7.60    6.80
 -11   7   3   -2.10   10.50
  -7  -4  -3    0.70    7.20
 -11   4   3    0.00    9.50
 -11   4   3    4.60    5.70
 -12   7   3   21.40   10.20
 -12   7   3   10.60    8.30
  -5  -7  -3   18.60    7.10
  -7  12  -3   24.60    7.20
 -12   5   3   16.70    9.60
  -7  -5  -3   17.60    7.60
 -12   5   3    2.20    5.20
  -6  -7  -3   12.20    7.30
 -13   7   3    5.80    8.70
  -7  13  -3   -1.10    6.70
  -7  -6  -3   15.20    7.30
  -6  13  -3   12.30    6.30
 -13   6   3    1.80    8.80
  -7  14  -3   19.70    6.20
  -7  -7  -3   13.90    6.70
 -14   7   3   11.80    7.30
  -4  -4   3   16.00   10.00
  -4   8   3    0.90    5.00
  -4   8   3    3.20    6.00
   4  -8  -3    0.30    8.10
  -4  -4   3    3.50    4.50
  -4  -4   3    7.30    4.90
  -5   8   3    8.50    5.40
  -5   8   3   10.20    6.40
  -3  -5   3    4.50    4.90
  -3  -5   3    5.80   11.00
  -3  -5   3   -2.20    3.90
  -5  -3   3    4.30    6.50
  -5  -3   3    3.10    4.50
  -5  -3   3    9.80    5.00
  -3   8   3   10.80    4.90
  -5  -3   3   11.10    9.10
  -5  -3   3    0.30    5.80
  -2  -6   3   28.70    5.80
  -6   8   3   31.10    6.30
  -6   8   3   25.70    6.50
  -2  -6   3   29.70   12.50
  -6  -2   3   18.50    6.20
  -2   8   3   26.50    5.00
  -6  -2   3   21.50    5.50
   8  -6   3   -4.70    5.30
  -6  -2   3   28.80    6.50
  -6  -2   3   28.90    5.10
  -7   8   3   13.00    7.20
  -1  -7   3   -2.10   13.00
  -7   8   3   29.90    6.00
  -1  -7   3   15.70    5.90
  -7  -1   3   20.50    6.80
  -7  -1   3   34.00    5.50
  -7  -1   3   15.00    6.70
  -8   8   3   46.20    8.30
  -8   8   3   49.70    6.70
   0  -8   3   39.20    6.60
  -8   0   3   31.50    7.60
  -8   0   3   28.30    7.70
  -8   0   3   48.00    6.30
   1  -9   3    6.30    6.20
  -9   8   3    8.60    8.80
  -1  -8  -3   -2.40    6.30
  -9   1   3    6.60    5.80
  -9   1   3    7.40    7.90
  -9   1   3   26.10    8.10
 -10   8   3   62.99   10.60
  -2  -8  -3   45.90    7.90
   2 -10   3   51.39    7.70
 -10   2   3   47.30    9.30
 -10   2   3   61.69    7.20
  -8  -2  -3   24.50    8.40
 -11   8   3   -5.40   10.60
 -11   8   3    0.40    9.30
  -3  -8  -3    3.00    7.20
  -8  -3  -3    9.80    7.90
 -11   3   3   -0.90    5.40
 -11   3   3    0.10    8.70
  -4  -8  -3   27.30    7.40
 -12   8   3    6.10    9.90
 -12   8   3   27.40    8.60
  -8  -4  -3    7.10    7.90
 -12   4   3   11.20    9.00
 -12   4   3   37.20    5.70
 -13   8   3   16.90    7.80
  -5  -8  -3   18.60    7.10
 -13   8   3   22.00    9.50
  -5  13  -3   20.80    6.30
  -8  -5  -3   21.20    7.50
 -13   5   3   17.00    8.50
 -13   5   3   30.80    5.00
 -14   8   3    4.70    7.40
  -6  -8  -3    2.40    6.30
  -6  14  -3    1.40    5.70
 -14   6   3   10.20    7.10
  -8  -6  -3   -0.90    6.30
  -4  -5   3   16.00    5.90
  -5   9   3   27.10    6.40
  -4  -5   3   31.50   11.50
  -9   5  -3   28.40   11.30
  -4  -5   3   27.50    4.90
  -4  -5   3   29.70    6.30
  -5   9   3   27.00    7.60
  -5  -4   3   17.20    9.90
  -5  -4   3   18.20    5.10
  -5  -4   3   15.80    6.10
  -4   9   3   31.20    7.30
  -4   9   3   30.80    6.10
  -5  -4   3   25.50    5.90
  -6   9   3    8.50    6.80
  -3  -6   3   14.10    5.80
  -6   9   3    6.30    6.50
  -3  -6   3   22.70   12.80
  -9   6  -3   39.20   11.00
  -6  -3   3   26.80    7.50
  -6  -3   3   11.90    5.60
   9  -6   3   -9.00    5.50
  -6  -3   3    4.30    6.40
  -6  -3   3   16.30    5.40
  -3   9   3    3.30    5.50
  -7   9   3   64.99    9.20
  -2  -7   3   56.99    7.70
  -2  -7   3   45.30   15.60
  -7  -2   3   47.60    7.80
  -7  -2   3   49.50    8.40
  -7  -2   3   60.19    7.30
  -2   9   3   58.99    6.90
  -1  -8   3   33.60    6.40
  -1  -8   3   17.60   15.90
  -8   9   3   47.00    8.90
  -8  -1   3   41.00    8.00
  -8  -1   3   26.90    8.00
  -8  -1   3   37.40    6.20
   0  -9   3    0.40    5.80
  -9   9   3   16.60    9.00
  -9   0   3   -4.30    5.80
  -9   0   3   -8.30    7.50
  -9   0   3    2.40    8.10
   1 -10   3   26.20    6.40
 -10   9   3   32.40   10.20
  -1  -9  -3   27.90    7.80
 -10   1   3   20.10    8.70
 -10   1   3   36.40    6.30
 -11   9   3   48.00   10.90
   2 -11   3   26.40    6.50
  -2  -9  -3   22.50    7.60
 -11   2   3   34.40    6.20
 -11   2   3   31.30    9.00
  -9  -2  -3   22.20    8.40
  -3  -9  -3    2.00    7.10
 -12   9   3    7.00   10.10
 -12   9   3   14.90    8.70
 -12   3   3    6.50    8.50
 -12   3   3   -3.20    5.30
  -9  -3  -3    1.00    7.50
  -4  -9  -3   16.70    7.00
 -13   9   3   10.70    7.30
 -13   9   3    4.70    9.10
  -4  13  -3    9.50    5.90
 -13   4   3   -5.60    7.80
  -9  -4  -3   -4.80    7.00
 -13   4   3   11.00    4.60
 -14   9   3   -5.20    7.10
  -5  -9  -3   -1.50    6.20
  -9  -5  -3   -5.10    6.00
 -14   5   3    1.50    6.50
  -5  14  -3    0.80    5.10
  -5  10   3  188.18   13.20
 -10   5  -3  188.18   18.00
  -5  -5   3  195.68   12.20
  -5  10   3  205.28   13.30
  -5  -5   3  196.18   18.60
  -5  -5   3  213.88   13.00
  -6  10   3   16.00    7.30
  -4  -6   3   17.90    6.50
  -4  -6   3   18.20   13.50
  -4  -6   3    6.90    6.30
 -10   6  -3   14.20   12.40
  -6  -4   3   15.70    7.00
  -4  10   3    0.30    7.70
  -6  -4   3   15.40    5.50
  -4  10   3    5.30    6.40
  -7  10   3   -8.00    7.80
 -10   7  -3   12.80   12.20
  -3  -7   3   -4.00    6.40
  -7  -3   3    3.60    8.10
  -3  10   3    8.60    6.30
  -3  10   3   12.80    6.90
  -7  -3   3   -7.70    7.30
  -7  -3   3    4.50    5.40
  -8  10   3   85.29   11.70
  -2  -8   3   90.49    9.40
  -2  10   3   96.99    8.70
  -8  -2   3   97.29   10.80
  -8  -2   3   90.99   11.10
  -8  -2   3   91.79    8.50
  -9  10   3   12.90    9.20
  -1  -9   3   -2.20    6.40
  -9  -1   3  -12.50    8.50
  -9  -1   3    5.70    7.80
  -9  -1   3    1.90    5.70
   0 -10   3   33.90    6.90
 -10  10   3   18.50   10.20
   0 -10  -3   23.10    7.70
 -10   0   3   41.10    9.00
 -10   0   3   30.20    9.50
 -10   0   3   41.30    6.40
 -11  10   3   50.19   11.00
  -1 -10  -3   49.40    7.90
   1 -11   3   44.90    7.00
 -11   1   3   36.40    6.40
 -11   1   3   46.70    9.40
  -2 -10  -3   -3.70    6.90
 -12  10   3    2.70    8.80
 -12   2   3    1.40    8.20
 -12   2   3    0.40    4.90
 -13  10   3   -4.40    7.30
  -3 -10  -3   -5.10    6.30
 -10  -3  -3   -7.00    6.50
 -13   3   3    2.30    4.40
 -13   3   3    8.40    7.70
  -6  11   3   23.70    7.90
 -11   6  -3    1.50   12.80
  -5  -6   3   13.20    6.80
  -5  11   3   18.60    7.50
  -6  -5   3   10.70    7.20
 -11   5  -3   15.50   12.70
 -11   7  -3    4.10   12.80
  -7  11   3   -5.10    8.20
  -4  -7   3    5.50    6.90
  -4  11   3    8.30    6.90
  -4  11   3   11.50    7.80
  -7  -4   3   11.20    7.70
  -3  -8   3   12.90    6.90
  -8  11   3   -6.10    9.00
 -11   8  -3   -9.50   12.60
  -8  -3   3   12.30    8.30
  -3  11   3    8.20    6.80
  -8  -3   3   -1.20    5.70
  -3  11   3    5.40    6.50
  -9  11   3   29.80   10.00
 -11   9  -3   26.70   13.00
   2 -11  -3   21.00    7.00
  -2  -9   3   21.70    7.10
  -9  -2   3   42.40    6.50
  -9  -2   3   42.30    9.10
  -9  -2   3   46.10    9.40
  -1 -10   3   -9.20    6.20
 -10  11   3    9.80   10.00
   1 -11  -3  -12.70    6.80
 -10  -1   3  -15.70    8.50
 -10  -1   3    5.70    5.70
 -10  -1   3   -7.60    9.20
   0 -11   3   17.70    6.10
 -11  11   3   20.80   10.20
   0 -11  -3   18.90    7.20
 -11   0   3   20.40    8.50
 -11   0   3   15.60    5.70
  -1 -11  -3   11.30    6.70
 -12  11   3   23.40    9.80
 -12   1   3    6.80    7.50
 -12   1   3   19.40    5.20
  -2 -11  -3    9.40    6.00
 -13  11   3    8.50    7.50
 -13   2   3   11.80    6.80
 -12   6  -3   20.90   12.80
  -6  12   3   32.10    8.20
  -6  -6   3   41.60    7.50
 -12   7  -3   10.30   12.90
  -5  -7   3   10.60    6.60
  -7  12   3    2.20    8.20
  -5  12   3    4.30    7.50
 -12   5  -3   11.60   10.80
  -7  -5   3   -2.10    7.50
  -8  12   3    2.70    9.00
 -12   8  -3   11.90   12.70
  -8  -4   3   -1.60    8.00
  -4  12   3   -4.50    6.90
 -12   9  -3    1.00   13.10
   3 -12  -3   21.40    6.50
  -9  12   3   23.20    9.70
  -9  -3   3   34.00    8.60
  -3  12   3   15.80    6.80
 -12  10  -3  -13.20   12.20
   2 -12  -3   -5.80    6.60
 -10  12   3    1.70    9.90
  -2  12   3    2.40    5.80
 -10  -2   3   -4.30    8.60
   1 -12  -3    4.00    6.20
 -11  12   3   -6.00    9.40
 -12  11  -3   -5.10   12.10
  -1  12   3    1.90    5.60
 -12  12  -3    8.30   11.60
   0 -12  -3   10.70    5.80
 -12  12   3   18.50    9.40
   0  12   3    7.00    5.30
 -12   0   3   15.40    7.80
  -6  -7   3    0.70    6.40
  -7  13   3   15.40    7.80
 -13   7  -3   13.00   10.70
 -13   6  -3   13.10   10.00
  -7  -6   3   10.50    7.00
  -6  13   3   -6.00    7.00
 -13   8  -3   43.70   12.30
  -8  13   3   40.70    9.00
  -8  -5   3   35.40    7.80
  -5  13   3   19.30    7.20
 -13   9  -3   14.70   11.80
   4 -13  -3    2.60    5.60
  -9  13   3    0.80    8.50
  -4  13   3    3.20    6.20
  -9  -4   3    0.50    7.50
   3 -13  -3    0.50    5.50
 -10  13   3   -8.60    8.80
 -13  10  -3   -0.30   11.10
 -10  -3   3    6.40    7.70
   2 -13  -3    4.50    5.10
 -11  13   3  -11.90    8.50
 -13  11  -3   -4.20   11.10
  -7  -7   3    0.20    5.80
 -14   7  -3    8.10    8.20
  -7  14   3   10.60    7.00
 -14   8  -3   -0.20    8.50
  -8  14   3    0.40    6.90
  -8  -6   3    3.90    6.20
  -6  14   3    1.80    6.50
 -14   9  -3   -1.20    8.80
  -9  14   3   22.00    7.70
  -9  -5   3   23.10    6.80
  -5  14   3   23.30    6.10
   0   0   4  461.15   30.00
   0   0   4  372.06   27.00
   0  -1   4  131.29   16.90
  -1   1   4  130.09   17.30
   0  -1   4   97.09   13.40
  -1   1   4   94.49   14.50
   1  -1   4  146.79   17.10
   0   1   4  134.29   16.30
  -1   0   4  104.69   14.20
  -1   0   4   92.79   16.10
  -2   1   4  486.15   30.30
   1  -2   4  454.95   30.20
  -2   1   4  486.35   33.00
   1  -2   4  500.15   32.60
  -1   2   4   79.69   15.70
  -1  -1   4   54.99   14.80
  -1  -1   4   64.99   13.20
  -2   2   4  250.87   21.10
   0  -2   4  267.67   24.50
  -2   2   4  322.07   24.60
   0  -2   4  298.37   20.70
   2  -2   4  277.77   22.90
  -2   0   4  287.97   21.50
  -2   0   4  302.87   24.30
   1  -3   4  143.49   14.00
  -3   2   4  141.59   18.40
  -3   2   4  144.99   16.40
   1  -3   4  133.59   17.50
   2  -3   4  144.29   17.90
  -3   1   4  138.09   14.60
  -3   1   4  134.39   18.00
  -4   2   4   50.99   12.30
  -4   2   4   40.10   15.00
   2  -4   4   30.80   13.40
  -1  -2   4   30.50   14.60
  -2   3   4   26.00   14.30
  -1  -2   4   43.20   11.90
  -1   3   4   39.90   14.90
  -2  -1   4   42.90   14.80
  -2  -1   4   38.80   12.50
  -3   3   4  256.17   21.90
   0  -3   4  223.58   19.70
   0  -3   4  267.47   22.80
  -3   3   4  294.17   24.10
  -3   0   4  247.48   19.80
  -3   0   4  283.47   24.00
  -4   3   4   13.10   12.30
   1  -4   4   -9.90   12.20
   1  -4   4   -3.60    9.90
  -4   3   4    4.90   13.80
   3  -4   4   13.10   12.10
  -4   1   4   -5.20   10.70
  -4   1   4    9.60   14.20
  -5   3   4   70.19   16.50
  -5   3   4   52.19   12.40
  -5   2   4   88.49   17.80
  -5   2   4   47.10   11.80
  -5   2   4   43.60    7.20
  -6   3   4  232.68   12.80
  -6   3   4  205.08   19.20
  -6   3   4  248.08   14.30
  -2  -2   4  263.87   20.40
  -2  -2   4  276.87   24.50
  -2   4   4  282.77   25.40
  -1  -3   4  442.76   29.20
  -3   4   4  453.25   33.50
  -1  -3   4  412.06   32.00
  -1   4   4  491.75   33.70
  -3  -1   4  424.66   32.90
  -3  -1   4  477.65   29.40
  -4   4   4   15.40   13.20
  -4   4   4   15.10   15.00
   0  -4   4   30.40   13.60
   0  -4   4   26.80   11.50
  -4   0   4    8.70   10.80
  -5   4   4  291.47   25.80
  -5   4   4  254.57   15.10
  -5   4   4  298.27   23.10
   1  -5   4  280.77   22.50
  -5   1   4  298.07   15.40
  -5   1   4  254.27   20.20
  -6   4   4  120.39   10.40
  -2  -4  -4  124.29   11.30
  -6   4   4  110.89   16.40
   2  -6   4  127.69    9.40
  -6   4   4  128.39    9.00
  -6   2   4  152.18    8.90
  -6   2   4  108.29   14.20
  -6   2   4  125.89   10.10
  -3  -4  -4    7.10    9.90
  -7   4   4   12.50   13.30
  -7   4   4   12.50    5.70
   3  -7   4   -7.60    5.30
  -7   4   4   -3.50    7.20
  -7   3   4    5.00   11.80
  -4  -3  -4   -6.50   10.10
   4  -7   4   -1.10    5.60
  -7   3   4    7.50    5.40
  -7   3   4    1.80    7.00
  -8   4   4   52.19   15.20
  -4  -4  -4   54.59    6.60
  -8   4   4   50.49    6.80
   4  -8   4   48.20    7.10
  -8   4   4   53.59    8.80
   2  -5  -4   44.60    8.60
  -2  -3   4   83.39   13.60
  -3   5   4   66.59   17.70
  -3  -2   4   77.59   13.50
  -2   5   4   66.09   18.20
   3  -5  -4   78.49    9.20
  -4   5   4  194.98   23.00
  -1  -4   4  201.08   18.30
   1  -5  -4  191.78   13.90
  -1   5   4  248.38   24.00
  -4  -1   4  192.78   17.80
  -5   5   4  140.39    8.70
   0  -5  -4  119.49   11.20
   0  -5   4  152.98   17.30
  -5   5   4  140.19    9.80
  -5   5   4  161.28   21.10
  -5   0   4  127.09   14.20
  -5   0   4  130.59    8.50
  -6   5   4    7.70    5.50
  -6   5   4   12.80   15.10
   1  -6   4    7.00    5.00
  -6   5   4   -6.60    6.60
   5  -6   4    3.30    5.20
  -6   1   4    4.50    5.10
  -5  -1  -4    7.60    9.80
  -6   1   4    7.80   10.70
  -7   5   4   -3.50   14.70
   2  -7   4    5.10    5.30
  -7   5   4   -0.80    5.90
  -7   5   4    2.60    7.70
  -7   2   4   12.20    7.40
  -7   2   4   -1.50   10.90
  -5  -2  -4  -12.20   10.20
  -7   2   4    2.10    5.30
   5  -7   4    5.90    5.30
  -8   5   4   30.20    5.90
  -3  -5  -4   29.00    5.70
  -8   5   4   42.50   16.20
  -8   5   4   24.50    8.30
   3  -8   4   28.00    6.00
  -5  -3  -4   21.60    6.30
  -8   3   4   31.80    8.50
   5  -8   4   31.90    6.50
  -8   3   4   28.90    6.20
  -8   3   4    4.90   11.90
  -9   5   4   14.20   16.30
   4  -9   4   37.40    6.40
  -9   5   4   27.10    6.20
  -4  -5  -4   43.10    7.10
  -9   5   4   13.50    9.10
  -9   4   4   36.90    9.10
  -9   4   4   16.50   14.30
  -9   4   4   27.20    6.40
   5  -9   4   38.90    6.40
  -5  -4  -4   32.60    7.00
  -5  -5  -4   33.00    7.20
   5 -10   4   30.10    6.60
 -10   5   4   42.90    9.20
 -10   5   4   39.90    6.60
  -3   6   4  124.29    8.80
  -3   6   4  121.89    8.70
   3  -6  -4  131.19   11.40
  -3   6   4  141.79   21.80
  -3  -3   4  152.48   15.30
   2  -6  -4    8.80    8.10
  -4   6   4    2.00    6.00
  -4   6   4    4.60    5.60
  -2  -4   4   -3.40   12.00
  -4   6   4   -2.60   16.40
  -4  -2   4   28.80   11.80
  -2   6   4    6.60   17.10
  -4  -2   4   11.10    4.60
   1  -6  -4   12.70    8.40
  -5   6   4   17.20   16.80
  -1  -5   4   20.10   13.50
  -5   6   4   22.40    6.00
  -1  -5   4   12.80    5.00
  -5   6   4    9.90    6.00
  -1   6   4  -13.00   17.70
  -5  -1   4   10.40   12.00
  -5  -1   4   20.30    5.10
  -6   1  -4   37.60    9.90
   6  -5   4    8.60    5.20
   0  -6   4   63.19    6.70
  -6   6   4   57.69    7.10
   0  -6   4   61.59   15.20
  -6   6   4   62.89    8.60
  -6   6   4   29.50   18.70
  -6   0   4   57.49    6.70
   6  -6   4   49.30    6.70
  -6   0  -4   44.30   10.90
  -6   0   4   40.40   12.00
   1  -7   4   50.79    7.00
  -7   6   4   49.50    8.40
  -7   6   4   46.50    6.80
  -7   1   4   53.39    6.80
  -7   1   4   24.70   11.40
   6  -7   4   43.40    6.40
   2  -8   4   -6.30    5.70
  -8   6   4   -6.30    8.60
  -8   6   4    5.70   17.20
  -8   6   4   -0.90    6.00
  -8   2   4   14.30   11.60
   6  -8   4    4.90    5.90
  -8   2   4    9.70    6.10
  -9   6   4   92.09    8.10
  -9   6   4   79.39   20.10
   3  -9   4   89.59    8.50
  -9   6   4  105.29   11.50
  -3  -6  -4   95.09    9.20
  -6  -3  -4   64.09    8.20
   6  -9   4   80.89    8.60
  -9   3   4   49.80   14.50
  -9   3   4   81.39    8.30
  -4  -6  -4    0.00    6.90
   4 -10   4    6.50    6.30
 -10   6   4   -0.90    5.70
 -10   6   4   14.70    9.10
   6 -10   4   19.80    6.30
  -6  -4  -4    2.00    6.50
 -10   4   4   13.60    6.20
 -11   6   4    8.60    5.90
 -11   6   4   20.30    9.50
  -5  -6  -4   14.60    6.90
  -6  -5  -4   16.80    6.80
 -11   5   4   15.20    6.10
  -6  12  -4   49.30    7.00
 -12   6   4   39.50    6.00
  -6  -6  -4   36.20    7.40
  -7   4  -4   90.89   12.40
  -4   7   4   95.99    8.20
  -4   7   4   82.19    8.40
  -3  -4   4  126.59   15.50
  -3  -4   4   90.99    7.80
  -3   7   4   84.39    8.00
  -3   7   4   96.29    7.90
  -7   3  -4   82.29   12.20
  -4  -3   4   80.09    7.50
  -4  -3   4   82.99    7.00
  -4  -3   4   91.99   13.90
  -2  -5   4   37.80   14.10
  -5   7   4   59.29    7.50
  -2  -5   4   54.49    6.90
  -5   7   4   41.10    7.00
  -5  -2   4   37.20    6.70
  -5  -2   4   54.89    6.00
   7  -5   4   41.00    5.80
  -5  -2   4   52.19    6.30
  -5  -2   4   53.09   12.70
  -5  -2   4   31.30    6.40
  -7   2  -4   62.59   11.40
  -1  -6   4  105.49    8.60
  -1  -6   4  130.59   17.50
  -6   7   4   98.19    9.00
  -6   7   4  111.19   10.20
   7  -6   4   96.99    8.60
  -6  -1   4  104.09    9.50
  -6  -1   4  135.69   14.20
  -6  -1   4  107.49    8.20
  -7   7   4   16.20    8.00
  -7   7   4   11.30    6.50
   0  -7   4   23.20    6.50
  -7   0   4    3.90    5.80
  -7   0   4   18.70    6.00
   7  -7   4   23.40    6.10
  -7   0   4   29.80   12.40
  -8   7   4   24.20    9.00
  -8   7   4   35.20    6.90
   1  -8   4   35.00    7.00
  -8   1   4   26.50    6.50
  -8   1   4   20.10   11.50
  -8   1   4   10.80    6.40
   7  -8   4   28.10    6.20
  -9   7   4   77.69    7.80
  -2  -7  -4   70.99    9.10
   2  -9   4   74.29    9.00
  -9   7   4   89.09   11.40
  -9   2   4   78.79    8.60
   7  -9   4   83.69    8.10
  -9   2   4   61.39    9.30
 -10   7   4    0.00    5.90
  -3  -7  -4   -1.10    6.90
 -10   7   4    2.30    9.10
   3 -10   4   -1.00    6.50
 -10   3   4    7.80    6.40
 -10   3   4   -0.30    7.00
  -7  -3  -4    3.80    6.90
   4 -11   4   -4.70    6.50
 -11   7   4   -6.10    8.70
  -4  -7  -4    0.00    7.10
 -11   7   4   14.60    5.90
  -7  -4  -4    2.60    6.70
 -11   4   4   -7.80    7.00
 -11   4   4    3.40    6.00
 -12   7   4    1.70    5.30
 -12   7   4    4.80    8.50
  -5  -7  -4   -1.00    6.60
 -12   5   4   -3.60    5.10
  -7  -5  -4   -3.50    7.00
  -6  -7  -4    4.30    6.40
 -13   6   4    8.90    4.50
  -7  -6  -4    4.20    6.40
  -6  13  -4    5.90    5.70
  -4   8   4   83.59    9.20
  -4  -4   4   68.49    6.70
  -4  -4   4   64.89   14.20
  -4   8   4   73.99    8.40
  -4  -4   4   75.69    7.50
  -3  -5   4   -3.80    5.70
  -5   8   4    5.70    7.30
  -5   8   4   -1.90    6.90
  -3  -5   4  -14.20   12.40
  -5  -3   4    7.30   11.50
  -5  -3   4   -1.90    5.00
  -3   8   4   -3.30    5.80
  -3   8   4   13.30    6.90
  -5  -3   4   -1.90    6.40
  -5  -3   4   -0.60    5.40
  -2  -6   4   16.00   14.40
  -6   8   4   -4.50    7.20
  -6   8   4   -7.90    7.10
  -2  -6   4    0.50    6.10
  -6  -2   4   -1.90    5.60
  -6  -2   4   -1.60    6.70
   8  -6   4    4.50    6.00
  -6  -2   4   -5.10    5.30
  -6  -2   4   -5.30    6.20
  -6  -2   4   -1.50   10.40
  -1  -7   4   17.50   15.80
  -1  -7   4   39.10    7.40
  -7   8   4   35.10    8.70
  -7   8   4   49.00    7.40
  -7  -1   4   25.40    7.00
   8  -7   4   42.80    6.60
  -7  -1   4   48.00    8.00
  -7  -1   4   45.70    6.60
  -8   8   4   -3.30    8.70
  -8   8   4   -2.10    6.80
   0  -8   4   -1.60    6.90
  -8   0   4   -1.40    6.20
  -8   0   4    4.80    6.40
   8  -8   4    2.40    6.00
  -9   8   4   28.60    6.80
   1  -9   4   49.20    7.90
  -9   8   4   43.40   10.30
  -9   1   4   60.39    7.50
  -9   1   4   43.60    7.50
   2 -10   4    5.30    6.80
 -10   8   4   -0.30    5.80
 -10   8   4   18.20    9.60
  -2  -8  -4    3.80    7.40
 -10   2   4   -1.00    6.70
 -10   2   4   20.90    6.60
 -11   8   4    3.90    5.70
  -3  -8  -4    8.80    7.30
   3 -11   4   11.70    6.30
 -11   8   4   12.00    9.10
 -11   3   4    8.00    6.90
 -11   3   4    9.60    5.90
  -4  -8  -4    9.20    6.70
 -12   8   4    2.90    8.10
  -8  -4  -4   -5.70    6.90
 -12   4   4    1.70    6.70
 -12   4   4    9.80    5.20
  -5  -8  -4    4.30    6.10
  -8  -5  -4   -4.90    6.20
  -5  13  -4   -1.50    5.60
 -13   5   4    8.80    4.50
  -4  -5   4    3.80    4.90
  -4  -5   4    3.00    6.10
  -4  -5   4   10.60   13.40
  -5   9   4   -8.20    8.00
  -5   9   4    1.10    7.30
  -5  -4   4   -0.10    5.00
  -5  -4   4   -4.40    6.90
  -5  -4   4   11.90    6.00
  -4   9   4    9.40    8.20
  -4   9   4    6.60    6.60
  -5  -4   4   -0.30   11.50
  -3  -6   4    6.00   14.10
  -3  -6   4   -4.70    5.90
  -6   9   4   14.80    7.90
  -6   9   4   -9.00    7.80
  -6  -3   4   10.80    6.20
  -3   9   4   -3.10    6.30
  -6  -3   4   -7.10    7.00
   9  -6   4   -1.50    6.10
  -6  -3   4    6.90   10.60
  -6  -3   4    2.30    5.70
  -3   9   4   12.50    7.30
  -7   9   4   13.50    8.30
  -7   9   4    4.70    7.30
  -2  -7   4    6.40    6.60
  -7  -2   4   10.20    7.50
  -7  -2   4   13.20    5.90
   9  -7   4   17.00    6.50
  -1  -8   4   31.70    7.10
  -8   9   4   36.10    7.60
  -8   9   4   23.50    9.30
   9  -8   4   23.50    6.70
  -8  -1   4   10.10    8.10
  -8  -1   4   27.60    7.40
  -8  -1   4   29.50    6.50
   0  -9   4    3.90    6.80
  -9   9   4   -7.70    6.70
  -9   9   4  -10.60    9.20
  -9   0   4   -6.60    6.50
  -9   0   4    8.70    6.40
   1 -10   4   -2.40    6.30
 -10   9   4    2.70    6.10
 -10   9   4  -16.50    9.90
  -1  -9  -4    0.20    7.20
 -10   1   4    0.90    5.80
 -10   1   4    9.20    7.00
 -11   9   4   35.30    9.70
  -2  -9  -4   23.40    7.60
   2 -11   4   24.10    6.20
 -11   2   4   34.80    6.30
 -11   2   4   24.20    7.30
  -3  -9  -4   32.50    7.20
 -12   9   4   20.00    8.60
 -12   3   4   25.80    5.60
 -12   3   4   23.70    6.90
 -13   9   4    2.30    7.10
  -4  -9  -4   -8.90    5.90
 -13   4   4    3.20    4.20
 -13   4   4   -4.70    5.80
  -4  13  -4   -2.20    5.30
  -5  -5   4   22.10    5.40
  -5  10   4   21.10    8.70
  -5  -5   4   12.90    7.10
  -5  10   4   24.70    7.90
  -5  -5   4   16.90    6.90
  -4  -6   4    4.30    6.70
  -6  10   4   -1.70    8.20
  -6  10   4   10.90    8.30
  -4  10   4   17.30    7.10
  10  -6   4    4.60    6.30
  -4  10   4   10.80    8.60
  -6  -4   4   -4.00    7.20
  -6  -4   4    8.90    5.40
  -6  -4   4    5.50    6.10
  -7  10   4   34.10    8.80
  -3  -7   4   29.60    7.40
  -7  10   4   28.30    7.90
  -3  10   4   30.10    8.10
  10  -7   4   17.00    6.70
  -7  -3   4   24.30    7.80
  -7  -3   4   21.70    6.10
  -8  10   4    2.60    9.00
  -2  -8   4    0.70    6.90
  -8  10   4   -7.10    7.50
  -8  -2   4   -3.40    8.10
  -8  -2   4   -0.40    5.80
  -2  10   4   15.90    7.00
  -1  -9   4   -0.90    6.90
  -9  10   4    6.50    9.20
  -9  -1   4   10.00    6.20
  -9  -1   4    3.90    7.40
   0 -10   4    7.10    6.80
   0 -10  -4   12.10    7.30
 -10  10   4    1.60   10.00
 -10   0   4    4.10    6.00
 -10   0   4    5.00    7.30
   1 -11   4   19.90    6.30
 -11  10   4   30.40    9.50
  -1 -10  -4   17.50    7.30
 -11   1   4   14.90    7.30
 -11   1   4    8.30    5.70
  -2 -10  -4   15.00    6.70
   2 -12   4    9.80    5.60
 -12  10   4   23.50    8.50
 -12   2   4   12.10    5.00
 -12   2   4    8.40    6.70
  -3 -10  -4   -1.70    5.60
 -13  10   4  -12.30    6.70
 -13   3   4   -3.00    5.70
 -13   3   4    4.80    3.90
  -6  11   4   -0.20    8.00
  -6  11   4   -1.10    7.80
  -5  -6   4    2.60    6.60
  -5  11   4  -21.80    7.30
  -5  11   4    2.60    8.00
  -6  -5   4   -1.70    7.00
  11  -6   4    0.60    6.20
  -7  11   4   51.09    9.10
  -4  -7   4   60.69    8.90
  -4  11   4   48.10    7.80
  -4  11   4   39.50    8.90
  -7  -4   4   40.20    6.30
  -7  -4   4   38.60    8.00
  -8  11   4    3.70    8.80
  -3  -8   4    2.90    7.50
  -8  -3   4   -0.90    5.50
  -8  -3   4   -2.10    7.80
  -3  11   4   -9.70    7.30
 -11   9  -4   24.50   11.70
  -2  -9   4   -0.10    7.00
  -9  11   4    2.50    8.80
  -9  -2   4    2.50    5.60
  -2  11   4   -2.20    6.80
 -11  10  -4   12.50   11.60
 -10  11   4    7.10    9.60
  -1 -10   4    2.10    6.60
   1 -11  -4   -1.20    6.90
 -10  -1   4    4.50    5.60
  -1  11   4   10.70    6.20
   0 -11   4   13.60    6.10
 -11  11   4    6.60    9.40
 -11  11  -4   -4.90   10.90
   0 -11  -4   -3.30    6.60
   0  11   4    7.00    5.90
 -11   0   4   -0.70    5.10
  -1 -11  -4    0.40    6.00
   1 -12   4    3.70    5.00
 -12  11   4   -2.90    7.60
 -11  12  -4    5.30   10.50
 -12   1   4   -2.40    4.50
  -6  12   4   -5.90    7.40
  -6  -6   4   -4.70    6.40
  12  -6   4   -2.20    6.00
  12  -5   4   -4.40    5.60
  -7  12   4    5.40    8.00
  -5  12   4   12.70    7.40
  -7  -5   4   -6.40    6.70
  -5  12   4    4.20    7.30
  -8  12   4    5.40    8.50
  -8  -4   4   19.70    7.60
  -4  12   4   12.50    7.00
  -9  12   4  -14.80    8.30
   3 -12  -4   -3.10    6.20
  -3  12   4    0.60    6.80
   2 -12  -4   -8.20    6.20
 -12  10  -4    8.50   11.00
 -10  12   4   -5.20    8.90
  -2  12   4    4.70    6.20
 -12  11  -4    9.10   10.30
 -11  12   4   -0.10    8.40
   1 -12  -4   -3.70    5.90
  -1  12   4   -7.20    5.50
  -7  13   4    5.80    7.20
  -6  13   4    6.00    6.80
  -8  13   4    7.70    7.50
  13  -5   4   -3.00    5.10
  -5  13   4    5.40    6.40
  -9  13   4    1.50    7.30
   4 -13  -4    5.20    5.40
   3 -13  -4   -3.40    5.10
 -10  13   4    4.30    7.70
   0   0   5  580.94   39.90
   1   0   5    9.00   15.00
   0  -1   5    0.40   15.20
  -1   1   5    3.50   15.00
  -1   0   5   22.70   14.00
   1  -1   5  -12.80   15.20
  -1   0   5  -11.20   15.50
   0   1   5   46.10   16.40
  -2   1   5  -14.30   14.20
  -2   1   5  -14.60   15.10
   1  -2   5   -2.30   14.90
  -1   2   5  414.86   31.70
   2  -1   5  383.96   30.50
  -1  -1   5  379.16   31.70
  -1  -1   5  389.76   28.10
  -2   2   5  130.89   22.00
   0  -2   5  133.79   20.70
   0   2   5  156.58   21.70
  -2   0   5  135.49   21.00
  -2   0   5  152.28   18.20
   2  -2   5  147.59   20.10
  -3   2   5   -6.40   15.60
  -3   2   5   -8.80   12.90
   1  -3   5   13.60   15.30
   2  -3   5   18.20   15.10
  -3   1   5   19.70   14.30
  -3   1   5    1.00    5.50
  -3   1   5   10.20   16.50
  -4   2   5   69.09    6.80
  -4   2   5   80.59    7.70
   2  -4   5   80.89    7.10
  -4   2   5   64.79    7.30
  -4   2   5  104.59   19.90
  -4   2   5   54.69   13.80
  -1  -2   5   47.30   18.00
  -1  -2   5   39.30    6.20
  -1  -2   5   43.10   14.60
  -2   3   5   34.10   17.40
  -2  -1   5   55.09   18.30
  -2  -1   5   79.49   15.60
  -1   3   5   59.69   18.20
  -3   3   5    4.50    5.40
  -3   3   5    3.30   16.90
   0  -3   5  -23.40   15.40
  -3   3   5   10.00    5.60
   0  -3   5    3.00   12.20
   0   3   5   39.80   16.90
   3  -3   5    7.30   15.00
   0   3   5   15.30    4.70
  -3   0   5   -6.80   13.80
  -3   0   5   36.50   16.50
   1  -4   5   85.19    7.60
  -4   3   5   79.89   15.80
  -4   3   5   83.59   20.10
  -4   3   5   80.99    8.00
   3   1   5   85.89    6.80
  -4   3   5   86.39    7.80
   3  -4   5   84.49    7.50
  -4   1   5   75.79   18.80
  -4   1   5   76.99   15.20
  -4   1   5  104.99    7.90
  -3  -1  -5   72.19   10.20
  -5   3   5    8.60   17.50
  -5   3   5   24.40    5.50
   2  -5   5   18.10    6.00
  -2  -3  -5   16.10    9.60
  -5   3   5   21.30   14.10
  -5   3   5   23.50    6.30
  -5   3   5   21.20    6.50
  -3  -2  -5   -3.30    9.50
  -5   2   5   11.00    6.20
   3  -5   5   12.50    5.70
  -5   2   5   10.20    6.30
  -5   2   5    0.40   18.10
  -5   2   5    8.10   12.00
  -6   3   5   38.50    7.40
  -6   3   5   43.40    7.20
  -3  -3  -5   28.10   11.20
   3  -6   5   51.19    7.00
  -6   3   5   21.60   14.30
  -2   4   5  137.39    9.50
  -2   4   5  158.98   24.10
  -2  -2   5  204.68   19.10
  -2  -2   5  135.99   21.80
  -1  -3   5   10.40   13.10
  -3   4   5    5.40    5.50
  -1  -3   5  -16.40   16.00
  -3   4   5    6.60   18.30
  -3   4   5    9.50    5.80
   4  -3   5    1.90    4.90
  -3  -1   5   -8.70   13.60
  -3  -1   5   -0.30    4.90
  -4   1  -5    0.20    8.60
  -1   4   5   -7.70   18.40
  -1   4   5    1.50    4.90
  -3  -1   5    0.40    4.80
  -3  -1   5    3.00   17.40
  -4   4   5   -9.10    5.80
   0  -4   5    4.10    5.20
  -4   4   5   -0.70    5.80
   0  -4   5    0.60   14.90
  -4   4   5  -18.00   17.10
  -4   0   5   -4.10    4.70
  -4   0   5   -5.70    5.00
  -4   0   5  -18.80   13.40
   4  -4   5   -3.90    5.30
  -4   0  -5  -11.50    8.80
   0   4   5   11.70   17.50
  -5   4   5   52.49    8.20
  -1  -4  -5   41.10   10.40
  -5   4   5   74.09   19.50
  -5   4   5   74.79    8.10
   1  -5   5   86.09    7.80
  -4  -1  -5   81.89   11.10
  -5   1   5   81.89   15.00
   4  -5   5   67.69    7.80
  -5   1   5   83.39    7.40
  -6   4   5   42.20    7.70
   2  -6   5   47.70    7.20
  -6   4   5   65.39    7.80
  -2  -4  -5   52.59   11.60
  -6   4   5   52.89   17.20
  -6   2   5   55.69    7.40
  -4  -2  -5   50.59   11.90
  -6   2   5   62.39    8.20
  -6   2   5   42.70   12.80
   4  -6   5   59.59    7.10
   3  -7   5   -9.20    6.40
  -7   4   5    1.20    7.50
  -7   4   5    9.60   15.90
  -7   4   5    2.20    6.30
  -3  -4  -5   -4.60   11.40
  -7   3   5   25.80   13.80
   4  -7   5   -2.40    6.60
  -7   3   5   -4.00    7.70
  -4  -3  -5   -0.60   11.50
  -7   3   5    3.30    6.30
  -8   4   5  188.68   11.70
  -8   4   5  198.48   13.80
   4  -8   5  182.68   12.30
  -8   4   5  140.19   21.20
  -4  -4  -5  187.78   11.60
  -2  -3   5  109.99   17.20
  -3   5   5   99.29    8.40
  -3   5   5   90.29    8.40
   2  -5  -5   59.49   11.10
  -3   5   5  158.98   25.00
  -5   3  -5   98.89   11.40
  -2  -3   5  101.09    7.80
  -2   5   5  107.79   23.20
  -3  -2   5   99.19    7.50
  -3  -2   5   92.89    7.30
  -5   2  -5   96.69   11.30
  -2   5   5  106.49    8.20
  -3  -2   5  106.79   16.90
   5  -3   5  108.09    7.60
  -4   5   5  120.09    9.60
  -1  -4   5  129.39    8.90
  -4   5   5  136.99   23.70
  -5   4  -5  118.29   12.30
  -4   5   5  129.39    9.60
  -1  -4   5  157.28   19.20
  -4  -1   5  126.69   17.20
  -1   5   5  135.69    8.80
   5  -4   5  123.79    8.80
  -1   5   5  141.79   24.30
  -4  -1   5  122.19    8.70
  -5   1  -5  136.29   12.30
  -5   5   5  102.79    8.80
  -5   5   5   87.59    9.00
  -5   5   5  114.59   22.70
   0  -5   5  106.69    8.60
  -5   0   5  101.59    8.20
  -5   0  -5   98.99   12.40
   5  -5   5  106.59    8.60
  -5   0   5  102.69   16.10
   0   5   5  135.79   23.10
  -6   5   5   17.50    7.00
  -6   5   5   13.40    7.30
  -6   5   5   52.49   21.60
   1  -6   5   20.10    6.20
  -6   1   5   11.80   13.60
  -6   1   5   18.70    6.10
  -5  -1  -5   12.30   10.90
   5  -6   5    7.90    6.20
   2  -7   5    3.50    6.20
  -7   5   5   -8.50    7.60
  -7   5   5    2.20    6.80
  -2  -5  -5   -4.30   11.00
  -7   5   5   -1.70   17.30
   5  -7   5   -0.50    6.50
  -7   2   5   -8.80    6.20
  -7   2   5  -18.80   11.70
  -5  -2  -5  -11.00   11.90
  -8   5   5   84.59    8.50
  -8   5   5  102.49   10.70
   3  -8   5   81.89    9.00
  -8   5   5   90.29   21.10
  -3  -5  -5   94.89    8.60
  -8   3   5   94.49    9.00
   5  -8   5   87.19    9.20
  -9   5   5   10.60    8.50
  -9   5   5    2.00    6.40
  -4  -5  -5    4.20    6.50
   4  -9   5   10.90    6.50
  -9   4   5    1.90    6.50
  -5  -4  -5    3.70    6.50
   5  -9   5   -2.20    6.30
   5 -10   5    2.10    6.20
  -5  -5  -5    4.10    6.50
 -10   5   5    3.30    6.20
  -3  -3   5  197.28   12.00
  -3  -3   5  215.28   20.30
  -3   6   5  204.28   12.40
  -3   6   5  204.58   28.50
  -6   3  -5  203.28   15.50
  -6   4  -5   43.50   11.10
  -4   6   5    0.60   20.70
  -4   6   5   42.10    7.50
  -2  -4   5   56.09    6.80
  -2  -4   5   64.49   16.30
  -4   6   5   40.50    7.20
  -2   6   5   55.99   22.20
  -6   2  -5   49.20   11.30
  -2   6   5   58.39    7.50
  -4  -2   5   46.10    6.40
   6  -4   5   58.49    6.70
  -4  -2   5   72.19   16.00
  -4  -2   5   50.99    6.60
  -1  -5   5  -11.10   15.00
  -5   6   5   10.00   20.60
  -1  -5   5   13.40    5.60
  -5   6   5   21.20    7.40
  -5   6   5   -4.50    6.80
  -1   6   5   -3.30   20.70
  -5  -1   5    2.80   13.70
  -5  -1   5   12.80    5.80
  -1   6   5    3.80    5.80
  -6   1  -5   13.90   11.10
   6  -5   5   15.70    5.90
   0  -6   5   35.20    6.50
  -6   6   5   20.60    8.00
  -6   6   5   32.30    7.30
  -6   6   5    6.10   21.20
   6  -6   5   35.40    6.50
  -6   0   5   45.50    6.70
   0   6   5   15.60   21.60
  -6   0   5   24.00   14.70
  -6   0  -5   46.00   12.10
  -7   6   5   -0.20    7.90
   1  -7   5    4.60    6.40
  -7   6   5   -2.60    7.00
  -7   1   5    3.00   14.00
   6  -7   5   -8.90    6.20
  -7   1   5   -0.20    6.50
  -8   6   5    6.60    8.40
   2  -8   5    3.10    6.80
  -8   6   5   10.80    7.20
   6  -8   5   12.90    7.00
  -8   2   5   17.20    7.00
  -3  -6  -5   20.60    6.80
   3  -9   5   19.20    6.80
  -9   6   5   13.20    6.40
  -9   6   5   10.20    8.50
   6  -9   5   21.30    6.90
  -9   3   5   16.20    7.10
  -4  -6  -5    0.20    6.70
 -10   6   5   -0.60    8.70
   4 -10   5    6.80    6.70
 -10   6   5   -8.00    6.10
 -10   4   5    2.20    6.50
  -6  -4  -5    2.20    6.20
   6 -10   5    3.30    6.10
  -5  -6  -5   -0.90    6.20
 -11   6   5   11.10    6.00
   5 -11   5   -6.20    6.10
  -6  -5  -5    2.60    6.10
 -11   5   5   -3.50    5.90
   6 -11   5    7.40    5.80
 -12   6   5   10.10    5.20
  -6  -6  -5    6.40    5.90
  -3  -4   5   -2.50    5.90
  -4   7   5    4.80    7.00
  -7   4  -5  -16.50   11.50
  -4   7   5    1.80    7.60
  -3  -4   5    3.20   14.40
  -7   3  -5   -2.30   11.80
   7  -4   5    7.70    5.20
  -4  -3   5   -8.20    5.10
  -4  -3   5   -0.80   13.90
  -4  -3   5    9.60    5.80
  -3   7   5    0.00    7.20
  -2  -5   5   82.09   17.20
  -5   7   5   31.60    7.90
  -5   7   5   44.90    8.00
  -2  -5   5   48.10    7.00
  -5  -2   5   43.10    6.60
  -7   2  -5   46.30   12.30
  -5  -2   5   35.50    6.10
  -2   7   5   53.09    7.40
   7  -5   5   47.80    6.80
  -5  -2   5   34.20   14.70
  -1  -6   5    1.30   15.90
  -6   7   5    9.80    8.00
  -6   7   5    2.30    7.00
  -1  -6   5    3.80    6.70
  -6  -1   5   13.80   13.60
  -6  -1   5    9.10    6.10
  -1   7   5   11.80    6.50
  -7   1  -5   19.80   12.00
   7  -6   5    3.50    6.10
  -7   7   5   -1.50    8.40
   0  -7   5    4.60    7.10
  -7   7   5    7.30    7.70
   7  -7   5    5.30    6.40
  -7   0   5    3.00    6.50
  -8   7   5   10.50    8.50
   1  -8   5    0.50    7.20
  -8   7   5   -4.60    7.20
  -8   1   5   18.40    7.00
   7  -8   5    5.50    6.60
   2  -9   5    3.50    7.30
  -9   7   5    0.60    8.70
  -9   7   5   -8.40    6.10
  -2  -7  -5    4.80    6.70
   7  -9   5    4.80    7.00
  -9   2   5    7.90    6.90
  -3  -7  -5    2.60    6.90
   3 -10   5    4.30    7.00
 -10   7   5    1.40    6.20
 -10   7   5    5.00    8.70
   7 -10   5    3.10    6.00
 -10   3   5    3.10    6.50
  -4  -7  -5   16.20    6.70
 -11   7   5   33.40    8.90
   4 -11   5   29.70    6.90
 -11   7   5   27.70    6.30
 -11   4   5   22.00    6.00
 -12   7   5    3.60    5.00
  -5  -7  -5    6.50    5.80
  -7  -5  -5    3.50    6.00
 -12   5   5    3.50    4.90
  -4  -4   5   -1.70    5.70
  -4   8   5   13.60    7.50
  -4   8   5   -5.80    8.10
  -3  -5   5   13.90    6.80
  -5   8   5   16.40    8.00
  -5   8   5   15.50    8.50
   8  -5   5   17.80    6.10
  -5  -3   5   13.90    5.60
  -5  -3   5    7.50    5.90
  -3   8   5   15.00    8.10
  -2  -6   5   39.00    7.50
  -6   8   5   21.80    8.30
  -6   8   5   41.00    8.20
  -2   8   5   25.90    7.50
  -6  -2   5   15.90    6.40
  -6  -2   5   37.10    6.50
   8  -6   5   35.10    6.80
  -7   8   5    1.20    7.90
  -1  -7   5    0.80    7.40
  -7   8   5    1.20    8.90
   8  -7   5    2.10    6.50
  -1   8   5   17.20    6.90
  -7  -1   5    8.30    6.50
   0  -8   5   16.40    7.50
  -8   8   5    7.90    7.80
  -8   8   5   15.10    9.30
  -8   0   5   10.50    6.70
   8  -8   5    8.30    6.50
   1  -9   5   -3.60    7.40
  -9   8   5    4.70    8.90
  -9   8   5    2.40    6.80
  -9   1   5    0.40    6.90
   8  -9   5   -2.00    6.70
  -2  -8  -5   -2.60    7.20
   2 -10   5   -6.80    6.70
 -10   8   5    9.10    8.70
 -10   8   5    5.10    6.20
   8 -10   5   -3.90    5.80
 -10   2   5   12.40    6.60
  -3  -8  -5   14.60    7.00
 -11   8   5   15.40    8.20
   3 -11   5    1.50    6.20
 -11   8   5    3.60    5.90
 -11   3   5   11.60    5.70
 -12   8   5    5.10    5.10
  -4  -8  -5    3.80    5.90
 -12   8   5   -3.70    7.60
   4 -12   5   -3.30    4.80
 -12   4   5    8.10    4.70
  -4  -5   5   -4.20    6.30
  -5   9   5   -3.40    8.50
  -5   9   5    0.50    8.00
  -5  -4   5   -9.40    5.10
  -4   9   5    6.00    8.70
  -5  -4   5   -2.80    6.00
  -4   9   5   -2.80    7.60
   9  -5   5    0.60    5.90
  -3  -6   5   42.90    7.10
  -6   9   5   10.90    8.50
  -6   9   5   38.70    8.60
  -6  -3   5   29.10    6.90
  -3   9   5   31.50    8.60
  -6  -3   5   27.70    6.30
   9  -6   5   41.60    7.00
  -2  -7   5   15.90    7.00
  -7   9   5    7.40    8.40
  -7   9   5   -2.40    8.70
  -7  -2   5   -2.60    5.80
   9  -7   5   -0.60    6.40
  -2   9   5    7.50    7.50
  -8   9   5   -2.10    7.90
  -8   9   5  -10.00    9.10
  -1  -8   5    0.80    7.10
  -8  -1   5    5.40    6.30
  -1   9   5    1.50    6.60
   9  -8   5    2.80    6.30
  -9   9   5   -3.50    9.10
   0  -9   5    3.30    6.90
  -9   9   5   -4.30    7.20
  -9   0   5    2.10    6.10
   9  -9   5    2.10    6.30
   0   9   5    7.00    6.50
 -10   9   5    3.00    8.70
   1 -10   5  -10.40    6.40
  -1  -9  -5  -10.10    6.80
 -10   9   5   -5.10    6.00
 -10   1   5    4.30    6.00
   2 -11   5   -8.60    5.50
  -2  -9  -5   -5.90    6.60
 -11   9   5   -1.60    7.80
 -11   9   5   -1.80    5.50
 -11   2   5    1.10    5.40
  -3  -9  -5    3.80    6.00
   3 -12   5   -3.10    5.10
 -12   9   5   15.60    7.40
 -12   3   5    5.30    4.70
  10  -5   5    4.40    6.20
  -5  10   5   -2.70    7.80
  -5  -5   5    6.60    6.60
  -5  10   5   -4.60    8.30
  -6  10   5  -15.00    8.00
  -6  10   5   -5.90    8.10
  -4  -6   5   -5.00    6.60
  -6  -4   5    1.90    5.20
  -4  10   5    2.30    8.40
  10  -6   5   -6.30    6.40
  -6  -4   5  -10.90    5.90
  -7  10   5    9.80    8.70
  -7  10   5   13.00    8.40
  -3  -7   5   16.60    7.30
  10  -7   5    2.00    6.30
  -3  10   5   -3.60    8.10
  -7  -3   5    9.30    5.50
  -8  10   5   -9.30    8.70
  -2  -8   5   14.20    7.10
  -8  10   5    1.60    8.00
  -2  10   5    9.20    7.40
  -8  -2   5    3.90    5.70
  10  -8   5    0.70    6.20
  -9  10   5   -8.70    8.90
  -1  -9   5    5.40    6.90
  -9  10   5   12.00    7.20
  -1  10   5    1.20    6.70
  -9  -1   5    2.90    6.00
   0 -10  -5    9.90    7.10
   0 -10   5   -1.80    6.50
 -10  10   5   19.30    8.40
 -10  10   5   21.50    6.20
 -10   0   5    7.40    5.70
   0  10   5    2.90    6.20
 -11  10   5   24.30    8.00
   1 -11   5   13.40    5.80
  -1 -10  -5  -10.60    6.50
   1  10   5    5.90    5.60
 -11   1   5    8.90    5.10
   2 -12   5   -0.70    4.70
 -12  10   5   12.60    6.70
  -2 -10  -5    6.00    5.80
 -12   2   5   -2.90    4.20
   2  10   5    2.00    5.10
  11  -5   5    2.10    5.90
  -5  -6   5   -4.00    6.20
  -6  11   5  -13.10    7.70
  -6  11   5   -4.20    7.50
  -5  11   5    4.60    7.50
  -5  11   5   10.20    7.80
  11  -6   5    4.70    6.10
  -7  11   5    5.70    8.00
  -7  11   5    9.80    7.60
  -4  -7   5    6.70    6.70
  11  -4   5   -1.30    5.40
  -4  11   5  -11.10    7.40
  -7  -4   5    0.40    5.10
  11  -7   5   -0.40    5.80
  -3  -8   5    8.90    7.00
  -8  11   5    5.60    8.40
  -8  11   5   -8.10    7.20
  11  -8   5    5.00    5.70
  -8  -3   5    3.40    5.20
  -3  11   5    0.80    7.30
  -9  11   5    8.30    8.40
  -2  -9   5    6.00    6.60
  -2  11   5   -2.70    6.80
  -9  -2   5    1.10    5.20
   1 -11  -5    1.40    6.40
 -10  11   5    5.20    7.90
  -1 -10   5    5.90    6.30
 -10  -1   5   -4.00    4.90
  -1  11   5    2.30    6.20
   0 -11  -5   17.30    6.00
   0 -11   5   10.60    5.60
 -11  11   5    8.20    7.40
 -11   0   5    6.90    4.60
   0  11   5    9.50    5.60
  -6  12   5   30.00    6.60
  -6  12   5   11.50    6.90
  12  -6   5   10.30    5.50
  -7  12   5   11.00    7.00
  -7  12   5    7.80    7.20
  12  -5   5   -7.30    5.50
  -5  12   5    6.30    6.40
  12  -7   5    3.00    5.20
  12  -4   5   -6.60    5.20
  -8  12   5    6.70    7.60
  -4  12   5    5.60    6.20
   3 -12  -5    8.60    5.70
  -9  12   5   13.60    7.50
  -3  12   5   20.90    6.00
 -10  12   5    6.70    6.90
   2 -12  -5    8.40    5.70
  -2  12   5    1.00    5.50
   0   0   6  187.68   11.40
   0   0   6  187.68   25.70
   0  -1   6   -0.10   18.30
   0  -1   6    2.40    5.50
  -1   1   6    4.80   18.30
   1   0   6   25.70    5.40
   0  -1   6    9.80    5.00
   1   0   6   22.60   16.70
  -1   1   6   13.50    5.20
   1   0   6   16.80    5.00
  -1   1   6   16.70    5.50
  -1   0   6   14.90    5.30
   1  -1   6   23.80    5.50
   0   1   6   18.60    5.30
   1  -1   6   19.20    5.20
   0   1   6   19.90   18.00
   1  -1   6   27.80   18.00
  -1   0   6   18.60   18.80
   1   1   6    6.80   17.70
  -2   1   6    1.00    5.00
  -2   1   6    8.00    6.00
   1   1   6    6.90    5.30
   1  -2   6    7.40   17.90
  -2   1   6  -29.30   17.70
   1  -2   6    7.90    5.70
   1  -2   6    5.70    5.20
  -1  -1   6   37.40   19.50
   2  -1   6   46.70    6.00
  -1   2   6   33.80    5.80
  -1   2   6   52.19   19.90
  -1   2   6   43.50    6.30
  -1  -1   6   34.70    6.10
   2  -1   6   50.49   17.30
   2  -1   6   42.90    6.10
  -1  -1   6   37.10    6.00
   2   0   6   -2.80    5.00
  -2   2   6   -0.10    5.80
   0  -2   6   11.10    5.90
   2   0   6   29.20   17.90
  -2   2   6   17.80   18.70
  -2   2   6    0.40    5.30
   2   0   6    2.90    5.20
   0  -2   6   20.30   18.30
   0  -2   6    0.30    5.60
   0   2   6    1.00    5.20
  -2   0   6   37.40   20.00
   2  -2   6    1.80    5.30
   0   2   6   10.90   17.00
  -2   0   6   -2.80    5.20
   2  -2   6   -3.40    5.70
  -2   0   6   -4.60    5.60
   2  -2   6   17.60   17.40
   0   2   6   10.70    5.40
   2   1   6   -1.90   17.20
   2   1   6   -9.00    5.50
   2   1   6  -17.30    4.70
  -3   2   6  -10.20    5.30
   1  -3   6  -14.10   17.80
  -3   2   6   -6.60   18.50
   1  -3   6   -4.80    5.80
  -3   2   6    1.50    6.40
  -3   1   6    0.70    6.40
   1   2   6   -1.90    5.40
   2  -3   6   -4.20    5.50
  -3   1   6   -4.90    5.30
   1   2   6    0.30    5.20
  -3   1   6  -27.10   18.60
   1   2   6   41.10   19.40
   2  -3   6    0.80   17.70
  -4   2   6    7.60    5.60
  -4   2   6    4.20    7.00
   2  -4   6    2.10    6.20
  -2  -2  -6   13.00   10.30
   2   2   6   17.10    5.70
  -4   2   6   46.60   20.00
  -2   3   6   33.40   20.70
  -1  -2   6   62.79   20.90
  -2   3   6   32.00    6.70
   3  -1   6   31.60    5.90
  -1  -2   6   44.40    6.20
   3  -1   6   34.90    5.70
   3  -1   6   37.30   17.90
  -1   3   6   32.20    6.40
  -1   3   6  -10.50   18.90
   3  -2   6   34.90    6.00
   3  -2   6   27.70    6.10
  -2  -1   6   40.80    6.20
  -2  -1   6   35.20   19.80
   3  -2   6   40.70   17.50
   0  -3   6  146.79   23.80
   0  -3   6   95.09    8.70
  -3   3   6  104.09    8.30
   3   0   6   98.79    7.80
  -3   3   6   99.89    8.40
  -3   3   6  102.99   23.50
   3   0   6  107.09    8.00
  -3   3   6  113.79    8.70
   0   3   6  118.79   23.10
  -3   0   6  103.99    8.00
  -3   0   6   85.59   21.90
   0   3   6   91.39    8.20
  -3   0  -6  139.99   12.50
   3  -3   6  111.89    8.60
  -3   0   6  105.19    8.20
   3  -3   6   59.89   19.30
  -3   0   6  101.19   18.20
  -4   3   6   57.79    7.10
   1  -4   6   59.59    7.70
  -4   3   6   72.89   23.30
   3   1   6   70.49    6.90
  -4   3   6   56.29    7.90
  -1  -3  -6   64.99   10.80
  -4   3   6   65.19    7.40
   3  -4   6   68.29    7.70
   1   3   6   89.49   21.00
  -4   1   6   37.30   16.70
   1   3   6   42.10    6.30
  -4   1   6   63.49    6.70
  -3  -1  -6   74.89   11.80
  -4   1   6   62.79    7.80
  -4   1   6   81.19   21.80
  -5   3   6   17.00   21.20
  -5   3   6   18.70    7.60
   3   2   6   19.40    6.00
  -5   3   6   23.80    6.80
  -5   3   6   18.80    5.70
   2  -5   6   13.80    7.00
  -2  -3  -6   19.70   10.90
  -5   2   6   27.80    6.90
   2   3   6   15.90    5.30
  -5   2   6   15.70   15.90
  -5   2   6   40.40   21.90
   3  -5   6   17.20    6.70
  -5   2   6   15.60    5.80
  -3  -2  -6   40.80   11.40
  -3  -3  -6   40.80   12.90
  -6   3   6   39.70    7.30
  -6   3   6   32.90   16.30
   3  -6   6   42.00    7.90
   3   3   6   37.60    6.60
  -2  -2   6   29.60   16.80
   4  -2   6    6.70   16.10
  -2  -2   6   -3.90   20.20
   4  -2   6   16.70    5.60
  -4   2  -6   16.50   10.30
  -2  -2   6   18.60    5.30
  -2   4   6   20.60    6.70
  -2   4   6    2.10   20.80
   4  -2   6   16.80    5.80
  -1  -3   6   19.20    5.80
   4  -1   6   25.50    5.40
   4  -1   6   25.30    5.70
  -3   4   6   -3.60   21.60
  -3   4   6   16.50    6.90
  -4   3  -6   19.60   10.10
  -1  -3   6   26.40   20.80
  -3  -1   6   22.30   21.60
  -1   4   6   29.50    6.60
   4  -3   6   28.00    5.90
  -4   1  -6    8.50   10.70
  -3  -1   6   24.00    5.80
  -3  -1   6   45.20   16.10
  -1   4   6   16.10   21.10
   4   0   6   -3.90    5.30
   0  -4   6   -0.30    6.10
   0  -4  -6   11.20    9.70
  -4   4   6   -1.10    6.60
  -4   4   6    2.10    5.90
  -4   4   6   29.20   22.60
   0   4   6   -0.30   20.10
  -4   0   6    6.20    5.90
  -4   0  -6   29.10   11.10
   0   4   6    2.60    6.00
   4  -4   6   16.40    6.10
  -4   0   6   13.90   15.30
   4   1   6    7.90    5.40
  -5   4   6    5.20    6.40
  -5   4   6    9.00    7.40
  -1  -4  -6   -8.80   10.80
  -5   4   6    5.60    6.10
   1  -5   6    6.10    6.40
  -5   4   6  -13.70   20.70
  -5   1   6   -3.40    6.20
   1   4   6    2.50    5.60
  -4  -1  -6    7.20   11.20
   4  -5   6    0.20    6.20
   1   4   6   17.70   20.00
  -5   1   6    8.30   15.40
  -6   4   6   -0.30    7.30
  -2  -4  -6  -12.00   11.90
  -6   4   6   12.10    6.90
   2  -6   6    1.90    6.70
   2   4   6   11.20    5.70
  -4  -2  -6  -14.20   12.40
  -6   2   6    0.20    6.60
   4  -6   6    3.20    7.00
  -6   2   6   -1.80   15.60
  -7   4   6   10.80    7.90
  -3  -4  -6    4.00   12.60
  -7   4   6   -0.20    6.30
   3  -7   6    1.70    6.90
  -4  -3  -6  -23.10   12.50
  -7   3   6    4.50    6.90
   4  -7   6   -2.50    7.40
  -8   4   6    6.50    6.70
   4  -8   6    0.10    6.70
  -3   5   6    7.40    7.10
  -2  -3   6  -17.40   15.10
  -5   3  -6   -1.50   10.60
  -2  -3   6    0.40    5.50
  -3   5   6   -7.70   22.40
   5  -2   6   -1.00    5.30
  -5   2  -6    1.90   10.90
  -3  -2   6   23.10   15.90
  -2   5   6    5.60    7.00
  -3  -2   6    8.30    5.60
  -2   5   6   -9.50   21.90
   5  -3   6   -0.30    5.70
  -1  -4   6   17.10    6.10
  -4   5   6    8.70    6.40
  -4   5   6   39.20   24.00
  -5   4  -6   15.20   11.40
  -4   5   6   24.30    7.10
  -4  -1   6   16.60   15.30
  -5   1  -6   21.00   11.20
  -4  -1   6   21.00    6.00
   5  -4   6    8.70    6.10
  -1   5   6   19.20    6.80
  -1   5   6   -1.00   21.60
   0  -5   6   32.00    6.60
   0  -5  -6   36.90   11.90
  -5   5  -6   41.40   12.00
  -5   5   6   22.80    7.00
  -5   5   6   43.90    7.80
   5  -5   6   27.80    6.90
  -5   0   6   38.20    6.70
   0   5   6   28.80    6.70
  -5   0   6   41.30   15.90
  -5   0  -6   26.40   12.70
  -6   5   6   12.10    6.30
  -6   5   6   13.50    7.60
  -6   5   6   16.80    7.20
  -1  -5  -6   27.50   11.90
   1  -6   6   14.60    7.00
   1   5   6   21.90    6.10
  -6   1   6   23.60    6.80
   5  -6   6    6.40    6.50
  -5  -1  -6   22.40   12.90
  -7   5   6   36.30    7.90
  -7   5   6   40.00    8.20
   2  -7   6   17.60    7.10
  -2  -5  -6   22.60   12.30
   5  -7   6   30.00    7.70
  -5  -2  -6   49.99   13.90
  -7   2   6   53.19    7.40
  -8   5   6    5.60    7.90
  -8   5   6   12.10    6.90
   3  -8   6   -3.10    6.80
  -3  -5  -6    9.40    6.10
  -8   3   6   -0.20    6.80
   5  -8   6    2.20    7.00
  -9   5   6   -0.50    6.40
  -4  -5  -6   -0.30    6.20
   4  -9   6   -4.60    6.50
   5  -9   6    2.80    6.40
  -9   4   6   -7.40    6.70
 -10   5   6   23.90    6.60
   5 -10   6   31.50    6.50
  -3  -3   6   13.60   16.40
  -3  -3   6   17.20    6.30
   6  -3   6   37.50    6.10
  -3   6   6   27.80    7.60
  -6   3  -6   13.60   12.40
  -2  -4   6   57.99   18.10
  -4   6   6   14.90    7.80
  -2  -4   6   29.30    6.80
  -4   6   6   27.10    7.30
  -6   4  -6   50.19   12.50
   6  -2   6   51.99    6.20
  -4  -2   6   25.50   16.60
  -6   2  -6   27.50   12.70
  -4  -2   6   26.00    6.30
  -2   6   6   36.30    7.80
   6  -4   6   33.10    6.50
  -5   6   6   32.00    7.80
  -5   6   6   34.10    7.60
  -1  -5   6   34.60    7.00
  -6   5  -6   27.50   12.50
  -6   1  -6   30.60   13.00
  -5  -1   6   41.60    6.70
   6  -5   6   27.70    6.60
  -1   6   6   39.70    7.50
  -6   6   6   11.40    8.00
   0  -6   6    7.90    6.80
  -6   6   6    4.80    7.30
  -6   0   6   25.60    6.80
   6  -6   6    4.50    6.60
   0   6   6   13.00    6.70
  -6   0  -6   29.00   13.40
  -7   6   6   21.60    7.90
  -7   6   6   34.30    7.90
   1  -7   6   21.90    7.30
   6  -7   6   28.30    7.20
   1   6   6   26.70    6.60
  -7   1   6   27.00    7.30
   2  -8   6   -0.70    7.00
  -8   6   6   -1.90    6.40
  -8   6   6    5.80    7.70
  -8   2   6   -4.70    6.80
   6  -8   6    3.50    7.20
   2   6   6    2.50    6.20
  -9   6   6   19.20    8.30
   3  -9   6   -5.70    6.70
  -9   6   6   -0.40    6.70
  -3  -6  -6   -2.00    6.50
  -9   3   6    1.80    6.80
   6  -9   6    2.00    6.30
  -4  -6  -6   13.30    6.30
 -10   6   6   16.20    6.20
   4 -10   6    8.20    6.70
   6 -10   6   12.40    6.00
 -10   4   6   20.70    6.40
  -5  -6  -6   -7.60    5.10
   5 -11   6   -2.60    5.60
 -11   6   6    1.20    5.30
 -11   5   6    7.40    5.30
   6 -11   6   -0.20    5.50
   7  -3   6    8.40    5.50
  -7   4  -6    5.50   13.00
  -3  -4   6   -2.00    6.50
  -4   7   6   11.60    7.80
  -7   3  -6   10.00   13.00
  -4  -3   6    3.90    6.10
   7  -4   6   -0.10    6.10
  -3   7   6   -5.90    7.80
  -5   7   6   51.39    8.30
  -5   7   6   31.70    8.00
  -2  -5   6   21.70    7.30
  -7   5  -6   45.10   13.20
  -2   7   6   51.09    8.60
  -5  -2   6   44.70    6.60
   7  -5   6   48.10    7.20
  -7   2  -6   43.90   13.40
  -6   7   6    0.10    8.00
  -1  -6   6    6.00    7.20
  -6   7   6    2.40    7.50
  -6  -1   6   -3.60    6.20
   7  -6   6    8.10    6.40
  -1   7   6   -0.50    7.00
  -7   1  -6    4.50   13.20
  -7   7   6    8.70    7.80
   0  -7   6    7.80    7.60
  -7   7   6    1.40    8.10
   7  -7   6   -1.80    6.40
  -7   0   6    5.20    6.50
   0   7   6    6.90    6.80
  -8   7   6   -8.30    7.50
   1  -8   6   13.90    7.70
  -8   7   6   -0.80    7.70
   7  -8   6   -1.40    6.80
  -8   1   6   10.20    6.70
   1   7   6   16.90    6.60
  -2  -7  -6    4.70    6.50
  -9   7   6    4.70    6.70
   2  -9   6   -7.80    7.00
  -9   7   6   10.00    7.40
   7  -9   6   17.80    6.50
   2   7   6    5.10    6.00
  -9   2   6   -6.90    6.40
 -10   7   6    9.30    7.90
  -3  -7  -6    1.20    6.20
   3 -10   6   -3.10    6.60
 -10   7   6  -12.20    5.80
 -10   3   6   -2.90    6.10
   7 -10   6    2.20    5.60
   3   7   6    3.70    5.80
 -11   7   6    2.70    5.40
  -4  -7  -6  -13.40    5.40
   4 -11   6    1.40    5.90
   7 -11   6   16.40    5.20
   4   7   6   12.20    5.20
 -11   4   6    4.70    5.30
  -4  -4   6   -1.70    5.90
  -4   8   6    2.20    8.20
   8  -4   6    2.60    6.00
  -5   8   6    3.00    7.90
  -3  -5   6   -1.20    6.60
   8  -3   6   18.20    5.80
  -5   8   6   -9.40    7.70
  -5  -3   6    3.00    6.00
   8  -5   6   -9.20    6.00
  -3   8   6   -3.90    7.90
  -6   8   6    4.80    7.80
  -2  -6   6    5.90    7.20
  -6   8   6   13.50    8.30
  -2   8   6   25.50    8.00
  -6  -2   6   -5.70    5.80
   8  -6   6    4.70    6.10
  -7   8   6    2.30    7.80
  -7   8   6    3.50    8.10
  -1  -7   6  -11.90    7.30
   8  -7   6    7.00    6.20
  -1   8   6    0.60    7.20
  -7  -1   6    5.60    6.10
   0  -8   6   16.00    7.80
  -8   8   6   -1.80    7.70
  -8   8   6   -2.20    7.60
   0   8   6    1.50    6.80
   8  -8   6    2.60    6.40
  -8   0   6    2.80    6.50
  -1  -8  -6  -13.80    6.10
  -9   8   6    0.50    6.30
   1  -9   6  -11.80    6.90
  -9   8   6    0.80    7.60
  -9   1   6   -3.00    6.10
   1   8   6   -2.60    6.10
   8  -9   6  -11.60    6.30
   2 -10   6   11.80    6.60
  -2  -8  -6   13.30    6.40
 -10   8   6   15.10    7.50
 -10   8   6   -1.90    5.90
   2   8   6   12.30    5.90
 -10   2   6    3.80    5.70
   8 -10   6    6.40    5.50
 -11   8   6   -0.50    5.40
   3 -11   6   -2.50    5.40
  -3  -8  -6  -11.50    5.30
 -11   3   6    4.20    4.80
   8 -11   6    2.10    4.80
   3   8   6    3.70    5.10
  -5   9   6    8.50    8.10
   9  -4   6   13.30    5.90
  -4  -5   6    1.10    6.30
   9  -5   6   16.50    6.20
  -5  -4   6    4.90    6.10
  -4   9   6   13.30    8.30
  -6   9   6  -15.20    7.90
  -6   9   6    4.90    8.10
   9  -3   6   14.00    5.50
  -3  -6   6   -4.50    6.10
  -6  -3   6    5.30    5.40
   9  -6   6    5.00    6.00
  -3   9   6   -5.80    7.60
  -7   9   6    6.00    8.30
  -2  -7   6   18.00    6.80
  -7   9   6   -3.00    7.60
  -7  -2   6   -0.50    5.50
   9  -7   6    2.30    6.20
  -2   9   6    1.30    7.70
  -8   9   6   16.30    8.10
  -1  -8   6    5.20    6.80
  -8   9   6   -9.30    7.50
  -1   9   6    2.20    7.00
  -8  -1   6    7.60    5.80
   9  -8   6   -6.50    5.90
  -9   9   6    1.50    6.40
  -9   9   6    2.70    7.20
   0  -9  -6   -4.60    6.00
   0  -9   6    1.00    6.50
  -9   0   6   -3.60    5.50
   0   9   6   -2.30    6.40
   9  -9   6   -3.30    5.90
   1 -10   6    6.10    5.80
 -10   9   6    1.30    6.70
  -1  -9  -6   11.50    6.20
 -10   9   6    9.40    5.80
   1   9   6   14.60    5.90
   9 -10   6    8.90    5.00
 -10   1   6    6.90    5.20
   2 -11   6   -0.60    5.00
  -2  -9  -6    1.00    5.40
 -11   9   6    8.60    5.20
 -11   9   6    3.40    6.40
 -11   2   6   -6.00    4.40
   2   9   6   -0.80    5.20
  -5  10   6   14.70    7.50
  -5  -5   6   13.10    6.40
  10  -5   6   13.00    5.90
  10  -4   6   -2.40    5.70
  -6  10   6    5.20    7.70
  -4  -6   6    3.40    6.30
  -6  10   6    5.40    7.60
  10  -6   6    1.60    5.70
  -4  10   6   -3.90    7.40
  -7  10   6   -1.00    7.70
  -3  -7   6   -4.70    6.30
  10  -3   6    7.50    5.30
  -7  10   6   -3.00    7.20
  10  -7   6   10.50    5.70
  -7  -3   6   -3.40    4.60
  -3  10   6   -7.10    7.00
  -2  -8   6   -1.50    6.50
  -8  10   6    7.70    7.10
  10  -2   6   15.80    5.10
  -8  10   6    3.60    7.30
  10  -8   6    1.40    5.40
  -8  -2   6   11.30    5.00
  -2  10   6   12.60    6.90
  -9  10   6    0.30    5.80
  -9  10   6   -2.90    6.70
  -1  -9   6   -0.50    6.30
   1 -10  -6    7.90    5.80
  10  -9   6    7.30    5.40
  -1  10   6   -2.20    6.50
  -9  -1   6    1.90    4.90
   0 -10  -6    7.20    5.90
 -10  10   6   -3.40    5.30
   0 -10   6    0.30    5.70
 -10  10   6   -3.30    6.20
   0  10   6   -1.50    5.70
 -10   0   6    1.90    4.50
  11  -5   6    6.60    5.20
  -6  11   6   -4.60    6.50
  -5  11   6    1.10    6.20
  11  -6   6   -3.30    5.10
  -4  -7   6    5.30    5.60
  11  -4   6   -2.70    5.10
  -7  11   6   -3.70    6.60
  -7  11   6    0.60    6.40
  11  -7   6   -0.90    5.00
  -4  11   6   -6.50    6.30
  11  -3   6    0.90    4.90
  -8  11   6   -2.50    6.20
  -8  11   6    5.60    6.40
  -3  -8   6   -2.80    5.90
  11  -8   6   -1.90    4.70
  -3  11   6   -5.30    5.90
  -9  11   6    0.20    4.90
  -2  -9   6    6.50    5.80
  11  -2   6    7.30    4.70
   2 -11  -6    5.00    5.30
  -9  11   6   -9.10    5.70
  -9  -2   6    3.60    4.20
  -2  11   6    9.80    5.50
   0   0   7   47.00    6.40
   0  -1   7   -0.80    6.30
  -1   1   7   16.20    5.70
   0  -1   7    5.40    5.80
   1   0   7    6.20    5.80
   1  -1   7    2.90    6.30
  -1   0   7    8.30    5.80
   1  -1   7   10.00    5.60
   0   1   7   -2.90    5.70
  -2   1   7   76.59    7.10
   1  -2   7   76.69    7.80
   1   1   7   73.89    7.30
  -2   1   7   82.19    8.10
  -1  -1   7   -0.60    6.50
  -1   2   7    1.20    5.60
  -1   2   7    2.70    5.70
   2  -1   7    4.80    5.60
   2  -1   7    4.80    6.20
  -2   2   7    5.90    5.80
   2   0   7   11.30    5.90
  -2   2   7    1.60    6.40
   0  -2   7   13.00    6.30
   2   0   7   19.90    5.50
  -2   0   7    1.20    6.30
   0   2   7   -4.90    5.70
   2  -2   7   12.50    5.70
  -3   2   7   -2.10    6.70
  -3   2   7   12.80    5.90
   1  -3   7   12.00    6.80
   2   1   7   10.60    5.80
  -1  -2  -7   18.40   10.80
  -3   1   7    5.60    6.40
  -3   1   7    7.40    5.90
  -2  -1  -7   30.10   11.60
   1   2   7   11.80    5.90
   2  -3   7   10.80    6.40
  -4   2   7    2.50    5.90
  -4   2   7   -2.20    6.80
   2   2   7   -4.00    5.80
  -2  -2  -7   -6.10   11.90
   2  -4   7   -2.60    6.70
  -1  -2   7   -1.00    5.70
   3  -1   7   -7.10    5.50
   3  -1   7    9.70    6.20
  -2   3   7   -9.90    6.10
  -2   3   7   -5.30    5.90
  -3   1  -7   21.30   11.10
   3  -2   7   -3.20    5.80
  -1   3   7   -2.60    6.10
  -1   3   7   -1.50    6.00
   0  -3   7   19.50    6.30
  -3   3   7   21.50    7.00
   3   0   7   20.20    5.80
  -3   3   7   19.30    6.00
   3   0   7   19.80    6.00
  -3   0   7   30.50    6.60
   0   3   7   13.90    6.10
   0   3   7   22.50    6.30
  -3   0  -7   24.40   12.40
   3  -3   7   17.60    6.10
  -4   3   7    5.70    5.80
  -1  -3  -7   -5.10   11.00
   1  -4   7    3.00    6.60
  -4   3   7    6.30    7.10
   3   1   7    4.70    5.70
   3   1   7   -3.60    5.40
  -4   1   7    2.20    6.30
  -3  -1  -7   -1.00   12.10
   1   3   7   13.00    5.80
   1   3   7    1.00    6.10
  -4   1   7    6.50    6.00
   3  -4   7    1.50    6.30
  -5   3   7    2.30    7.20
   2  -5   7   -7.20    6.90
  -5   3   7  -10.20    5.70
   3   2   7   11.70    5.80
  -2  -3  -7   -8.40   11.70
  -5   2   7    3.70    6.40
   2   3   7    3.10    6.00
  -5   2   7   -2.10    6.00
   3  -5   7    1.60    6.90
  -3  -2  -7   12.50   12.60
  -3  -3  -7    0.60   12.90
   3   3   7    5.60    5.80
   3  -6   7  -13.70    6.80
  -6   3   7    3.00    6.60
  -2   4   7   33.90    6.60
  -4   2  -7   38.60   12.40
  -2   4   7   30.70    6.90
   4  -2   7   24.50    6.20
  -2  -2   7   17.90    6.10
  -3   4   7   30.90    6.70
  -3   4   7   29.30    7.10
   4  -1   7   35.70    6.60
  -1  -3   7   36.40    6.40
   4  -1   7   33.90    6.20
  -4   3  -7   36.80   12.50
   4  -3   7   35.20    6.60
  -1   4   7   29.00    6.60
  -1   4   7   35.50    6.90
  -4   1  -7   44.30   12.80
   0  -4  -7   14.80   11.20
   4   0   7   -2.10    5.60
  -4   4   7    7.30    5.80
   4   0   7    5.60    6.00
   0  -4   7    2.00    6.20
  -4   4   7   -1.50    7.30
  -4   4  -7    0.40   11.30
  -4   0  -7   -0.30   12.10
  -4   0   7    2.60    5.70
   0   4   7   -8.60    6.20
   4  -4   7   -8.10    5.80
   0   4   7    3.60    6.30
   4   1   7    2.70    5.70
  -4   5  -7   -1.80   11.60
  -5   4   7   -0.90    5.70
  -5   4   7    4.10    7.40
  -1  -4  -7    4.00   11.30
   1  -5   7    1.10    6.60
   4   1   7    5.90    5.60
  -4  -1  -7  -20.40   13.00
   1   4   7    0.60    6.30
   4  -5   7   -3.10    6.50
   1   4   7   -9.50    6.20
  -5   1   7    6.90    6.30
  -6   4   7  -11.30    6.50
   2  -6   7   -6.70    6.50
  -2  -4  -7   -1.90   12.40
   4   2   7    2.10    5.40
   2   4   7    2.60    6.20
   2   4   7   -9.90    6.00
  -4  -2  -7   -6.20   13.20
   4  -6   7   -4.70    7.00
  -6   2   7    0.60    6.50
  -7   4   7    9.80    6.60
  -3  -4  -7   17.30   12.60
   3  -7   7    1.10    6.60
  -7   3   7    3.40    6.40
   3   4   7    9.80    5.80
  -4  -3  -7    2.50   13.40
   4  -7   7   -6.80    6.60
   3   4   7   -1.60    5.90
  -8   4   7   -4.50    6.20
   4  -8   7   -6.20    6.10
   5  -2   7   -2.50    5.70
  -5   3  -7   -9.20   12.30
  -2  -3   7    3.00    6.10
  -3   5   7    3.40    6.30
  -3   5   7   10.60    6.70
  -5   2  -7  -16.70   11.80
   5  -3   7   -1.50    5.80
  -2   5   7  -11.50    6.80
  -5   4  -7    1.80   12.10
  -4   5   7   -5.20    6.30
   5  -1   7    2.00    5.80
  -4   5   7    0.40    7.20
  -1  -4   7    0.50    6.20
   1  -5  -7    4.50   10.40
  -1   5   7    6.10    6.70
  -5   1  -7   13.10   12.70
   5  -4   7   -3.70    5.90
  -5   5   7    5.50    6.00
   0  -5  -7   11.10   10.80
  -5   5  -7   10.40   12.00
   0  -5   7    6.40    6.60
  -5   5   7    8.30    7.60
   5   0   7    2.30    5.70
  -5   5   7    2.20    6.70
   0   5   7   11.90    6.80
  -5   0   7    0.20    6.00
  -5   0  -7   -5.00   13.40
   5  -5   7   -4.20    6.00
  -6   5   7    5.80    7.30
  -1  -5  -7    3.70   11.80
  -6   5   7    8.10    5.70
   1  -6   7    9.80    6.70
   5   1   7   13.20    5.60
   5  -6   7    0.40    6.60
  -6   1   7    8.60    6.50
  -5  -1  -7    5.80   13.10
   1   5   7    4.20    6.60
   1   5   7   20.60    6.80
  -7   5   7  -14.50    6.00
   5   2   7    2.00    5.20
   2  -7   7    2.60    6.50
  -2  -5  -7   22.50   12.00
   2   5   7    8.00    6.20
  -7   2   7   -9.10    6.40
   2   5   7    4.20    6.20
   5  -7   7   -0.60    6.90
  -5  -2  -7    1.60   13.20
  -8   5   7    1.00    6.10
   3  -8   7    4.30    6.30
   3   5   7    6.10    5.70
  -8   3   7   10.40    6.20
   5  -8   7    3.50    6.00
   3   5   7    5.70    5.90
  -9   5   7    2.00    6.00
   4  -9   7    4.00    5.90
   4   5   7    4.00    5.40
   5  -9   7   -3.60    5.50
  -9   4   7    2.70    5.70
   5 -10   7    4.10    5.20
 -10   5   7   -0.90    5.10
  -3   6   7   -2.40    7.00
   6  -3   7   -5.40    5.70
  -6   3  -7    4.10   12.90
  -3  -3   7    6.10    6.30
   6  -2   7   12.20    5.80
  -4   6   7   12.70    7.30
  -4   6   7    4.30    6.50
  -2  -4   7   16.80    6.60
  -6   4  -7   22.10   13.10
  -6   2  -7   17.60   13.20
  -2   6   7    5.90    7.00
   6  -4   7   15.00    6.00
   6  -1   7    6.90    5.70
  -5   6   7    3.00    7.70
  -5   6   7    3.10    6.30
  -6   5  -7   17.00   12.90
  -1  -5   7    6.00    6.90
  -1   6   7    0.40    6.80
  -5  -1   7    9.10    5.60
   6  -5   7    6.20    6.00
  -6   1  -7   19.40   13.60
   0  -6   7   19.10    7.10
  -6   6   7   27.70    5.90
   6   0   7   28.30    5.90
  -6   6   7   16.20    7.80
  -6   6   7   11.70    6.90
   0   6   7   16.20    7.00
   6  -6   7   17.50    6.50
  -6   0   7   11.00    6.10
  -6   0  -7   17.80   13.60
  -7   6   7    1.00    6.90
   6   1   7   -5.50    5.40
  -7   6   7   -6.60    6.80
   1  -7   7   -1.50    6.80
   1   6   7  -16.00    6.30
  -7   1   7   -2.60    6.00
   6  -7   7  -17.70    6.40
   1   6   7    4.70    6.60
  -8   6   7   11.60    6.40
  -2  -6  -7    6.90    5.50
   2  -8   7    2.20    6.70
   6   2   7    0.40    5.20
   2   6   7    6.90    5.90
   6  -8   7   -1.90    6.00
  -8   2   7    8.10    6.20
   2   6   7    1.80    6.20
   3  -9   7   15.10    6.50
  -3  -6  -7   22.40    6.00
   6   3   7   -2.40    4.90
  -9   6   7   11.80    5.90
   3   6   7   20.10    5.90
  -9   3   7   16.80    5.80
   6  -9   7    7.20    5.50
 -10   6   7   -2.20    5.20
   4 -10   7   -0.30    5.40
   4   6   7   -0.50    5.00
 -10   4   7    2.80    4.80
   6 -10   7    5.60    4.70
  -7   4  -7   13.50   13.20
   7  -3   7    8.70    5.70
  -4   7   7   18.00    7.20
  -3  -4   7   10.70    6.40
   7  -4   7   21.20    5.90
  -7   3  -7   14.30   13.60
  -3   7   7   18.40    7.50
   7  -2   7   -1.60    5.70
  -5   7   7    9.00    7.40
  -5   7   7    4.20    6.40
  -2  -5   7    8.60    6.90
  -7   5  -7   20.70   12.80
  -2   7   7    7.50    7.10
  -7   2  -7   -2.40   12.70
   7  -5   7    4.40    6.00
  -6   7   7   21.30    7.90
  -6   7   7   16.70    6.20
  -6   7   7    9.50    6.60
   7  -1   7   26.20    5.90
  -1  -6   7    9.40    7.00
  -6  -1   7    8.50    5.50
   7  -6   7    8.30    5.70
  -1   7   7    8.10    6.90
  -7   7   7   -4.30    7.10
  -7   7   7    2.80    6.80
   7   0   7   15.40    5.60
   0  -7   7   -3.30    6.70
  -7   0   7    2.80    5.80
   7  -7   7    1.70    5.90
   0   7   7   13.00    6.80
  -8   7   7   -2.10    5.70
   1  -8   7   -1.70    6.60
  -1  -7  -7    2.40    5.40
  -8   7   7   -5.30    6.80
   7   1   7    3.60    5.30
   7  -8   7    2.10    6.00
   1   7   7    0.80    6.00
  -8   1   7    2.90    5.70
   1   7   7   12.20    6.40
   2  -9   7   12.30    6.40
  -2  -7  -7   18.10    5.50
  -9   7   7   10.00    5.80
   7   2   7    2.00    4.90
  -9   2   7    7.10    5.60
   2   7   7   24.20    6.00
   7  -9   7    6.50    5.10
   2   7   7   16.40    5.40
 -10   7   7   -5.90    5.00
  -3  -7  -7    5.00    4.60
   7   3   7   -8.20    4.30
   3 -10   7   -3.70    5.40
   7 -10   7    1.90    4.50
   3   7   7    2.30    5.10
 -10   3   7   -0.80    4.60
  -4   8   7   14.80    7.20
  -4  -4   7    0.20    5.70
   8  -4   7   15.80    5.70
  -3  -5   7  -11.80    5.60
  -5   8   7   10.70    7.20
   8  -3   7    5.40    5.40
  -3   8   7   -2.20    7.00
   8  -5   7   -4.70    5.40
  -2  -6   7    5.40    6.30
  -6   8   7    0.10    7.30
   8  -2   7   -4.00    5.50
  -6   8   7  -12.00    5.80
   8  -6   7   -6.00    5.40
  -2   8   7  -13.20    6.60
  -1  -7   7   13.80    6.60
  -7   8   7   10.50    6.40
  -7   8   7   -3.60    7.10
   8  -1   7    8.90    5.30
  -7  -1   7   13.60    5.00
  -1   8   7    5.10    6.40
   8  -7   7    5.40    5.50
  -8   8   7   -3.60    6.10
   0  -8   7    3.90    6.40
  -8   8   7   -0.60    6.40
   8   0   7    5.50    5.10
   8  -8   7   -3.60    5.50
   0   8   7   -0.30    6.00
  -8   0   7   -1.10    5.00
   1  -9   7    7.40    6.00
  -1  -8  -7    3.50    5.30
   8   1   7   -2.90    4.80
  -9   8   7    0.20    5.60
   1   8   7   -3.50    5.60
  -9   1   7   -1.80    4.80
   1   8   7    2.50    5.20
   8  -9   7   -5.60    4.70
  -4  -5   7    0.20    5.50
   9  -4   7  -11.20    5.10
  -5   9   7    0.10    6.70
  -4   9   7   -6.30    6.10
  -5  -4   7   -2.90    5.70
   9  -5   7    7.50    5.10
  -6   9   7   -9.20    5.40
  -3  -6   7    0.00    5.70
   9  -3   7    2.00    5.00
  -6   9   7  -10.20    6.80
  -3   9   7    0.30    6.40
   9  -6   7   -9.20    5.00
  -7   9   7   -7.30    6.00
  -2  -7   7   -5.40    5.60
   9  -2   7   -4.70    5.00
  -7   9   7   -3.00    5.10
  -7   9   7    0.30    6.80
   9  -7   7   -3.00    4.90
  -7  -2   7   -9.40    4.10
  -2   9   7   -1.80    5.90
  -8   9   7   -2.20    5.80
   9  -1   7   10.20    5.00
  -1  -8   7   -1.10    5.40
  -8   9   7   10.40    5.70
   9  -8   7   -2.00    5.00
  -8  -1   7   -6.60    4.50
  -1   9   7    3.10    5.60
   0  -9   7    4.90    5.00
   9   0   7    0.80    4.60
   0  -9  -7    8.40    4.90
   9  -9   7    2.50    4.40
  -9   0   7   -5.80    4.20
  -5  10   7    5.10    5.90
  10  -5   7    3.80    4.60
  -5  -5   7   -5.70    4.60
  -4  -6   7    2.40    5.10
  -6  10   7   -1.40    6.00
  -6  10   7   -2.70    5.00
  10  -4   7   -1.70    4.50
  10  -6   7    4.60    4.50
  -4  10   7    5.30    5.40
  -7  10   7   -2.10    5.80
  10  -3   7    1.40    4.60
  -3  -7   7   -3.00    5.00
  -7  10   7    3.30    4.60
  10  -7   7    2.90    4.40
  -3  10   7    7.90    5.40
   0   0   8   -0.20    6.00
  -1   1   8   -2.40    5.80
   1   0   8   -7.10    5.80
  -1   0   8   11.20    6.20
   0   1   8    0.00    5.70
   1   1   8   27.30    6.00
   1  -2   8   10.20    5.80
  -2   1   8   17.50    6.10
  -1  -1  -8   24.80   10.80
  -1   2   8   44.40    6.50
  -2   1  -8   35.00   11.40
   2  -1   8   34.20    6.00
   0  -2   8   12.00    5.50
   2   0   8    7.80    6.10
  -2   2   8   16.00    5.70
   0   2   8    9.20    5.60
  -2   0  -8   11.80   11.70
   2  -2   8   16.60    6.00
   1  -3   8   -4.30    5.50
  -1  -2  -8    6.50   11.50
   2   1   8   -4.80    5.60
  -3   2   8   -2.10    5.70
  -3   2   8  -12.20    5.00
   1   2   8    5.50    5.50
   2  -3   8    9.60    6.10
  -3   1   8   10.20    6.10
  -2  -1  -8    9.30   12.00
   2   2   8    8.70    5.50
  -2  -2  -8   18.60   11.70
   2  -4   8   -2.60    5.80
  -4   2   8   10.90    5.80
  -4   2   8    5.70    5.30
   3  -1   8   -4.60    5.00
  -2   3   8   -6.20    5.60
  -2   3   8    3.60    5.70
  -3   2  -8  -21.50   11.80
   3  -2   8   -3.90    5.40
  -1   3   8    8.10    5.60
  -3   1  -8    1.10   12.10
  -1   3   8    2.10    5.60
  -3   3   8    4.80    5.80
   3   0   8   -0.70    5.00
   0  -3  -8  -11.60   10.70
   0  -3   8   -2.20    5.40
  -3   3   8   -5.90    5.50
  -3   3  -8   -7.70   11.30
   3   0   8    2.30    5.80
   0   3   8   -1.40    5.60
   3  -3   8   -1.50    5.80
  -3   0  -8    4.80   11.50
  -1  -3  -8    7.90   11.40
   1  -4   8    0.20    5.60
  -4   3   8   -4.60    5.60
  -4   3   8    1.20    5.50
  -3   4  -8   -8.20   11.00
   3   1   8   -1.90    5.50
   1   3   8    4.50    5.60
   3  -4   8   -3.50    6.10
  -3  -1  -8    8.20   11.90
  -4   1   8    1.10    5.00
  -3   5  -8    7.40   10.60
  -2  -3  -8   24.50   11.90
   2  -5   8    4.80    5.70
  -5   3   8    9.40    5.50
  -5   3   8   -3.00    5.50
   3   2   8    4.40    5.20
   3  -5   8    1.30    5.70
   2   3   8    8.10    5.30
  -5   2   8    1.30    5.20
  -3  -2  -8   -6.10   12.00
   3  -6   8   -4.50    5.30
  -3  -3  -8   13.20   11.70
  -6   3   8   -2.10    5.30
   3   3   8   -3.30    4.80
  -4   2  -8    0.00   11.80
  -2   4   8   -4.40    5.60
   4  -2   8    9.10    5.30
  -2   4   8    9.40    5.90
   1  -4  -8    3.20   10.10
  -3   4   8    6.70    6.10
  -3   4   8   -1.50    5.40
  -4   3  -8  -11.10   11.80
   4  -1   8   -3.90    5.20
  -1  -3   8   -6.10    5.30
  -1   4   8    0.50    5.80
  -1   4   8    6.40    5.50
   4  -3   8    2.40    5.50
  -4   1  -8   -4.20   11.70
   0  -4   8   -2.30    5.60
  -4   4  -8   -8.50   11.40
  -4   4   8    1.40    6.00
   0  -4  -8   -6.50   10.40
  -4   4   8    3.40    5.40
   4   0   8    0.10    5.10
   0   4   8  -13.20    5.50
   0   4   8   -6.90    5.20
  -4   0  -8   -5.40   12.40
   4  -4   8   -4.30    5.70
  -5   4   8    2.70    5.30
  -1  -4  -8   12.30   11.10
  -5   4   8    0.40    5.30
   1  -5   8    5.60    5.60
   4   1   8    4.40    5.40
  -4   5  -8   -3.40   10.90
  -5   1   8   -5.00    5.00
   1   4   8    1.10    5.40
  -4  -1  -8   10.30   12.60
   4  -5   8    1.50    6.00
   2  -6   8   -3.80    5.50
  -2  -4  -8   16.30   11.00
  -6   4   8    8.80    5.50
   2   4   8    4.80    5.30
   4  -6   8    3.90    5.40
  -4  -2  -8    7.90   11.70
  -6   2   8   -3.80    5.20
   3  -7   8    0.10    5.10
  -7   4   8   -3.50    5.10
  -7   3   8   -5.30    5.00
   4  -7   8   -0.60    5.00
   3   4   8  -10.40    4.40
   4  -8   8    4.20    4.70
  -8   4   8    5.30    4.80
  -3   5   8    1.80    6.10
   5  -2   8    3.60    5.30
   2  -5  -8   14.50    9.70
  -5   3  -8    2.40   12.40
  -3   5   8   -9.00    5.50
  -5   2  -8   16.30   12.40
   5  -3   8    1.30    5.10
  -2   5   8   -0.30    5.80
  -2   5   8    2.90    5.80
   1  -5  -8   13.40    9.60
   5  -1   8    5.90    5.20
  -5   4  -8   -7.90   11.70
  -4   5   8   -0.60    5.30
  -4   5   8   -4.30    6.20
  -1  -4   8   -1.90    6.00
  -1   5   8   -5.80    5.40
   5  -4   8   -9.60    5.20
  -5   1  -8    4.50   12.20
  -1   5   8    0.60    5.80
  -5   5   8    5.80    6.10
  -5   5  -8    7.10   11.30
   0  -5  -8    2.30   10.20
  -5   5   8    2.10    5.10
   5   0   8    1.00    5.00
   0  -5   8    5.60    5.90
   5  -5   8    8.40    5.70
   0   5   8    2.70    5.50
   0   5   8    4.20    5.70
  -5   0  -8   -3.70   12.30
   5   1   8   -2.90    4.80
  -1  -5  -8   -6.30   10.40
  -6   5   8   -3.70    4.80
  -6   5   8   -6.70    5.10
   1  -6   8    6.90    5.70
   1   5   8   -1.30    5.30
  -6   1   8    5.60    4.90
   1   5   8   -1.80    5.20
   5  -6   8    0.20    5.40
  -5  -1  -8  -19.70   11.90
  -7   5   8    0.00    5.10
   2  -7   8    9.10    5.50
   2   5   8    9.30    4.90
   5  -7   8   -2.70    4.90
  -7   2   8   -4.90    4.80
   3  -8   8    6.20    5.10
  -8   5   8    3.10    4.80
  -8   3   8    5.90    4.60
   5  -8   8    5.40    4.50
   6  -3   8   -3.80    4.90
  -3   6   8   -2.20    5.90
  -3   6   8    3.70    5.50
  -6   3  -8    5.60   12.10
  -2  -4   8    1.00    5.40
  -4   6   8    4.60    6.10
   6  -2   8   -1.10    5.10
  -6   4  -8   11.10   12.00
  -4   6   8   -1.40    5.40
  -6   2  -8    5.50   12.30
  -2   6   8   -2.80    5.80
   6  -4   8   -4.40    5.00
  -2   6   8    2.10    5.60
  -5   6   8    2.50    5.00
  -5   6   8    1.10    5.90
  -1  -5   8    3.20    5.80
   6  -1   8    6.30    5.00
  -6   5  -8   13.00   11.50
   6  -5   8   -6.60    5.10
  -1   6   8   -2.60    5.80
  -1   6   8    2.40    5.50
  -6   1  -8    3.60   11.90
  -6   6   8    2.60    5.30
   6   0   8    3.90    4.90
   0  -6   8   11.90    5.80
  -6   6   8   16.30    4.70
   6  -6   8    9.70    5.30
   0   6   8    2.30    5.30
   0   6   8   -1.40    5.40
  -6   0   8   -0.70    4.70
  -7   6   8   -2.80    5.00
   6   1   8    9.30    4.50
   1  -7   8   -3.80    5.40
  -7   1   8    1.80    4.40
   1   6   8    0.20    4.80
   1   6   8   -2.70    5.10
   6  -7   8    4.50    4.80
  -8   6   8   -7.30    4.60
   2  -8   8   -3.90    5.00
  -8   2   8   -2.40    4.30
   6  -8   8    8.20    4.30
   2   6   8    4.20    4.60
   2   6   8   -1.80    4.10
   7  -3   8   -6.50    4.70
  -4   7   8   11.10    5.90
  -4   7   8    1.20    5.10
  -3   7   8   -5.10    5.50
   7  -4   8    5.30    4.70
  -3   7   8  -12.10    5.60
  -5   7   8    5.00    6.00
  -5   7   8    1.00    4.80
  -2  -5   8    0.70    5.20
   7  -2   8   -0.50    4.70
  -2   7   8  -11.70    5.20
   7  -5   8   -9.40    4.60
  -2   7   8   -4.40    5.70
   7  -1   8   -3.30    4.70
  -6   7   8    9.20    4.50
  -6   7   8   -7.60    5.50
  -1  -6   8    4.70    5.30
   7  -6   8   -2.20    4.80
  -1   7   8    7.20    5.00
  -1   7   8    4.50    5.50
   0  -7   8   -3.70    5.00
  -7   7   8   -0.10    4.70
   7   0   8   -2.20    4.30
   0  -7  -8    7.60    4.10
   7  -7   8   -5.80    4.30
   0   7   8    5.10    4.80
   0   7   8   -0.70    5.00
  -7   0   8   -4.80    3.70
  -4   8   8    4.90    5.00
   8  -4   8   -0.60    4.30
  -4   8   8   -3.70    5.50
  -5   8   8   19.50    4.70
  -5   8   8    7.70    5.50
   8  -3   8   10.10    4.50
  -3  -5   8    4.70    4.60
  -3   8   8    7.80    5.30
   8  -5   8   11.30    4.40
  -3   8   8   -5.30    5.10
   8  -2   8   -1.80    4.30
  -6   8   8   -4.80    5.10
  -6   8   8    2.30    4.00
  -2  -6   8   -3.90    4.40
  -2   8   8   -1.50    4.60
   8  -6   8   -0.30    4.20
  -2   8   8    7.80    5.10
  -1   1  -9   -0.90    9.20
   0  -1  -9    0.30    9.10
  -1   0  -9   11.60    9.80
  -1  -1  -9   -5.80    9.30
  -1   2  -9   16.40    8.90
   1  -2  -9   13.00    8.60
  -1   2   9    8.20    5.00
  -2   1  -9   10.50   10.00
  -2   2  -9  -16.30    9.20
   0  -2  -9   -5.20    8.90
   0   2   9    3.80    4.90
  -2   0  -9  -17.90    9.40
  -2   3  -9   -1.60    9.50
  -1  -2  -9   -1.10    9.10
   1  -3   9   -0.20    4.10
   2  -3   9   -2.00    4.10
  -2  -1  -9    1.10    9.60
   1   2   9    7.80    4.90
  -1   3  -9   -6.80    8.50
  -2  -2  -9   14.40    9.60
  -2   4  -9   -3.60    9.00
   2  -4   9    7.90    4.30
   2   2   9    7.30    4.60
   1  -3  -9   -0.70    8.50
  -3   2  -9   16.40    9.60
  -2   3   9    1.00    4.80
  -3   1  -9    3.20    9.90
  -1   3   9    2.40    4.80
   3  -2   9   -4.90    4.30
   2  -3  -9   -3.50    7.80
   0  -3  -9    3.30    8.30
  -3   3  -9   14.40    9.30
  -3   3   9   13.70    4.80
   0   3   9   10.60    4.90
   3  -3   9    2.30    4.20
  -3   0  -9   15.10   10.30
   1  -4   9   12.30    4.20
  -4   3   9    3.50    4.20
  -3   4  -9  -16.40    8.80
  -1  -3  -9   13.60    9.10
   1   3   9   11.30    4.80
  -3  -1  -9    8.10    9.90
  -1   4  -9   -7.40    7.80
   3  -4   9    2.80    4.20
  -5   3   9   -1.70    3.60
   2  -5   9    0.00    3.90
  -3   5  -9   -5.70    8.10
  -2  -3  -9   14.10    8.80
  -2   5  -9   -1.40    7.80
  -3  -2  -9    0.40    9.30
   3  -5   9   -4.70    3.90
   2   3   9    4.70    4.30
  -2   4   9   -8.10    4.60
   2  -4  -9   -7.60    7.60
  -4   2  -9  -11.50   10.00
   4  -2   9   -3.40    4.30
  -3   4   9    3.40    3.90
  -3   4   9    3.30    4.60
   1  -4  -9   11.00    8.00
  -4   3  -9    0.00    9.80
   3  -4  -9  -13.30    7.10
  -4   1  -9   -2.20   10.40
  -1   4   9    2.10    4.50
   4  -3   9   -1.40    4.30
  -4   4   9   -3.30    3.80
   0  -4  -9    2.40    8.10
   0  -4   9    4.20    4.30
  -4   4  -9   -6.90    9.00
  -4   4   9   -1.70    4.40
   4  -4   9   -0.20    4.10
  -4   0  -9    0.80   10.00
   0   4   9   -4.30    4.40
  -1  -4  -9  -10.50    8.10
   1  -5   9   -2.50    4.10
  -5   4   9    0.30    3.60
  -4  -1  -9    2.40    9.40
  -1   5  -9    1.50    7.60
   4  -5   9    3.30    3.80
   1   4   9    2.90    4.30
  -3   5   9    7.00    4.30
   5  -2   9    5.00    4.10
  -5   3  -9   13.60    9.80
  -3   5   9    4.40    4.30
   5  -3   9    1.10    4.20
  -2   5   9    5.40    4.20
  -5   2  -9   -8.70    9.50
  -2   5   9    1.60    4.40
  -4   5   9    8.40    3.70
  -4   5   9    6.70    4.20
   5  -1   9   -4.40    3.80
  -5   4  -9    1.00    9.00
  -1   5   9    5.40    4.30
   5  -4   9    3.20    4.10
  -5   1  -9  -10.60    9.30

_computing_structure_solution     'SHELXT 2014/4 (Sheldrick, 2014)'
;
_shelx_hkl_checksum              65384
_shelx_fab_file
;
0 0 1 -31.6598 0.0000
0 0 2 48.4360 0.0000
0 0 3 -10.8733 0.0000
0 0 5 1.4101 0.0000
0 0 6 -0.5084 0.0000
0 0 7 -1.5633 0.0000
0 0 8 -1.0975 0.0000
1 0 1 20.7342 0.0000
1 0 3 9.2707 0.0000
1 0 4 0.9999 0.0000
1 0 5 -0.4078 0.0000
1 0 6 0.8618 0.0000
1 0 7 0.0057 0.0000
1 0 8 -1.2931 0.0000
1 0 9 -0.8556 0.0000
1 1 -9 1.1860 0.0000
1 1 -8 2.2536 0.0000
1 1 -7 1.3882 0.0000
1 1 -6 0.5848 0.0000
1 1 -5 0.8296 0.0000
1 1 -4 3.7905 0.0000
1 1 -3 -17.5172 0.0000
1 1 -2 21.7844 0.0000
1 1 0 40.0751 0.0000
1 1 1 -46.6379 0.0000
1 1 4 3.0493 0.0000
1 1 5 -1.6801 0.0000
1 1 6 -1.7564 0.0000
1 1 7 -0.5050 0.0000
1 1 8 0.3674 0.0000
1 1 9 -0.0832 0.0000
2 0 0 -24.5879 0.0000
2 0 2 -17.0582 0.0000
2 0 3 2.6233 0.0000
2 0 4 -2.1948 0.0000
2 0 5 -1.9980 0.0000
2 0 6 0.8648 0.0000
2 0 7 0.7877 0.0000
2 0 8 0.7450 0.0000
2 0 9 0.7098 0.0000
2 1 -9 1.6651 0.0000
2 1 -8 1.2648 0.0000
2 1 -7 2.2153 0.0000
2 1 -6 1.9268 0.0000
2 1 -5 -0.5763 0.0000
2 1 -4 -0.2711 0.0000
2 1 -3 -0.0467 0.0000
2 1 2 -8.6319 0.0000
2 1 3 -0.0575 0.0000
2 1 4 -2.5604 0.0000
2 1 5 -2.7491 0.0000
2 1 6 -1.0704 0.0000
2 1 7 -0.1859 0.0000
2 1 8 0.2192 0.0000
2 1 9 0.4203 0.0000
2 2 -9 1.0217 0.0000
2 2 -8 0.9672 0.0000
2 2 -7 0.4533 0.0000
2 2 -6 0.1551 0.0000
2 2 -5 2.0630 0.0000
2 2 -4 -1.1002 0.0000
2 2 -3 -2.6639 0.0000
2 2 0 15.1540 0.0000
2 2 2 6.9027 0.0000
2 2 3 -3.1269 0.0000
2 2 5 -0.6480 0.0000
2 2 6 0.0190 0.0000
2 2 7 0.0409 0.0000
2 2 8 0.1414 0.0000
2 2 9 1.3275 0.0000
3 0 0 23.4195 0.0000
3 0 1 -25.4185 0.0000
3 0 2 13.1866 0.0000
3 0 3 -6.0805 0.0000
3 0 4 0.2536 0.0000
3 0 5 0.5423 0.0000
3 0 6 -0.4341 0.0000
3 0 7 -0.0261 0.0000
3 0 8 0.0033 0.0000
3 0 9 0.7676 0.0000
3 1 -9 -0.4636 0.0000
3 1 -8 -0.4699 0.0000
3 1 -7 0.1263 0.0000
3 1 -6 0.7649 0.0000
3 1 -5 -1.3380 0.0000
3 1 -4 1.2611 0.0000
3 1 -3 3.1186 0.0000
3 1 -2 -3.7086 0.0000
3 1 0 -5.7430 0.0000
3 1 1 9.2915 0.0000
3 1 3 3.0607 0.0000
3 1 4 -0.4526 0.0000
3 1 5 -0.2630 0.0000
3 1 6 0.0972 0.0000
3 1 7 -0.1709 0.0000
3 1 8 -0.0069 0.0000
3 1 9 -0.2592 0.0000
3 2 -9 0.2893 0.0000
3 2 -8 -0.4365 0.0000
3 2 -7 0.2962 0.0000
3 2 -6 -0.7110 0.0000
3 2 -5 -1.9393 0.0000
3 2 -4 0.3777 0.0000
3 2 -3 -0.1810 0.0000
3 2 -2 1.0625 0.0000
3 2 -1 1.8564 0.0000
3 2 0 2.9904 0.0000
3 2 1 0.8989 0.0000
3 2 2 2.4331 0.0000
3 2 4 1.1075 0.0000
3 2 5 1.8704 0.0000
3 2 6 0.5967 0.0000
3 2 7 0.8702 0.0000
3 2 8 1.0209 0.0000
3 2 9 0.5655 0.0000
3 3 -8 0.6684 0.0000
3 3 -7 -0.1845 0.0000
3 3 -6 -0.5960 0.0000
3 3 -5 0.2876 0.0000
3 3 -4 -3.1547 0.0000
3 3 -3 1.9075 0.0000
3 3 -2 -2.7019 0.0000
3 3 0 -4.4521 0.0000
3 3 1 5.6521 0.0000
3 3 2 -4.7509 0.0000
3 3 3 3.1052 0.0000
3 3 4 0.8106 0.0000
3 3 5 0.4253 0.0000
3 3 6 1.8629 0.0000
3 3 7 0.5650 0.0000
3 3 8 0.7774 0.0000
4 0 0 6.6386 0.0000
4 0 1 4.0839 0.0000
4 0 3 1.1377 0.0000
4 0 4 1.9282 0.0000
4 0 5 -0.0168 0.0000
4 0 6 -0.4256 0.0000
4 0 7 -0.4536 0.0000
4 0 8 -1.2742 0.0000
4 0 9 -0.8568 0.0000
4 1 -9 -0.1486 0.0000
4 1 -8 -1.0197 0.0000
4 1 -7 -0.9007 0.0000
4 1 -6 -1.0721 0.0000
4 1 -5 0.7089 0.0000
4 1 -4 -2.3418 0.0000
4 1 -3 2.5144 0.0000
4 1 -2 2.2646 0.0000
4 1 -1 1.8920 0.0000
4 1 0 5.5900 0.0000
4 1 1 2.4022 0.0000
4 1 2 0.1237 0.0000
4 1 3 2.5314 0.0000
4 1 4 0.2060 0.0000
4 1 5 1.0837 0.0000
4 1 6 0.9276 0.0000
4 1 7 0.0605 0.0000
4 1 8 -0.3971 0.0000
4 1 9 0.2238 0.0000
4 2 -8 0.1140 0.0000
4 2 -7 0.1761 0.0000
4 2 -6 -0.4399 0.0000
4 2 -5 -1.0456 0.0000
4 2 -4 0.2235 0.0000
4 2 -3 -1.4997 0.0000
4 2 -2 1.2477 0.0000
4 2 -1 0.0835 0.0000
4 2 0 1.3465 0.0000
4 2 1 -0.5711 0.0000
4 2 2 -1.0647 0.0000
4 2 3 0.9680 0.0000
4 2 4 -0.3481 0.0000
4 2 5 1.9168 0.0000
4 2 6 0.2997 0.0000
4 2 7 0.9523 0.0000
4 2 8 0.5811 0.0000
4 3 -8 0.1015 0.0000
4 3 -7 0.3392 0.0000
4 3 -6 0.1878 0.0000
4 3 -5 0.6835 0.0000
4 3 -4 0.5350 0.0000
4 3 -3 0.3841 0.0000
4 3 -2 -0.3494 0.0000
4 3 -1 0.0829 0.0000
4 3 0 -1.1652 0.0000
4 3 1 -1.8003 0.0000
4 3 2 -0.0482 0.0000
4 3 3 -0.2009 0.0000
4 3 4 -0.5928 0.0000
4 3 5 0.7284 0.0000
4 3 6 -0.0118 0.0000
4 3 7 -0.1843 0.0000
4 3 8 0.3635 0.0000
4 4 -8 -0.4481 0.0000
4 4 -7 -0.7184 0.0000
4 4 -6 0.3051 0.0000
4 4 -5 -0.0753 0.0000
4 4 -4 1.2158 0.0000
4 4 -3 -0.2600 0.0000
4 4 -2 0.4995 0.0000
4 4 -1 0.0048 0.0000
4 4 0 -4.0129 0.0000
4 4 1 0.2829 0.0000
4 4 2 -1.6869 0.0000
4 4 3 -0.4681 0.0000
4 4 4 -0.1385 0.0000
4 4 5 0.1056 0.0000
4 4 6 -0.5795 0.0000
4 4 7 -0.4024 0.0000
4 4 8 -0.2574 0.0000
5 0 0 0.6189 0.0000
5 0 1 3.1753 0.0000
5 0 2 -0.9202 0.0000
5 0 3 1.0336 0.0000
5 0 4 0.0205 0.0000
5 0 5 0.0930 0.0000
5 0 6 -0.3193 0.0000
5 0 7 -0.1882 0.0000
5 0 8 -0.4641 0.0000
5 1 -8 0.2180 0.0000
5 1 -7 -0.2759 0.0000
5 1 -6 0.0695 0.0000
5 1 -5 -0.5128 0.0000
5 1 -4 0.3437 0.0000
5 1 -3 -0.4494 0.0000
5 1 -2 -0.6072 0.0000
5 1 -1 1.6149 0.0000
5 1 0 -0.6742 0.0000
5 1 1 -1.4451 0.0000
5 1 2 -0.9099 0.0000
5 1 3 -1.7511 0.0000
5 1 4 0.5777 0.0000
5 1 5 0.2837 0.0000
5 1 6 0.3039 0.0000
5 1 7 0.2363 0.0000
5 1 8 1.3147 0.0000
5 2 -8 -0.2460 0.0000
5 2 -7 0.3058 0.0000
5 2 -6 0.3336 0.0000
5 2 -5 1.4509 0.0000
5 2 -4 0.2409 0.0000
5 2 -3 1.0435 0.0000
5 2 -2 -0.4527 0.0000
5 2 -1 2.7332 0.0000
5 2 0 -2.9408 0.0000
5 2 1 1.6474 0.0000
5 2 2 -2.9998 0.0000
5 2 3 -0.4106 0.0000
5 2 4 0.0096 0.0000
5 2 5 -0.3736 0.0000
5 2 6 0.1262 0.0000
5 2 7 0.4686 0.0000
5 2 8 0.6060 0.0000
5 3 -8 -0.5596 0.0000
5 3 -7 0.0209 0.0000
5 3 -6 -0.3527 0.0000
5 3 -5 1.4652 0.0000
5 3 -4 0.5224 0.0000
5 3 -3 0.7217 0.0000
5 3 -2 0.4957 0.0000
5 3 -1 -0.0148 0.0000
5 3 0 -1.1231 0.0000
5 3 1 -0.0107 0.0000
5 3 2 -1.2281 0.0000
5 3 3 0.3576 0.0000
5 3 4 -0.5974 0.0000
5 3 5 -0.1072 0.0000
5 3 6 0.1733 0.0000
5 3 7 -0.6971 0.0000
5 3 8 -0.7338 0.0000
5 4 -7 -0.3611 0.0000
5 4 -6 -1.0443 0.0000
5 4 -5 -0.1470 0.0000
5 4 -4 -0.7746 0.0000
5 4 -3 0.6148 0.0000
5 4 -2 -0.9605 0.0000
5 4 -1 0.7950 0.0000
5 4 1 0.2970 0.0000
5 4 2 -0.6648 0.0000
5 4 3 0.2476 0.0000
5 4 4 0.3918 0.0000
5 4 5 0.2375 0.0000
5 4 6 0.4729 0.0000
5 4 7 -0.9985 0.0000
5 5 -7 -0.8248 0.0000
5 5 -6 0.2792 0.0000
5 5 -5 -0.9713 0.0000
5 5 -4 -0.3436 0.0000
5 5 -3 -0.4674 0.0000
5 5 -2 0.7740 0.0000
5 5 -1 0.4201 0.0000
5 5 0 -0.0886 0.0000
5 5 1 0.6568 0.0000
5 5 2 0.4076 0.0000
5 5 3 0.6136 0.0000
5 5 4 0.2263 0.0000
5 5 5 1.4293 0.0000
5 5 6 0.2238 0.0000
5 5 7 0.1758 0.0000
6 0 0 -2.4061 0.0000
6 0 1 0.0499 0.0000
6 0 2 -2.0238 0.0000
6 0 3 0.0365 0.0000
6 0 4 -0.5393 0.0000
6 0 5 0.4220 0.0000
6 0 6 -0.3157 0.0000
6 0 7 0.8941 0.0000
6 0 8 0.4024 0.0000
6 1 -8 0.3241 0.0000
6 1 -7 0.4783 0.0000
6 1 -6 -0.0658 0.0000
6 1 -5 1.1312 0.0000
6 1 -4 -0.0278 0.0000
6 1 -3 0.6416 0.0000
6 1 -2 0.8118 0.0000
6 1 -1 0.4007 0.0000
6 1 0 -0.0539 0.0000
6 1 1 -0.4250 0.0000
6 1 2 -2.1986 0.0000
6 1 3 0.6552 0.0000
6 1 4 -1.2097 0.0000
6 1 5 0.4052 0.0000
6 1 6 0.0091 0.0000
6 1 7 0.8761 0.0000
6 1 8 0.4920 0.0000
6 2 -8 0.0382 0.0000
6 2 -7 -0.5276 0.0000
6 2 -6 0.8879 0.0000
6 2 -5 0.2283 0.0000
6 2 -4 1.0579 0.0000
6 2 -3 0.9438 0.0000
6 2 -2 -0.7994 0.0000
6 2 -1 3.5674 0.0000
6 2 0 -1.8460 0.0000
6 2 1 2.4103 0.0000
6 2 2 -0.8562 0.0000
6 2 3 0.2563 0.0000
6 2 4 -0.0585 0.0000
6 2 5 0.1362 0.0000
6 2 6 0.4454 0.0000
6 2 7 -0.9989 0.0000
6 2 8 0.3037 0.0000
6 3 -7 -0.6340 0.0000
6 3 -6 0.1519 0.0000
6 3 -5 0.0314 0.0000
6 3 -4 0.7849 0.0000
6 3 -3 -0.5263 0.0000
6 3 -2 0.6641 0.0000
6 3 -1 -0.7359 0.0000
6 3 0 0.1696 0.0000
6 3 1 0.3273 0.0000
6 3 2 1.2006 0.0000
6 3 3 0.0930 0.0000
6 3 4 0.3948 0.0000
6 3 5 1.2119 0.0000
6 3 6 -0.7087 0.0000
6 3 7 -0.7989 0.0000
6 4 -7 0.4600 0.0000
6 4 -6 -0.6472 0.0000
6 4 -5 0.2763 0.0000
6 4 -4 0.4392 0.0000
6 4 -3 -0.1428 0.0000
6 4 -2 0.7097 0.0000
6 4 -1 -0.2696 0.0000
6 4 0 -0.0771 0.0000
6 4 1 0.3603 0.0000
6 4 2 1.0858 0.0000
6 4 3 -0.2069 0.0000
6 4 4 1.5020 0.0000
6 4 5 -0.0034 0.0000
6 4 6 0.7374 0.0000
6 4 7 -0.1158 0.0000
6 5 -6 0.0058 0.0000
6 5 -5 0.5631 0.0000
6 5 -4 -0.0939 0.0000
6 5 -3 -0.0239 0.0000
6 5 -2 0.8793 0.0000
6 5 -1 0.1393 0.0000
6 5 0 1.4178 0.0000
6 5 1 0.0150 0.0000
6 5 2 1.3279 0.0000
6 5 3 -0.3902 0.0000
6 5 4 0.7957 0.0000
6 5 5 0.7954 0.0000
6 5 6 0.9727 0.0000
6 6 -5 0.1463 0.0000
6 6 -4 -0.9488 0.0000
6 6 -3 0.1240 0.0000
6 6 -2 -0.5744 0.0000
6 6 -1 0.6079 0.0000
6 6 0 0.3300 0.0000
6 6 1 0.3924 0.0000
6 6 2 0.5415 0.0000
6 6 3 -0.8470 0.0000
6 6 4 1.0261 0.0000
6 6 5 0.2522 0.0000
7 0 0 -3.5968 0.0000
7 0 1 2.6102 0.0000
7 0 2 -0.9770 0.0000
7 0 3 0.0631 0.0000
7 0 4 0.6156 0.0000
7 0 5 -1.0345 0.0000
7 0 6 1.1428 0.0000
7 0 7 -0.2870 0.0000
7 0 8 1.1809 0.0000
7 1 -7 0.3807 0.0000
7 1 -6 -0.3995 0.0000
7 1 -5 0.2997 0.0000
7 1 -4 -0.8557 0.0000
7 1 -3 -0.1851 0.0000
7 1 -2 1.0239 0.0000
7 1 -1 0.4897 0.0000
7 1 0 0.5277 0.0000
7 1 1 -0.1507 0.0000
7 1 2 0.9208 0.0000
7 1 3 -0.2866 0.0000
7 1 4 -0.1453 0.0000
7 1 5 0.7530 0.0000
7 1 6 -0.3186 0.0000
7 1 7 0.2264 0.0000
7 2 -7 0.1615 0.0000
7 2 -6 -0.4809 0.0000
7 2 -5 0.1965 0.0000
7 2 -4 -0.2017 0.0000
7 2 -3 -0.7579 0.0000
7 2 -2 -0.0546 0.0000
7 2 -1 0.3311 0.0000
7 2 0 -0.1090 0.0000
7 2 2 0.6746 0.0000
7 2 3 -0.0596 0.0000
7 2 4 1.3821 0.0000
7 2 5 -0.2693 0.0000
7 2 6 0.1351 0.0000
7 2 7 -0.6050 0.0000
7 3 -7 0.0130 0.0000
7 3 -6 -0.0029 0.0000
7 3 -5 0.8324 0.0000
7 3 -4 0.5081 0.0000
7 3 -3 0.6135 0.0000
7 3 -2 -0.3580 0.0000
7 3 -1 -0.3748 0.0000
7 3 0 -0.3337 0.0000
7 3 1 0.4269 0.0000
7 3 2 0.7607 0.0000
7 3 3 0.2064 0.0000
7 3 4 0.6369 0.0000
7 3 5 0.0766 0.0000
7 3 6 0.2160 0.0000
7 3 7 -0.6882 0.0000
7 4 -6 0.8417 0.0000
7 4 -5 0.6092 0.0000
7 4 -4 0.6335 0.0000
7 4 -3 1.3042 0.0000
7 4 -2 0.1436 0.0000
7 4 -1 0.2864 0.0000
7 4 0 -0.7887 0.0000
7 4 1 0.3996 0.0000
7 4 2 -0.0412 0.0000
7 4 3 -0.0756 0.0000
7 4 4 0.2975 0.0000
7 4 5 0.4454 0.0000
7 4 6 0.8870 0.0000
7 5 -5 0.0349 0.0000
7 5 -4 0.1519 0.0000
7 5 -3 -0.4596 0.0000
7 5 -2 1.0576 0.0000
7 5 -1 -0.8146 0.0000
7 5 0 0.8061 0.0000
7 5 1 -0.8198 0.0000
7 5 2 0.0804 0.0000
7 5 3 -0.3384 0.0000
7 5 4 0.1768 0.0000
7 5 5 0.9314 0.0000
7 6 -4 -0.6546 0.0000
7 6 -3 -0.0499 0.0000
7 6 -2 -0.0010 0.0000
7 6 -1 -0.1184 0.0000
7 6 0 0.3354 0.0000
7 6 1 -0.4384 0.0000
7 6 2 -0.2668 0.0000
7 6 3 0.0020 0.0000
7 6 4 -0.1844 0.0000
7 7 -3 0.1130 0.0000
7 7 -2 1.0841 0.0000
7 7 -1 -0.7945 0.0000
7 7 0 1.9509 0.0000
7 7 1 -1.4680 0.0000
7 7 2 1.4436 0.0000
7 7 3 -0.6713 0.0000
8 0 0 -1.0957 0.0000
8 0 1 0.3306 0.0000
8 0 2 0.1608 0.0000
8 0 3 -0.5658 0.0000
8 0 4 -0.5148 0.0000
8 0 5 -0.5315 0.0000
8 0 6 -0.0449 0.0000
8 0 7 0.3080 0.0000
8 1 -7 -0.3380 0.0000
8 1 -6 0.4091 0.0000
8 1 -5 -1.0437 0.0000
8 1 -4 -0.6801 0.0000
8 1 -3 -1.3909 0.0000
8 1 -2 0.0994 0.0000
8 1 -1 0.0876 0.0000
8 1 0 -0.3765 0.0000
8 1 1 0.0108 0.0000
8 1 2 0.1673 0.0000
8 1 3 -0.1834 0.0000
8 1 4 0.3988 0.0000
8 1 5 -0.4193 0.0000
8 1 6 0.5677 0.0000
8 1 7 -0.7161 0.0000
8 2 -6 0.4803 0.0000
8 2 -5 0.2654 0.0000
8 2 -4 -0.3828 0.0000
8 2 -3 -0.2478 0.0000
8 2 -2 -0.5365 0.0000
8 2 -1 0.3333 0.0000
8 2 0 -0.2737 0.0000
8 2 1 0.6324 0.0000
8 2 2 -0.0600 0.0000
8 2 3 0.4394 0.0000
8 2 4 -0.1745 0.0000
8 2 5 0.1971 0.0000
8 2 6 -0.2041 0.0000
8 3 -6 0.2561 0.0000
8 3 -5 0.2907 0.0000
8 3 -4 1.5282 0.0000
8 3 -3 -0.5777 0.0000
8 3 -2 0.9530 0.0000
8 3 -1 -0.8080 0.0000
8 3 0 0.5656 0.0000
8 3 1 -0.6110 0.0000
8 3 2 0.8580 0.0000
8 3 3 -0.9099 0.0000
8 3 4 0.4644 0.0000
8 3 5 -0.1485 0.0000
8 3 6 0.0916 0.0000
8 4 -5 0.2829 0.0000
8 4 -4 -0.2837 0.0000
8 4 -3 0.7700 0.0000
8 4 -2 0.2558 0.0000
8 4 -1 -0.3952 0.0000
8 4 0 0.4720 0.0000
8 4 1 -1.2425 0.0000
8 4 2 0.3910 0.0000
8 4 3 -0.7272 0.0000
8 4 4 0.5525 0.0000
8 4 5 0.5625 0.0000
8 5 -4 -0.7751 0.0000
8 5 -3 0.1155 0.0000
8 5 -2 0.6629 0.0000
8 5 -1 -0.7062 0.0000
8 5 0 0.7608 0.0000
8 5 1 -1.7267 0.0000
8 5 2 0.4056 0.0000
8 5 3 -0.9957 0.0000
8 5 4 0.9991 0.0000
8 6 -3 0.7337 0.0000
8 6 -2 -0.0450 0.0000
8 6 -1 0.6232 0.0000
8 6 0 -0.1378 0.0000
8 6 1 0.1103 0.0000
8 6 2 -0.7677 0.0000
8 6 3 0.5035 0.0000
8 7 -1 0.8033 0.0000
8 7 0 0.4483 0.0000
8 7 1 0.7019 0.0000
9 0 0 -1.2063 0.0000
9 0 1 0.6188 0.0000
9 0 2 -0.5165 0.0000
9 0 3 0.2552 0.0000
9 0 4 -0.9596 0.0000
9 0 5 0.2586 0.0000
9 0 6 0.1495 0.0000
9 0 7 -0.0297 0.0000
9 1 -6 0.5244 0.0000
9 1 -5 -0.4651 0.0000
9 1 -4 0.9373 0.0000
9 1 -3 -1.7387 0.0000
9 1 -2 1.0894 0.0000
9 1 -1 -0.0568 0.0000
9 1 0 0.8138 0.0000
9 1 1 -0.6314 0.0000
9 1 2 1.5099 0.0000
9 1 3 -1.1252 0.0000
9 1 4 1.4514 0.0000
9 1 5 -0.5542 0.0000
9 1 6 0.0744 0.0000
9 2 -6 0.0813 0.0000
9 2 -5 0.9759 0.0000
9 2 -4 -0.8114 0.0000
9 2 -3 0.2294 0.0000
9 2 -2 -0.3528 0.0000
9 2 -1 0.1080 0.0000
9 2 0 1.7727 0.0000
9 2 1 -0.0709 0.0000
9 2 2 0.8668 0.0000
9 2 3 -0.0995 0.0000
9 2 4 0.2433 0.0000
9 2 5 -0.5088 0.0000
9 2 6 0.1324 0.0000
9 3 -5 0.0926 0.0000
9 3 -4 -0.2593 0.0000
9 3 -3 -0.7294 0.0000
9 3 -2 0.3760 0.0000
9 3 -1 -0.6275 0.0000
9 3 0 1.5540 0.0000
9 3 1 0.2192 0.0000
9 3 2 0.7688 0.0000
9 3 3 -0.3038 0.0000
9 3 4 0.6693 0.0000
9 3 5 -0.1028 0.0000
9 4 -4 -0.6565 0.0000
9 4 -3 0.1257 0.0000
9 4 -2 -0.6240 0.0000
9 4 -1 0.2037 0.0000
9 4 0 0.0976 0.0000
9 4 1 0.1806 0.0000
9 4 2 -0.4202 0.0000
9 4 3 0.7739 0.0000
9 4 4 0.4625 0.0000
9 5 -3 -0.2566 0.0000
9 5 -2 0.1930 0.0000
9 5 -1 -0.3938 0.0000
9 5 0 0.2588 0.0000
9 5 1 -0.9454 0.0000
9 5 2 -0.1185 0.0000
9 5 3 0.1533 0.0000
9 6 0 0.5963 0.0000
10 0 0 1.0862 0.0000
10 0 1 -0.2670 0.0000
10 0 2 0.5053 0.0000
10 0 3 0.8533 0.0000
10 0 4 -0.0372 0.0000
10 0 5 0.5754 0.0000
10 0 6 0.3628 0.0000
10 1 -5 0.2786 0.0000
10 1 -4 0.4127 0.0000
10 1 -3 -0.6690 0.0000
10 1 -2 0.9275 0.0000
10 1 -1 -0.2594 0.0000
10 1 0 1.1607 0.0000
10 1 1 -0.0150 0.0000
10 1 2 0.7939 0.0000
10 1 3 0.0684 0.0000
10 1 4 0.4844 0.0000
10 1 5 -0.2640 0.0000
10 2 -5 -0.6065 0.0000
10 2 -4 0.1355 0.0000
10 2 -3 -0.6846 0.0000
10 2 -2 -0.5970 0.0000
10 2 -1 0.5419 0.0000
10 2 0 1.2700 0.0000
10 2 1 0.7034 0.0000
10 2 2 0.5632 0.0000
10 2 3 0.0395 0.0000
10 2 4 -0.1759 0.0000
10 2 5 -0.1213 0.0000
10 3 -4 -0.3136 0.0000
10 3 -3 -0.5321 0.0000
10 3 -2 -0.5328 0.0000
10 3 -1 -0.5396 0.0000
10 3 0 1.6350 0.0000
10 3 1 0.0654 0.0000
10 3 2 1.0296 0.0000
10 3 3 -0.0897 0.0000
10 3 4 0.7106 0.0000
10 4 -2 -0.6591 0.0000
10 4 -1 -0.8117 0.0000
10 4 0 0.3327 0.0000
10 4 1 -0.1030 0.0000
10 4 2 0.1463 0.0000
11 0 0 0.1769 0.0000
11 0 1 -0.5321 0.0000
11 0 2 0.5908 0.0000
11 0 3 -0.2478 0.0000
11 0 4 0.6795 0.0000
11 0 5 -0.4386 0.0000
11 1 -4 -0.5318 0.0000
11 1 -3 0.6952 0.0000
11 1 -2 -0.3668 0.0000
11 1 -1 0.1367 0.0000
11 1 0 0.3894 0.0000
11 1 1 -0.3099 0.0000
11 1 2 -0.2899 0.0000
11 1 3 -0.1202 0.0000
11 1 4 -0.4507 0.0000
11 2 -3 -0.2360 0.0000
11 2 -2 0.5582 0.0000
11 2 -1 -0.5351 0.0000
11 2 0 1.3449 0.0000
11 2 1 -0.1214 0.0000
11 2 2 0.0700 0.0000
11 2 3 -0.6462 0.0000
11 3 -2 -1.2190 0.0000
11 3 -1 0.1336 0.0000
11 3 0 0.2719 0.0000
11 3 1 0.3199 0.0000
11 3 2 -0.0190 0.0000
12 0 0 0.5320 0.0000
12 0 1 -1.1615 0.0000
12 0 2 0.7101 0.0000
12 0 3 -0.5938 0.0000
12 1 -2 -0.0551 0.0000
12 1 -1 0.4843 0.0000
12 1 0 0.3858 0.0000
12 1 1 -0.4898 0.0000
12 1 2 -0.7745 0.0000
13 0 0 0.2514 0.0000
13 0 1 -0.0415 0.0000
0 0 0 0.0 0.0
;
_shelx_fab_checksum              90618
_olex2_submission_original_sample_id Cmpd2
_olex2_submission_special_instructions 'No special instructions were received'
loop_
_space_group_symop_operation_xyz
'x, y, z'
'-y, x-y, z'
'-x+y, -x, z'
'-y, -x, -z'
'-x+y, y, -z'
'x, x-y, -z'
'-x, -y, -z'
'y, -x+y, -z'
'x-y, x, -z'
'y, x, z'
'x-y, -y, z'
'-x, -x+y, z'
loop_
_atom_site_label
_atom_site_type_symbol
_atom_site_fract_x
_atom_site_fract_y
_atom_site_fract_z
_atom_site_U_iso_or_equiv
_atom_site_adp_type
_atom_site_occupancy
_atom_site_site_symmetry_order
_atom_site_calc_flag
_atom_site_refinement_flags_posn
_atom_site_refinement_flags_adp
_atom_site_refinement_flags_occupancy
Fe1 Fe 0.3333 0.6667 1.0000 0.0917(14) Uani 1 6 d S T P
Cl1 Cl 0.0000 0.3925(3) 0.6815(5) 0.1228(17) Uani 1 2 d S T P
O1 O 0.2016(5) 0.5575(5) 0.8654(7) 0.097(2) Uani 1 1 d . . .
C2 C 0.0000 0.4529(8) 0.8549(15) 0.090(3) Uani 1 2 d S T P
C1 C 0.1035(7) 0.5283(6) 0.9262(10) 0.085(2) Uani 1 1 d . . .
N1 N 0.0000 0.796(2) 0.727(4) 0.091(9) Uani 0.3333 2 d S TU P
H1A H 0.0000 0.8389 0.8070 0.110 Uiso 0.3333 2 calc RS T P
H1B H 0.0000 0.8275 0.6344 0.110 Uiso 0.3333 2 calc RS T P
C3 C 0.1029(16) 0.750(3) 0.742(6) 0.18(2) Uani 0.3333 1 d D U .
H3A H 0.1797 0.8157 0.7380 0.270 Uiso 0.3333 1 calc R . .
H3B H 0.0925 0.7099 0.8407 0.270 Uiso 0.3333 1 calc R . .
H3C H 0.0925 0.6978 0.6573 0.270 Uiso 0.3333 1 calc R . .
loop_
_atom_site_aniso_label
_atom_site_aniso_U_11
_atom_site_aniso_U_22
_atom_site_aniso_U_33
_atom_site_aniso_U_23
_atom_site_aniso_U_13
_atom_site_aniso_U_12
Fe1 0.0698(15) 0.0698(15) 0.136(3) 0.000 0.000 0.0349(8)
Cl1 0.111(3) 0.116(2) 0.140(3) -0.027(2) 0.000 0.0554(14)
O1 0.076(4) 0.088(4) 0.128(5) -0.014(3) -0.001(3) 0.042(3)
C2 0.096(9) 0.069(5) 0.116(8) 0.002(5) 0.000 0.048(4)
C1 0.063(5) 0.062(5) 0.130(6) -0.006(4) 0.003(4) 0.030(4)
N1 0.029(11) 0.083(15) 0.14(2) 0.025(15) 0.000 0.015(6)
C3 0.12(3) 0.09(2) 0.26(5) 0.07(3) -0.05(3) -0.005(19)
loop_
_atom_type_symbol
_atom_type_description
_atom_type_scat_dispersion_real
_atom_type_scat_dispersion_imag
_atom_type_scat_source
C C 0.0181 0.0091 'International Tables Vol C Tables 4.2.6.8 and 6.1.1.4'
H H 0.0000 0.0000 'International Tables Vol C Tables 4.2.6.8 and 6.1.1.4'
Cl Cl 0.3639 0.7018 'International Tables Vol C Tables 4.2.6.8 and 6.1.1.4'
Fe Fe -1.1336 3.1974 'International Tables Vol C Tables 4.2.6.8 and 6.1.1.4'
N N 0.0311 0.0180 'International Tables Vol C Tables 4.2.6.8 and 6.1.1.4'
O O 0.0492 0.0322 'International Tables Vol C Tables 4.2.6.8 and 6.1.1.4'
loop_
_geom_angle_atom_site_label_1
_geom_angle_atom_site_label_2
_geom_angle_atom_site_label_3
_geom_angle
_geom_angle_site_symmetry_1
_geom_angle_site_symmetry_3
O1 Fe1 O1 101.4(4) 6_567 3_565
O1 Fe1 O1 165.0(3) 3_565 5_557
O1 Fe1 O1 90.1(3) 3_565 2_665
O1 Fe1 O1 90.1(3) 3_565 .
O1 Fe1 O1 80.3(3) 3_565 4_667
O1 Fe1 O1 165.0(3) 6_567 2_665
O1 Fe1 O1 90.1(3) 6_567 4_667
O1 Fe1 O1 90.1(3) . 2_665
O1 Fe1 O1 80.3(3) 2_665 5_557
O1 Fe1 O1 165.0(3) 4_667 .
O1 Fe1 O1 101.4(4) 4_667 2_665
O1 Fe1 O1 101.4(4) . 5_557
O1 Fe1 O1 90.1(3) 6_567 5_557
O1 Fe1 O1 80.3(3) 6_567 .
O1 Fe1 O1 90.1(3) 4_667 5_557
C1 O1 Fe1 112.7(5) . .
C1 C2 Cl1 119.8(6) 12 .
C1 C2 Cl1 119.8(6) . .
C1 C2 C1 120.4(12) . 12
O1 C1 C2 123.0(8) . .
O1 C1 C1 117.2(5) . 6_567
C2 C1 C1 119.8(6) . 6_567
H1A N1 H1B 111.7 . .
C3 N1 H1A 114.6 . .
C3 N1 H1A 114.6 12 .
C3 N1 H1B 114.6 12 .
C3 N1 H1B 114.6 . .
C3 N1 C3 84(2) 12 .
N1 C3 H3A 109.5 . .
N1 C3 H3B 109.5 . .
N1 C3 H3C 109.5 . .
H3A C3 H3B 109.5 . .
H3A C3 H3C 109.5 . .
H3B C3 H3C 109.5 . .
loop_
_geom_bond_atom_site_label_1
_geom_bond_atom_site_label_2
_geom_bond_distance
_geom_bond_site_symmetry_2
Fe1 O1 2.028(6) 6_567
Fe1 O1 2.028(6) 4_667
Fe1 O1 2.028(6) 5_557
Fe1 O1 2.028(6) 2_665
Fe1 O1 2.028(6) 3_565
Fe1 O1 2.028(6) .
Cl1 C2 1.714(14) .
O1 C1 1.298(9) .
C2 C1 1.403(11) 12
C2 C1 1.403(11) .
C1 C1 1.431(16) 6_567
N1 H1A 0.9100 .
N1 H1B 0.9100 .
N1 C3 1.80(4) 12
N1 C3 1.80(4) .
C3 H3A 0.9800 .
C3 H3B 0.9800 .
C3 H3C 0.9800 .
loop_
_smtbx_masks_void_nr
_smtbx_masks_void_average_x
_smtbx_masks_void_average_y
_smtbx_masks_void_average_z
_smtbx_masks_void_volume
_smtbx_masks_void_count_electrons
1 0.000 0.000 -0.084 173.0 28.1
2 0.333 0.667 0.500 75.5 27.1
3 0.667 0.333 0.500 75.5 25.4
