#------------------------------------------------------------------------------
#$Date: 2019-11-25 19:50:42 +0200 (Mon, 25 Nov 2019) $
#$Revision: 241671 $
#$URL: file:///home/coder/svn-repositories/cod/cif/4/13/14/4131481.cif $
#------------------------------------------------------------------------------
#
# This file is available in the Crystallography Open Database (COD),
# http://www.crystallography.net/
#
# All data on this site have been placed in the public domain by the
# contributors.
#
data_4131481
loop_
_publ_author_name
'Cueny, Eric S.'
'Johnson, Heather C.'
'Anding, Bernie J.'
'Landis, Clark R.'
_publ_section_title
;
 Mechanistic Studies of Hafnium-Pyridyl Amido-Catalyzed 1-Octene
 Polymerization and Chain Transfer Using Quench-Labeling Methods.
;
_journal_issue                   34
_journal_name_full               'Journal of the American Chemical Society'
_journal_page_first              11903
_journal_page_last               11912
_journal_paper_doi               10.1021/jacs.7b05729
_journal_volume                  139
_journal_year                    2017
_chemical_formula_moiety         'C17 H9 N'
_chemical_formula_sum            'C17 H9 N'
_chemical_formula_weight         227.25
_space_group_crystal_system      triclinic
_space_group_IT_number           2
_space_group_name_Hall           '-P 1'
_space_group_name_H-M_alt        'P -1'
_atom_sites_solution_hydrogens   geom
_atom_sites_solution_primary     dual
_audit_creation_date             2017-04-05
_audit_creation_method
;
Olex2 1.2-dev
(compiled 2017.03.28 svn.r3405 for OlexSys, GUI svn.r5332)
;
_cell_angle_alpha                105.668(3)
_cell_angle_beta                 98.054(3)
_cell_angle_gamma                98.994(2)
_cell_formula_units_Z            2
_cell_length_a                   6.8696(3)
_cell_length_b                   8.5820(3)
_cell_length_c                   9.9548(4)
_cell_measurement_reflns_used    4929
_cell_measurement_temperature    100
_cell_measurement_theta_max      73.150
_cell_measurement_theta_min      4.700
_cell_volume                     547.78(4)
_computing_cell_refinement       'SAINT+ Ver. 2016.5-0 (Bruker-AXS, 2016)'
_computing_data_collection       'APEX3 Ver. 2016.5-0 (Bruker-AXS, 2016)'
_computing_data_reduction        'SAINT+ Ver. 2016.5-0 (Bruker-AXS, 2016)'
_computing_molecular_graphics    'OLEX2 (Dolomanov et al., 2009)'
_computing_publication_material  'OLEX2 (Dolomanov et al., 2009)'
_computing_structure_refinement  'ShelXL (Sheldrick, 2015)'
_computing_structure_solution    'ShelXT (Sheldrick, 2015)'
_diffrn_ambient_temperature      99.97
_diffrn_detector                 'charge-coupled device (CCD) area detector'
_diffrn_detector_area_resol_mean 7.9
_diffrn_detector_type            'Bruker APEX II'
_diffrn_measured_fraction_theta_full 0.973
_diffrn_measured_fraction_theta_max 0.950
_diffrn_measurement_device       'three-circle diffractometer'
_diffrn_measurement_device_type  'Bruker SMART APEX II'
_diffrn_measurement_method       '0.60\% \w and 0.6\% \f scans'
_diffrn_radiation_collimation    '0.5 mm double-pinhole'
_diffrn_radiation_detector       'Bruker APEX II'
_diffrn_radiation_monochromator  'equatorially mounted graphite'
_diffrn_radiation_probe          x-ray
_diffrn_radiation_type           CuK\a
_diffrn_radiation_wavelength     1.54178
_diffrn_radiation_xray_symbol    K-L~3~
_diffrn_reflns_av_unetI/netI     0.0260
_diffrn_reflns_Laue_measured_fraction_full 0.973
_diffrn_reflns_Laue_measured_fraction_max 0.950
_diffrn_reflns_limit_h_max       8
_diffrn_reflns_limit_h_min       -8
_diffrn_reflns_limit_k_max       10
_diffrn_reflns_limit_k_min       -10
_diffrn_reflns_limit_l_max       12
_diffrn_reflns_limit_l_min       -12
_diffrn_reflns_number            18396
_diffrn_reflns_point_group_measured_fraction_full 0.973
_diffrn_reflns_point_group_measured_fraction_max 0.950
_diffrn_reflns_theta_full        67.000
_diffrn_reflns_theta_max         73.530
_diffrn_reflns_theta_min         5.468
_diffrn_source                   'sealed X-ray tube'
_diffrn_source_type              'Siemens, K FFCU 2K 90'
_exptl_absorpt_coefficient_mu    0.623
_exptl_absorpt_correction_T_max  0.753
_exptl_absorpt_correction_T_min  0.687
_exptl_absorpt_correction_type   multi-scan
_exptl_absorpt_process_details
;
 TWINABS-2012/1 (Bruker,2012) was used for absorption correction.
 
For component 2:
 wR2(int) was 0.0723 before and 0.0613 after correction.
 The Ratio of minimum to maximum transmission not present.
 The \l/2 correction factor is Not present
;
_exptl_crystal_colour            red
_exptl_crystal_colour_primary    red
_exptl_crystal_density_diffrn    1.378
_exptl_crystal_density_method    'not measured'
_exptl_crystal_description       block
_exptl_crystal_F_000             236
_exptl_crystal_size_max          0.598
_exptl_crystal_size_mid          0.436
_exptl_crystal_size_min          0.245
_refine_diff_density_max         0.215
_refine_diff_density_min         -0.238
_refine_diff_density_rms         0.041
_refine_ls_extinction_method     none
_refine_ls_goodness_of_fit_ref   1.065
_refine_ls_hydrogen_treatment    constr
_refine_ls_matrix_type           full
_refine_ls_number_parameters     164
_refine_ls_number_reflns         18396
_refine_ls_number_restraints     0
_refine_ls_restrained_S_all      1.065
_refine_ls_R_factor_all          0.0374
_refine_ls_R_factor_gt           0.0363
_refine_ls_shift/su_max          0.000
_refine_ls_shift/su_mean         0.000
_refine_ls_structure_factor_coef Fsqd
_refine_ls_weighting_details
'w=1/[\s^2^(Fo^2^)+(0.0732P)^2^+0.0304P] where P=(Fo^2^+2Fc^2^)/3'
_refine_ls_weighting_scheme      calc
_refine_ls_wR_factor_gt          0.1120
_refine_ls_wR_factor_ref         0.1136
_reflns_Friedel_coverage         0.000
_reflns_number_gt                17407
_reflns_number_total             18396
_reflns_threshold_expression     'I > 2\s(I)'
_cod_data_source_file            ja7b05729_si_002.cif
_cod_data_source_block           landis65
_cod_original_cell_volume        547.77(4)
_cod_database_code               4131481
_shelx_shelxl_version_number     2016/6
_shelx_space_group_comment
;
The symmetry employed for this shelxl refinement is uniquely defined
by the following loop, which should always be used as a source of
symmetry information in preference to the above space-group names.
They are only intended as comments.
;
_shelx_estimated_absorpt_t_max   0.862
_shelx_estimated_absorpt_t_min   0.707
_olex2_refinement_description
;
1. Twinned data refinement
 Scales: 0.4708(14)
 0.5292(14)
2. Fixed Uiso
 At 1.2 times of:
  All C(H) groups
3.a Aromatic/amide H refined with riding coordinates:
 C2(H2), C3(H3), C5(H5), C6(H6), C8(H8), C9(H9), C10(H10), C12(H12), C13(H13)
;
_shelx_res_file
;
TITL LANDIS65 IN P-1
    landis65.res
    created by SHELXL-2016/6 at 11:26:43 on 05-Apr-2017
REM FCF_FILTER (MSL, UW-MADISON) INSERTED 70 OMIT INSTRUCTIONS
REM FOR OUTLIER REFLECTIONS WITH THE CUTOFF VALUE OF 4.63345.
REM <OLEX2.EXTRAS>
REM <HKLSRC "%.\\LANDIS65.HKL">
REM </OLEX2.EXTRAS>
REM ============ UPDATED INSTRUCTIONS ============
REM ================================================
REM THE WEIGHTING SCHEME HAS BEEN UPDATED.
REM FCF_FILTER (MSL, UW-MADISON) INSERTED 11 OMIT INSTRUCTIONS
REM FOR OUTLIER REFLECTIONS WITH THE CUTOFF VALUE OF 4.61682.
REM FCF_FILTER (MSL, UW-MADISON) INSERTED 71 OMIT INSTRUCTIONS
REM FOR OUTLIER REFLECTIONS WITH THE CUTOFF VALUE OF 4.85384.
REM The weighting scheme has been updated.
CELL 1.54178 6.86959 8.58198 9.9548 105.6679 98.0541 98.9942
ZERR 2 0.00027 0.00032 0.00039 0.0032 0.0025 0.0022
LATT 1
SFAC C H N
UNIT 34 18 2

L.S. 12
PLAN  5
SIZE 0.245 0.436 0.598
TEMP -173.18
BOND $H
CONF
TWST 1
HTAB
LIST 4
MORE -1
fmap 2
acta 134
OMIT 2 0 -1
OMIT -2 1 0
OMIT 2 -1 0
OMIT 2 -1 0
OMIT -2 1 0
OMIT 2 -1 0
OMIT 2 -1 0
OMIT -2 1 0
OMIT -2 0 1
OMIT 2 -1 0
OMIT -2 0 1
OMIT 2 -1 0
OMIT 2 -1 0
OMIT -2 1 0
OMIT -2 0 1
OMIT -2 0 1
OMIT 2 0 -1
OMIT 0 0 -1
OMIT 0 0 -1
OMIT 2 0 0
OMIT 1 0 0
OMIT -2 0 0
OMIT 1 0 0
OMIT -1 0 0
OMIT -1 0 0
OMIT 1 0 0
OMIT -2 0 0
OMIT -2 0 1
OMIT -1 0 0
OMIT 3 -5 2
OMIT -1 0 0
OMIT 1 0 0
OMIT 1 0 0
OMIT -2 0 1
OMIT -1 0 -11
OMIT -1 0 -11
OMIT 1 3 -5
OMIT 1 2 -12
OMIT -5 4 -4
OMIT -1 0 -11
OMIT 1 2 -12
OMIT -1 0 -11
OMIT 6 -2 -2
OMIT -1 0 -11
OMIT 1 2 -12
OMIT 1 -4 -9
OMIT -1 2 -11
OMIT 1 2 -12
OMIT 1 2 -12
OMIT 1 -4 -9
OMIT -1 0 -11
OMIT 1 -4 -9
OMIT -1 4 9
OMIT 0 8 -10
OMIT 1 1 -12
OMIT 1 -4 -9
OMIT 1 -4 -9
OMIT -1 2 -11
OMIT -1 2 -11
OMIT 0 -6 -1
OMIT 1 -4 -9
OMIT 1 -5 -8
OMIT 1 1 -12
OMIT -1 2 -11
OMIT 4 -6 2
OMIT 1 4 -4
OMIT -1 2 -11
OMIT 1 -8 10
OMIT -1 2 -11
OMIT 1 1 -12
OMIT -1 -4 1
REM <olex2.extras>
REM <HklSrc "%.\\Landis65.hkl">
REM </olex2.extras>

WGHT    0.073200    0.030400
BASF   0.52922
FVAR       1.36492
N1    3    0.882114    0.909124    0.773688    11.00000    0.02213    0.02050 =
         0.01994    0.00272    0.00554    0.00365
C1    1    0.835786    0.737294    0.711577    11.00000    0.01436    0.01721 =
         0.02157    0.00217    0.00457    0.00349
C2    1    0.833335    0.637218    0.800494    11.00000    0.01672    0.02570 =
         0.01715    0.00481    0.00388    0.00470
AFIX  43
H2    2    0.862914    0.685264    0.900775    11.00000   -1.20000
AFIX   0
C3    1    0.787555    0.467247    0.742020    11.00000    0.01787    0.02361 =
         0.01967    0.00952    0.00497    0.00537
AFIX  43
H3    2    0.785870    0.398877    0.802827    11.00000   -1.20000
AFIX   0
C4    1    0.743675    0.394544    0.594540    11.00000    0.01235    0.02052 =
         0.02202    0.00761    0.00452    0.00494
C5    1    0.695313    0.218508    0.530920    11.00000    0.01775    0.01944 =
         0.02463    0.00992    0.00446    0.00460
AFIX  43
H5    2    0.689578    0.148571    0.590335    11.00000   -1.20000
AFIX   0
C6    1    0.657768    0.150168    0.388286    11.00000    0.01726    0.01497 =
         0.02687    0.00421    0.00294    0.00351
AFIX  43
H6    2    0.625893    0.033221    0.349564    11.00000   -1.20000
AFIX   0
C7    1    0.665047    0.250642    0.294012    11.00000    0.01243    0.02026 =
         0.02183    0.00367    0.00197    0.00370
C8    1    0.632156    0.183008    0.146652    11.00000    0.01919    0.02142 =
         0.02214    0.00089    0.00094    0.00333
AFIX  43
H8    2    0.603677    0.066326    0.105982    11.00000   -1.20000
AFIX   0
C9    1    0.640423    0.283585    0.058709    11.00000    0.02076    0.03040 =
         0.01637    0.00198    0.00130    0.00526
AFIX  43
H9    2    0.616554    0.235204   -0.041438    11.00000   -1.20000
AFIX   0
C10   1    0.683269    0.454334    0.115732    11.00000    0.01831    0.02977 =
         0.02044    0.01086    0.00413    0.00651
AFIX  43
H10   2    0.688733    0.521838    0.054267    11.00000   -1.20000
AFIX   0
C11   1    0.718510    0.528033    0.262946    11.00000    0.01261    0.02340 =
         0.02074    0.00730    0.00368    0.00558
C12   1    0.766027    0.703987    0.326254    11.00000    0.01730    0.02181 =
         0.02479    0.01192    0.00587    0.00599
AFIX  43
H12   2    0.771821    0.773578    0.266546    11.00000   -1.20000
AFIX   0
C13   1    0.802733    0.773132    0.468693    11.00000    0.01692    0.01588 =
         0.02568    0.00615    0.00527    0.00417
AFIX  43
H13   2    0.833544    0.890114    0.507147    11.00000   -1.20000
AFIX   0
C14   1    0.795931    0.672689    0.562888    11.00000    0.01102    0.01968 =
         0.02139    0.00615    0.00430    0.00421
C15   1    0.748861    0.497602    0.503995    11.00000    0.01024    0.01903 =
         0.01979    0.00578    0.00330    0.00442
C16   1    0.709731    0.425741    0.353710    11.00000    0.01038    0.01934 =
         0.02059    0.00612    0.00321    0.00453
C17   1    0.921065    1.050922    0.827564    11.00000    0.03799    0.02474 =
         0.02611    0.00386    0.01044    0.00374
HKLF 5




REM  LANDIS65 IN P-1
REM R1 =  0.0363 for   17407 Fo > 4sig(Fo)  and  0.0374 for all   18396 data
REM    164 parameters refined using      0 restraints

END

WGHT      0.0725      0.0312

REM No hydrogen bonds found for HTAB generation

REM Highest difference peak  0.215,  deepest hole -0.238,  1-sigma level  0.041
Q1    1   0.5958  0.1827  0.4561  11.00000  0.05    0.21
Q2    1   0.8607  0.7363  0.3992  11.00000  0.05    0.19
Q3    1   0.7674  0.4969  0.2015  11.00000  0.05    0.19
Q4    1   0.6711  0.4807  0.3032  11.00000  0.05    0.18
Q5    1   0.7042  0.4389  0.5476  11.00000  0.05    0.18
;
_shelx_res_checksum              93177
_shelx_hkl_file
;
  -1   0   0 7.35238 0.17669   1
  -1   0   0 7.41986 0.32592   2
  -1   0   0 7.70175 0.22748   2
  -1   0   0 7.37802 0.25131   2
   1   0   0 7.83391 0.25543   2
   1   0   0 9.18167 0.29844   2
   1   0   0 8.55800 0.26009   2
   1   0   0 6.17183 0.16973   1
   1   0   0 6.44889 0.27765   1
   2   0  -1 7811.41 200.041  -2
  -2   0   0 7811.41 200.041   1
   2   0  -1 9097.64 178.820  -2
  -2   0   0 9097.64 178.820   1
  -2   0   0 7475.17 208.736   2
  -2   0   0 7527.68 191.670   2
  -2   0   0 8142.35 200.990   2
   2   0   0 6030.79 168.929   1
   2   0   0 6372.94 155.018   1
  -2   0   1 7576.79 202.702  -2
   2   0   0 7576.79 202.702   1
   2   0   0 7519.79 171.620   2
  -3   0   0 111.556 2.77423   2
  -3   0   0 111.217 3.24612   2
  -3   0   0 109.442 2.96166   2
  -3   0   0 111.363 3.32368   2
  -3   0   0 111.103 3.30242   2
  -3   0   0 111.952 3.44240   2
  -3   0   0 101.383 2.92111   1
  -3   0   0 98.5076 2.61243   1
   3   0   0 112.283 3.03755   2
   3   0   0 108.935 2.92926   2
   3   0   0 111.482 2.72444   2
   3   0   0 122.173 2.87952   2
   3   0   0 100.179 2.93918   1
   3   0   0 100.371 2.57398   1
   3   0   0 104.366 2.94796   1
   3   0   0 93.6847 2.71872   1
   3   0   0 99.8123 3.00980   1
   3   0   0 100.725 3.09077   1
  -4   0   0 3.95139 0.42546   2
  -4   0   0 3.01800 0.45064   2
  -4   0   0 3.40782 0.27046   2
  -4   0   0 3.51090 0.48241   2
  -4   0   0 3.67015 0.41702   2
   4   0   0 3.08887 0.22169   2
  -5   0   0 9.32042 0.47264   1
  -5   0   0 8.94107 0.72030   1
  -5   0   0 9.95189 0.51478   2
  -5   0   0 10.4382 0.49262   2
  -5   0   0 9.61662 0.75400   2
  -5   0   0 10.9776 0.77003   2
   5   0   0 8.96256 0.62524   1
   5   0   0 9.27497 0.66750   1
   5   0   0 9.00419 0.70494   1
   5   0   0 9.51205 0.60837   1
   5   0   0 8.85800 0.53839   1
  -6   0   0 32.5507 1.10741   2
  -6   0   0 32.2583 0.96155   2
  -6   0   0 32.0826 1.53504   2
  -6   0   0 32.3969 1.13412   2
  -6   0   0 29.7315 0.89321   1
   6   0   0 29.4068 1.17297   1
   6   0   0 29.1977 1.13044   1
   6   0   0 29.7269 1.64611   1
   6   0   0 30.0396 1.23540   1
   6   0   0 33.2505 0.96965   2
   6   0   0 32.3127 0.89228   2
  -7   0   0 22.3708 0.82123   1
  -7   0   0 21.6849 0.67448   2
  -7   0   0 21.6350 0.80932   2
  -7   0   0 21.5117 0.81880   2
   7   0  -4 33.4067 0.95937  -2
  -7   0   0 33.4067 0.95937   1
   7   0   0 19.3568 0.87241   1
   7   0   0 20.3159 0.84462   1
   7   0   0 21.8010 0.55310   2
  -8   0   0 1.63289 0.13851   1
  -8   0   0 1.62628 0.09492   2
  -8   0   0 1.81402 0.17539   2
   8   0   0 1.70378 0.19436   1
   8   0   0 1.98324 0.14579   2
   8  -1   0 15.3837 0.56747   1
   8  -1   0 15.9935 0.52565   1
  -8   1   0 18.6770 0.64529   2
  -8   1   0 19.9718 0.47254   2
  -8   1   0 15.7878 0.45834   1
  -7   1   3 104.585 2.75521  -2
   7  -1   0 104.585 2.75521   1
  -7   1   3 101.947 2.87407  -2
   7  -1   0 101.947 2.87407   1
   7  -1  -3 103.308 2.36724  -2
  -7   1   0 103.308 2.36724   1
   6  -1   0 23.7719 0.99094   1
   6  -1   0 20.3719 1.18399   1
   6  -1   0 23.4534 1.00296   1
   6  -1   0 22.6376 0.95386   1
   6  -1   0 26.0956 0.83786   2
   6  -1   0 26.9534 0.78964   2
  -6   1   0 27.4295 0.84894   2
  -6   1   0 26.2061 1.39584   2
  -6   1   0 27.3648 1.00741   2
  -6   1   0 27.0283 0.98132   2
  -6   1   0 22.9060 0.74845   1
  -5   1   2 36.6066 1.60526  -2
   5  -1   0 36.6066 1.60526   1
  -5   1   2 40.7971 1.36376  -2
   5  -1   0 40.7971 1.36376   1
  -5   1   2 38.1818 1.28495  -2
   5  -1   0 38.1818 1.28495   1
  -5   1   2 35.6555 1.32468  -2
   5  -1   0 35.6555 1.32468   1
  -5   1   2 37.1501 1.63405  -2
   5  -1   0 37.1501 1.63405   1
   4  -1   0 3069.41 85.9130   1
   4  -1   0 3126.81 77.9500   1
   4  -1   0 3222.72 79.0055   1
   4  -1   0 3271.89 82.7885   1
   4  -1   0 3034.70 78.6299   1
   4  -1   0 3147.50 70.8370   1
   4  -1   0 3637.28 90.9608   2
  -4   1   0 3771.82 96.4540   2
  -4   1   0 3662.16 91.7682   2
  -4   1   0 3702.35 100.417   2
  -4   1   0 3690.30 92.3706   2
  -4   1   0 3646.68 91.2988   2
  -4   1   0 3180.83 69.2891   1
  -4   1   0 3155.41 77.4616   1
  -3   1   1 141.190 4.19260  -2
   3  -1   0 141.190 4.19260   1
  -3   1   1 151.513 3.59810  -2
   3  -1   0 151.513 3.59810   1
  -3   1   1 147.355 4.11171  -2
   3  -1   0 147.355 4.11171   1
  -3   1   1 139.802 3.84682  -2
   3  -1   0 139.802 3.84682   1
  -3   1   1 150.679 4.13161  -2
   3  -1   0 150.679 4.13161   1
   3  -1  -1 147.282 3.58764  -2
  -3   1   0 147.282 3.58764   1
   3  -1  -1 147.951 4.01202  -2
  -3   1   0 147.951 4.01202   1
   2  -1   0 3213.80 72.9487   2
   2  -1   0 3026.83 80.0465   2
   2  -1   0 3341.07 71.2589   2
   2  -1   0 2709.46 71.2698   1
   2  -1   0 3089.21 74.4210   1
   2  -1   0 2627.69 61.0475   1
   2  -1   0 2561.79 68.4929   1
  -2   1   0 2755.81 59.3009   1
  -2   1   0 2517.94 60.6457   1
  -2   1   0 3698.54 73.2801   2
  -2   1   0 2956.62 81.4718   2
   1  -1   0 6.44190 0.25544   2
   1  -1   0 6.56121 0.28534   2
   1  -1   0 6.48959 0.24463   2
   1  -1   0 6.53561 0.25488   2
   1  -1   0 5.36410 0.20809   1
   1  -1   0 6.06001 0.24583   1
   1  -1   0 5.51863 0.29193   1
  -1   1   0 7.78723 0.29903   2
  -1   1   0 6.26796 0.28718   2
  -1   1   0 5.75974 0.25789   1
  -1   1   0 5.46785 0.20635   1
  -1   1   0 5.36501 0.21714   1
  -1   1   0 5.29099 0.22526   1
   0  -1   0 1529.36 36.6286   2
   0  -1   0 1498.97 32.8169   2
   0  -1   0 1392.17 37.5602   2
   0  -1   0 1516.91 31.3880   2
   0  -1   0 1517.38 33.5262   2
   0  -1   0 1223.09 32.7998   1
   0   1   0 1377.07 32.3621   1
   0   1   0 1324.93 27.6276   1
   0   1   0 1339.71 28.9214   1
   0   1   0 1500.79 37.1693   2
   0   1   0 1504.32 33.5171   2
   0   1   0 1494.52 37.3137   2
  -1  -1   0 266.824 7.52429   2
  -1  -1   0 267.394 6.91998   2
  -1  -1   0 274.181 6.16357   2
  -1  -1   0 272.389 5.74719   2
  -1  -1   0 269.902 6.04170   2
  -1  -1   0 273.232 6.75079   2
  -1  -1   0 237.002 5.96788   1
  -1  -1   0 235.707 5.34318   1
   1   1   0 229.140 6.52920   1
   1   1   0 229.183 5.27428   1
   1   1   0 243.252 6.00610   1
   1   1   0 232.911 4.94245   1
   1   1   0 237.642 6.08492   1
   1   1   0 269.000 6.14984   2
  -2  -1   0 212.794 5.64490   2
  -2  -1   0 211.211 5.41571   2
  -2  -1   0 213.429 6.08449   2
  -2  -1   0 210.742 4.56324   2
  -2  -1   0 211.699 4.93770   2
  -2  -1   0 214.070 5.60528   2
  -2  -1   0 190.777 5.07801   1
  -2  -1   0 193.122 4.55642   1
   2   1   0 188.098 4.48069   1
   2   1   0 189.749 5.19797   1
   2   1   0 198.060 5.09493   1
   2   1   0 192.871 5.50562   1
   2   1   0 210.294 4.91495   2
  -3  -1   0 55.5489 1.93569   2
  -3  -1   0 54.8557 1.84148   2
  -3  -1   0 54.1071 1.48857   2
  -3  -1   0 54.9144 1.78634   2
  -3  -1   0 52.6065 1.64721   2
  -3  -1   0 55.9895 1.50825   2
  -3  -1   0 54.8886 1.87616   2
  -3  -1   0 54.4699 1.55805   2
  -3  -1   0 50.2128 1.56777   1
  -3  -1   0 50.0929 1.73763   1
   3   1   0 51.2537 1.77617   1
   3   1   0 48.6033 1.66689   1
   3   1   0 49.7277 1.60242   1
   3   1   0 48.5715 1.79527   1
   3   1   0 49.4578 1.43996   1
   3   1   0 53.6927 1.49891   2
   4   1  -3 47.2415 1.65955  -2
  -4  -1   0 47.2415 1.65955   1
   4   1  -3 47.1590 1.85791  -2
  -4  -1   0 47.1590 1.85791   1
  -4  -1   0 44.0141 1.31724   2
  -4  -1   0 43.5310 1.72816   2
  -4  -1   0 41.8200 1.73633   2
  -4  -1   0 43.1886 1.34206   2
  -4  -1   0 42.9726 1.74529   2
  -4  -1   0 34.9340 1.20637   1
   4   1   0 36.9804 1.51225   1
   4   1   0 37.8713 1.66172   1
   4   1   0 34.9639 1.45447   1
   4   1   0 36.9568 1.27580   1
  -4  -1   3 45.6390 1.53726  -2
   4   1   0 45.6390 1.53726   1
  -4  -1   3 47.0905 1.68477  -2
   4   1   0 47.0905 1.68477   1
  -5  -1   0 37.6635 1.44573   1
  -5  -1   0 36.6954 1.02241   1
  -5  -1   0 36.4109 1.56482   1
  -5  -1   0 37.0125 1.33498   1
  -5  -1   0 35.5929 1.16109   1
  -5  -1   0 43.4329 1.34583   2
  -5  -1   0 41.6960 1.34521   2
  -5  -1   0 43.0999 1.36076   2
  -5  -1   0 41.3447 1.85755   2
   5   1   0 36.5481 1.40702   1
   5   1   0 37.5377 1.65954   1
   5   1   0 37.9692 1.41628   1
   5   1   0 43.2985 1.12886   2
   5   1   0 41.2362 1.17533   2
   6   1  -4 58.4157 1.56106  -2
  -6  -1   0 58.4157 1.56106   1
   6   1  -4 59.4117 1.74689  -2
  -6  -1   0 59.4117 1.74689   1
   6   1  -4 60.3643 1.56619  -2
  -6  -1   0 60.3643 1.56619   1
   6   1  -4 72.2058 1.48107  -2
  -6  -1   0 72.2058 1.48107   1
   6   1  -4 60.8355 1.59458  -2
  -6  -1   0 60.8355 1.59458   1
  -6  -1   4 62.9638 2.01535  -2
   6   1   0 62.9638 2.01535   1
  -6  -1   4 62.8052 1.92146  -2
   6   1   0 62.8052 1.92146   1
  -7  -1   0 23.1550 0.68837   2
  -7  -1   0 23.0732 0.82472   2
  -7  -1   0 18.7217 0.60776   1
  -7  -1   0 19.0367 0.61668   1
   7   1   0 18.9584 0.81573   1
   7   1   0 18.6269 0.77660   1
   7   1   0 23.8514 0.73191   2
   8   1  -5 48.7269 1.10703  -2
  -8  -1   0 48.7269 1.10703   1
  -8   2   3 23.0093 0.66752  -2
   8  -2   0 23.0093 0.66752   1
  -8   2   3 21.9720 0.73639  -2
   8  -2   0 21.9720 0.73639   1
   7  -2   0 6.55447 0.50103   1
   7  -2   0 7.03294 0.47546   1
   7  -2   0 7.84356 0.31645   2
  -7   2   0 8.37914 0.46160   2
  -7   2   0 8.16545 0.48039   2
  -7   2   0 8.19509 0.36431   2
  -6   2   2 484.037 13.4481  -2
   6  -2   0 484.037 13.4481   1
   6  -2   0 450.520 11.0842   1
   6  -2   0 466.599 11.8444   1
   6  -2   0 466.468 11.5696   1
  -6   2   0 538.136 13.0395   2
  -6   2   0 522.247 10.9838   2
  -6   2   0 469.439 9.47673   1
   5  -2   0 48.1407 1.57252   1
   5  -2   0 48.2947 1.57779   1
   5  -2   0 48.1358 1.85794   1
  -5   2   0 58.5138 2.18907   2
  -5   2   0 54.9527 2.78741   2
  -5   2   0 57.7511 2.20131   2
  -5   2   0 54.1297 1.67173   2
  -5   2   0 54.7854 1.60597   2
   4  -2   0 344.030 9.44343   1
   4  -2   0 349.889 9.24910   1
   4  -2   0 334.094 9.10642   1
   4  -2   0 347.999 8.08344   1
   4  -2   0 330.486 8.74994   1
   4  -2   0 386.106 9.72610   2
  -4   2   0 387.351 10.3117   2
  -4   2   0 395.108 10.6997   2
  -4   2   0 373.772 10.1786   2
  -4   2   0 383.933 9.71914   2
  -4   2   0 343.439 8.97440   1
  -4   2   0 342.373 8.02566   1
   3  -2   0 10.2347 0.46179   1
   3  -2   0 10.7402 0.57377   1
   3  -2   0 11.7750 0.58873   1
   3  -2   0 10.1941 0.65393   1
   3  -2   0 11.3059 0.48152   1
   3  -2   0 11.1703 0.53395   1
   3  -2   0 11.8287 0.52518   2
   3  -2   0 11.7137 0.47454   2
   3  -2   0 12.1545 0.61506   2
   3  -2   0 12.8472 0.54820   2
   3  -2   0 12.3649 0.50812   2
  -3   2   0 11.7112 0.61095   1
  -3   2   0 10.8072 0.42213   1
  -3   2   0 10.6669 0.46962   1
  -3   2   0 11.1879 0.46202   1
  -3   2   0 11.2676 0.53503   1
  -3   2   0 12.2183 0.49219   2
  -3   2   0 12.3614 0.64443   2
  -3   2   0 11.2519 0.64342   2
  -3   2   0 11.9829 0.46077   2
  -3   2   0 12.2583 0.65730   2
  -3   2   0 12.9376 0.58756   2
   2  -2   0 84.7236 2.35250   2
   2  -2   0 83.8004 2.03900   2
   2  -2   0 85.3152 2.47731   2
   2  -2   0 85.1924 2.10819   2
   2  -2   0 84.3567 2.09443   2
   2  -2   0 75.0533 2.25065   1
   2  -2   0 74.1995 2.23134   1
   2  -2   0 76.3033 2.19919   1
   2  -2   0 73.8055 1.86330   1
   2  -2   0 76.1374 2.12864   1
  -2   2   0 76.4788 1.84525   1
  -2   2   0 76.1250 2.14350   1
  -2   2   0 76.5258 1.89818   1
  -2   2   0 77.2254 1.92357   1
  -2   2   0 85.2946 2.39296   2
  -2   2   0 84.8129 2.06627   2
  -2   2   0 78.3142 2.48142   2
  -2   2   0 83.8931 2.37885   2
   1  -2   0 23.0260 0.67417   2
   1  -2   0 23.8469 0.72224   2
   1  -2   0 23.7856 0.80909   2
   1  -2   0 19.7199 0.76191   1
   1  -2   0 19.9164 0.59799   1
  -1   2   0 21.3815 0.71018   1
  -1   2   0 20.6021 0.58252   1
  -1   2   0 20.9072 0.62839   1
  -1   2   0 19.9170 0.62812   1
  -1   2   0 23.0801 0.75799   2
  -1   2   0 23.6035 0.72807   2
  -1   2   0 23.0881 0.65352   2
   0  -2   0 187.007 5.23101   2
   0  -2   0 187.800 4.79651   2
   0  -2   0 183.702 4.10049   2
   0  -2   0 187.236 4.29471   2
   0  -2   0 188.991 4.32356   2
   0  -2   0 185.817 4.76344   2
   0  -2   0 184.636 4.81755   2
   0  -2   0 161.920 4.39787   1
   0   2   0 165.237 3.75200   1
   0   2   0 167.192 3.64427   1
   0   2   0 168.367 3.83870   1
   0   2   0 166.400 4.29350   1
   0   2   0 188.104 4.29007   2
   1   2  -2 274.158 6.05475  -2
  -1  -2   0 274.158 6.05475   1
  -1  -2   2 270.204 7.32206  -2
   1   2   0 270.204 7.32206   1
  -1  -2   2 235.942 5.57947  -2
   1   2   0 235.942 5.57947   1
  -1  -2   2 264.533 6.87840  -2
   1   2   0 264.533 6.87840   1
   1   2   0 219.480 5.01207   1
   1   2   0 225.304 5.71095   1
   1   2   0 258.519 5.92216   2
  -2  -2   0 0.02002 0.08743   2
  -2  -2   0 0.04194 0.10219   2
  -2  -2   0 0.04158 0.06765   2
  -2  -2   0 0.06199 0.06923   2
  -2  -2   0 0.16659 0.08459   2
  -2  -2   0 0.15538 0.12626   2
  -2  -2   0 -0.0461 0.08245   2
  -2  -2   0 0.08057 0.11923   2
  -2  -2   0 0.08064 0.12412   1
   2   2   0 0.05760 0.09978   1
   2   2   0 0.00196 0.05959   1
   2   2   0 0.19979 0.13737   1
   2   2   0 0.07874 0.09674   1
   2   2   0 0.07814 0.15194   1
   2   2   0 0.03769 0.05796   2
   3   2  -3 60.3611 1.86742  -2
  -3  -2   0 60.3611 1.86742   1
  -3  -2   3 59.5120 2.03312  -2
   3   2   0 59.5120 2.03312   1
  -3  -2   3 57.3586 1.96544  -2
   3   2   0 57.3586 1.96544   1
  -3  -2   3 62.1160 2.14199  -2
   3   2   0 62.1160 2.14199   1
  -3  -2   3 59.1689 1.66001  -2
   3   2   0 59.1689 1.66001   1
  -3  -2   3 58.1177 2.09173  -2
   3   2   0 58.1177 2.09173   1
  -4  -2   0 72.2277 2.32975   1
  -4  -2   0 69.2312 2.10681   1
  -4  -2   0 71.3249 1.90735   1
  -4  -2   0 79.4325 2.79032   2
  -4  -2   0 82.0557 2.26455   2
  -4  -2   0 82.3644 2.81799   2
  -4  -2   0 82.3427 2.32785   2
  -4  -2   0 83.1333 2.94424   2
   4   2   0 71.0715 2.43196   1
   4   2   0 70.1652 2.12505   1
   4   2   0 69.7051 2.55157   1
   4   2   0 73.8421 2.70496   1
   4   2   0 80.2030 2.25248   2
   5   2  -4 440.278 9.52271  -2
  -5  -2   0 440.278 9.52271   1
   5   2  -4 455.912 9.36528  -2
  -5  -2   0 455.912 9.36528   1
   5   2  -4 465.674 10.9003  -2
  -5  -2   0 465.674 10.9003   1
   5   2  -4 456.157 9.61977  -2
  -5  -2   0 456.157 9.61977   1
   5   2  -4 459.321 10.9446  -2
  -5  -2   0 459.321 10.9446   1
   5   2  -4 449.519 9.45407  -2
  -5  -2   0 449.519 9.45407   1
  -5  -2   0 310.394 7.97024   2
  -5  -2   4 449.048 13.3141  -2
   5   2   0 449.048 13.3141   1
  -5  -2   4 487.005 11.8688  -2
   5   2   0 487.005 11.8688   1
  -6  -2   0 29.0212 0.86123   1
  -6  -2   0 28.2087 0.91254   1
  -6  -2   0 27.8494 0.86740   1
  -6  -2   0 29.1725 1.07199   1
  -6  -2   0 27.6591 0.98153   1
  -6  -2   0 29.2700 0.86841   1
  -6  -2   0 33.4819 0.96508   2
  -6  -2   0 32.8793 1.14813   2
  -6  -2   0 32.6491 1.09026   2
   6   2   0 33.5300 0.98646   2
   6   2   0 33.2554 0.83398   2
   6   2   0 28.9973 1.13384   1
   6   2   0 28.7654 1.21429   1
  -7  -2   0 120.360 2.57561   1
   7   2  -5 296.763 6.16178  -2
  -7  -2   0 296.763 6.16178   1
  -7  -2   0 143.996 3.55667   2
  -7  -2   0 145.292 3.09116   2
   7   2   0 118.695 3.22604   1
   7   2   0 118.790 3.07664   1
   7   2   0 142.037 3.12517   2
   8  -3   0 2.63695 0.23749   1
   8  -3   0 2.02851 0.18215   1
  -8   3   0 2.07438 0.22202   2
   7  -3   0 5.08742 0.24850   2
   7  -3   0 4.26093 0.37658   1
   7  -3   0 3.95278 0.31276   1
   7  -3   0 4.67660 0.42749   1
  -7   3   0 5.29192 0.27740   2
  -7   3   0 4.51443 0.36103   2
  -7   3   0 4.74227 0.36178   2
   6  -3   0 27.0558 1.09251   1
   6  -3   0 26.6563 0.91344   1
  -6   3   1 47.3512 1.52492  -2
   6  -3   0 47.3512 1.52492   1
  -6   3   1 46.1080 1.99289  -2
   6  -3   0 46.1080 1.99289   1
   6  -3   0 29.8047 0.87108   2
   6  -3  -1 49.2198 1.34831  -2
  -6   3   0 49.2198 1.34831   1
  -6   3   0 31.6781 1.54295   2
  -6   3   0 30.2562 0.89240   2
  -6   3   0 31.1307 1.11122   2
  -6   3   0 27.6282 0.75941   1
   5  -3   0 12.9866 0.57842   1
   5  -3   0 13.2812 0.67495   1
   5  -3   0 12.7014 0.82591   1
  -5   3   0 14.3185 0.95784   2
  -5   3   0 14.6895 0.65560   2
  -4   3   0 88.4387 2.90961  -2
   4  -3   0 88.4387 2.90961   1
  -4   3   0 90.5452 2.43798  -2
   4  -3   0 90.5452 2.43798   1
  -4   3   0 85.2594 2.44780  -2
   4  -3   0 85.2594 2.44780   1
  -4   3   0 91.9184 2.95124  -2
   4  -3   0 91.9184 2.95124   1
  -4   3   0 90.9903 2.84357  -2
   4  -3   0 90.9903 2.84357   1
   4  -3   0 87.9143 2.44682  -2
  -4   3   0 87.9143 2.44682   1
   3  -3   0 6.42161 0.54127   1
   3  -3   0 6.40591 0.41813   1
   3  -3   0 6.49550 0.45284   1
   3  -3   0 6.32458 0.29817   1
   3  -3   0 7.31806 0.44915   2
   3  -3   0 7.08102 0.43349   2
   3  -3   0 7.26154 0.36424   2
   3  -3   0 7.30988 0.39848   2
   3  -3   0 7.68711 0.46164   2
   3  -3   0 7.30424 0.51513   2
  -3   3   0 6.56442 0.50767   2
  -3   3   0 7.26044 0.33353   2
  -3   3   0 7.11333 0.49723   2
  -3   3   0 8.00995 0.51781   2
  -3   3   0 6.76997 0.41852   1
  -3   3   0 6.46162 0.40253   1
  -3   3   0 6.54451 0.42887   1
  -3   3   0 6.62625 0.37754   1
  -3   3   0 6.68993 0.33715   1
  -3   3   0 6.49905 0.48098   1
  -2   3  -1 12.8679 0.64361  -2
   2  -3   0 12.8679 0.64361   1
  -2   3  -1 10.2827 0.45499  -2
   2  -3   0 10.2827 0.45499   1
  -2   3  -1 10.0193 0.52387  -2
   2  -3   0 10.0193 0.52387   1
   2  -3   1 10.8901 0.51660  -2
  -2   3   0 10.8901 0.51660   1
   2  -3   1 10.1864 0.44433  -2
  -2   3   0 10.1864 0.44433   1
   2  -3   1 12.1267 0.57302  -2
  -2   3   0 12.1267 0.57302   1
   2  -3   1 9.67301 0.42001  -2
  -2   3   0 9.67301 0.42001   1
   2  -3   1 9.74945 0.49108  -2
  -2   3   0 9.74945 0.49108   1
   1  -3   0 1.88519 0.17105   2
   1  -3   0 2.00197 0.25450   2
   1  -3   0 1.69125 0.16962   2
   1  -3   0 1.65773 0.25085   2
   1  -3   0 2.20989 0.25561   2
   1  -3   0 1.60575 0.27397   1
  -1   3   0 1.43177 0.21523   1
  -1   3   0 1.54549 0.21027   1
  -1   3   0 1.65096 0.14344   1
  -1   3   0 1.63582 0.21527   1
  -1   3   0 1.84686 0.20723   2
  -1   3   0 1.86778 0.16277   2
  -1   3   0 1.76823 0.15107   2
   0  -3   0 284.451 6.59933   2
   0  -3   2 313.640 8.14341  -2
   0   3   0 313.640 8.14341   1
   0  -3   2 321.118 7.29303  -2
   0   3   0 321.118 7.29303   1
   0  -3   2 321.157 6.95470  -2
   0   3   0 321.157 6.95470   1
   0   3   0 242.405 5.54011   1
  -1  -3   0 914.835 19.3532   2
  -1  -3   0 920.836 22.9826   2
  -1  -3   0 914.795 22.6706   2
  -1  -3   0 926.244 20.6683   2
  -1  -3   0 894.064 25.1174   2
  -1  -3   0 898.701 20.2745   2
  -1  -3   0 901.315 22.6804   2
  -1  -3   0 931.069 23.0066   2
   1   3   0 808.861 20.3355   1
   1   3   0 812.388 22.2566   1
   1   3   0 789.098 20.6431   1
   1   3   0 811.856 18.2326   1
   1   3   0 817.156 20.2612   1
   1   3   0 791.797 17.1326   1
   1   3   0 842.199 18.1443   1
  -2  -3   0 521.628 11.7433   2
  -2  -3   0 511.007 12.8232   2
  -2  -3   0 500.881 12.3545   2
  -2  -3   0 513.724 13.1865   2
  -2  -3   0 518.014 13.1808   2
  -2  -3   0 502.332 12.9301   2
  -2  -3   0 508.559 11.0057   2
  -2  -3   0 505.423 11.5601   2
  -2  -3   0 510.788 14.3707   2
   2   3   0 450.286 11.7614   1
   2   3   0 458.010 12.1463   1
   2   3   0 457.748 11.8437   1
   2   3   0 462.733 12.8739   1
   2   3   0 464.190 10.6005   1
   2   3   0 457.942 10.5057   1
  -3  -3   0 1053.09 28.1572   2
  -3  -3   0 1003.22 23.0156   2
  -3  -3   0 1018.43 25.7629   2
  -3  -3   0 999.587 25.1876   2
  -3  -3   0 1007.25 25.8359   2
  -3  -3   0 1001.31 22.5604   2
  -3  -3   0 992.675 24.2888   2
  -3  -3   0 844.984 21.4340   1
  -3  -3   0 882.483 20.7924   1
   3   3   0 894.025 20.2414   1
   3   3   0 896.339 20.0705   1
   3   3   0 886.438 22.9130   1
   3   3   0 914.433 24.6335   1
   3   3   0 893.823 22.4467   1
   3   3   0 868.773 21.3224   1
  -4  -3   0 79.2680 3.08111   2
  -4  -3   0 84.2824 2.43452   2
  -4  -3   0 91.0058 2.40563   2
  -4  -3   0 71.6787 2.14088   1
  -4  -3   0 71.2798 1.90846   1
   4   3   0 69.2089 2.36675   1
   4   3   0 68.7835 2.15748   1
   4   3   0 69.7155 2.60453   1
  -5  -3   0 252.497 6.20341   1
  -5  -3   0 249.406 5.28899   1
  -5  -3   0 247.759 5.43630   1
  -5  -3   0 243.575 6.08781   1
  -5  -3   0 248.135 6.46155   1
  -5  -3   0 244.048 5.34039   1
  -5  -3   0 246.961 5.23428   1
  -5  -3   0 292.794 7.31475   2
  -5  -3   0 288.518 9.75208   2
   5   3   0 288.286 7.04487   2
   5   3   0 290.417 6.05056   2
   5   3   0 252.649 6.78854   1
   5   3   0 254.896 8.08738   1
  -6  -3   0 7.31052 0.36435   2
  -6  -3   0 7.38093 0.45710   2
  -6  -3   0 8.12626 0.42997   2
  -6  -3   0 6.39464 0.33782   1
  -6  -3   0 6.45672 0.38625   1
  -6  -3   0 6.89972 0.39571   1
  -6  -3   0 6.24092 0.44251   1
  -6  -3   0 6.20096 0.32454   1
  -6  -3   0 6.01762 0.33357   1
   6   3   0 6.38890 0.49263   1
   6   3   0 7.16762 0.38867   2
  -7  -3   0 0.93156 0.10570   2
   7   3  -6 5.09978 0.23829  -2
  -7  -3   0 5.09978 0.23829   1
   7   3  -6 4.74554 0.25928  -2
  -7  -3   0 4.74554 0.25928   1
   7   3  -6 5.07947 0.23577  -2
  -7  -3   0 5.07947 0.23577   1
  -7  -3   6 6.61024 0.36850  -2
   7   3   0 6.61024 0.36850   1
   8  -4   0 23.2636 0.57717   1
  -8   4   0 26.2747 0.78452   2
  -7   4   1 6.87721 0.42229  -2
   7  -4   0 6.87721 0.42229   1
  -7   4   1 6.92896 0.33497  -2
   7  -4   0 6.92896 0.33497   1
  -7   4   1 6.36820 0.43526  -2
   7  -4   0 6.36820 0.43526   1
   7  -4  -1 6.25249 0.34119  -2
  -7   4   0 6.25249 0.34119   1
   7  -4  -1 6.07875 0.22034  -2
  -7   4   0 6.07875 0.22034   1
   6  -4   0 0.95586 0.26881   1
   6  -4   0 0.22367 0.21695   1
   6  -4   0 0.20157 0.18917   1
   6  -4   0 0.27812 0.14219   1
   6  -4   0 0.03758 0.12008   2
   6  -4   0 0.15085 0.10258   2
  -6   4   0 0.23818 0.10846   2
  -6   4   0 0.02731 0.14104   2
  -6   4   0 0.30353 0.27023   2
  -6   4   0 0.29320 0.16031   2
  -6   4   0 0.21369 0.13328   1
  -6   4   0 0.32895 0.11290   1
  -5   4   0 8.55201 0.41630  -2
   5  -4   0 8.55201 0.41630   1
  -5   4   0 8.09469 0.49687  -2
   5  -4   0 8.09469 0.49687   1
  -5   4   0 9.01891 0.55667  -2
   5  -4   0 9.01891 0.55667   1
  -5   4   0 8.11750 0.73506  -2
   5  -4   0 8.11750 0.73506   1
   5  -4   0 8.29486 0.45078  -2
  -5   4   0 8.29486 0.45078   1
   5  -4   0 9.44438 0.43850  -2
  -5   4   0 9.44438 0.43850   1
   4  -4   0 26.0878 1.36602   1
   4  -4   0 26.3374 1.18400   1
   4  -4   0 25.4824 0.97891   1
   4  -4   0 22.8112 1.36422   2
   4  -4   0 29.6263 0.95793   2
   4  -4   0 28.7411 1.13595   2
  -4   4   0 26.1887 1.06837   1
  -4   4   0 25.9043 0.91635   1
  -4   4   0 24.4758 1.05461   1
  -4   4   0 29.1488 1.34646   2
  -4   4   0 28.0057 0.95914   2
   3  -4   0 34.1731 1.21642   2
   3  -4   0 32.9567 1.23175   2
   3  -4   0 34.7321 1.25250   2
   3  -4   0 34.3594 1.38479   2
   3  -4   0 34.1670 1.10124   2
   3  -4   0 31.1747 1.37887   1
   3  -4   0 31.8659 1.22596   1
  -3   4   0 30.1030 1.10368   1
  -3   4   0 32.0594 1.13094   1
  -3   4   0 29.8474 1.05242   1
  -3   4   0 31.9364 1.25738   1
  -3   4   0 29.0553 1.12407   1
  -3   4   0 29.6592 1.01488   1
  -3   4   0 35.4466 1.50086   2
  -3   4   0 35.9634 1.40200   2
  -3   4   0 32.3014 0.99622   2
   2  -4   0 256.503 6.92087   1
   2  -4   0 252.459 6.90776   1
   2  -4   0 288.788 6.79079   2
   2  -4   0 287.648 6.55656   2
   2  -4   0 294.464 6.82544   2
   2  -4   0 288.940 7.61835   2
   2  -4   0 286.265 7.34406   2
   2  -4   0 283.035 7.39323   2
  -2   4   0 282.866 7.24008   2
  -2   4   0 290.351 7.92850   2
  -2   4   0 288.381 7.54281   2
  -2   4   0 239.897 5.74084   1
  -2   4   0 250.763 6.66849   1
  -2   4   0 258.736 5.99683   1
  -2   4   0 249.094 6.47220   1
  -2   4   0 255.275 5.98911   1
  -2   4   0 257.972 6.53404   1
   1  -4   0 752.065 16.6771   2
   1  -4   0 744.767 15.9402   2
   1  -4   0 759.839 18.6423   2
   1  -4   0 724.563 18.4791   2
   1  -4   0 748.559 16.8897   2
   1  -4   0 734.333 18.3179   2
   1  -4   0 657.426 16.5428   1
  -1   4   0 741.745 18.6911   2
  -1   4   0 721.973 18.3666   2
  -1   4   0 604.394 15.9018   1
  -1   4   0 627.360 13.8337   1
  -1   4   0 651.885 16.1784   1
  -1   4   0 667.749 14.6407   1
  -1   4   0 649.286 14.4773   1
   0  -4   0 394.790 10.2619   2
   0  -4   0 414.090 9.47951   2
   0  -4   0 411.628 8.99835   2
   0  -4   0 420.112 10.5586   2
   0  -4   0 414.095 9.43176   2
   0  -4   0 413.921 10.5540   2
   0  -4   0 397.473 10.3097   2
   0  -4   0 416.737 11.4714   2
   0  -4   0 357.611 9.38473   1
   0   4   0 344.636 7.75663   1
   0   4   0 357.712 9.14623   1
   0   4   0 349.954 8.16539   1
   0   4   0 345.356 8.86477   1
   0   4   0 361.187 8.10918   1
   0   4   0 396.820 10.1763   2
  -1  -4   0 1226.74 30.6923   2
  -1  -4   0 1262.97 27.9405   2
  -1  -4   0 1251.17 31.0564   2
  -1  -4   0 1241.54 27.4531   2
  -1  -4   0 1251.46 26.1971   2
  -1  -4   0 1209.89 30.2131   2
  -1  -4   0 1205.92 30.6394   2
  -1  -4   0 1247.48 33.9610   2
  -1  -4   0 1208.69 29.5257   2
  -1  -4   0 1004.36 25.2139   1
   1   4   0 1057.57 23.5386   1
   1   4   0 1059.99 26.8678   1
   1   4   0 1052.02 26.3197   1
   1   4   0 1051.57 22.3021   1
   1   4   0 1086.98 23.7492   1
  -2  -4   0 114.499 3.03014   2
  -2  -4   0 116.490 3.14236   2
  -2  -4   0 112.755 3.44564   2
  -2  -4   0 116.221 3.74581   2
  -2  -4   0 111.122 3.48005   2
  -2  -4   0 115.961 2.97525   2
  -2  -4   0 95.9596 2.72258   1
   2   4   0 101.556 2.58223   1
   2   4   0 98.1247 3.17367   1
   2   4   0 98.7333 3.38712   1
   2   4   0 97.1609 2.82934   1
   2   4   0 101.620 3.17986   1
  -3  -4   0 215.472 6.40082   2
  -3  -4   0 222.750 5.87385   2
  -3  -4   0 230.746 5.71317   2
  -3  -4   0 228.492 6.92672   2
  -3  -4   0 195.898 5.09451   1
  -3  -4   0 192.017 4.72487   1
   3   4   0 196.682 6.03402   1
   3   4   0 195.900 5.94799   1
   3   4   0 193.515 5.01782   1
   3   4   0 196.891 4.91910   1
   3   4   0 190.619 5.10914   1
   4   4  -5 17.1669 0.57759  -2
  -4  -4   0 17.1669 0.57759   1
   4   4  -5 17.4329 0.82163  -2
  -4  -4   0 17.4329 0.82163   1
   4   4  -5 16.1099 0.76461  -2
  -4  -4   0 16.1099 0.76461   1
   4   4  -5 17.0096 0.65447  -2
  -4  -4   0 17.0096 0.65447   1
   4   4  -5 16.7399 0.58326  -2
  -4  -4   0 16.7399 0.58326   1
   4   4  -5 18.1362 0.69293  -2
  -4  -4   0 18.1362 0.69293   1
  -4  -4   5 17.3049 1.11682  -2
   4   4   0 17.3049 1.11682   1
  -5  -4   0 8.67917 0.57250   1
  -5  -4   0 9.14344 0.48010   1
  -5  -4   0 9.11496 0.55359   1
  -5  -4   0 8.45833 0.40080   1
  -5  -4   0 9.02180 0.46025   1
  -5  -4   0 9.08138 0.40846   1
  -5  -4   0 8.63204 0.38785   1
  -5  -4   0 10.4943 0.56563   2
  -5  -4   0 10.2443 0.46916   2
   5   4   0 10.2544 0.47673   2
   5   4   0 10.2462 0.33766   2
   6   4  -6 3.48296 0.25608  -2
  -6  -4   0 3.48296 0.25608   1
   6   4  -6 3.20704 0.24092  -2
  -6  -4   0 3.20704 0.24092   1
   6   4  -6 3.32554 0.26514  -2
  -6  -4   0 3.32554 0.26514   1
   6   4  -6 3.35195 0.20354  -2
  -6  -4   0 3.35195 0.20354   1
   6   4  -6 3.50698 0.22467  -2
  -6  -4   0 3.50698 0.22467   1
  -6  -4   6 2.95568 0.32351  -2
   6   4   0 2.95568 0.32351   1
   7  -5   0 0.97528 0.16965   2
   7  -5   0 1.08724 0.12036   2
   7  -5   0 1.01655 0.13655   1
   7  -5   0 1.14648 0.21833   1
   7  -5   0 1.20338 0.24267   1
  -7   5   0 0.93887 0.16856   1
  -7   5   0 0.85902 0.10128   1
  -7   5   0 1.10304 0.11303   2
  -7   5   0 1.50738 0.20702   2
  -7   5   0 1.28359 0.21351   2
   6  -5   0 11.6239 0.47330   1
   6  -5   0 12.0449 0.66929   1
   6  -5   0 12.8573 0.65011   1
   6  -5   0 13.7383 0.49748   2
   6  -5   0 13.5651 0.56770   2
  -6   5   0 13.6300 0.47389   2
  -6   5   0 13.5639 0.64589   2
  -6   5   0 13.2578 0.61772   2
  -6   5   0 11.9698 0.53740   1
  -6   5   0 12.1883 0.47396   1
   5  -5   0 5.26832 0.33188   2
   5  -5   0 5.46782 0.37213   2
   5  -5   0 4.61008 0.29837   1
   5  -5   0 4.91443 0.44098   1
   5  -5   0 4.30557 0.41213   1
   5  -5   0 4.24959 0.51202   1
  -5   5   0 4.77445 0.34622   1
  -5   5   0 4.93051 0.52783   1
  -5   5   0 5.45237 0.39781   2
  -5   5   0 5.79147 0.30785   2
  -5   5   0 5.06534 0.62296   2
  -5   5   0 6.33740 0.41917   2
   4  -5   0 27.0207 1.04958   1
   4  -5   0 25.7969 1.19631   1
   4  -5   0 31.5640 1.03621   2
   4  -5   0 31.1759 1.26542   2
  -4   5   0 27.0704 0.99697   1
  -4   5   0 27.3240 1.17126   1
  -4   5   0 31.2679 1.45466   2
  -4   5   0 30.3100 1.05860   2
   3  -5   0 88.0457 2.56804   2
   3  -5   0 92.0382 2.55819   2
   3  -5   0 92.2672 2.99126   2
   3  -5   0 91.7094 2.67313   2
   3  -5   0 90.9517 2.76117   2
  -3   5  -2 78.0335 2.26756  -2
   3  -5   0 78.0335 2.26756   1
   3  -5   0 80.7414 2.84494   1
   3  -5   0 77.3067 2.04039   1
  -3   5   0 80.6039 2.30509   1
  -3   5   0 80.6226 2.47217   1
  -3   5   0 78.0018 2.32009   1
  -3   5   0 77.9055 2.27118   1
  -3   5   0 89.6703 2.97672   2
   2  -5   0 27.8696 0.92556   1
   2  -5   0 27.0339 0.98935   1
   2  -5   0 27.5631 1.35199   1
   2  -5   0 34.3709 1.26701   2
   2  -5   0 29.8944 1.18681   2
   2  -5   0 32.6414 1.42209   2
   2  -5   0 34.2666 1.10366   2
   2  -5   0 32.6837 1.27022   2
  -2   5   0 29.7726 1.13561   1
  -2   5   0 27.4928 1.21048   1
  -2   5   0 28.2646 1.00997   1
  -2   5   0 28.9711 0.98820   1
  -2   5   0 28.7302 1.11666   1
  -2   5   0 26.5748 1.07762   1
  -1   5  -3 244.473 6.14826  -2
   1  -5   0 244.473 6.14826   1
   1  -5   3 242.188 6.45106  -2
  -1   5   0 242.188 6.45106   1
   1  -5   3 253.778 5.91886  -2
  -1   5   0 253.778 5.91886   1
   1  -5   3 243.604 6.69048  -2
  -1   5   0 243.604 6.69048   1
   1  -5   3 248.156 6.00350  -2
  -1   5   0 248.156 6.00350   1
   1  -5   3 247.983 5.76757  -2
  -1   5   0 247.983 5.76757   1
   0  -5   0 60.7275 1.83278   1
   0  -5   0 62.0323 1.77739   1
   0  -5   0 72.4188 2.19778   2
   0  -5   0 72.2518 2.23222   2
   0  -5   0 73.2939 2.47111   2
   0  -5   0 75.4433 2.06168   2
   0  -5   0 72.8413 2.10388   2
   0  -5   0 70.2909 2.00531   2
   0  -5   0 75.3719 2.09988   2
   0   5   0 63.0809 2.40792   1
   0   5   0 63.0707 1.93733   1
   0   5   0 62.5228 1.94841   1
   0   5   0 62.5644 1.81741   1
   0   5   0 61.9880 2.15758   1
   0   5   0 64.2810 1.74593   1
   1   5  -4 26.8884 0.93590  -2
  -1  -5   0 26.8884 0.93590   1
   1   5  -4 25.1582 0.89760  -2
  -1  -5   0 25.1582 0.89760   1
   1   5  -4 23.8668 0.73680  -2
  -1  -5   0 23.8668 0.73680   1
  -1  -5   4 24.1701 1.21064  -2
   1   5   0 24.1701 1.21064   1
  -1  -5   4 27.2074 0.91841  -2
   1   5   0 27.2074 0.91841   1
  -1  -5   4 24.7249 1.08475  -2
   1   5   0 24.7249 1.08475   1
  -1  -5   4 26.7273 1.37705  -2
   1   5   0 26.7273 1.37705   1
  -2  -5   0 1.06922 0.24303   1
  -2  -5   0 1.08056 0.14465   1
  -2  -5   0 1.13265 0.22745   1
  -2  -5   0 1.21065 0.38638   2
  -2  -5   0 0.91375 0.30820   2
  -2  -5   0 0.88245 0.18975   2
  -2  -5   0 1.01451 0.19553   2
  -2  -5   0 0.89285 0.29179   2
   2   5   0 1.04362 0.23169   1
   2   5   0 0.86302 0.29473   1
   3   5  -5 40.3530 1.19170  -2
  -3  -5   0 40.3530 1.19170   1
   3   5  -5 41.7701 1.21206  -2
  -3  -5   0 41.7701 1.21206   1
   3   5  -5 42.8699 1.44762  -2
  -3  -5   0 42.8699 1.44762   1
   3   5  -5 41.0548 1.06868  -2
  -3  -5   0 41.0548 1.06868   1
   3   5  -5 40.1373 1.37043  -2
  -3  -5   0 40.1373 1.37043   1
   3   5  -5 40.9956 1.06812  -2
  -3  -5   0 40.9956 1.06812   1
  -3  -5   0 29.3737 1.04845   2
  -3  -5   5 43.6313 1.41938  -2
   3   5   0 43.6313 1.41938   1
  -4  -5   0 14.1999 0.71461   1
  -4  -5   0 15.0338 0.75610   1
  -4  -5   0 14.9169 0.62822   1
  -4  -5   0 14.4205 0.53407   1
  -4  -5   0 15.6229 0.61834   1
  -4  -5   0 16.9267 0.64868   2
  -4  -5   0 18.2730 0.78278   2
   4   5   0 17.4603 0.50766   2
   4   5   0 17.6878 0.64441   2
  -5  -5   0 0.57048 0.18678   1
  -5  -5   0 0.58288 0.16443   1
  -5  -5   0 0.83775 0.14398   1
  -5  -5   0 0.88041 0.17006   1
  -5  -5   0 0.56855 0.19675   1
  -5  -5   0 1.10084 0.14425   1
  -5  -5   0 1.06818 0.17575   2
   5   5   0 0.76353 0.15962   2
  -6  -5   0 7.08670 0.36608   1
  -6  -5   0 7.12387 0.31194   1
  -6  -5   0 7.38981 0.28581   1
  -6  -5   0 7.18036 0.21765   1
  -6  -5   0 8.07497 0.27699   2
   6   5   0 8.04962 0.30744   2
   7  -6   0 3.20139 0.30448   1
   7  -6   0 3.09546 0.27004   1
   7  -6   0 3.09616 0.13754   2
   7  -6   0 2.94107 0.21730   2
  -7   6   0 2.89325 0.15425   1
  -7   6   0 2.81580 0.21918   1
  -7   6   0 3.24899 0.26994   2
  -6   6  -1 22.1336 0.89951  -2
   6  -6   0 22.1336 0.89951   1
  -6   6  -1 22.3231 0.84861  -2
   6  -6   0 22.3231 0.84861   1
   6  -6   1 24.7477 0.80860  -2
  -6   6   0 24.7477 0.80860   1
   6  -6   1 24.9742 0.74201  -2
  -6   6   0 24.9742 0.74201   1
   5  -6   0 0.23292 0.09323   1
   5  -6   0 0.24429 0.18422   1
   5  -6   0 0.62914 0.23277   1
   5  -6   0 0.31976 0.11903   2
   5  -6   0 0.39132 0.14537   2
  -5   6   0 0.36069 0.17630   2
  -5   6   0 0.22493 0.09605   2
  -5   6   0 0.37497 0.35258   1
  -5   6   0 0.47896 0.14729   1
  -4   6  -2 0.21649 0.09889  -2
   4  -6   0 0.21649 0.09889   1
  -4   6  -2 0.01585 0.21597  -2
   4  -6   0 0.01585 0.21597   1
  -4   6  -2 0.15978 0.15647  -2
   4  -6   0 0.15978 0.15647   1
   4  -6   2 0.61506 0.18455  -2
  -4   6   0 0.61506 0.18455   1
   4  -6   2 0.14262 0.27647  -2
  -4   6   0 0.14262 0.27647   1
   4  -6   2 -0.1306 0.17298  -2
  -4   6   0 -0.1306 0.17298   1
   3  -6   0 1.27196 0.43068   1
   3  -6   0 0.76539 0.14508   1
   3  -6   0 0.63734 0.20695   1
   3  -6   0 0.78602 0.27284   2
   3  -6   0 1.32844 0.37367   2
   3  -6   0 0.90930 0.18179   2
  -3   6   0 0.97677 0.26221   1
  -3   6   0 0.89806 0.20710   1
  -3   6   0 0.75124 0.25475   1
  -3   6   0 0.75954 0.13854   2
  -3   6   0 0.94253 0.20909   2
  -2   6  -3 40.0357 1.14631  -2
   2  -6   0 40.0357 1.14631   1
  -2   6  -3 39.7760 1.27965  -2
   2  -6   0 39.7760 1.27965   1
  -2   6  -3 37.5469 1.28891  -2
   2  -6   0 37.5469 1.28891   1
   2  -6   3 40.9303 1.39350  -2
  -2   6   0 40.9303 1.39350   1
   2  -6   3 36.2396 1.35780  -2
  -2   6   0 36.2396 1.35780   1
   2  -6   3 41.7381 1.56967  -2
  -2   6   0 41.7381 1.56967   1
   1  -6   0 38.5954 1.92771   2
   1  -6   0 44.0886 1.35303   2
   1  -6   0 41.0064 1.53393   2
   1  -6   0 38.2036 1.54173   2
   1  -6   0 40.1471 1.49894   2
   1  -6   0 34.9725 1.24859   1
   1  -6   0 36.1569 1.19326   1
   1  -6   0 36.2932 1.73035   1
   1  -6   0 37.0317 1.03939   1
  -1   6   0 37.6356 1.41234   1
  -1   6   0 37.1638 1.26736   1
  -1   6   0 36.7159 1.38752   1
  -1   6   0 33.1518 1.57762   1
  -1   6   0 35.7545 1.43001   1
   0  -6   0 26.3112 1.23060   2
   0  -6   0 28.7790 1.00551   2
   0  -6   0 26.0386 1.17184   2
   0  -6   0 27.8972 0.96870   2
   0   6  -4 36.9738 1.25220  -2
   0  -6   0 36.9738 1.25220   1
   0  -6   0 24.3659 0.73151   1
   0  -6   0 23.1570 0.93754   1
   0   6   0 23.6270 1.02891   1
   0   6   0 22.8343 1.09931   1
   0   6   0 22.3473 0.92552   1
   0   6   0 21.7693 1.23421   1
  -1  -6   0 3.54477 0.31811   2
  -1  -6   0 3.27070 0.28249   2
  -1  -6   0 3.81490 0.55083   2
  -1  -6   0 3.47946 0.32656   2
  -1  -6   0 4.11041 0.51285   2
  -1  -6   0 2.96880 0.32634   1
  -1  -6   0 3.14967 0.32702   1
  -1  -6   0 2.99017 0.21709   1
  -1  -6   0 2.78986 0.23446   1
  -1  -6   0 3.33963 0.41304   1
  -1  -6   0 2.55134 0.32449   1
  -1  -6   0 3.19258 0.19991   1
   1   6   0 2.63654 0.44116   1
   1   6   0 3.69836 0.37813   1
   1   6   0 3.94692 0.23045   2
   1   6   0 3.81596 0.31950   2
  -2  -6   0 2.50145 0.33261   1
  -2  -6   0 2.28156 0.25760   1
  -2  -6   0 2.81954 0.33995   1
  -2  -6   0 1.86010 0.31546   1
  -2  -6   0 2.51828 0.21379   1
  -2  -6   0 2.38453 0.21160   1
  -2  -6   0 2.22696 0.18927   1
  -2  -6   0 2.76779 0.29138   2
  -2  -6   0 2.35461 0.26238   2
  -2  -6   0 2.53168 0.31517   2
   2   6   0 3.39478 0.29359   2
   2   6   0 2.75249 0.20081   2
  -3  -6   0 0.81796 0.17500   2
  -3  -6   0 0.13319 0.14701   2
  -3  -6   0 -0.0927 0.12800   1
  -3  -6   0 -0.1552 0.15105   1
  -3  -6   0 0.07636 0.09626   1
  -3  -6   0 -0.0751 0.11881   1
  -3  -6   0 0.06962 0.09252   1
  -3  -6   0 0.10664 0.08388   1
   3   6   0 0.07889 0.17357   1
   3   6   0 0.15224 0.07634   2
  -4  -6   0 48.3269 1.23424   1
  -4  -6   0 47.7878 1.32797   1
  -4  -6   0 48.3980 1.59546   1
  -4  -6   0 47.8449 1.51818   1
  -4  -6   0 49.0006 1.16389   1
  -4  -6   0 48.7689 1.40174   1
  -4  -6   0 54.8951 1.69200   2
  -4  -6   0 55.1359 1.40899   2
  -4  -6   0 57.2076 1.44983   2
   5   6  -7 163.239 3.57870  -2
  -5  -6   0 163.239 3.57870   1
   5   6  -7 162.804 3.51274  -2
  -5  -6   0 162.804 3.51274   1
   5   6  -7 160.047 4.01081  -2
  -5  -6   0 160.047 4.01081   1
   5   6  -7 172.177 4.09351  -2
  -5  -6   0 172.177 4.09351   1
  -5  -6   0 152.878 3.11071   1
  -5  -6   0 178.623 3.78295   2
   7  -7   1 13.6649 0.43627  -2
  -7   7   0 13.6649 0.43627   1
   6  -7   0 0.09498 0.09813   2
   6  -7   0 0.12202 0.07232   2
   6  -7   0 0.24635 0.15655   1
   6  -7   0 0.35267 0.17822   1
  -6   7   0 0.22370 0.09054   1
  -6   7   0 0.24673 0.11734   1
  -6   7   0 0.75725 0.17920   2
   5  -7   0 41.2122 1.42173   1
   5  -7   0 44.6731 1.16451   2
   5  -7   2 80.5135 2.00460  -2
  -5   7   0 80.5135 2.00460   1
   5  -7   2 78.5411 2.58900  -2
  -5   7   0 78.5411 2.58900   1
  -5   7   0 44.5327 1.05314   2
  -5   7   0 45.7520 1.41254   2
   4  -7   0 1.86517 0.21533   2
   4  -7   0 2.39767 0.45005   2
   4  -7   0 1.73540 0.24316   2
   4  -7   0 2.37320 0.36963   1
   4  -7   0 2.66536 0.35356   1
  -4   7   0 2.31167 0.18116   2
  -4   7   0 2.04095 0.22280   2
  -4   7   0 1.98953 0.25427   1
  -4   7   0 1.62267 0.27736   1
  -4   7   0 2.56090 0.47066   1
   3  -7   0 1.27055 0.27346   1
   3  -7   0 1.44338 0.27789   1
   3  -7   0 1.57039 0.21013   1
   3  -7   0 1.63614 0.19548   1
   3  -7   0 1.17860 0.20669   1
   3  -7   0 1.46316 0.23250   2
   3  -7   0 1.72455 0.23093   2
   3  -7   0 1.68555 0.37024   2
  -3   7   0 1.66906 0.39067   1
  -3   7   0 1.30440 0.25326   1
  -3   7   0 1.41078 0.19974   2
  -3   7   0 1.62617 0.16954   2
   2  -7   0 26.9564 1.06592   1
   2  -7   0 26.2042 0.75774   1
   2  -7   0 26.0939 0.83939   1
   2  -7   0 25.5513 0.97340   1
   2  -7   0 25.7468 1.00429   1
   2  -7   0 25.3570 0.81849   1
   2  -7   0 30.4751 1.03760   2
   2  -7   0 30.6872 1.33810   2
  -2   7   0 25.7696 1.04241   1
  -2   7   0 25.9437 1.22077   1
  -2   7   0 28.5823 0.88453   2
  -2   7   0 29.0831 0.79086   2
   1  -7   0 70.9235 2.12419   1
   1  -7   0 70.7115 2.10324   1
   1  -7   0 69.7606 1.81598   1
   1  -7   0 71.0006 2.19750   1
   1  -7   0 70.6642 1.92049   1
   1  -7   0 70.3800 1.68910   1
   1  -7   0 70.7470 1.74584   1
   1  -7   0 80.4300 2.57281   2
   1  -7   0 79.1383 2.26646   2
  -1   7   0 84.1797 2.69498   1
  -1   7   0 72.0287 2.40649   1
  -1   7   0 76.7639 1.77230   2
  -1   7   0 77.5720 1.96551   2
  -1   7   0 77.3203 1.89666   2
   0  -7   0 11.1668 0.46459   1
   0  -7   0 11.0626 0.63553   1
   0  -7   0 10.7616 0.60748   1
   0  -7   0 9.86086 0.40210   1
   0  -7   0 11.9464 0.58337   2
   0   7  -5 34.7896 1.04304  -2
   0  -7   0 34.7896 1.04304   1
   0   7  -5 35.2820 0.96335  -2
   0  -7   0 35.2820 0.96335   1
   0   7  -5 35.6641 1.08132  -2
   0  -7   0 35.6641 1.08132   1
   0   7  -5 36.7904 1.27825  -2
   0  -7   0 36.7904 1.27825   1
  -1  -7   0 12.6730 0.66459   1
  -1  -7   0 13.1082 0.70245   1
  -1  -7   0 13.1291 0.49838   1
  -1  -7   0 13.0004 0.66527   1
  -1  -7   0 12.9762 0.52149   1
  -1  -7   0 12.8301 0.52946   1
  -1  -7   0 12.4761 0.56438   1
  -1  -7   0 14.4603 0.47554   1
  -1  -7   0 15.3554 0.68416   2
  -1  -7   0 14.7779 0.64932   2
  -1  -7   0 14.4487 0.60582   2
   1   7   0 14.8852 0.46135   2
   1   7   0 15.0631 0.58151   2
   2   7  -6 59.7174 1.77886  -2
  -2  -7   0 59.7174 1.77886   1
   2   7  -6 55.8718 1.37578  -2
  -2  -7   0 55.8718 1.37578   1
   2   7  -6 57.6240 1.42205  -2
  -2  -7   0 57.6240 1.42205   1
   2   7  -6 58.8731 1.54687  -2
  -2  -7   0 58.8731 1.54687   1
   2   7  -6 59.8813 1.62464  -2
  -2  -7   0 59.8813 1.62464   1
   2   7  -6 60.7866 1.86816  -2
  -2  -7   0 60.7866 1.86816   1
  -2  -7   6 59.7472 1.87084  -2
   2   7   0 59.7472 1.87084   1
  -3  -7   0 210.187 4.49620   2
  -3  -7   0 203.716 5.32556   2
  -3  -7   0 211.712 4.61941   2
  -3  -7   0 182.662 4.00049   1
  -3  -7   0 179.292 4.75588   1
  -3  -7   0 180.126 3.76036   1
  -3  -7   0 182.029 3.90105   1
  -3  -7   0 179.951 4.56102   1
  -3  -7   0 183.109 4.45276   1
   3   7   0 176.998 4.71670   1
   4   7  -7 16.5706 0.49702  -2
  -4  -7   0 16.5706 0.49702   1
   4   7  -7 15.9911 0.55906  -2
  -4  -7   0 15.9911 0.55906   1
   4   7  -7 15.8166 0.63332  -2
  -4  -7   0 15.8166 0.63332   1
   4   7  -7 15.6800 0.56003  -2
  -4  -7   0 15.6800 0.56003   1
   4   7  -7 16.1715 0.67082  -2
  -4  -7   0 16.1715 0.67082   1
   4   7  -7 16.5047 0.39780  -2
  -4  -7   0 16.5047 0.39780   1
   6  -8   0 10.1428 0.25962   2
   6  -8   0 9.68741 0.38046   2
  -6   8   0 8.56625 0.31288   1
  -6   8   0 9.02668 0.34813   1
  -5   8  -3 27.6448 1.00808  -2
   5  -8   0 27.6448 1.00808   1
   5  -8   0 15.2607 0.48203   2
   5  -8   3 28.2121 0.85066  -2
  -5   8   0 28.2121 0.85066   1
   4  -8   0 2.27780 0.44958   2
   4  -8   0 1.93154 0.20282   2
   4  -8   0 1.51335 0.21096   2
   4  -8   0 3.00347 0.35324   1
   4  -8   0 2.16328 0.32298   1
  -4   8   0 1.72768 0.40986   1
  -4   8   0 1.59258 0.21987   1
  -4   8   0 2.09056 0.12346   2
  -4   8   0 1.94097 0.20863   2
  -3   8  -4 32.4500 1.00384  -2
   3  -8   0 32.4500 1.00384   1
  -3   8  -4 35.8136 1.03294  -2
   3  -8   0 35.8136 1.03294   1
  -3   8  -4 36.1641 1.29348  -2
   3  -8   0 36.1641 1.29348   1
  -3   8  -4 35.3981 1.21298  -2
   3  -8   0 35.3981 1.21298   1
   3  -8   4 35.1069 1.29830  -2
  -3   8   0 35.1069 1.29830   1
   3  -8   4 33.9001 1.48672  -2
  -3   8   0 33.9001 1.48672   1
   2  -8   0 12.1578 0.52654   1
   2  -8   0 12.0247 0.61959   1
   2  -8   0 13.1991 0.69777   1
   2  -8   0 12.6901 0.65552   1
   2  -8   0 12.0688 0.46983   1
   2  -8   0 12.1465 0.52684   1
   2  -8   0 12.8998 0.53214   1
   2  -8   0 12.4639 0.82966   2
   2  -8   0 13.3818 0.61176   2
   2  -8   0 13.5514 0.54397   2
  -2   8   0 12.0124 0.81621   1
  -2   8   0 11.9613 0.68217   1
  -2   8   0 13.9689 0.54662   2
  -1   8  -5 85.7360 2.44883  -2
   1  -8   0 85.7360 2.44883   1
  -1   8  -5 85.2434 1.98094  -2
   1  -8   0 85.2434 1.98094   1
  -1   8  -5 84.3314 2.24962  -2
   1  -8   0 84.3314 2.24962   1
  -1   8  -5 87.5597 2.38913  -2
   1  -8   0 87.5597 2.38913   1
  -1   8  -5 84.8372 2.11578  -2
   1  -8   0 84.8372 2.11578   1
  -1   8  -5 86.2404 1.98048  -2
   1  -8   0 86.2404 1.98048   1
  -1   8  -5 87.9015 2.49855  -2
   1  -8   0 87.9015 2.49855   1
   1  -8   5 82.8954 2.72088  -2
  -1   8   0 82.8954 2.72088   1
   1  -8   5 81.6537 2.58193  -2
  -1   8   0 81.6537 2.58193   1
   0  -8   0 0.02521 0.11479   2
   0  -8   0 0.09757 0.11405   2
   0  -8   0 -0.0336 0.21434   2
   0  -8   0 0.20966 0.11899   1
   0  -8   0 0.24205 0.16175   1
   0  -8   0 0.06208 0.15747   1
   0  -8   0 0.41387 0.10928   1
   0  -8   0 0.18805 0.10590   1
   0  -8   0 0.07287 0.12091   1
   0  -8   0 0.07451 0.09835   1
   0  -8   0 0.04968 0.15614   1
   0   8   0 0.13825 0.05558   2
   0   8   0 0.06803 0.11335   2
   1   8  -6 97.2984 2.18032  -2
  -1  -8   0 97.2984 2.18032   1
   1   8  -6 102.064 2.37813  -2
  -1  -8   0 102.064 2.37813   1
   1   8  -6 98.5479 2.55621  -2
  -1  -8   0 98.5479 2.55621   1
   1   8  -6 102.535 2.25387  -2
  -1  -8   0 102.535 2.25387   1
   1   8  -6 96.7478 2.67816  -2
  -1  -8   0 96.7478 2.67816   1
   1   8  -6 97.8653 2.80117  -2
  -1  -8   0 97.8653 2.80117   1
   1   8  -6 100.576 2.34777  -2
  -1  -8   0 100.576 2.34777   1
  -2  -8   0 4.76449 0.30300   2
  -2  -8   0 4.99698 0.28377   2
  -2  -8   0 4.52235 0.34107   2
  -2  -8   0 4.73420 0.30591   1
  -2  -8   0 4.33038 0.27120   1
  -2  -8   0 3.95776 0.37180   1
  -2  -8   0 3.74653 0.33649   1
  -2  -8   0 4.09733 0.20800   1
  -2  -8   0 4.19125 0.23733   1
   2   8   0 5.02501 0.29415   2
   2   8   0 4.05332 0.37467   1
  -3  -8   0 0.04630 0.07612   1
  -3  -8   0 0.14257 0.13943   1
  -3  -8   0 0.17385 0.09811   1
  -3  -8   0 0.28146 0.12945   1
  -3  -8   0 0.00095 0.06523   1
  -3  -8   0 0.07153 0.07960   2
  -3  -8   0 0.10684 0.08956   2
   5  -9   0 0.65735 0.07112   2
  -5   9   0 0.33108 0.09349   1
  -4   9  -4 3.94384 0.27276  -2
   4  -9   0 3.94384 0.27276   1
  -4   9  -4 3.57227 0.23984  -2
   4  -9   0 3.57227 0.23984   1
  -4   9  -4 3.86436 0.32848  -2
   4  -9   0 3.86436 0.32848   1
   3  -9   0 18.8064 0.57807   2
   3  -9   0 15.3354 0.55479   1
   3  -9   0 15.9117 0.53927   1
   3  -9   0 15.6430 0.70117   1
   3  -9   0 16.0482 0.66465   1
  -3   9   0 18.1634 0.59352   2
   2  -9   0 2.73994 0.33449   1
   2  -9   0 3.16253 0.31197   1
   2  -9   0 2.79810 0.23363   1
   2  -9   0 2.95024 0.23581   1
   2  -9   0 2.85718 0.20090   1
   2  -9   0 3.30728 0.23628   2
  -2   9  -5 23.2027 0.76837  -2
   2  -9   0 23.2027 0.76837   1
  -2   9   0 3.28266 0.25510   2
   1  -9   0 0.15192 0.14416   1
   1  -9   0 0.04671 0.08904   1
   1  -9   0 0.13717 0.14345   1
   1  -9   0 0.11379 0.09735   1
   1  -9   0 0.04199 0.09661   1
   1  -9   0 0.16746 0.08641   1
   1  -9   0 0.27797 0.15346   1
   1  -9   0 -0.0379 0.09695   2
   1  -9   0 0.13204 0.08983   2
  -1   9   0 0.26014 0.11317   2
   0  -9   0 6.50056 0.33673   2
   0  -9   0 6.71710 0.32005   2
   0  -9   0 5.54241 0.38072   1
   0  -9   0 5.48328 0.41029   1
   0  -9   0 5.49043 0.26266   1
   0  -9   0 5.68203 0.31026   1
   0  -9   0 5.71602 0.27416   1
   0  -9   0 5.86353 0.31122   1
   0   9   0 5.32854 0.41739   1
   0   9   0 6.56629 0.33388   2
  -1  -9   0 1.46400 0.17133   2
  -1  -9   0 1.61320 0.16217   2
  -1  -9   0 1.20627 0.15579   1
  -1  -9   0 1.16657 0.21388   1
  -1  -9   0 1.36721 0.14709   1
  -1  -9   0 1.32033 0.21119   1
  -1  -9   0 1.31085 0.14916   1
  -1  -9   0 1.35861 0.11155   1
  -1  -9   0 1.42759 0.16655   1
   1   9   0 1.43780 0.16543   2
  -2  -9   0 0.97907 0.11289   1
  -2  -9   0 0.90072 0.11888   1
  -2  -9   0 0.80585 0.14289   1
  -2  -9   0 1.12401 0.11206   2
  -2  -9   0 1.14726 0.14102   2
   3 -10   0 1.21404 0.09002   2
   3 -10   0 1.34718 0.12603   1
   2 -10   0 5.78875 0.22497   1
   2 -10   0 5.95867 0.21875   2
  -2  10  -6 116.446 2.83981  -2
   2 -10   0 116.446 2.83981   1
   1 -10   0 0.08771 0.06360   2
   1 -10   0 0.02751 0.06102   1
   1 -10   0 -0.0149 0.09788   1
   1 -10   0 0.14079 0.05370   1
   1 -10   0 0.05992 0.06515   1
  -1  10   0 0.13933 0.07242   2
   0 -10   6 32.6558 0.83624  -2
   0  10  -1 32.6558 0.83624   1
   0  10  -6 31.2932 0.89162  -2
   0 -10   1 31.2932 0.89162   1
   0  10  -6 32.2394 0.71463  -2
   0 -10   1 32.2394 0.71463   1
   0  10  -6 28.8809 0.75841  -2
   0 -10   1 28.8809 0.75841   1
  -1  10  -1 5.34081 0.26002   2
   1 -10   1 4.42959 0.28360   1
   1 -10   1 5.21969 0.25182   1
   1 -10   1 4.59172 0.22924   1
   1 -10   1 4.66025 0.22708   1
   1 -10   1 5.57303 0.25378   2
   1 -10   1 5.23720 0.25490   2
   2 -10   1 0.69819 0.11864   1
   2 -10   1 0.69064 0.10820   2
  -3  10  -1 20.8546 0.55753   2
   3 -10   1 21.1170 0.55778   2
   3 -10   1 17.2606 0.51783   1
   2   9  -1 2.44183 0.19017   2
  -2  -9   1 2.50289 0.18558   2
  -2  -9   1 2.27310 0.18672   2
  -2  -9   1 2.28159 0.19985   1
  -2  -9   1 2.12920 0.13179   1
  -2  -9   1 2.23885 0.16612   1
  -2  -9   1 2.44267 0.23244   1
   1   9  -1 5.81155 0.31133   2
  -1  -9   1 4.91594 0.29856   1
  -1  -9   1 5.36954 0.27154   1
  -1  -9   1 4.92621 0.27782   1
  -1  -9   1 5.26987 0.25383   1
  -1  -9   1 5.21670 0.38786   1
  -1  -9   1 5.31340 0.31001   1
  -1  -9   1 5.20135 0.36153   1
  -1  -9   1 6.12726 0.31189   2
  -1  -9   1 5.42039 0.30850   2
   0   9  -1 11.5386 0.46341   2
   0   9  -1 9.85027 0.56015   1
   0  -9   1 9.60427 0.43062   1
   0  -9   1 9.68703 0.55369   1
   0  -9   1 9.38947 0.44018   1
   0  -9   1 9.79479 0.39361   1
   0  -9   1 9.83261 0.40362   1
   0  -9   1 10.1096 0.51903   1
   0  -9   1 9.75539 0.42843   1
   0  -9   1 10.8566 0.46989   2
   0  -9   1 11.0152 0.45794   2
  -1   9  -1 0.02148 0.09967   2
   1  -9   1 0.26848 0.11555   2
   1  -9   1 0.04548 0.11297   2
   1  -9   1 0.09470 0.15525   1
   1  -9   1 0.08708 0.09338   1
   1  -9   1 0.12124 0.09893   1
   1  -9   1 0.19624 0.12155   1
   1  -9   1 0.03012 0.14193   1
   1  -9   1 0.21238 0.12484   1
   1  -9   1 0.19824 0.11750   1
   1  -9   1 0.08100 0.13565   1
  -2   9  -1 0.03188 0.09864   2
   2  -9   1 0.08690 0.11933   1
   2  -9   1 -0.1696 0.12425   1
   2  -9   1 0.36514 0.18765   1
   2  -9   1 0.19252 0.10794   2
  -2   9  -4 9.24345 0.46988  -2
   2  -9   1 9.24345 0.46988   1
  -3   9  -1 1.31614 0.17017   2
   3  -9   1 1.43067 0.26487   1
   3  -9   1 1.37008 0.21245   1
   3  -9   1 1.24392 0.22751   1
   3  -9   1 1.23220 0.17225   1
   3  -9   1 1.46364 0.18642   2
  -4   9  -3 24.6714 0.84894  -2
   4  -9   1 24.6714 0.84894   1
  -5   9  -1 0.49060 0.09696   1
   5  -9   1 0.57952 0.09513   2
  -4  -8   1 0.54238 0.09295   1
  -4  -8   1 0.51436 0.12631   1
  -4  -8   1 0.33482 0.09143   1
  -4  -8   1 0.45806 0.09478   2
   3   8  -1 3.03330 0.21295   2
  -3  -8   1 2.45832 0.21135   2
  -3  -8   1 2.54576 0.21371   2
  -3  -8   1 2.89699 0.24178   1
  -3  -8   1 1.96638 0.17528   1
  -3  -8   1 2.05861 0.15854   1
  -3  -8   1 2.01730 0.27208   1
  -3  -8   1 1.73509 0.24051   1
  -3  -8   1 2.03715 0.20069   1
   2   8  -1 3.34803 0.36434   1
   2   8  -1 3.68196 0.27620   2
  -2  -8   1 3.14835 0.28379   1
  -2  -8   1 3.58848 0.36686   1
  -2  -8   1 3.02312 0.25256   1
  -2  -8   1 3.37113 0.23152   1
  -2  -8   1 3.20262 0.32763   1
  -2  -8   1 3.11984 0.23331   1
  -2  -8   1 3.65214 0.27874   2
  -2  -8   1 3.64925 0.32215   2
  -1  -8   5 6.48953 0.57255  -2
   1   8  -1 6.48953 0.57255   1
  -1  -8   5 5.62704 0.50246  -2
   1   8  -1 5.62704 0.50246   1
   1   8  -5 6.61140 0.34810  -2
  -1  -8   1 6.61140 0.34810   1
   1   8  -5 5.97397 0.49197  -2
  -1  -8   1 5.97397 0.49197   1
   1   8  -5 6.30662 0.40900  -2
  -1  -8   1 6.30662 0.40900   1
   1   8  -5 6.07672 0.37634  -2
  -1  -8   1 6.07672 0.37634   1
   1   8  -5 6.50853 0.36381  -2
  -1  -8   1 6.50853 0.36381   1
   1   8  -5 6.60269 0.48018  -2
  -1  -8   1 6.60269 0.48018   1
   0   8  -1 16.6014 0.61552   2
   0   8  -1 14.5809 0.74948   1
   0  -8   1 14.2267 0.51638   1
   0  -8   1 13.9034 0.68494   1
   0  -8   1 14.0302 0.57413   1
   0  -8   1 13.7611 0.68899   1
   0  -8   1 14.2126 0.58238   1
   0  -8   1 14.8030 0.73560   1
   0  -8   1 14.1379 0.57845   1
   0  -8   1 13.3458 0.55135   1
   0  -8   1 17.2461 0.98068   2
   0  -8   1 16.0257 0.71610   2
   0  -8   1 15.7250 0.70372   2
   0  -8   1 16.3249 0.64639   2
   1  -8   4 21.3028 0.93494  -2
  -1   8  -1 21.3028 0.93494   1
   1  -8   4 22.1154 1.09189  -2
  -1   8  -1 22.1154 1.09189   1
  -1   8  -4 20.4140 0.74546  -2
   1  -8   1 20.4140 0.74546   1
  -1   8  -4 20.3979 0.84279  -2
   1  -8   1 20.3979 0.84279   1
  -1   8  -4 19.4897 0.69761  -2
   1  -8   1 19.4897 0.69761   1
  -1   8  -4 20.1366 0.88807  -2
   1  -8   1 20.1366 0.88807   1
  -1   8  -4 21.6453 0.75347  -2
   1  -8   1 21.6453 0.75347   1
  -1   8  -4 21.3501 0.72977  -2
   1  -8   1 21.3501 0.72977   1
  -1   8  -4 21.5549 0.87554  -2
   1  -8   1 21.5549 0.87554   1
  -1   8  -4 21.4785 0.66912  -2
   1  -8   1 21.4785 0.66912   1
  -2   8  -1 1.80818 0.40873   1
  -2   8  -1 1.15910 0.25587   1
  -2   8  -1 0.98967 0.17171   2
  -2   8  -1 0.93975 0.19815   2
   2  -8   1 1.28910 0.25208   1
   2  -8   1 1.36931 0.29431   1
   2  -8   1 1.55138 0.22114   1
   2  -8   1 0.93307 0.23635   1
   2  -8   1 0.78993 0.16167   1
   2  -8   1 1.07780 0.19423   1
   2  -8   1 1.82785 0.26258   1
   2  -8   1 1.10311 0.35356   2
   2  -8   1 1.25418 0.22963   2
   3  -8   3 85.1491 2.71848  -2
  -3   8  -1 85.1491 2.71848   1
   3  -8   3 80.5320 2.42508  -2
  -3   8  -1 80.5320 2.42508   1
  -3   8  -3 86.5204 2.02655  -2
   3  -8   1 86.5204 2.02655   1
  -3   8  -3 75.9065 2.20219  -2
   3  -8   1 75.9065 2.20219   1
  -3   8  -3 78.4018 2.32847  -2
   3  -8   1 78.4018 2.32847   1
  -4   8  -1 8.15271 0.70487   1
  -4   8  -1 10.1268 0.46998   1
   4  -8   1 10.7603 0.77548   2
   4  -8   1 10.4978 0.44574   2
   4  -8   1 10.1763 0.47476   2
   4  -8   1 9.95362 0.54572   1
   4  -8   1 11.3078 0.61700   1
   5  -8   2 148.662 3.32537  -2
  -5   8  -1 148.662 3.32537   1
  -5   8  -1 20.1380 0.63427   1
  -5   8  -1 23.0023 0.80719   2
   5  -8   1 22.3414 0.66292   2
  -5   8  -2 144.376 3.81152  -2
   5  -8   1 144.376 3.81152   1
  -6   8  -1 39.6579 1.02271   1
  -6   8  -1 40.0358 0.94067   1
   6  -8   1 44.7707 1.13716   2
   6  -8   1 46.1123 1.04115   2
  -5  -7   1 32.5744 0.77724   2
  -5  -7   1 28.4866 0.83644   1
  -5  -7   1 28.0610 0.72698   1
  -5  -7   1 27.4566 0.71232   1
   4   7  -6 73.6541 1.72438  -2
  -4  -7   1 73.6541 1.72438   1
   4   7  -6 72.4587 1.96506  -2
  -4  -7   1 72.4587 1.96506   1
   4   7  -6 75.2945 2.13821  -2
  -4  -7   1 75.2945 2.13821   1
   4   7  -6 80.8222 1.83264  -2
  -4  -7   1 80.8222 1.83264   1
   4   7  -6 75.1839 1.66560  -2
  -4  -7   1 75.1839 1.66560   1
   4   7  -6 76.2430 2.05833  -2
  -4  -7   1 76.2430 2.05833   1
   3   7  -1 3.93323 0.29068   2
   3   7  -1 3.34219 0.40383   1
  -3  -7   1 2.92506 0.30487   1
  -3  -7   1 3.22224 0.36354   1
  -3  -7   1 5.05719 0.40008   1
  -3  -7   1 3.44438 0.24972   1
  -3  -7   1 3.29541 0.27617   1
  -3  -7   1 3.40367 0.24421   1
  -3  -7   1 3.58955 0.33419   2
  -3  -7   1 3.87780 0.29505   2
  -2  -7   5 10.8092 0.68365  -2
   2   7  -1 10.8092 0.68365   1
   2   7  -5 14.5085 0.50382  -2
  -2  -7   1 14.5085 0.50382   1
   2   7  -5 12.0431 0.68009  -2
  -2  -7   1 12.0431 0.68009   1
   2   7  -5 11.6832 0.54555  -2
  -2  -7   1 11.6832 0.54555   1
   2   7  -5 11.0981 0.51630  -2
  -2  -7   1 11.0981 0.51630   1
   2   7  -5 12.4729 0.48236  -2
  -2  -7   1 12.4729 0.48236   1
   2   7  -5 10.9920 0.62491  -2
  -2  -7   1 10.9920 0.62491   1
   1   7  -1 80.7432 1.74024   2
   1   7  -1 80.5484 1.98731   2
  -1  -7   1 83.2582 2.36862   2
  -1  -7   1 83.4544 2.44003   2
  -1  -7   1 69.4190 1.69110   1
  -1  -7   1 66.6108 2.10865   1
  -1  -7   1 68.4810 2.03118   1
  -1  -7   1 68.7986 1.87478   1
  -1  -7   1 69.2491 2.05932   1
  -1  -7   1 68.7828 1.74954   1
  -1  -7   1 68.3813 1.65005   1
  -1  -7   1 68.8623 1.75639   1
   0   7  -1 23.2876 1.00987   1
   0   7  -4 739.944 17.7215  -2
   0  -7   1 739.944 17.7215   1
   0   7  -4 740.653 15.3070  -2
   0  -7   1 740.653 15.3070   1
   0   7  -4 725.242 14.9818  -2
   0  -7   1 725.242 14.9818   1
   0   7  -4 702.684 14.6163  -2
   0  -7   1 702.684 14.6163   1
   0  -7   1 23.5534 0.71629   1
   0  -7   1 24.4041 0.81243   1
   0  -7   1 23.9111 0.95990   1
   0  -7   1 26.4121 1.01749   2
  -1   7  -1 17.4532 0.63474   2
  -1   7  -1 18.1628 0.68501   2
  -1   7  -1 15.7512 0.90799   1
  -1   7  -1 14.1894 0.99324   1
  -1   7  -1 15.8112 0.78510   1
   1  -7   1 15.1432 0.60208   1
   1  -7   1 15.3575 0.77239   1
   1  -7   1 16.0257 0.72471   1
   1  -7   1 15.8636 0.62339   1
   1  -7   1 15.9834 0.61034   1
   1  -7   1 15.2205 0.73466   1
   1  -7   1 16.6398 0.55291   1
   1  -7   1 15.3488 0.60128   1
   1  -7   1 17.3944 0.78542   2
   1  -7   1 18.6110 0.97883   2
  -2   7  -1 3.32367 0.19930   2
  -2   7  -1 3.41936 0.28476   2
  -2   7  -1 3.65532 0.32916   2
  -2   7  -1 2.29922 0.42130   1
  -2   7  -1 2.30166 0.32706   1
   2  -7   1 3.20186 0.34180   2
   2  -7   1 3.00382 0.49486   2
   2  -7   1 3.03416 0.28128   1
   2  -7   1 2.60962 0.24415   1
   2  -7   1 2.09469 0.27944   1
   2  -7   1 2.53789 0.23229   1
   2  -7   1 4.14209 0.43367   1
  -3   7  -1 47.3156 1.80572   1
  -3   7  -1 46.3595 1.58229   1
  -3   7  -1 51.2328 1.21163   2
  -3   7  -1 53.2994 1.61775   2
  -3   7  -1 51.6167 1.35436   2
   3  -7   1 47.0504 1.58354   1
   3  -7   1 46.1077 1.49540   1
   3  -7   1 45.5086 1.27361   1
   3  -7   1 54.8851 1.68651   2
   3  -7   1 54.2619 1.97209   2
   3  -7   1 51.2038 1.42127   2
  -4   7  -1 16.1346 0.72222   2
  -4   7  -1 15.8655 0.46080   2
  -4   7  -1 14.1973 0.87452   1
  -4   7  -1 13.8699 0.58716   1
  -4   7  -1 12.6764 0.63856   1
   4  -7   1 17.9716 0.65880   2
   4  -7   1 15.4926 0.94507   2
   4  -7   1 14.1855 0.67975   1
   4  -7   1 14.4987 0.74340   1
  -5   7  -1 1.69213 0.09280   2
  -5   7  -1 1.55603 0.24979   2
  -5   7  -1 1.40922 0.19357   1
   5  -7   1 3.55835 0.35246  -2
  -5   7  -1 3.55835 0.35246   1
   5  -7   1 1.44950 0.19394   2
   5  -7   1 1.77849 0.30579   1
  -6   7  -1 3.07769 0.28787   2
  -6   7  -1 3.01934 0.25060   1
  -6   7  -1 3.27566 0.20975   1
   6  -7   1 3.16388 0.25492   2
   6  -7   1 3.42621 0.21762   2
   6  -7   1 2.90250 0.32407   1
   7  -7   0 16.1303 0.49273  -2
  -7   7  -1 16.1303 0.49273   1
   5   6  -6 20.2290 0.72467  -2
  -5  -6   1 20.2290 0.72467   1
   5   6  -6 20.8043 0.63892  -2
  -5  -6   1 20.8043 0.63892   1
   5   6  -6 21.0483 0.70424  -2
  -5  -6   1 21.0483 0.70424   1
   5   6  -6 22.0320 0.82499  -2
  -5  -6   1 22.0320 0.82499   1
   5   6  -6 21.9703 0.60629  -2
  -5  -6   1 21.9703 0.60629   1
   4   6  -1 0.99687 0.28605   1
   4   6  -1 0.81214 0.25070   1
  -4  -6   1 1.04166 0.21978   2
  -4  -6   1 0.60404 0.16003   1
  -4  -6   1 0.75206 0.21810   1
  -4  -6   1 0.71871 0.14633   1
  -4  -6   1 0.79257 0.23247   1
  -4  -6   1 0.83175 0.15892   1
  -4  -6   1 0.68828 0.16999   1
   3   6  -1 14.9780 0.57887   2
   3   6  -1 13.9406 0.71727   1
  -3  -6   1 15.1674 0.71297   2
  -3  -6   1 14.6428 0.59508   2
  -3  -6   1 15.3692 0.69079   2
  -3  -6   1 12.9959 0.52094   1
  -3  -6   1 14.2231 0.73962   1
  -3  -6   1 13.6365 0.57719   1
  -3  -6   1 13.1605 0.58981   1
  -3  -6   1 13.8891 0.68655   1
  -3  -6   1 13.1060 0.50920   1
   2   6  -1 20.0573 0.53692   2
   2   6  -1 19.8365 0.69669   2
  -2  -6   1 16.6723 0.56903   1
  -2  -6   1 16.2873 0.65865   1
  -2  -6   1 16.7818 0.63045   1
  -2  -6   1 17.4565 0.78684   1
  -2  -6   1 17.5425 0.65053   1
  -2  -6   1 17.8153 0.62347   1
  -2  -6   1 18.3157 0.82770   1
  -2  -6   1 20.8202 0.84665   2
  -2  -6   1 19.7076 0.84484   2
  -2  -6   1 19.9592 0.72364   2
   1   6  -1 72.3199 2.41474   1
   1   6  -1 73.2760 2.22877   1
  -1  -6   1 76.2452 1.98161   1
  -1  -6   1 78.3837 2.17955   1
  -1  -6   1 75.0644 2.22985   1
  -1  -6   1 90.1246 2.46541   2
  -1  -6   1 83.9275 2.51786   2
  -1  -6   1 88.5206 2.55248   2
  -1  -6   1 85.7903 2.69131   2
   0   6  -1 1.24139 0.45092   1
   0   6  -1 1.73627 0.38128   1
   0   6  -1 1.94714 0.28391   1
   0   6  -1 1.73371 0.41659   1
   0   6  -1 1.62686 0.28480   1
   0   6  -1 1.51269 0.32233   1
   0  -6   1 1.23109 0.25741   2
   0  -6   1 2.51634 0.42284   2
   0  -6   1 1.11195 0.21897   2
   0  -6   1 1.41743 0.24869   1
  -1   6  -1 42.7940 1.53514   1
  -1   6  -1 42.3630 1.41137   1
  -1   6  -1 42.9683 1.61335   1
  -1   6  -1 43.1036 1.45280   1
  -1   6  -1 44.8121 1.59057   1
  -1   6  -1 43.6106 1.81915   1
  -1   6  -1 48.5598 1.46227   2
  -1   6  -1 48.7921 1.46488   2
   1  -6   1 49.5675 1.75991   2
   1  -6   1 51.0063 1.75410   2
   1  -6   1 49.3379 1.56529   2
   1  -6   1 49.6261 1.58567   2
   1  -6   1 48.3170 1.68590   2
   1  -6   1 45.9298 1.93262   2
   1  -6   1 42.7689 1.21555   1
   1  -6   1 42.6664 1.41396   1
   1  -6   1 44.5988 1.36061   1
   2  -6   2 40.6579 1.59383  -2
  -2   6  -1 40.6579 1.59383   1
   2  -6   2 37.1649 1.74455  -2
  -2   6  -1 37.1649 1.74455   1
   2  -6   2 43.8344 1.63917  -2
  -2   6  -1 43.8344 1.63917   1
   2  -6   2 46.0906 1.54533  -2
  -2   6  -1 46.0906 1.54533   1
   2  -6   2 48.7165 1.52312  -2
  -2   6  -1 48.7165 1.52312   1
   2  -6   2 47.6621 1.69552  -2
  -2   6  -1 47.6621 1.69552   1
  -2   6  -2 46.1823 1.29162  -2
   2  -6   1 46.1823 1.29162   1
  -2   6  -2 45.1107 1.43603  -2
   2  -6   1 45.1107 1.43603   1
  -2   6  -2 47.3186 1.40575  -2
   2  -6   1 47.3186 1.40575   1
  -3   6  -1 10.2204 0.53634   1
  -3   6  -1 10.0967 0.70050   1
  -3   6  -1 11.4575 0.56431   2
   3  -6   1 10.7492 0.72431   2
   3  -6   1 11.3906 0.58452   2
   3  -6   1 11.1476 0.77590   2
   3  -6   1 9.48129 0.57603   1
   4  -6   1 119.355 3.29610  -2
  -4   6  -1 119.355 3.29610   1
   4  -6   1 115.490 3.54721  -2
  -4   6  -1 115.490 3.54721   1
   4  -6   1 116.040 2.81948  -2
  -4   6  -1 116.040 2.81948   1
  -4   6  -1 123.474 3.28924  -2
   4  -6   1 123.474 3.28924   1
  -4   6  -1 118.627 3.11974  -2
   4  -6   1 118.627 3.11974   1
  -4   6  -1 116.608 2.60145  -2
   4  -6   1 116.608 2.60145   1
  -5   6  -1 8.55433 0.45183   1
  -5   6  -1 8.68173 0.42222   1
  -5   6  -1 9.43944 0.33868   2
  -5   6  -1 9.17277 0.50339   2
  -5   6  -1 9.64754 0.54554   2
   5  -6   1 9.66346 0.48004   2
   5  -6   1 9.30024 0.44872   2
   5  -6   1 8.36991 0.53940   1
   5  -6   1 8.68638 0.38825   1
   5  -6   1 8.67455 0.58419   1
   6  -6   0 23.2400 0.68709  -2
  -6   6  -1 23.2400 0.68709   1
   6  -6   0 24.5311 0.80261  -2
  -6   6  -1 24.5311 0.80261   1
  -6   6  -1 21.8910 0.51648   2
  -6   6   0 20.9336 0.64088  -2
   6  -6   1 20.9336 0.64088   1
  -6   6   0 24.7293 0.96117  -2
   6  -6   1 24.7293 0.96117   1
  -7   6  -1 1.28313 0.19037   2
  -7   6  -1 1.21365 0.16463   1
   7  -6   1 1.19958 0.15463   2
   7  -6   1 1.36823 0.12688   2
   7  -6   1 1.32570 0.08631   1
   6   5  -1 4.52896 0.38965   1
   6   5  -1 5.32102 0.26369   2
  -6  -5   1 4.64866 0.24502   1
  -6  -5   1 5.08156 0.27585   1
  -6  -5   1 4.70355 0.22028   1
  -6  -5   1 5.07144 0.33366   1
  -6  -5   1 5.44408 0.26181   2
   5   5  -1 4.10906 0.28797   2
  -5  -5   1 3.96759 0.38130   1
  -5  -5   1 3.77166 0.30255   1
  -5  -5   1 3.91418 0.26544   1
  -5  -5   1 3.88054 0.32501   1
  -5  -5   1 3.98872 0.27294   1
  -5  -5   1 3.93977 0.38523   1
   4   5  -1 1.11413 0.25985   1
   4   5  -1 1.04919 0.28501   1
   4   5  -1 0.77294 0.17812   2
  -4  -5   1 0.70221 0.23144   1
  -4  -5   1 0.57868 0.16753   1
  -4  -5   1 0.84045 0.16321   1
  -4  -5   1 0.82826 0.18123   1
  -4  -5   1 0.84110 0.23147   1
  -4  -5   1 0.97792 0.19445   1
  -4  -5   1 0.93904 0.20911   2
  -4  -5   1 0.85517 0.22851   2
  -3  -5   4 26.8961 1.02906  -2
   3   5  -1 26.8961 1.02906   1
  -3  -5   4 23.9761 1.25048  -2
   3   5  -1 23.9761 1.25048   1
   3   5  -1 23.7381 0.62066   2
   3   5  -4 25.6914 1.03510  -2
  -3  -5   1 25.6914 1.03510   1
   3   5  -4 23.4824 0.84513  -2
  -3  -5   1 23.4824 0.84513   1
   3   5  -4 24.1151 0.74645  -2
  -3  -5   1 24.1151 0.74645   1
   3   5  -4 23.4581 0.97482  -2
  -3  -5   1 23.4581 0.97482   1
   3   5  -4 26.1478 0.86087  -2
  -3  -5   1 26.1478 0.86087   1
   3   5  -4 25.5322 0.79351  -2
  -3  -5   1 25.5322 0.79351   1
   2   5  -1 3.15392 0.24716   2
   2   5  -1 2.70948 0.34932   1
   2   5  -1 2.02835 0.37267   1
   2   5  -1 3.85093 0.71174   1
   2   5  -1 1.74405 0.40975   1
  -2  -5   1 3.24855 0.54894   2
  -2  -5   1 3.34470 0.39542   2
  -2  -5   1 2.78929 0.45713   2
  -2  -5   1 2.97467 0.28048   2
  -2  -5   1 2.99438 0.49977   2
  -2  -5   1 2.80267 0.29316   2
  -2  -5   1 2.90605 0.42613   2
  -2  -5   1 2.46947 0.20597   1
  -2  -5   1 2.50173 0.27438   1
  -2  -5   1 2.28214 0.30862   1
  -1  -5   3 6.14943 0.56681  -2
   1   5  -1 6.14943 0.56681   1
  -1  -5   3 5.56257 0.48027  -2
   1   5  -1 5.56257 0.48027   1
  -1  -5   3 6.77378 0.65909  -2
   1   5  -1 6.77378 0.65909   1
  -1  -5   3 6.28796 0.40554  -2
   1   5  -1 6.28796 0.40554   1
   1   5  -3 5.55398 0.36877  -2
  -1  -5   1 5.55398 0.36877   1
   1   5  -3 5.86738 0.36598  -2
  -1  -5   1 5.86738 0.36598   1
   0   5  -1 81.6336 2.18742   2
   0   5  -1 71.6761 2.56807   1
   0   5  -1 68.2893 2.11775   1
   0   5  -1 71.0121 2.14509   1
   0   5  -1 70.3551 2.37797   1
   0   5  -1 73.1583 2.01290   1
   0   5  -1 71.2717 1.98064   1
   0  -5   1 81.1409 2.34914   2
   0  -5   1 80.0052 2.39677   2
   0  -5   1 79.0826 2.22762   2
   0  -5   1 79.9658 2.29206   2
   0  -5   1 81.0654 2.59968   2
   0  -5   1 82.0285 2.21733   2
   0  -5   1 79.6123 2.63383   2
   0  -5   1 73.0004 1.98689   1
   1  -5   2 35.2365 1.15192  -2
  -1   5  -1 35.2365 1.15192   1
   1  -5   2 34.9630 1.24906  -2
  -1   5  -1 34.9630 1.24906   1
   1  -5   2 34.4695 1.44088  -2
  -1   5  -1 34.4695 1.44088   1
   1  -5   2 33.5836 1.13818  -2
  -1   5  -1 33.5836 1.13818   1
   1  -5   2 35.9214 1.30075  -2
  -1   5  -1 35.9214 1.30075   1
   1  -5   2 33.9020 1.26391  -2
  -1   5  -1 33.9020 1.26391   1
  -1   5  -2 35.2120 1.08815  -2
   1  -5   1 35.2120 1.08815   1
  -2   5  -1 69.1464 2.13357   1
  -2   5  -1 66.8419 2.29767   1
  -2   5  -1 67.4061 1.94882   1
  -2   5  -1 67.4159 2.07194   1
  -2   5  -1 68.6212 1.98708   1
  -2   5  -1 66.9438 2.01303   1
  -2   5  -1 77.1683 2.45696   2
   2  -5   1 73.9451 2.20889   2
   2  -5   1 76.7367 2.25508   2
   2  -5   1 74.3818 2.50695   2
   2  -5   1 78.3913 2.36570   2
   2  -5   1 77.3903 2.21557   2
   2  -5   1 76.5628 2.14420   2
   2  -5   1 67.1739 1.86077   1
   2  -5   1 68.0646 2.37345   1
  -3   5  -1 14.3974 0.61123   2
  -3   5  -1 14.7240 0.92899   2
  -3   5  -1 12.1783 0.73615   1
  -3   5  -1 13.3088 0.76651   1
  -3   5  -1 12.7545 0.85473   1
  -3   5  -1 13.5163 0.60538   1
  -3   5  -1 13.9219 0.74512   1
   3  -5   1 13.6584 0.76440   1
   3  -5   1 12.9515 0.63591   1
   3  -5   1 14.0224 0.69772   2
   3  -5   1 14.1015 0.77686   2
   3  -5   1 14.2163 0.80472   2
   3  -5   1 15.3911 0.65845   2
   3  -5   1 15.0114 0.78109   2
   3  -5   1 13.1139 0.86419   2
  -4   5  -1 9.50831 0.49528   1
  -4   5  -1 10.1811 0.67354   1
  -4   5  -1 10.9440 0.79278   2
  -4   5  -1 11.1127 0.55417   2
   4  -5   1 11.2227 0.70713   2
   4  -5   1 11.2978 0.56431   2
   4  -5   1 9.36173 0.56475   1
   4  -5   1 9.45125 0.67674   1
  -5   5  -1 3.13016 0.54985   2
  -5   5  -1 3.50109 0.33342   2
  -5   5  -1 3.44936 0.33430   2
  -5   5  -1 3.17821 0.21620   2
  -5   5  -1 3.21880 0.32613   1
  -5   5  -1 3.00637 0.25618   1
   5  -5   1 4.16862 0.44744   1
   5  -5   1 3.63453 0.43154   1
   5  -5   1 2.65316 0.47939   1
   5  -5   1 3.32853 0.28621   1
   5  -5   1 3.02912 0.29943   2
   5  -5   1 3.54193 0.35860   2
  -6   5  -1 0.47781 0.17926   2
  -6   5  -1 0.82967 0.19466   2
  -6   5  -1 0.46464 0.09406   2
  -6   5  -1 0.47593 0.15040   1
  -6   5  -1 0.32382 0.09940   1
   6  -5   1 0.33544 0.12129   2
   6  -5   1 0.40391 0.14848   2
   6  -5   1 0.75081 0.23979   1
   6  -5   1 0.63759 0.15299   1
  -7   5  -1 0.47162 0.13747   1
  -7   5  -1 0.61265 0.16054   2
  -7   5  -1 0.34820 0.14471   2
   7  -5   1 0.45830 0.09821   2
   7  -5   1 0.60397 0.15274   2
   7  -5   1 0.56230 0.12521   1
   7  -5   1 0.33614 0.17948   1
   7   4  -1 1.51566 0.18945   1
   7   4  -1 1.57577 0.13515   2
  -7  -4   1 1.33556 0.10468   1
  -7  -4   1 1.43255 0.11948   2
  -6  -4   5 32.1412 1.10679  -2
   6   4  -1 32.1412 1.10679   1
   6   4  -5 31.5011 0.90608  -2
  -6  -4   1 31.5011 0.90608   1
   6   4  -5 30.8753 0.85198  -2
  -6  -4   1 30.8753 0.85198   1
   6   4  -5 30.9981 0.86490  -2
  -6  -4   1 30.9981 0.86490   1
   6   4  -5 33.3346 0.88069  -2
  -6  -4   1 33.3346 0.88069   1
   6   4  -5 32.3909 1.07567  -2
  -6  -4   1 32.3909 1.07567   1
   6   4  -5 29.3317 0.97265  -2
  -6  -4   1 29.3317 0.97265   1
   5   4  -1 21.5647 0.73746   2
   5   4  -1 22.4746 0.85915   2
   5   4  -1 19.7548 0.97477   1
  -5  -4   1 19.4485 0.76124   1
  -5  -4   1 18.9109 0.67066   1
  -5  -4   1 19.1038 0.66683   1
  -5  -4   1 19.6756 0.72844   1
  -5  -4   1 19.7836 0.86053   1
  -5  -4   1 19.5670 0.65655   1
  -5  -4   1 19.7190 0.89330   1
  -5  -4   1 23.2611 0.89305   2
  -5  -4   1 22.2062 0.85728   2
  -4  -4   4 61.2198 2.04042  -2
   4   4  -1 61.2198 2.04042   1
  -4  -4   4 61.5131 1.88693  -2
   4   4  -1 61.5131 1.88693   1
  -4  -4   4 61.4291 2.52385  -2
   4   4  -1 61.4291 2.52385   1
   4   4  -4 62.4778 1.55391  -2
  -4  -4   1 62.4778 1.55391   1
   4   4  -4 71.0567 2.02452  -2
  -4  -4   1 71.0567 2.02452   1
   4   4  -4 68.7577 1.79869  -2
  -4  -4   1 68.7577 1.79869   1
   4   4  -4 65.1037 1.57191  -2
  -4  -4   1 65.1037 1.57191   1
   4   4  -4 63.7517 1.65149  -2
  -4  -4   1 63.7517 1.65149   1
   4   4  -4 66.6789 1.91914  -2
  -4  -4   1 66.6789 1.91914   1
   3   4  -1 48.4709 2.12325   1
   3   4  -1 48.6750 1.88105   1
   3   4  -1 46.3180 1.93149   1
   3   4  -1 48.1142 1.58808   1
   3   4  -1 46.7959 1.49411   1
   3   4  -1 48.4129 1.73031   1
   3   4  -1 52.8942 1.70028   2
  -3  -4   1 46.7997 1.34361   1
  -3  -4   1 46.7037 1.53428   1
  -3  -4   1 55.8073 1.72882   2
  -3  -4   1 54.3118 1.69803   2
  -3  -4   1 57.4526 1.81846   2
  -3  -4   1 54.2428 2.12603   2
  -3  -4   1 56.0816 2.20213   2
  -3  -4   1 57.4141 2.04604   2
  -3  -4   1 55.9596 1.65581   2
   2   4  -1 1.95855 0.33587   1
   2   4  -1 0.90724 0.19853   1
   2   4  -1 1.27924 0.36844   1
   2   4  -1 1.12553 0.25240   1
  -2  -4   3 65.3407 2.25029  -2
   2   4  -1 65.3407 2.25029   1
  -2  -4   1 1.13297 0.28105   2
  -2  -4   1 0.93342 0.28519   2
  -2  -4   1 1.36925 0.21588   2
  -2  -4   1 1.07748 0.17948   2
   1   4  -1 4.14990 0.29100   1
   1   4  -1 3.77977 0.36967   1
   1   4  -1 3.83044 0.41162   1
   1   4  -1 3.68688 0.50994   1
   1   4  -1 3.75078 0.32210   1
   1   4  -1 4.24452 0.31025   1
   1   4  -1 4.90355 0.29537   2
  -1  -4   1 4.39051 0.31941   2
  -1  -4   1 4.24611 0.32868   2
  -1  -4   1 4.53718 0.44656   2
  -1  -4   1 5.88966 0.43165   2
  -1  -4   1 4.65120 0.33968   2
  -1  -4   1 6.04844 0.41867   2
  -1  -4   1 5.09067 0.31188   2
  -1  -4   1 5.62138 0.46203   2
  -1  -4   1 3.86713 0.27074   1
   0   4  -1 0.43395 0.16451   1
   0   4  -1 0.47544 0.11524   1
   0   4  -1 0.52816 0.16062   1
   0   4  -1 0.48241 0.17810   1
   0   4  -1 0.28672 0.13311   1
   0  -4   1 0.52663 0.19409   2
   0  -4   1 0.54448 0.19006   2
   0  -4   1 0.49605 0.13221   2
   0  -4   1 0.42830 0.15195   2
   0  -4   1 0.38650 0.10961   2
   0  -4   1 0.49117 0.16827   2
   0  -4   1 0.41859 0.14941   2
   0  -4   1 0.49319 0.20725   1
  -1   4  -1 2.00119 0.31646   1
  -1   4  -1 2.17504 0.27813   1
  -1   4  -1 1.61009 0.17584   1
  -1   4  -1 1.95534 0.20786   1
  -1   4  -1 1.63616 0.24615   1
  -1   4  -1 1.77508 0.26017   1
  -1   4  -1 2.00420 0.29089   2
   1  -4   1 1.95314 0.30696   2
   1  -4   1 2.38492 0.30179   2
   1  -4   1 1.81300 0.25463   2
   1  -4   1 1.97743 0.28030   2
   1  -4   1 1.78047 0.19048   2
   1  -4   1 2.06402 0.20769   2
   1  -4   1 1.80724 0.31548   1
  -2   4  -1 4.43155 0.37156   2
  -2   4  -1 4.58776 0.41485   2
  -2   4  -1 4.20815 0.35779   1
  -2   4  -1 3.86906 0.32814   1
  -2   4  -1 3.62833 0.29706   1
  -2   4  -1 3.51123 0.34607   1
  -2   4  -1 3.79281 0.26481   1
  -2   4  -1 4.30084 0.42135   1
   2  -4   1 4.63526 0.37091   2
   2  -4   1 4.66155 0.30041   2
   2  -4   1 4.66253 0.33019   2
   2  -4   1 4.28191 0.35360   2
   2  -4   1 4.37722 0.37501   2
   2  -4   1 4.88638 0.42951   2
   2  -4   1 4.04800 0.43241   1
   2  -4   1 3.80919 0.31589   1
  -3   4  -1 6.08931 0.53491   1
  -3   4  -1 6.03970 0.48033   1
  -3   4  -1 6.18989 0.46950   1
  -3   4  -1 6.18187 0.44624   1
  -3   4  -1 6.11260 0.34930   1
  -3   4  -1 6.94383 0.56968   2
  -3   4  -1 6.34333 0.51893   2
   3  -4   1 5.69993 0.55173   1
   3  -4   1 6.28385 0.29071   1
   3  -4   1 5.86109 0.45907   1
   3  -4   1 6.25532 0.42995   2
   3  -4   1 6.82176 0.47615   2
   3  -4   1 6.72891 0.46835   2
   3  -4   1 6.76643 0.50666   2
   3  -4   1 6.73751 0.39292   2
   3  -4   1 6.71441 0.53001   2
  -4   4  -1 12.4522 0.57058   2
  -4   4  -1 12.7368 0.88381   2
  -4   4  -1 12.4970 0.83682   2
  -4   4  -1 11.7775 0.50531   1
  -4   4  -1 11.7104 0.66660   1
  -4   4  -1 11.5461 0.72590   1
   4  -4   1 12.6024 0.75617   1
   4  -4   1 11.5513 0.60241   1
   4  -4   1 11.9226 0.50687   1
   4  -4   1 13.7218 0.73064   2
   4  -4   1 13.1956 0.60298   2
   4  -4   1 13.2290 0.74524   2
   5  -4  -1 77.0770 1.91341  -2
  -5   4  -1 77.0770 1.91341   1
   5  -4  -1 80.6269 1.79520  -2
  -5   4  -1 80.6269 1.79520   1
  -5   4   1 78.6283 2.78186  -2
   5  -4   1 78.6283 2.78186   1
  -5   4   1 63.9668 2.12422  -2
   5  -4   1 63.9668 2.12422   1
  -6   4  -1 4.48437 0.24861   1
  -6   4  -1 4.25110 0.32432   1
  -6   4  -1 4.91924 0.40491   2
  -6   4  -1 6.04330 0.40761   2
  -6   4  -1 5.51202 0.28039   2
  -6   4  -1 5.58637 0.63270   2
   6  -4   1 4.07657 0.50074   1
   6  -4   1 4.17557 0.40948   1
   6  -4   1 4.36128 0.35211   1
   6  -4   1 4.42701 0.44066   1
   6  -4   1 5.40578 0.36582   2
   6  -4   1 6.15940 0.33826   2
   7  -4  -2 23.2458 0.75170  -2
  -7   4  -1 23.2458 0.75170   1
  -7   4   2 25.8153 0.94058  -2
   7  -4   1 25.8153 0.94058   1
  -7   4   2 26.4571 0.77319  -2
   7  -4   1 26.4571 0.77319   1
  -8   4  -1 6.77157 0.31267   2
   8  -4   1 5.19458 0.22629   1
  -7  -3   5 106.098 2.67971  -2
   7   3  -1 106.098 2.67971   1
  -7  -3   5 100.124 2.77227  -2
   7   3  -1 100.124 2.77227   1
   7   3  -5 98.9051 2.23791  -2
  -7  -3   1 98.9051 2.23791   1
   7   3  -5 104.573 2.22872  -2
  -7  -3   1 104.573 2.22872   1
   6   3  -1 44.4349 1.52339   1
   6   3  -1 44.3396 1.60502   1
   6   3  -1 53.2433 1.37908   2
  -6  -3   1 43.8310 1.44291   1
  -6  -3   1 45.3437 1.18299   1
  -6  -3   1 45.3849 1.36978   1
  -6  -3   1 44.2515 1.22747   1
  -6  -3   1 43.6872 1.19619   1
  -6  -3   1 44.6631 1.17578   1
  -6  -3   1 52.7271 1.55025   2
   5   3  -1 168.935 3.73329   2
   5   3  -1 169.021 3.54966   2
   5   3  -1 167.253 4.28777   2
   5   3  -1 141.229 4.84370   1
   5   3  -1 155.140 4.30522   1
  -5  -3   1 147.800 3.90898   1
  -5  -3   1 151.013 4.08588   1
  -5  -3   1 150.376 3.30765   1
  -5  -3   1 147.763 3.34402   1
  -5  -3   1 149.647 3.80715   1
  -5  -3   1 147.813 3.28876   1
  -5  -3   1 173.488 4.42821   2
  -5  -3   1 175.584 4.57515   2
  -5  -3   1 161.314 5.52501   2
  -5  -3   1 169.731 4.40942   2
   4   3  -1 101.679 2.93812   1
   4   3  -1 102.187 3.06335   1
   4   3  -1 102.531 3.49054   1
   4   3  -1 109.303 3.07355   1
   4   3  -1 122.028 3.20978   2
  -4  -3   1 119.099 3.32764   2
  -4  -3   1 118.714 4.04943   2
  -4  -3   1 119.462 3.19092   2
  -4  -3   1 118.446 3.80873   2
  -4  -3   1 102.073 2.91637   1
  -4  -3   1 101.949 2.68739   1
   3   3  -1 78.5191 2.29199   1
   3   3  -1 75.9064 2.55316   1
   3   3  -1 76.7169 2.53943   1
   3   3  -1 74.0588 2.12494   1
   3   3  -1 71.6581 2.06661   1
   3   3  -1 73.4219 2.66688   1
   3   3  -1 73.6703 2.33946   1
  -3  -3   1 86.2950 2.41278   2
  -3  -3   1 83.3181 2.89935   2
  -3  -3   1 86.1925 2.29876   2
  -3  -3   1 85.0108 2.65189   2
  -3  -3   1 83.3301 2.29697   2
  -3  -3   1 84.4202 2.78604   2
  -3  -3   1 84.3832 2.36572   2
  -3  -3   1 84.8778 2.70791   2
  -3  -3   1 71.6446 2.12920   1
   2   3  -1 48.7666 1.70855   1
   2   3  -1 48.7512 1.53443   1
   2   3  -1 48.6133 1.69105   1
   2   3  -1 46.4651 1.82160   1
   2   3  -1 49.9006 1.52839   1
   2   3  -1 47.5483 1.39098   1
  -2  -3   1 55.6430 1.63549   2
  -2  -3   1 57.9830 1.65418   2
  -2  -3   1 56.4864 1.91541   2
  -2  -3   1 56.0854 1.98276   2
  -2  -3   1 58.0499 1.80980   2
  -2  -3   1 56.3041 1.57607   2
  -2  -3   1 56.6906 1.84304   2
   1   3  -1 3.72870 0.23474   1
   1   3  -1 3.57779 0.21325   1
   1   3  -1 3.78847 0.24023   1
   1   3  -1 3.29784 0.29168   1
   1   3  -1 4.02704 0.40730   1
   1   3  -1 3.72670 0.34981   1
  -1  -3   1 4.08613 0.34971   2
  -1  -3   1 4.72759 0.33482   2
  -1  -3   1 4.23685 0.26738   2
  -1  -3   1 3.72506 0.24115   2
  -1  -3   1 3.70586 0.32839   2
  -1  -3   1 4.26301 0.25580   2
  -1  -3   1 4.20481 0.31042   2
   0  -3   1 69.7451 2.09069  -2
   0   3  -1 69.7451 2.09069   1
   0  -3   1 70.9207 1.85052  -2
   0   3  -1 70.9207 1.85052   1
   0  -3   1 70.2805 1.76444  -2
   0   3  -1 70.2805 1.76444   1
   0  -3   1 71.0548 2.07125  -2
   0   3  -1 71.0548 2.07125   1
   0   3  -1 34.4395 0.96094   1
   0  -3   1 36.5243 1.00724   2
  -1   3  -1 0.18286 0.10555   1
  -1   3  -1 0.08517 0.07086   1
  -1   3  -1 -0.0008 0.09498   1
  -1   3  -1 0.15196 0.12245   1
  -1   3  -1 0.25593 0.12090   2
   1  -3   1 0.11680 0.10129   2
   1  -3   1 0.21235 0.12331   2
   1  -3   1 0.26539 0.11043   2
   1  -3   1 0.31599 0.08589   2
   1  -3   1 0.21382 0.05389   1
   1  -3   1 0.23245 0.13261   1
   2  -3   0 10.4957 0.56800  -2
  -2   3  -1 10.4957 0.56800   1
   2  -3   0 10.6089 0.42227  -2
  -2   3  -1 10.6089 0.42227   1
   2  -3   0 10.4368 0.51331  -2
  -2   3  -1 10.4368 0.51331   1
   2  -3   0 10.5166 0.49417  -2
  -2   3  -1 10.5166 0.49417   1
   2  -3   0 10.0543 0.43838  -2
  -2   3  -1 10.0543 0.43838   1
   2  -3   0 9.16423 0.47295  -2
  -2   3  -1 9.16423 0.47295   1
  -2   3   0 8.69296 0.36976  -2
   2  -3   1 8.69296 0.36976   1
  -2   3   0 11.0895 0.48733  -2
   2  -3   1 11.0895 0.48733   1
  -2   3   0 10.5212 0.53022  -2
   2  -3   1 10.5212 0.53022   1
  -2   3   0 8.82230 0.51658  -2
   2  -3   1 8.82230 0.51658   1
  -2   3   0 10.0963 0.40010  -2
   2  -3   1 10.0963 0.40010   1
  -3   3  -1 42.6811 1.27410   1
  -3   3  -1 43.8719 1.41568   1
  -3   3  -1 44.0149 1.32595   1
  -3   3  -1 43.5012 1.40058   1
  -3   3  -1 44.5434 1.57779   1
  -3   3  -1 48.6625 1.71661   2
  -3   3  -1 48.2726 1.73304   2
   3  -3   1 49.3901 1.58087   2
   3  -3   1 50.6739 1.48397   2
   3  -3   1 48.3543 1.45885   2
   3  -3   1 46.8693 1.54408   2
   3  -3   1 48.2943 1.43120   2
   3  -3   1 48.3826 1.40777   2
   3  -3   1 43.6960 1.54248   1
   3  -3   1 45.6661 1.48627   1
   3  -3   1 44.1305 1.32381   1
   3  -3   1 43.5167 1.56973   1
   3  -3   1 42.7627 1.26044   1
   4  -3  -1 232.932 5.68285  -2
  -4   3  -1 232.932 5.68285   1
   4  -3  -1 225.505 6.32206  -2
  -4   3  -1 225.505 6.32206   1
  -4   3   1 219.698 5.81508  -2
   4  -3   1 219.698 5.81508   1
  -4   3   1 230.397 5.98253  -2
   4  -3   1 230.397 5.98253   1
  -4   3   1 228.147 6.33102  -2
   4  -3   1 228.147 6.33102   1
  -4   3   1 236.866 6.59276  -2
   4  -3   1 236.866 6.59276   1
  -5   3  -1 3.62767 0.31523   2
  -5   3  -1 3.80329 0.55736   2
  -5   3  -1 3.14231 0.34601   1
   5  -3   1 3.46475 0.52398   1
   5  -3   1 3.11983 0.35370   1
   5  -3   1 3.49762 0.33005   1
   5  -3   1 3.41039 0.29890   2
  -6   3  -1 51.2007 1.29481   2
  -6   3  -1 53.3668 1.58784   2
   6  -3  -2 48.2197 1.33464  -2
  -6   3  -1 48.2197 1.33464   1
  -6   3  -1 45.9291 1.05874   1
   6  -3   1 42.3891 1.83805   1
   6  -3   1 45.6253 1.55711   1
   6  -3   1 45.6007 1.46102   1
  -6   3   2 47.5964 1.53812  -2
   6  -3   1 47.5964 1.53812   1
   6  -3   1 52.1648 1.35434   2
  -7   3  -1 1.16248 0.12924   2
  -7   3  -1 1.26761 0.21756   2
  -7   3  -1 1.01991 0.19483   2
   7  -3   1 1.02169 0.14335   2
   7  -3   1 1.24738 0.26741   1
   7  -3   1 1.35586 0.28968   1
   7  -3   1 1.20723 0.21475   1
  -8   3  -1 6.89879 0.33563   2
   8  -3   1 5.76099 0.27191   1
   7   2  -1 116.123 3.20909   1
   7   2  -1 119.845 3.08583   1
   7   2  -4 125.087 2.75841  -2
  -7  -2   1 125.087 2.75841   1
  -7  -2   1 117.285 2.59032   1
  -7  -2   1 144.134 3.13025   2
  -7  -2   1 141.865 3.57249   2
   6   2  -1 64.6209 2.02363   1
   6   2  -1 65.6972 2.13736   1
   6   2  -1 74.4521 1.57198   2
   6   2  -1 74.3906 1.83898   2
  -6  -2   1 63.4911 1.93647   1
  -6  -2   1 63.4748 1.61462   1
  -6  -2   1 63.0636 1.84896   1
  -6  -2   1 64.2656 1.59929   1
  -6  -2   1 74.7117 2.16024   2
  -6  -2   1 75.2761 2.08735   2
  -5  -2   3 24.6084 1.35270  -2
   5   2  -1 24.6084 1.35270   1
  -5  -2   3 27.1621 1.11168  -2
   5   2  -1 27.1621 1.11168   1
   5   2  -3 26.3041 0.80439  -2
  -5  -2   1 26.3041 0.80439   1
   5   2  -3 25.4172 0.80494  -2
  -5  -2   1 25.4172 0.80494   1
   5   2  -3 24.6840 0.88831  -2
  -5  -2   1 24.6840 0.88831   1
   5   2  -3 23.5572 0.97269  -2
  -5  -2   1 23.5572 0.97269   1
   4   2  -1 6.66012 0.56573   1
   4   2  -1 6.45765 0.45995   1
   4   2  -1 6.49597 0.56225   1
   4   2  -1 5.58651 0.59130   1
   4   2  -1 5.81107 0.47343   1
   4   2  -1 6.24949 0.78875   1
   4   2  -1 6.92351 0.40893   2
  -4  -2   1 6.91000 0.61163   2
  -4  -2   1 7.50973 0.66658   2
  -4  -2   1 6.43931 0.43859   2
  -4  -2   1 7.27041 0.41628   2
  -4  -2   1 6.65643 0.63367   2
  -4  -2   1 6.69739 0.38209   2
  -4  -2   1 6.24718 0.43105   1
  -4  -2   1 6.06561 0.34722   1
  -4  -2   1 5.44447 0.54064   1
  -3  -2   2 66.5231 1.76932  -2
   3   2  -1 66.5231 1.76932   1
  -3  -2   2 61.3411 1.81591  -2
   3   2  -1 61.3411 1.81591   1
  -3  -2   2 60.8410 2.17229  -2
   3   2  -1 60.8410 2.17229   1
  -3  -2   2 57.0687 2.01598  -2
   3   2  -1 57.0687 2.01598   1
  -3  -2   2 63.9074 2.17907  -2
   3   2  -1 63.9074 2.17907   1
   3   2  -2 64.9384 1.88347  -2
  -3  -2   1 64.9384 1.88347   1
   2   2  -1 5.55695 0.40930   1
   2   2  -1 6.31725 0.36405   1
   2   2  -1 4.76325 0.44919   1
   2   2  -1 4.97196 0.36750   1
   2   2  -1 5.26315 0.30649   1
  -2  -2   1 5.17155 0.36217   2
  -2  -2   1 5.84397 0.42435   2
  -2  -2   1 5.69893 0.29407   2
  -2  -2   1 5.26742 0.38468   2
  -2  -2   1 5.75807 0.41401   2
  -2  -2   1 5.33376 0.21863   2
  -2  -2   1 5.22830 0.33141   2
  -2  -2   1 5.34756 0.38661   1
  -1  -2   1 142.613 3.70275  -2
   1   2  -1 142.613 3.70275   1
  -1  -2   1 133.446 3.06160  -2
   1   2  -1 133.446 3.06160   1
  -1  -2   1 141.574 3.80540  -2
   1   2  -1 141.574 3.80540   1
   1   2  -1 66.4866 1.78196   1
   1   2  -1 64.6430 1.61699   1
   1   2  -1 63.2397 1.96377   1
  -1  -2   1 75.9999 2.30928   2
  -1  -2   1 75.5680 1.84990   2
  -1  -2   1 76.8586 2.09424   2
   0   2  -1 446.209 10.0987   1
   0   2  -1 454.373 11.3401   1
   0   2  -1 453.707 11.2945   1
   0   2  -1 449.445 9.65191   1
   0   2  -1 457.467 10.2729   1
   0   2  -1 514.887 12.9862   2
   0  -2   1 456.220 10.1994   1
   0  -2   1 458.448 11.4614   1
   0  -2   1 513.603 11.6218   2
   0  -2   1 529.906 12.8091   2
   0  -2   1 499.574 11.4432   2
   0  -2   1 522.521 10.9563   2
  -1   2  -1 5.07349 0.24650   1
  -1   2  -1 5.64789 0.29518   1
  -1   2  -1 5.26499 0.32368   1
  -1   2  -1 5.38628 0.27800   1
  -1   2  -1 5.99946 0.34102   2
  -1   2  -1 5.87704 0.24663   2
   1  -2   1 6.04225 0.28073   2
   1  -2   1 5.74425 0.24751   2
   1  -2   1 5.57438 0.29438   2
   1  -2   1 6.15942 0.31418   2
   1  -2   1 5.43507 0.30472   1
   1  -2   1 5.63256 0.25609   1
   1  -2   1 5.51929 0.23128   1
  -2   2  -1 397.980 10.0800   2
  -2   2  -1 384.720 10.5545   2
  -2   2  -1 392.943 10.1008   2
  -2   2  -1 351.561 9.73494   1
  -2   2  -1 348.709 8.03798   1
  -2   2  -1 351.134 8.93343   1
  -2   2  -1 359.997 7.60906   1
  -2   2  -1 351.486 7.99513   1
   2  -2   1 389.159 8.78876   2
   2  -2   1 399.392 9.83094   2
   2  -2   1 393.246 8.51771   2
   2  -2   1 395.064 9.02137   2
   2  -2   1 356.495 9.01263   1
   2  -2   1 342.318 8.99138   1
   2  -2   1 346.086 8.06978   1
   2  -2   1 351.133 9.41437   1
  -3   2  -1 62.3072 1.81162   2
  -3   2  -1 61.9742 2.07448   2
  -3   2  -1 62.7253 2.00600   2
  -3   2  -1 62.0142 1.66393   2
  -3   2  -1 63.9697 2.03642   2
  -3   2  -1 58.9925 1.71275   1
  -3   2  -1 56.5296 1.91181   1
  -3   2  -1 60.2122 1.93164   1
  -3   2  -1 59.0555 1.54300   1
   3  -2   1 57.7248 1.61618   1
   3  -2   1 58.4309 1.91502   1
   3  -2   1 58.1469 1.86001   1
   3  -2   1 57.7130 1.89892   1
   3  -2   1 62.7202 1.78034   2
   3  -2   1 63.8852 1.68981   2
   3  -2   1 60.7574 1.70750   2
  -4   2  -1 4.59153 0.32286   2
  -4   2  -1 5.81690 0.53230   2
  -4   2  -1 5.56975 0.53802   2
  -4   2  -1 5.46347 0.50838   2
  -4   2  -1 4.74070 0.45097   1
  -4   2  -1 5.05979 0.52962   1
   4  -2   1 4.79255 0.37222   1
   4  -2   1 4.48404 0.44399   1
   4  -2   1 4.94186 0.44909   1
   4  -2   1 4.60709 0.42945   1
   4  -2   1 5.93594 0.35174   2
  -5   2  -1 39.6023 1.70677   2
  -5   2  -1 40.5188 1.27650   2
  -5   2  -1 32.4403 1.39143   1
   5  -2   1 37.9493 1.24303   2
   5  -2   1 33.3878 1.22688   1
   5  -2   1 30.9196 1.15978   1
   5  -2   1 31.9836 1.41837   1
  -6   2  -1 46.9963 1.21144   2
  -6   2  -1 47.1277 1.49950   2
   6  -2  -3 50.8019 1.34145  -2
  -6   2  -1 50.8019 1.34145   1
  -6   2   3 50.3320 1.61748  -2
   6  -2   1 50.3320 1.61748   1
  -6   2   3 51.4114 2.10979  -2
   6  -2   1 51.4114 2.10979   1
  -6   2   3 54.5779 1.75203  -2
   6  -2   1 54.5779 1.75203   1
   6  -2   1 42.1677 1.48574   1
  -7   2  -1 15.4732 0.64878   2
  -7   2  -1 14.3579 0.62855   2
  -7   2  -1 14.7323 0.46562   2
  -7   2  -1 12.2525 0.46784   1
   7  -2   1 14.2780 0.48945   2
   7  -2   1 12.5921 0.66719   1
   7  -2   1 12.4086 0.60702   1
  -8   2   4 18.5562 0.57133  -2
   8  -2   1 18.5562 0.57133   1
  -8  -1   4 16.9688 0.56434  -2
   8   1  -1 16.9688 0.56434   1
   8   1  -4 15.8123 0.46826  -2
  -8  -1   1 15.8123 0.46826   1
   7   1  -1 2.49011 0.33743   1
   7   1  -1 2.88430 0.34934   1
   7   1  -1 2.19901 0.23701   2
  -7  -1   1 2.76973 0.24196   2
  -7  -1   1 2.73673 0.28390   2
  -7  -1   1 2.92742 0.28754   2
  -7  -1   1 2.13174 0.22686   1
  -6  -1   3 48.1878 1.65001  -2
   6   1  -1 48.1878 1.65001   1
  -6  -1   3 46.8533 1.57318  -2
   6   1  -1 46.8533 1.57318   1
   6   1  -3 49.8715 1.30520  -2
  -6  -1   1 49.8715 1.30520   1
   6   1  -3 49.7147 1.56496  -2
  -6  -1   1 49.7147 1.56496   1
   5   1  -1 1.11282 0.29389   1
   5   1  -1 0.84553 0.29434   1
   5   1  -1 0.77820 0.22679   1
  -5  -1   1 1.04444 0.33635   2
  -5  -1   1 0.81922 0.17968   2
  -5  -1   1 1.40019 0.24181   2
  -5  -1   1 0.95384 0.24852   1
  -5  -1   1 1.04506 0.20672   1
  -4  -1   2 255.254 7.11409  -2
   4   1  -1 255.254 7.11409   1
  -4  -1   2 248.510 7.51194  -2
   4   1  -1 248.510 7.51194   1
   4   1  -1 30.3267 1.47721   1
   4   1  -1 30.5447 1.14151   1
   4   1  -1 30.7255 1.13258   1
   4   1  -1 31.4022 1.30541   1
  -4  -1   1 35.4571 1.15795   2
  -4  -1   1 35.9867 1.17108   2
  -4  -1   1 35.0539 1.51809   2
  -4  -1   1 34.4411 1.47811   2
  -4  -1   1 35.0186 1.50869   2
   4   1  -2 254.201 6.10682  -2
  -4  -1   1 254.201 6.10682   1
  -4  -1   1 31.0779 1.07830   1
   3   1  -1 30.8765 1.07046   1
   3   1  -1 29.3792 1.27180   1
   3   1  -1 29.8071 1.18194   1
   3   1  -1 29.3611 0.99444   1
   3   1  -1 29.3475 1.00245   1
   3   1  -1 34.9923 1.09558   2
  -3  -1   1 33.9681 1.06839   2
  -3  -1   1 34.9085 1.34295   2
  -3  -1   1 34.0006 1.24433   2
  -3  -1   1 34.8495 1.31373   2
  -3  -1   1 35.5747 1.05330   2
  -3  -1   1 35.1804 1.37011   2
  -3  -1   1 30.1917 1.05114   1
  -3  -1   1 30.4541 1.17456   1
   2   1  -1 10.7377 0.43797   1
   2   1  -1 10.3449 0.57656   1
   2   1  -1 10.1558 0.49319   1
   2   1  -1 12.4922 0.48527   2
   2   1  -1 12.4521 0.54373   2
  -2  -1   1 12.0121 0.58513   2
  -2  -1   1 12.1869 0.42963   2
  -2  -1   1 12.3282 0.58152   2
  -2  -1   1 11.9933 0.57461   2
  -2  -1   1 11.2470 0.47440   1
  -2  -1   1 10.6644 0.53231   1
   1   1  -1 340.525 7.55570   1
   1   1  -1 336.402 7.71337   1
   1   1  -1 349.509 8.45460   1
   1   1  -1 333.910 7.15053   1
   1   1  -1 341.211 8.58523   1
   1   1  -1 334.036 9.35065   1
   1   1  -1 398.277 9.45565   2
   1   1  -1 383.726 8.45243   2
  -1  -1   1 380.501 9.62992   2
  -1  -1   1 377.625 8.54265   2
  -1  -1   1 374.105 9.59290   2
  -1  -1   1 378.502 7.95496   2
  -1  -1   1 364.531 10.4620   2
  -1  -1   1 336.907 7.64243   1
   0   1  -1 1911.80 46.8445   1
   0   1  -1 1892.76 47.7175   1
   0   1  -1 1928.05 42.8921   1
   0   1  -1 1882.72 40.0582   1
   0   1  -1 1877.96 47.4759   1
   0   1  -1 1968.06 41.9462   1
   0   1  -1 2193.52 55.2517   2
   0  -1   1 2277.61 48.6937   2
   0  -1   1 2234.25 46.5502   2
   0  -1   1 2315.75 54.3999   2
   0  -1   1 2080.09 55.3436   2
  -1   1  -1 176.387 4.12558   1
  -1   1  -1 180.516 4.62194   1
  -1   1  -1 183.832 3.92369   1
  -1   1  -1 180.042 4.13649   1
  -1   1  -1 204.945 5.24484   2
  -1   1  -1 198.481 5.24979   2
   1  -1   1 203.521 4.43886   2
   1  -1   1 201.628 4.66221   2
   1  -1   1 208.084 4.53768   2
   1  -1   1 210.257 5.07236   2
   1  -1   1 178.477 4.58846   1
   1  -1   1 182.055 4.16118   1
   1  -1   1 184.659 4.66846   1
  -2   1  -1 443.375 12.4310   2
  -2   1  -1 460.793 11.5078   2
  -2   1  -1 445.544 10.2073   2
  -2   1  -1 457.114 11.5524   2
  -2   1  -1 444.917 12.0419   2
  -2   1  -1 409.297 9.22995   1
  -2   1  -1 414.875 8.70709   1
  -2   1  -1 409.365 11.3344   1
  -2   1  -1 418.387 10.3350   1
   2  -1   1 399.317 9.33662   1
   2  -1   1 417.748 10.4764   1
   2  -1   1 406.276 10.8961   1
   2  -1   1 393.250 10.3806   1
   2  -1   1 446.072 10.2813   2
   2  -1   1 467.062 11.1345   2
   2  -1   1 440.162 9.65005   2
   2  -1   1 455.583 9.95716   2
   3  -1  -2 69.3158 1.93795  -2
  -3   1  -1 69.3158 1.93795   1
   3  -1  -2 71.8352 2.26746  -2
  -3   1  -1 71.8352 2.26746   1
   3  -1  -2 74.3731 2.20948  -2
  -3   1  -1 74.3731 2.20948   1
  -3   1   2 57.4802 2.07741  -2
   3  -1   1 57.4802 2.07741   1
  -3   1   2 61.1267 1.92956  -2
   3  -1   1 61.1267 1.92956   1
  -3   1   2 71.1648 2.17105  -2
   3  -1   1 71.1648 2.17105   1
  -3   1   2 70.5651 1.86000  -2
   3  -1   1 70.5651 1.86000   1
  -3   1   2 70.6128 2.17678  -2
   3  -1   1 70.6128 2.17678   1
  -4   1  -1 166.256 4.81806   1
  -4   1  -1 167.597 4.31149   1
  -4   1  -1 185.039 5.31308   2
  -4   1  -1 175.477 4.61472   2
  -4   1  -1 184.241 4.70012   2
  -4   1  -1 183.173 5.48637   2
  -4   1  -1 187.438 5.28552   2
  -4   1  -1 185.251 5.40478   2
   4  -1   1 169.827 5.07838   1
   4  -1   1 165.129 4.91737   1
   4  -1   1 172.902 4.23719   1
   4  -1   1 169.383 4.89583   1
   4  -1   1 158.757 4.78385   1
   4  -1   1 166.978 4.53622   1
   4  -1   1 186.483 4.81445   2
   5  -1  -3 10.7752 0.49885  -2
  -5   1  -1 10.7752 0.49885   1
   5  -1  -3 14.5369 0.85325  -2
  -5   1  -1 14.5369 0.85325   1
  -5   1   3 11.1763 0.81942  -2
   5  -1   1 11.1763 0.81942   1
  -5   1   3 12.7312 0.62189  -2
   5  -1   1 12.7312 0.62189   1
  -5   1   3 10.5323 0.77856  -2
   5  -1   1 10.5323 0.77856   1
  -5   1   3 10.5020 0.64942  -2
   5  -1   1 10.5020 0.64942   1
  -5   1   3 12.5734 0.66507  -2
   5  -1   1 12.5734 0.66507   1
  -6   1  -1 9.04881 0.50651   2
  -6   1  -1 8.74450 0.77673   2
  -6   1  -1 9.19126 0.50798   2
  -6   1  -1 9.13894 0.41285   2
  -6   1  -1 9.47252 0.55367   1
  -6   1  -1 7.69585 0.40064   1
   6  -1   1 8.77905 0.43893   2
   6  -1   1 9.29626 0.42086   2
   6  -1   1 8.09578 0.58216   1
   6  -1   1 8.03970 0.55939   1
   6  -1   1 7.20038 0.66709   1
   6  -1   1 7.40049 0.52479   1
   7  -1  -4 33.2225 0.95709  -2
  -7   1  -1 33.2225 0.95709   1
  -7   1   4 36.0119 1.13951  -2
   7  -1   1 36.0119 1.13951   1
  -7   1   4 34.1773 1.19578  -2
   7  -1   1 34.1773 1.19578   1
  -8   1  -1 12.0883 0.36862   1
  -8   1  -1 12.1093 0.38581   1
  -8   1  -1 13.7881 0.48301   2
   8   0  -1 12.1622 0.44812   1
   8   0  -1 11.9503 0.50404   1
   8   0  -1 13.5320 0.42304   2
  -8   0   1 13.7208 0.50611   2
  -8   0   1 13.8720 0.40891   2
  -8   0   1 12.1566 0.39218   1
   7   0  -1 4.02302 0.39313   1
   7   0  -1 3.81860 0.40259   1
  -7   0   1 4.70979 0.30980   2
  -7   0   1 4.40954 0.35786   2
  -7   0   1 4.31883 0.34825   2
   7   0  -3 9.98314 0.47911  -2
  -7   0   1 9.98314 0.47911   1
   6   0  -1 14.6239 0.57236   2
   6   0  -1 13.9969 0.47050   2
   6   0  -1 11.8842 0.69798   1
   6   0  -1 13.6471 0.72108   1
   6   0  -1 12.8217 0.70598   1
   6   0  -1 11.2965 0.87201   1
  -6   0   1 13.7835 0.99637   2
  -6   0   1 14.5850 1.04837   2
  -6   0   1 14.7283 0.67178   2
  -6   0   1 13.8605 0.63128   2
  -6   0   1 14.1700 0.65450   2
  -6   0   1 11.8786 0.50536   1
   5   0  -1 0.54763 0.24100   1
   5   0  -1 0.35144 0.16698   1
   5   0  -1 0.30858 0.32438   1
   5   0  -1 0.36012 0.22957   1
   5   0  -1 0.54013 0.19966   1
   5   0  -1 0.66515 0.25392   1
  -5   0   1 0.59151 0.31411   2
  -5   0   1 0.54731 0.16208   2
  -5   0   1 0.42285 0.25560   2
  -5   0   1 0.28453 0.23738   2
  -5   0   1 1.36984 0.22042   2
   4   0  -1 1739.47 44.5548   1
   4   0  -1 1829.56 46.4276   1
   4   0  -1 1774.13 39.9465   1
   4   0  -1 1788.48 48.4317   1
   4   0  -1 1728.93 43.8682   1
   4   0  -1 1786.88 44.5537   1
   4   0  -1 1947.85 49.1753   2
   4   0  -1 1988.08 44.0050   2
  -4   0   1 1981.39 45.0042   2
  -4   0   1 2067.44 52.5385   2
  -4   0   1 2010.07 50.0655   2
  -4   0   1 1960.22 49.4478   2
  -4   0   1 1994.37 50.4470   2
  -4   0   1 2027.14 54.7573   2
  -4   0   1 1722.78 43.6645   1
  -4   0   1 1760.79 39.0802   1
   3   0  -1 330.333 7.66286   1
   3   0  -1 333.835 8.86823   1
   3   0  -1 324.378 9.25152   1
   3   0  -1 324.744 8.59207   1
   3   0  -1 322.342 8.33984   1
   3   0  -1 326.355 8.69985   1
   3   0  -1 365.678 8.22970   2
   3   0  -1 360.016 9.19026   2
  -3   0   1 353.034 9.09572   2
  -3   0   1 358.053 10.2058   2
  -3   0   1 356.048 9.50897   2
  -3   0   1 374.781 9.39486   2
  -3   0   1 357.411 9.80167   2
  -3   0   1 362.330 8.32862   2
  -3   0   1 330.173 7.52434   1
  -3   0   1 327.800 8.39916   1
   2   0  -1 2070.28 57.6557   1
   2   0  -1 3966.86 75.4267   2
  -2   0   1 2381.11 47.9007   1
  -2   0   1 2414.87 51.2525   1
  -2   0   1 3107.69 98.6642   2
  -2   0   1 3765.73 90.4921   2
   2   0   0 9999.99 235.140  -2
  -2   0   1 9999.99 235.140   1
   2   0   0 9162.94 209.557  -2
  -2   0   1 9162.94 209.557   1
   1   0  -1 115.690 2.52628   1
   1   0  -1 114.967 2.71171   1
   1   0  -1 113.983 3.04823   1
   1   0  -1 117.449 3.09712   1
   1   0  -1 133.567 3.12299   2
   1   0  -1 142.284 3.50186   2
   1   0  -1 135.452 2.89197   2
  -1   0   1 119.945 2.92896   1
  -1   0   1 117.498 2.69155   1
  -1   0   1 117.683 2.62103   1
  -1   0   1 133.638 3.08910   2
  -1   0   1 138.470 3.57706   2
  -1   0   1 134.637 3.49772   2
   0   0  -1 1170.49 28.7830  -2
   0   0  -1 1170.49 28.7830   1
   0   0  -1 1142.46 25.5984  -2
   0   0  -1 1142.46 25.5984   1
  -1   0  -1 8.22631 0.25333   1
  -1   0  -1 8.26072 0.38280   1
  -1   0  -1 7.79107 0.35323   1
  -1   0  -1 7.84370 0.33263   1
  -1   0  -1 8.68038 0.26221   2
  -1   0  -1 8.92163 0.31129   2
  -1   0  -1 8.56154 0.26176   2
  -1   0  -1 9.20799 0.37830   2
  -1   0  -1 8.77356 0.25588   2
  -1   0  -1 8.26463 0.37613   2
  -1   0  -1 8.62829 0.37618   2
   1   0   1 8.10472 0.34080   1
   1   0   1 7.91551 0.36007   1
   1   0   1 8.66168 0.28861   2
  -2   0  -1 433.096 11.2195   2
  -2   0  -1 437.828 9.61758   2
  -2   0  -1 435.378 10.7506   2
  -2   0  -1 437.671 12.1042   2
  -2   0  -1 435.380 11.6401   2
  -2   0  -1 397.859 11.0812   1
   2   0  -2 615.509 13.3887  -2
  -2   0  -1 615.509 13.3887   1
   2   0  -2 639.289 15.8675  -2
  -2   0  -1 639.289 15.8675   1
   2   0  -2 649.019 14.2014  -2
  -2   0  -1 649.019 14.2014   1
   2   0   1 397.281 10.6053   1
  -2   0   2 668.220 16.1748  -2
   2   0   1 668.220 16.1748   1
  -2   0   2 621.585 14.3481  -2
   2   0   1 621.585 14.3481   1
  -2   0   2 613.745 16.0043  -2
   2   0   1 613.745 16.0043   1
   2   0   1 437.975 9.96120   2
  -3   0  -1 12.3916 0.63979   1
  -3   0  -1 12.8528 0.72745   1
  -3   0  -1 13.3211 0.73614   2
  -3   0  -1 13.1408 0.48948   2
  -3   0  -1 13.9641 0.69660   2
  -3   0  -1 14.2748 0.75307   2
  -3   0  -1 13.7606 0.69455   2
   3   0   1 12.3463 0.66863   1
   3   0   1 13.2545 0.63311   1
   3   0   1 12.0939 0.70601   1
   3   0   1 12.9884 0.54664   1
   3   0   1 14.2276 0.56719   2
   3   0   1 13.4987 0.53000   2
   3   0   1 13.8562 0.53592   2
  -4   0  -1 0.09448 0.20494   2
  -4   0  -1 0.25736 0.18606   2
  -4   0  -1 0.16979 0.08805   2
  -4   0  -1 0.13208 0.20035   2
  -4   0  -1 0.20146 0.17938   2
  -4   0  -1 0.29976 0.25098   1
  -4   0  -1 0.38706 0.16236   1
  -4   0  -1 0.13829 0.19204   1
   4   0   1 0.19335 0.17616   1
   4   0   1 0.20376 0.17501   1
   4   0   1 0.95285 0.21534   1
   4   0   1 0.86285 0.21749   1
   4   0   1 0.16472 0.25597   1
   4   0   1 0.26906 0.17712   1
   4   0   1 0.16789 0.10110   2
  -5   0  -1 6.29183 0.40375   2
  -5   0  -1 5.76770 0.58837   2
  -5   0  -1 6.59242 0.64564   2
  -5   0  -1 5.04568 0.35716   2
  -5   0  -1 4.31265 0.32299   1
  -5   0  -1 4.34596 0.58967   1
   5   0   1 4.41178 0.46479   1
   5   0   1 4.90837 0.42744   1
   5   0   1 4.98679 0.50862   1
   5   0   1 5.14236 0.47082   1
   5   0   1 4.62242 0.53033   1
  -6   0  -1 6.62922 0.36706   1
  -6   0  -1 6.22610 0.36026   1
  -6   0  -1 6.37253 0.40646   1
  -6   0  -1 6.04998 0.39839   1
  -6   0  -1 6.41544 0.33674   1
  -6   0  -1 7.40354 0.74090   2
  -6   0  -1 7.46881 0.45186   2
  -6   0  -1 7.36792 0.44907   2
  -6   0  -1 7.10793 0.36348   2
   6   0   1 6.72158 0.56239   1
   6   0   1 6.67117 0.52584   1
   6   0   1 6.53326 0.50705   1
   6   0   1 7.20713 0.40108   2
   6   0   1 7.06642 0.35678   2
  -7   0  -1 0.32631 0.11229   1
  -7   0  -1 0.09716 0.07645   2
  -7   0  -1 0.06675 0.10825   2
   7   0  -5 0.33415 0.23600  -2
  -7   0  -1 0.33415 0.23600   1
   7   0   1 0.16477 0.16599   1
   7   0   1 0.31637 0.19375   1
   7   0   1 0.09732 0.07749   2
  -8   0  -1 0.04367 0.04805   1
  -8   0  -1 0.03946 0.06258   1
   8  -1  -1 163.223 3.37063   1
   8  -1  -1 138.496 4.16261   1
   8  -1  -1 163.856 3.84663   1
  -8   1   1 199.149 4.16305   2
  -8   1   1 200.026 4.81048   2
  -8   1   1 156.629 3.26637   1
  -7   1   2 23.4729 0.90827  -2
   7  -1  -1 23.4729 0.90827   1
  -7   1   2 22.8947 0.93589  -2
   7  -1  -1 22.8947 0.93589   1
   7  -1  -2 23.5319 0.75349  -2
  -7   1   1 23.5319 0.75349   1
   6  -1  -1 2054.88 48.9157   1
   6  -1  -1 2053.42 50.5332   1
   6  -1  -1 2043.36 46.9933   1
   6  -1  -1 1952.53 53.6354   1
   6  -1  -1 2398.80 47.7445   2
   6  -1  -1 2349.41 47.4703   2
  -6   1   1 2363.97 56.6960   2
  -6   1   1 2385.07 58.5754   2
  -6   1   1 2346.55 62.4720   2
  -6   1   1 2360.13 54.4641   2
  -6   1   1 2104.37 41.0261   1
  -6   1   1 2000.01 40.8308   1
  -5   1   1 93.4566 3.08014  -2
   5  -1  -1 93.4566 3.08014   1
  -5   1   1 88.7752 3.09465  -2
   5  -1  -1 88.7752 3.09465   1
  -5   1   1 94.9832 2.64477  -2
   5  -1  -1 94.9832 2.64477   1
  -5   1   1 88.5830 3.14443  -2
   5  -1  -1 88.5830 3.14443   1
  -5   1   1 88.3768 2.55123  -2
   5  -1  -1 88.3768 2.55123   1
   4  -1  -1 4128.88 105.556   1
   4  -1  -1 3963.45 100.041   1
   4  -1  -1 3954.71 100.417   1
   4  -1  -1 4054.85 109.530   1
   4  -1  -1 4000.90 90.0655   1
   4  -1  -1 3983.11 99.8843   1
   4  -1  -1 4556.12 112.693   2
   4  -1  -1 4582.66 100.804   2
  -4   1   1 4531.74 115.203   2
  -4   1   1 4536.92 114.001   2
  -4   1   1 4431.00 103.215   2
  -4   1   1 4794.16 120.859   2
  -4   1   1 4620.28 125.319   2
  -4   1   1 4772.23 114.469   2
  -3   1   0 144.084 4.37327  -2
   3  -1  -1 144.084 4.37327   1
  -3   1   0 147.759 4.22843  -2
   3  -1  -1 147.759 4.22843   1
  -3   1   0 149.386 3.61560  -2
   3  -1  -1 149.386 3.61560   1
  -3   1   0 146.443 4.17027  -2
   3  -1  -1 146.443 4.17027   1
  -3   1   0 147.172 4.28724  -2
   3  -1  -1 147.172 4.28724   1
  -3   1   0 144.311 3.88855  -2
   3  -1  -1 144.311 3.88855   1
   3  -1   0 153.908 3.99250  -2
  -3   1   1 153.908 3.99250   1
   3  -1   0 152.751 3.38172  -2
  -3   1   1 152.751 3.38172   1
   3  -1   0 145.529 3.85712  -2
  -3   1   1 145.529 3.85712   1
   3  -1   0 155.223 3.57681  -2
  -3   1   1 155.223 3.57681   1
   3  -1   0 156.198 3.61463  -2
  -3   1   1 156.198 3.61463   1
   2  -1  -1 220.579 5.69030   1
   2  -1  -1 215.461 5.03809   1
   2  -1  -1 211.840 5.91303   1
   2  -1  -1 218.365 5.79854   1
   2  -1  -1 241.403 7.00558   2
   2  -1  -1 251.855 5.70927   2
   2  -1  -1 250.732 5.36620   2
   2  -1  -1 256.550 6.38761   2
   2  -1  -1 249.760 5.66420   2
  -2   1   1 218.574 5.50714   1
  -2   1   1 218.830 4.73859   1
  -2   1   1 217.303 4.92773   1
  -2   1   1 223.389 5.05120   1
  -2   1   1 249.325 5.74251   2
  -2   1   1 252.146 6.53717   2
  -2   1   1 238.645 6.76439   2
  -2   1   1 247.720 6.40230   2
   1  -1  -1 84.0886 2.21512   1
   1  -1  -1 81.6348 2.30949   1
   1  -1  -1 92.8332 2.10294   2
   1  -1  -1 95.8519 2.23521   2
   1  -1  -1 95.7876 2.21877   2
   1  -1  -1 94.2080 2.70771   2
  -1   1   1 83.0704 1.89170   1
  -1   1   1 83.5215 2.11130   1
  -1   1   1 84.0687 1.89060   1
  -1   1   1 83.3190 1.93591   1
  -1   1   1 94.7648 2.52458   2
  -1   1   1 93.7794 2.19496   2
  -1   1   1 87.1473 2.38709   2
   0  -1  -1 307.833 7.65848   1
   0  -1  -1 296.377 6.70659   1
   0  -1  -1 303.840 7.49780   1
   0  -1  -1 296.713 6.40018   1
   0  -1  -1 349.716 8.81123   2
   0  -1  -1 356.079 7.53170   2
   0  -1  -1 346.773 7.85024   2
   0  -1  -1 369.734 8.97745   2
   0  -1  -1 350.618 7.96375   2
   0  -1  -1 354.339 9.75361   2
   0  -1  -1 348.515 8.77652   2
   0   1   1 352.654 7.99333   2
  -1  -1  -1 233.541 5.97489   2
  -1  -1  -1 235.041 5.05691   2
  -1  -1  -1 233.166 6.55358   2
  -1  -1  -1 229.141 6.03587   2
  -1  -1  -1 235.026 5.22073   2
  -1  -1  -1 230.569 5.83056   2
  -1  -1  -1 229.877 5.31694   2
  -1  -1  -1 198.757 4.31236   1
  -1  -1  -1 197.620 4.67079   1
  -1  -1  -1 207.467 5.22771   1
  -1  -1  -1 202.803 5.69199   1
   1   1   1 234.544 5.35363   2
   1   1   1 205.913 5.24395   1
   1   1   1 199.734 5.29620   1
  -2  -1  -1 1.23145 0.14848   2
  -2  -1  -1 1.43496 0.22207   2
  -2  -1  -1 1.06800 0.15003   2
  -2  -1  -1 0.98373 0.20293   2
  -2  -1  -1 1.08810 0.20686   2
  -2  -1  -1 1.05158 0.15360   2
  -2  -1  -1 0.96142 0.11327   2
  -2  -1  -1 1.17257 0.14184   2
  -2  -1  -1 0.82619 0.18547   2
  -2  -1  -1 0.73652 0.16742   1
  -2  -1  -1 0.93862 0.21986   1
  -2  -1  -1 0.80102 0.17344   1
   2   1   1 1.62225 0.18957   2
   2   1   1 1.70980 0.15379   2
   2   1   1 1.06476 0.20209   1
   2   1   1 1.01656 0.09214   1
   2   1   1 1.24411 0.25500   1
   2   1   1 1.38400 0.20550   1
  -3  -1  -1 84.7133 2.33995   2
  -3  -1  -1 88.0487 2.75189   2
  -3  -1  -1 91.1758 2.80011   2
  -3  -1  -1 93.2989 2.76580   2
  -3  -1  -1 90.6027 2.92118   2
  -3  -1  -1 90.1165 2.39733   2
  -3  -1  -1 79.1919 2.58590   1
  -3  -1  -1 82.2870 2.34226   1
   3   1   1 79.8617 2.64561   1
   3   1   1 82.2202 2.13349   1
   3   1   1 80.5347 2.60992   1
   3   1   1 80.5521 2.50678   1
   3   1   1 80.8146 2.46362   1
   3   1   1 87.6045 2.41280   2
   3   1   1 86.3741 2.30875   2
   4   1  -4 72.8773 2.60040  -2
  -4  -1  -1 72.8773 2.60040   1
   4   1  -4 79.8227 2.38941  -2
  -4  -1  -1 79.8227 2.38941   1
  -4  -1  -1 1.02174 0.33661   2
  -4  -1  -1 0.71456 0.28422   2
  -4  -1  -1 0.45554 0.12147   2
   4   1   1 0.72629 0.20557   1
   4   1   1 0.60271 0.34001   1
   4   1   1 0.38529 0.20530   1
  -4  -1   4 73.2695 2.54510  -2
   4   1   1 73.2695 2.54510   1
   4   1   1 0.62948 0.14073   2
  -5  -1  -1 9.43664 0.77524   2
  -5  -1  -1 7.95591 0.40338   2
  -5  -1  -1 8.73809 0.50520   2
  -5  -1  -1 8.21928 0.46487   2
  -5  -1  -1 7.51231 0.37268   1
  -5  -1  -1 7.90207 0.38401   1
  -5  -1  -1 7.87255 0.42591   1
  -5  -1  -1 7.37329 0.42819   1
  -5  -1  -1 6.97921 0.72013   1
  -5  -1  -1 7.25064 0.48472   1
  -5  -1  -1 7.33799 0.38360   1
   5   1   1 8.67481 0.43573   2
   5   1   1 8.07951 0.39531   2
   5   1   1 7.84195 0.58133   1
   5   1   1 7.19400 0.68915   1
   6   1  -5 31.8980 0.97391  -2
  -6  -1  -1 31.8980 0.97391   1
   6   1  -5 27.8952 0.90403  -2
  -6  -1  -1 27.8952 0.90403   1
   6   1  -5 29.0699 0.78803  -2
  -6  -1  -1 29.0699 0.78803   1
   6   1  -5 27.6753 0.83842  -2
  -6  -1  -1 27.6753 0.83842   1
   6   1  -5 27.1973 0.86819  -2
  -6  -1  -1 27.1973 0.86819   1
  -6  -1   5 27.4444 1.14410  -2
   6   1   1 27.4444 1.14410   1
  -6  -1   5 29.0287 1.08512  -2
   6   1   1 29.0287 1.08512   1
  -7  -1  -1 2.62252 0.24383   1
  -7  -1  -1 2.05130 0.17788   1
  -7  -1  -1 2.11228 0.20925   1
  -7  -1  -1 2.30259 0.19126   1
  -7  -1  -1 2.94727 0.18178   2
  -7  -1  -1 2.77049 0.25006   2
   7   1   1 2.69137 0.31199   1
   7   1   1 2.48234 0.31913   1
   7   1   1 2.75911 0.13766   2
   7   1   1 2.84105 0.24059   2
  -8   2   2 1101.60 25.4810  -2
   8  -2  -1 1101.60 25.4810   1
  -8   2   2 1105.37 22.3806  -2
   8  -2  -1 1105.37 22.3806   1
   7  -2  -1 1.20850 0.21135   1
   7  -2  -1 1.37087 0.26149   1
   7  -2  -1 0.99950 0.25659   1
   7  -2  -1 1.45507 0.12259   2
  -7   2   1 1.29882 0.17988   2
  -7   2   1 1.20105 0.23155   2
  -7   2   1 1.98899 0.27540   2
   6  -2  -1 611.918 12.5161   2
  -6   2   1 1107.78 30.8784  -2
   6  -2  -1 1107.78 30.8784   1
  -6   2   1 1202.28 27.9680  -2
   6  -2  -1 1202.28 27.9680   1
  -6   2   1 565.552 11.5913   1
   5  -2  -1 24.4817 0.89802   1
   5  -2  -1 24.8217 1.40457   1
   5  -2  -1 24.6562 0.97079   1
   5  -2  -1 25.6447 1.36120   1
   5  -2  -1 22.6651 1.16355   1
  -5   2   1 26.9580 0.96090   2
  -5   2   1 27.0254 0.94736   2
  -5   2   1 25.3750 1.57880   2
  -5   2   1 26.6076 1.34427   2
   4  -2  -1 7.89062 0.60054   2
   4  -2  -1 7.59698 0.52995   2
   4  -2  -1 7.28387 0.38865   1
   4  -2  -1 6.59905 0.53236   1
   4  -2  -1 7.63402 0.55593   1
   4  -2  -1 6.95015 0.67474   1
  -4   2   1 8.47729 0.66308   2
  -4   2   1 8.34594 0.42398   2
  -4   2   1 9.05828 0.62414   2
  -4   2   1 8.55935 0.58988   2
  -4   2   1 8.78762 0.65261   2
  -4   2   1 7.53848 0.36385   1
   3  -2  -1 2.66072 0.28398   1
   3  -2  -1 3.24410 0.44936   1
   3  -2  -1 2.33955 0.28060   1
   3  -2  -1 2.52225 0.18962   1
   3  -2  -1 2.69480 0.25277   2
   3  -2  -1 3.05128 0.35196   2
   3  -2  -1 2.61586 0.17032   2
   3  -2  -1 3.01906 0.29725   2
  -3   2   1 2.87980 0.34150   2
  -3   2   1 2.89996 0.34252   2
  -3   2   1 2.69541 0.29900   2
  -3   2   1 2.75876 0.21582   2
  -3   2   1 2.64876 0.29203   2
  -3   2   1 2.92400 0.25277   1
  -3   2   1 2.71612 0.28652   1
  -3   2   1 2.54746 0.20041   1
  -3   2   1 2.56280 0.22473   1
  -3   2   1 2.80018 0.25732   1
   2  -2  -1 113.448 3.14511   2
   2  -2  -1 113.117 2.65624   2
   2  -2  -1 113.642 3.35345   2
   2  -2  -1 110.732 2.70033   2
   2  -2  -1 113.917 2.82450   2
   2  -2  -1 99.4820 2.93330   1
   2  -2  -1 97.6443 2.74588   1
   2  -2  -1 101.263 2.90455   1
  -2   2   1 101.961 2.38947   1
  -2   2   1 102.834 2.68741   1
  -2   2   1 101.090 2.40326   1
  -2   2   1 100.046 2.45078   1
  -2   2   1 115.085 2.76307   2
  -2   2   1 115.362 3.17409   2
  -2   2   1 111.736 3.29171   2
  -2   2   1 112.463 3.03420   2
   1  -2  -1 609.705 13.4041   2
   1  -2  -1 582.889 12.6248   2
   1  -2  -1 588.743 16.3088   2
   1  -2  -1 600.171 14.7803   2
   1  -2  -1 594.681 13.2152   2
   1  -2  -1 518.156 13.0855   1
   1  -2  -1 525.533 13.2533   1
  -1   2   1 587.024 13.4276   2
  -1   2   1 589.949 14.7820   2
  -1   2   1 505.945 11.5178   1
  -1   2   1 522.585 11.7181   1
  -1   2   1 524.143 12.8828   1
  -1   2   1 528.363 11.0985   1
   0  -2  -1 18.6543 0.59289   1
   0  -2  -1 18.8989 0.77245   1
   0  -2  -1 21.4742 0.68421   2
   0  -2  -1 21.4416 0.76840   2
   0  -2  -1 20.3119 0.61134   2
   0  -2  -1 20.7110 0.67348   2
   0  -2  -1 21.3673 0.74071   2
   0  -2  -1 20.7899 0.66410   2
   0  -2  -1 20.8426 0.79656   2
   0   2   1 18.7565 0.58158   1
   0   2   1 19.7366 0.71516   1
   0   2   1 19.3369 0.63430   1
   0   2   1 21.2924 0.63152   2
   1   2  -3 668.815 14.8116  -2
  -1  -2  -1 668.815 14.8116   1
   1   2  -3 667.487 18.3065  -2
  -1  -2  -1 667.487 18.3065   1
  -1  -2   3 647.674 14.0487  -2
   1   2   1 647.674 14.0487   1
  -1  -2   3 657.035 16.7977  -2
   1   2   1 657.035 16.7977   1
  -1  -2   3 673.911 16.8123  -2
   1   2   1 673.911 16.8123   1
  -2  -2  -1 1.34964 0.25258   1
  -2  -2  -1 1.47566 0.29240   1
  -2  -2  -1 2.38014 0.20694   2
  -2  -2  -1 1.75792 0.25723   2
  -2  -2  -1 2.13092 0.26431   2
  -2  -2  -1 2.31185 0.17695   2
  -2  -2  -1 1.67141 0.29059   2
  -2  -2  -1 1.60724 0.27529   2
  -2  -2  -1 2.18677 0.24403   2
  -2  -2  -1 1.50035 0.25465   2
  -2  -2  -1 1.98263 0.24989   2
   2   2   1 2.09310 0.11092   1
   2   2   1 2.00605 0.36316   1
   2   2   1 2.12754 0.26007   1
   2   2   1 1.55133 0.23335   1
   2   2   1 2.48378 0.18962   2
   2   2   1 2.26944 0.22343   2
   3   2  -4 1240.32 27.5162  -2
  -3  -2  -1 1240.32 27.5162   1
   3   2  -4 1250.84 30.7881  -2
  -3  -2  -1 1250.84 30.7881   1
  -3  -2   4 1366.38 27.8587  -2
   3   2   1 1366.38 27.8587   1
  -3  -2   4 1080.08 33.8877  -2
   3   2   1 1080.08 33.8877   1
  -3  -2   4 1335.13 31.2591  -2
   3   2   1 1335.13 31.2591   1
  -3  -2   4 1109.73 31.1960  -2
   3   2   1 1109.73 31.1960   1
  -4  -2  -1 0.38849 0.27073   1
  -4  -2  -1 0.20896 0.09653   1
  -4  -2  -1 0.13735 0.15235   1
  -4  -2  -1 0.02115 0.23991   2
  -4  -2  -1 0.33211 0.26206   2
  -4  -2  -1 0.08294 0.09117   2
  -4  -2  -1 0.09313 0.12636   2
  -4  -2  -1 0.06337 0.19330   2
   4   2   1 -0.0255 0.29778   1
   4   2   1 0.15303 0.16012   1
   4   2   1 -0.0870 0.17655   1
   4   2   1 0.41494 0.39019   1
   4   2   1 0.24326 0.20224   1
   5   2  -5 372.808 9.03829  -2
  -5  -2  -1 372.808 9.03829   1
   5   2  -5 376.525 7.96012  -2
  -5  -2  -1 376.525 7.96012   1
   5   2  -5 376.141 7.84670  -2
  -5  -2  -1 376.141 7.84670   1
   5   2  -5 373.847 7.83113  -2
  -5  -2  -1 373.847 7.83113   1
   5   2  -5 376.155 7.70727  -2
  -5  -2  -1 376.155 7.70727   1
   5   2  -5 393.334 8.97900  -2
  -5  -2  -1 393.334 8.97900   1
  -5  -2   5 361.021 11.1518  -2
   5   2   1 361.021 11.1518   1
  -6  -2  -1 0.46149 0.18275   1
  -6  -2  -1 0.60786 0.17484   1
  -6  -2  -1 0.60535 0.14740   1
  -6  -2  -1 0.63804 0.14414   1
  -6  -2  -1 0.63037 0.15896   1
  -6  -2  -1 0.56980 0.12694   1
  -6  -2  -1 1.23409 0.16424   2
  -6  -2  -1 0.77622 0.18664   2
  -6  -2  -1 0.96698 0.22286   2
   6   2   1 0.61931 0.16962   2
   6   2   1 1.27549 0.15457   2
   6   2   1 0.61707 0.27520   1
   6   2   1 0.82479 0.24426   1
  -7  -2  -1 3.69180 0.21765   1
  -7  -2  -1 3.24613 0.18394   1
  -7  -2  -1 3.32523 0.22963   1
  -7  -2  -1 3.22520 0.18876   1
  -7  -2  -1 4.12300 0.17872   2
   7   2   1 3.93116 0.24507   2
   7   2   1 3.40559 0.31704   1
   8  -3  -1 10.6706 0.36296   1
   8  -3  -1 10.2570 0.47715   1
  -8   3   1 12.3815 0.35952   2
  -8   3   1 12.1666 0.47939   2
   7  -3  -1 4.21011 0.38700   1
   7  -3  -1 5.05609 0.43847   1
   7  -3  -1 4.97501 0.32269   1
   7  -3  -1 5.42567 0.21793   2
  -7   3   1 5.85755 0.40267   2
  -7   3   1 5.80085 0.38797   2
  -7   3   1 5.60488 0.31189   2
  -7   3   1 4.69179 0.21965   1
   6  -3  -1 20.3006 0.62353   2
   6  -3  -1 17.2019 1.00881   1
   6  -3  -1 18.6398 0.86095   1
   6  -3  -1 17.7914 0.67516   1
  -6   3   0 50.2631 1.61225  -2
   6  -3  -1 50.2631 1.61225   1
  -6   3   1 17.5450 0.59093   1
   6  -3   0 52.8798 1.43069  -2
  -6   3   1 52.8798 1.43069   1
  -6   3   1 20.4534 0.85343   2
  -6   3   1 21.2748 0.71636   2
   5  -3  -1 24.6094 0.98672   1
   5  -3  -1 24.7276 1.19686   1
  -5   3   1 28.1977 1.00348   2
  -5   3   1 27.4078 1.40670   2
  -5   3   1 28.8329 0.98165   2
  -4   3  -1 267.226 7.37900  -2
   4  -3  -1 267.226 7.37900   1
  -4   3  -1 246.950 7.07577  -2
   4  -3  -1 246.950 7.07577   1
  -4   3  -1 252.790 7.02845  -2
   4  -3  -1 252.790 7.02845   1
  -4   3  -1 243.273 6.38220  -2
   4  -3  -1 243.273 6.38220   1
   4  -3   1 267.156 6.63788  -2
  -4   3   1 267.156 6.63788   1
   3  -3  -1 13.2067 0.61740   2
   3  -3  -1 13.6053 0.49430   2
   3  -3  -1 13.5845 0.76238   2
   3  -3  -1 14.1062 0.63047   2
   3  -3  -1 13.7163 0.67261   2
   3  -3  -1 12.3074 0.56268   1
   3  -3  -1 13.2130 0.82403   1
   3  -3  -1 12.8737 0.67425   1
  -3   3   1 12.9637 0.55526   1
  -3   3   1 12.3594 0.59978   1
  -3   3   1 12.3775 0.51939   1
  -3   3   1 14.2907 0.77219   2
  -3   3   1 13.4486 0.53625   2
  -3   3   1 13.4094 0.57987   2
  -3   3   1 13.4766 0.73435   2
  -2   3  -2 53.5784 1.71721  -2
   2  -3  -1 53.5784 1.71721   1
  -2   3  -2 52.4837 1.56971  -2
   2  -3  -1 52.4837 1.56971   1
  -2   3  -2 53.1755 1.59232  -2
   2  -3  -1 53.1755 1.59232   1
  -2   3  -2 52.1081 1.81596  -2
   2  -3  -1 52.1081 1.81596   1
   2  -3   2 51.3313 1.43781  -2
  -2   3   1 51.3313 1.43781   1
   2  -3   2 56.1199 1.46717  -2
  -2   3   1 56.1199 1.46717   1
   2  -3   2 55.9946 1.52910  -2
  -2   3   1 55.9946 1.52910   1
   2  -3   2 53.8280 1.61855  -2
  -2   3   1 53.8280 1.61855   1
   1  -3  -1 858.652 18.1537   2
   1  -3  -1 827.276 21.1362   2
   1  -3  -1 868.520 21.2323   2
   1  -3  -1 864.572 19.2616   2
   1  -3  -1 838.497 23.4108   2
   1  -3  -1 826.584 20.9149   2
   1  -3  -1 858.551 18.9907   2
   1  -3  -1 726.163 18.0974   1
   1  -3  -1 694.202 19.3989   1
   1  -3  -1 732.428 18.7605   1
  -1   3   1 730.991 15.7308   1
  -1   3   1 754.425 16.6165   1
  -1   3   1 758.232 18.3100   1
  -1   3   1 767.226 16.3858   1
  -1   3   1 850.506 22.4621   2
  -1   3   1 866.176 21.4776   2
  -1   3   1 843.779 21.1539   2
  -1   3   1 871.534 19.2842   2
   0  -3  -1 155.691 4.08426   2
   0  -3  -1 161.737 3.79052   2
   0   3  -3 637.369 16.5380  -2
   0  -3  -1 637.369 16.5380   1
   0  -3   3 646.976 13.9006  -2
   0   3   1 646.976 13.9006   1
   0  -3   3 654.923 16.2345  -2
   0   3   1 654.923 16.2345   1
   0  -3   3 658.673 14.5215  -2
   0   3   1 658.673 14.5215   1
  -1  -3  -1 915.292 23.2796   2
  -1  -3  -1 952.278 21.1031   2
  -1  -3  -1 962.581 21.4699   2
  -1  -3  -1 955.232 20.1947   2
  -1  -3  -1 954.255 23.8583   2
  -1  -3  -1 954.983 26.1904   2
  -1  -3  -1 939.653 23.5616   2
  -1  -3  -1 975.046 23.6230   2
   1   3   1 831.160 17.8686   1
   1   3   1 856.316 21.1532   1
   1   3   1 850.093 18.9208   1
   1   3   1 837.722 21.5616   1
   1   3   1 833.132 23.1992   1
   1   3   1 854.755 21.3500   1
   1   3   1 954.941 21.4816   2
   1   3   1 926.905 23.5498   2
  -2  -3  -1 3.99038 0.47893   1
  -2  -3  -1 4.21187 0.40804   2
  -2  -3  -1 3.76104 0.43570   2
  -2  -3  -1 4.44258 0.35960   2
  -2  -3  -1 6.35554 0.48034   2
  -2  -3  -1 4.52380 0.44853   2
  -2  -3  -1 4.29810 0.27412   2
  -2  -3  -1 4.20625 0.36352   2
  -2  -3  -1 4.30144 0.28115   2
   2   3   1 4.11203 0.39359   1
   2   3   1 3.83516 0.55555   1
   2   3   1 4.11329 0.46819   1
   2   3   1 3.84800 0.21950   1
   2   3   1 4.20652 0.26596   2
  -3  -3  -1 77.0889 2.14124   2
  -3  -3  -1 75.2513 2.60717   2
  -3  -3  -1 75.6154 2.76830   2
  -3  -3  -1 76.3412 2.58441   2
  -3  -3  -1 76.4743 2.13458   2
  -3  -3  -1 67.0822 2.00293   1
  -3  -3  -1 67.0344 2.24831   1
  -3  -3  -1 66.1887 1.72743   1
   3   3   1 67.7400 1.90737   1
   3   3   1 67.0973 2.46577   1
   3   3   1 68.4171 2.42028   1
   3   3   1 65.6903 2.57702   1
  -4  -3  -1 1.36080 0.24614   2
  -4  -3  -1 1.47517 0.21024   2
  -4  -3  -1 1.52998 0.42325   2
  -4  -3  -1 1.31345 0.25758   1
  -4  -3  -1 1.50774 0.20696   1
  -4  -3  -1 1.20291 0.18411   1
  -4  -3  -1 0.98197 0.15348   1
  -4  -3  -1 0.99307 0.20719   1
  -4  -3  -1 2.54177 0.33988   1
  -4  -3  -1 1.04207 0.15047   1
   4   3   1 1.42752 0.31352   1
   4   3   1 1.20466 0.34575   1
   4   3   1 0.69412 0.30504   1
   4   3   1 1.71088 0.24474   2
   4   3   1 1.57405 0.19882   2
  -5  -3  -1 16.9619 0.56100   1
  -5  -3  -1 17.3556 0.60856   1
  -5  -3  -1 16.3177 0.80283   1
  -5  -3  -1 16.8341 0.67497   1
  -5  -3  -1 16.8018 0.76885   1
  -5  -3  -1 16.5694 0.66316   1
  -5  -3  -1 17.3442 0.59422   1
  -5  -3  -1 20.3009 0.85473   2
  -5  -3  -1 20.5555 0.69885   2
   5   3   1 20.6012 0.64242   2
   5   3   1 20.0531 0.72030   2
  -6  -3  -1 0.28483 0.11431   1
  -6  -3  -1 0.28403 0.12713   1
  -6  -3  -1 0.47369 0.10151   1
  -6  -3  -1 0.32628 0.15801   1
  -6  -3  -1 0.56962 0.12796   1
  -6  -3  -1 0.40553 0.14531   1
  -6  -3  -1 0.52100 0.17737   2
  -6  -3  -1 0.44771 0.10830   2
   6   3   1 0.42249 0.19882   1
   6   3   1 0.44302 0.08413   2
   6   3   1 0.30876 0.14295   2
  -7  -3  -1 7.20718 0.19821   1
   7   3  -7 9.48167 0.32541  -2
  -7  -3  -1 9.48167 0.32541   1
   7   3  -7 9.87812 0.29924  -2
  -7  -3  -1 9.87812 0.29924   1
   7   3   1 6.06425 0.46027   1
   8  -4  -1 2.64420 0.23118   1
  -8   4   1 3.26516 0.11856   2
  -8   4   1 3.38653 0.21528   2
  -7   4   0 5.96907 0.40527  -2
   7  -4  -1 5.96907 0.40527   1
  -7   4   0 5.55262 0.41180  -2
   7  -4  -1 5.55262 0.41180   1
  -7   4   0 5.87481 0.28397  -2
   7  -4  -1 5.87481 0.28397   1
   7  -4   0 5.59521 0.25681  -2
  -7   4   1 5.59521 0.25681   1
   7  -4   0 5.47661 0.33277  -2
  -7   4   1 5.47661 0.33277   1
   6  -4  -1 9.81909 0.38809   2
   6  -4  -1 9.49569 0.46185   2
   6  -4  -1 7.74574 0.66866   1
   6  -4  -1 8.92347 0.57696   1
   6  -4  -1 8.43990 0.41435   1
   6  -4  -1 8.99489 0.55799   1
  -6   4   1 9.23098 0.52430   2
  -6   4   1 9.33569 0.43115   2
  -6   4   1 9.90569 0.83631   2
  -6   4   1 10.3409 0.52001   2
  -6   4   1 8.67343 0.39822   1
  -6   4   1 8.78671 0.45442   1
  -5   4  -1 71.1114 2.53445  -2
   5  -4  -1 71.1114 2.53445   1
  -5   4  -1 67.6877 1.69352  -2
   5  -4  -1 67.6877 1.69352   1
  -5   4  -1 70.4653 2.13593  -2
   5  -4  -1 70.4653 2.13593   1
  -5   4  -1 60.2762 1.98407  -2
   5  -4  -1 60.2762 1.98407   1
   5  -4   1 78.0178 2.08082  -2
  -5   4   1 78.0178 2.08082   1
   5  -4   1 71.9505 1.81619  -2
  -5   4   1 71.9505 1.81619   1
   4  -4  -1 124.938 3.84118   1
   4  -4  -1 123.344 4.03877   1
   4  -4  -1 122.989 3.38475   1
   4  -4  -1 134.573 3.78408   2
   4  -4  -1 148.563 4.07065   2
   4  -4  -1 134.005 4.24000   2
  -4   4   1 142.778 4.43358   2
  -4   4   1 141.624 3.74750   2
  -4   4   1 144.236 3.69012   2
  -4   4   1 127.208 3.55783   1
  -4   4   1 123.025 3.25562   1
  -4   4   1 125.861 3.41653   1
   3  -4  -1 870.470 22.4319   1
   3  -4  -1 835.303 21.0795   1
   3  -4  -1 880.272 23.1615   1
   3  -4  -1 1007.86 21.3907   2
   3  -4  -1 996.111 24.5781   2
   3  -4  -1 998.375 22.4260   2
   3  -4  -1 977.878 24.7132   2
   3  -4  -1 983.568 25.0420   2
  -3   4  -2 816.070 19.6411  -2
   3  -4  -1 816.070 19.6411   1
  -3   4   1 880.900 21.7709   1
  -3   4   1 861.731 18.7741   1
  -3   4   1 892.309 21.5883   1
  -3   4   1 880.578 19.9091   1
  -3   4   1 1007.41 26.5488   2
  -3   4   1 1000.01 24.7663   2
   2  -4  -1 174.330 4.53776   2
   2  -4  -1 173.219 4.68877   2
   2  -4  -1 180.292 4.42387   2
   2  -4  -1 174.335 4.92636   2
   2  -4  -1 176.119 4.22407   2
   2  -4  -1 154.628 4.44454   1
   2  -4  -1 147.614 3.97402   1
   2  -4  -1 153.999 4.16841   1
   2  -4  -1 156.455 4.61651   1
  -2   4   1 169.946 4.56295   1
  -2   4   1 154.971 4.12419   1
  -2   4   1 163.379 3.94906   1
  -2   4   1 154.643 3.80906   1
  -2   4   1 159.185 3.84409   1
  -2   4   1 174.825 5.05694   2
   1  -4  -1 1454.60 35.2718   2
   1  -4  -1 1445.50 35.6757   2
   1  -4  -1 1441.50 31.9641   2
   1  -4  -1 1448.01 30.5584   2
   1  -4  -1 1426.67 35.7236   2
   1  -4  -1 1453.28 39.4712   2
   1  -4  -1 1201.53 30.3991   1
   1  -4  -1 1171.50 29.7268   1
   1  -4  -1 1286.72 31.4816   1
  -1   4   1 1414.42 35.6536   2
  -1   4   1 1250.25 30.7931   1
  -1   4   1 1283.70 28.0013   1
  -1   4   1 1264.11 27.5497   1
  -1   4   1 1245.97 26.4137   1
   0  -4  -1 26.4511 0.92158   1
   0  -4  -1 25.5063 0.85274   1
   0  -4  -1 26.8544 1.21726   1
   0  -4  -1 29.5800 1.22781   2
   0  -4  -1 29.2197 0.93423   2
   0  -4  -1 28.7461 1.06534   2
   0  -4  -1 30.4735 1.06055   2
   0  -4  -1 29.9948 1.22029   2
   0  -4  -1 29.8363 1.09252   2
   0   4   1 26.4213 0.73901   1
   0   4   1 26.2021 1.10188   1
   0   4   1 26.9058 0.93542   1
   0   4   1 26.2828 0.98600   1
   0   4   1 29.0605 0.91616   2
  -1  -4  -1 134.537 3.52957   2
  -1  -4  -1 132.199 3.86568   2
  -1  -4  -1 135.058 3.32409   2
  -1  -4  -1 135.718 4.18938   2
  -1  -4  -1 130.306 3.64709   2
  -1  -4  -1 130.855 3.44946   2
  -1  -4  -1 132.085 3.42215   2
  -1  -4  -1 116.477 3.05198   1
   1   4   1 116.946 3.54111   1
   1   4   1 116.421 3.14793   1
   1   4   1 117.870 3.76237   1
   1   4   1 116.570 2.78687   1
   1   4   1 132.871 3.48491   2
  -2  -4  -1 13.7996 0.58962   2
  -2  -4  -1 14.1636 0.57295   2
  -2  -4  -1 12.2962 0.60758   1
  -2  -4  -1 12.1161 0.40740   1
   2   4  -5 25.5171 0.89773  -2
  -2  -4  -1 25.5171 0.89773   1
   2   4   1 12.2865 0.77628   1
   2   4   1 12.3359 0.73879   1
   2   4   1 11.3522 0.95737   1
   2   4   1 12.7245 0.53217   1
  -2  -4   5 23.8550 1.25694  -2
   2   4   1 23.8550 1.25694   1
  -3  -4  -1 73.9017 2.18493   1
  -3  -4  -1 73.1904 1.88021   1
  -3  -4  -1 85.0959 2.32966   2
  -3  -4  -1 82.6430 2.35781   2
  -3  -4  -1 82.6409 3.07487   2
   3   4   1 68.6097 2.39011   1
   3   4   1 71.6096 2.11454   1
   3   4   1 72.0853 2.62117   1
   4   4  -6 4.65357 0.30511  -2
  -4  -4  -1 4.65357 0.30511   1
   4   4  -6 4.67803 0.27362  -2
  -4  -4  -1 4.67803 0.27362   1
   4   4  -6 3.95433 0.35888  -2
  -4  -4  -1 3.95433 0.35888   1
   4   4  -6 4.25435 0.42296  -2
  -4  -4  -1 4.25435 0.42296   1
   4   4  -6 5.12511 0.43674  -2
  -4  -4  -1 5.12511 0.43674   1
  -4  -4   6 4.36463 0.67619  -2
   4   4   1 4.36463 0.67619   1
  -5  -4  -1 2.70065 0.28717   1
  -5  -4  -1 2.80213 0.22119   1
  -5  -4  -1 2.34827 0.30835   1
  -5  -4  -1 2.59122 0.19334   1
  -5  -4  -1 2.73952 0.24839   1
  -5  -4  -1 2.95958 0.24612   1
  -5  -4  -1 3.06492 0.37075   1
  -5  -4  -1 3.52719 0.26852   2
  -5  -4  -1 3.31931 0.34242   2
   5   4   1 3.71631 0.21279   2
   5   4   1 3.18984 0.29653   2
   6   4  -7 8.13335 0.29699  -2
  -6  -4  -1 8.13335 0.29699   1
   6   4  -7 8.29435 0.32824  -2
  -6  -4  -1 8.29435 0.32824   1
   6   4  -7 8.29778 0.37138  -2
  -6  -4  -1 8.29778 0.37138   1
   6   4  -7 7.72012 0.37077  -2
  -6  -4  -1 7.72012 0.37077   1
   6   4  -7 8.74158 0.27313  -2
  -6  -4  -1 8.74158 0.27313   1
  -6  -4   7 7.58331 0.44210  -2
   6   4   1 7.58331 0.44210   1
   7  -5  -1 86.9349 2.45055   1
   7  -5  -1 85.4518 2.31295   1
   7  -5  -1 94.9934 2.23701   2
  -7   5   1 94.3189 2.57718   2
  -7   5   1 96.6770 2.08838   2
  -7   5   1 85.1689 2.05248   1
  -7   5   1 85.1340 1.90316   1
   6  -5  -1 87.0215 2.14372   2
   6  -5  -1 85.5900 1.94944   2
   6  -5  -1 76.5506 2.21420   1
   6  -5  -1 76.3523 1.74572   1
   6  -5  -1 78.0814 2.33480   1
  -6   5   1 76.7963 1.95067   1
  -6   5   1 76.1564 1.84131   1
  -6   5   1 87.2985 2.43332   2
  -6   5   1 84.8790 1.99658   2
   5  -5  -1 355.404 8.78811   1
   5  -5  -1 368.800 9.18463   1
   5  -5  -1 356.325 7.51118   1
   5  -5  -1 356.850 10.1827   1
   5  -5  -1 413.049 8.98248   2
   5  -5  -1 421.926 8.61657   2
  -5   5   1 366.974 9.31142   1
  -5   5   1 372.942 7.92760   1
  -5   5   1 406.983 11.7342   2
  -5   5   1 410.341 8.63863   2
  -5   5   1 421.053 10.2601   2
   4  -5  -1 38.9292 1.36515   1
   4  -5  -1 39.5415 1.13910   1
   4  -5  -1 42.5603 1.65705   1
   4  -5  -1 40.8758 1.01561   1
   4  -5  -1 42.3870 1.44360   1
   4  -5  -1 43.8695 1.73354   2
   4  -5  -1 48.0751 1.69643   2
   4  -5  -1 45.9238 1.29141   2
  -4   5   1 46.5161 1.91509   2
  -4   5   1 47.3762 1.44348   2
  -4   5   1 42.2538 1.57689   1
  -4   5   1 44.0138 1.40611   1
   3  -5  -1 463.485 12.5213   1
   3  -5  -1 467.846 10.8924   1
   3  -5  -1 463.557 11.4684   1
   3  -5  -1 526.008 12.6857   2
   3  -5  -1 541.582 12.1096   2
   3  -5  -1 525.993 14.1604   2
   3  -5  -1 559.107 13.7860   2
  -3   5  -3 494.371 12.0690  -2
   3  -5  -1 494.371 12.0690   1
  -3   5   1 551.219 14.8546   2
  -3   5   1 554.114 13.6163   2
  -3   5   1 472.852 10.8924   1
  -3   5   1 453.033 10.4219   1
  -3   5   1 451.582 11.8095   1
  -3   5   1 469.412 11.7905   1
   2  -5  -1 33.7157 1.57109   1
   2  -5  -1 32.9713 1.14287   1
   2  -5  -1 33.0290 0.93153   1
   2  -5  -1 32.6146 1.07441   1
   2  -5  -1 39.3306 1.18936   2
   2  -5  -1 38.6479 1.45077   2
   2  -5  -1 38.1248 1.62088   2
   2  -5  -1 37.9353 1.38498   2
   2  -5  -1 38.5369 1.42641   2
  -2   5   1 30.7500 1.20147   1
  -2   5   1 34.7464 1.28798   1
  -2   5   1 34.2124 1.11841   1
  -2   5   1 38.2625 1.15864   2
  -1   5  -4 7.52815 0.43413  -2
   1  -5  -1 7.52815 0.43413   1
   1  -5   4 5.51438 0.54755  -2
  -1   5   1 5.51438 0.54755   1
   1  -5   4 7.01535 0.54287  -2
  -1   5   1 7.01535 0.54287   1
   1  -5   4 5.49879 0.47012  -2
  -1   5   1 5.49879 0.47012   1
   1  -5   4 7.10411 0.58666  -2
  -1   5   1 7.10411 0.58666   1
   1  -5   4 7.23750 0.43676  -2
  -1   5   1 7.23750 0.43676   1
   0  -5  -1 1.43205 0.40475   1
   0  -5  -1 0.50021 0.15967   1
   0  -5  -1 0.82643 0.10309   1
   0  -5  -1 1.07465 0.20159   1
   0  -5  -1 0.85969 0.15416   2
   0  -5  -1 1.10270 0.18828   2
   0  -5  -1 1.08425 0.24726   2
   0  -5  -1 0.91404 0.27025   2
   0  -5  -1 1.04567 0.26521   2
   0  -5  -1 1.00864 0.27708   2
   0  -5  -1 1.02873 0.32060   2
   0   5   1 0.89001 0.16417   1
   0   5   1 0.96897 0.25110   1
   0   5   1 0.96007 0.25060   1
   0   5   1 0.74099 0.27798   1
   0   5   1 1.11498 0.24364   1
   0   5   1 0.94914 0.14301   2
   1   5  -5 98.3013 2.90604  -2
  -1  -5  -1 98.3013 2.90604   1
   1   5  -5 117.504 2.63327  -2
  -1  -5  -1 117.504 2.63327   1
   1   5  -5 115.056 2.91666  -2
  -1  -5  -1 115.056 2.91666   1
  -1  -5   5 108.353 2.73003  -2
   1   5   1 108.353 2.73003   1
  -1  -5   5 102.742 3.01553  -2
   1   5   1 102.742 3.01553   1
  -1  -5   5 100.612 3.58529  -2
   1   5   1 100.612 3.58529   1
  -1  -5   5 103.440 3.38535  -2
   1   5   1 103.440 3.38535   1
  -2  -5  -1 15.7602 0.85459   1
  -2  -5  -1 15.3062 0.73898   1
  -2  -5  -1 14.7028 0.51578   1
  -2  -5  -1 16.1585 0.54606   1
  -2  -5  -1 15.9179 0.67664   1
  -2  -5  -1 18.2066 0.74576   2
  -2  -5  -1 18.1096 0.68923   2
  -2  -5  -1 18.1068 0.68955   2
  -2  -5  -1 16.6155 1.08297   2
   2   5   1 14.8029 0.70002   1
   2   5   1 13.1044 0.88403   1
   3   5  -6 1.85146 0.35554  -2
  -3  -5  -1 1.85146 0.35554   1
   3   5  -6 1.10376 0.25817  -2
  -3  -5  -1 1.10376 0.25817   1
   3   5  -6 0.94768 0.17116  -2
  -3  -5  -1 0.94768 0.17116   1
   3   5  -6 1.51618 0.34617  -2
  -3  -5  -1 1.51618 0.34617   1
  -3  -5  -1 0.60267 0.32814   2
  -4  -5  -1 6.06000 0.28127   1
  -4  -5  -1 6.30060 0.35579   1
  -4  -5  -1 6.31279 0.45606   1
  -4  -5  -1 6.34876 0.40214   1
  -4  -5  -1 6.40777 0.48016   1
  -4  -5  -1 6.15131 0.31372   1
  -4  -5  -1 7.18308 0.39754   2
  -4  -5  -1 7.11707 0.36938   2
  -4  -5  -1 7.31728 0.47508   2
   4   5   1 7.39197 0.31339   2
   4   5   1 7.16629 0.38447   2
  -5  -5  -1 0.73521 0.19990   1
  -5  -5  -1 0.82141 0.16870   1
  -5  -5  -1 1.44815 0.19373   1
  -5  -5  -1 0.76669 0.09849   1
  -5  -5  -1 0.64419 0.12237   1
  -5  -5  -1 0.85339 0.19891   1
  -5  -5  -1 0.86170 0.19071   2
  -5  -5  -1 0.65503 0.11992   2
   5   5   1 0.71269 0.14762   2
  -6  -5  -1 12.3730 0.40466   1
  -6  -5  -1 12.6547 0.33222   1
   7  -6  -1 73.1167 2.10512   1
   7  -6  -1 76.0674 1.99378   1
   7  -6  -1 88.6569 2.04298   2
  -7   6   1 86.5788 1.82998   2
  -7   6   1 74.8315 1.65157   1
  -7   6   1 75.6122 1.78240   1
  -6   6  -2 25.8264 0.97288  -2
   6  -6  -1 25.8264 0.97288   1
  -6   6  -2 31.1734 1.08972  -2
   6  -6  -1 31.1734 1.08972   1
   6  -6   2 30.0420 0.92519  -2
  -6   6   1 30.0420 0.92519   1
   6  -6   2 29.7640 0.86957  -2
  -6   6   1 29.7640 0.86957   1
   5  -6  -1 52.7538 1.42028   2
   5  -6  -1 50.3493 1.27754   2
   5  -6  -1 43.9593 1.51985   1
   5  -6  -1 44.8647 1.46267   1
  -5   6   1 42.3301 1.42169   1
  -5   6   1 44.5471 1.71008   1
  -5   6   1 43.9434 1.26556   1
  -5   6   1 50.1075 1.28348   2
  -5   6   1 51.1910 1.57534   2
  -4   6  -3 62.4510 1.82651  -2
   4  -6  -1 62.4510 1.82651   1
  -4   6  -3 65.2700 1.92933  -2
   4  -6  -1 65.2700 1.92933   1
   4  -6   3 57.9147 1.61359  -2
  -4   6   1 57.9147 1.61359   1
   4  -6   3 61.1506 1.94627  -2
  -4   6   1 61.1506 1.94627   1
   4  -6   3 58.0117 2.12024  -2
  -4   6   1 58.0117 2.12024   1
   3  -6  -1 22.4966 0.65784   1
   3  -6  -1 22.4270 0.73893   1
   3  -6  -1 23.4668 0.87566   1
   3  -6  -1 22.7028 0.74567   1
   3  -6  -1 22.7553 0.94866   1
   3  -6  -1 22.2397 0.72752   1
   3  -6  -1 21.9298 0.89752   1
   3  -6  -1 24.6366 0.76561   2
   3  -6  -1 25.3434 1.26813   2
   3  -6  -1 24.5577 1.14928   2
   3  -6  -1 24.5293 0.81330   2
  -3   6   1 25.5143 0.74631   2
  -3   6   1 25.0189 0.78062   2
  -3   6   1 21.0372 1.06136   1
  -3   6   1 22.7141 1.03468   1
  -3   6   1 21.7401 0.91118   1
  -2   6  -4 52.2015 1.58016  -2
   2  -6  -1 52.2015 1.58016   1
  -2   6  -4 50.7747 1.38258  -2
   2  -6  -1 50.7747 1.38258   1
  -2   6  -4 46.8485 1.54884  -2
   2  -6  -1 46.8485 1.54884   1
   2  -6   4 50.3303 1.83919  -2
  -2   6   1 50.3303 1.83919   1
   2  -6   4 48.6209 1.63123  -2
  -2   6   1 48.6209 1.63123   1
   1  -6  -1 14.3774 0.58116   2
   1  -6  -1 13.1907 0.85008   2
   1  -6  -1 14.9709 0.82400   2
   1  -6  -1 13.3642 0.62761   1
   1  -6  -1 13.2209 0.47873   1
   1  -6  -1 13.2690 0.67472   1
  -1   6   1 13.2825 0.66941   1
  -1   6   1 13.5256 0.76731   1
   0  -6  -1 -0.0018 0.13394   1
   0  -6  -1 0.96413 0.13249   1
   0  -6  -1 0.04971 0.09056   1
   0  -6  -1 0.13486 0.16970   1
   0  -6  -1 0.03455 0.10167   1
   0   6  -5 0.55908 0.30337  -2
   0  -6  -1 0.55908 0.30337   1
   0  -6  -1 0.04967 0.19546   2
   0  -6  -1 -0.0337 0.10522   2
   0   6   1 0.06811 0.14131   1
   0   6   1 -0.0326 0.21155   1
  -1  -6  -1 3.22687 0.47882   2
  -1  -6  -1 2.36469 0.30258   2
  -1  -6  -1 3.19684 0.63730   2
  -1  -6  -1 3.08260 0.30175   2
  -1  -6  -1 2.83965 0.27150   2
  -1  -6  -1 3.13559 0.37477   1
  -1  -6  -1 2.35668 0.17374   1
  -1  -6  -1 3.09860 0.28755   1
  -1  -6  -1 2.59434 0.20324   1
  -1  -6  -1 2.33212 0.24782   1
  -1  -6  -1 3.06658 0.32832   1
  -1  -6  -1 2.62203 0.19455   1
  -1  -6  -1 2.44137 0.32280   1
   1   6   1 3.05294 0.22729   2
   1   6   1 2.78711 0.26677   2
   1   6   1 1.91568 0.41142   1
  -2  -6  -1 97.8401 3.83888   2
  -2  -6  -1 99.9872 2.37200   2
  -2  -6  -1 102.081 2.45384   2
  -2  -6  -1 103.563 2.81835   2
  -2  -6  -1 88.5980 2.52568   1
  -2  -6  -1 89.2260 2.02309   1
  -2  -6  -1 91.0155 2.63584   1
  -2  -6  -1 89.6554 2.29909   1
  -2  -6  -1 88.6360 2.51430   1
  -2  -6  -1 89.3566 2.19509   1
  -2  -6  -1 89.6303 1.98456   1
   2   6   1 102.077 2.28614   2
  -3  -6  -1 122.223 3.26940   1
  -3  -6  -1 122.611 3.09953   1
  -3  -6  -1 122.527 2.87158   1
  -3  -6  -1 122.780 2.61409   1
  -3  -6  -1 124.555 3.44233   1
  -3  -6  -1 122.742 2.72145   1
  -3  -6  -1 140.161 3.24464   2
  -3  -6  -1 141.233 3.74534   2
  -3  -6  -1 138.275 3.12289   2
   3   6   1 139.681 3.01113   2
  -4  -6  -1 39.3303 1.26153   1
  -4  -6  -1 39.3487 1.00752   1
  -4  -6  -1 39.2519 1.14564   1
  -4  -6  -1 37.8745 1.32108   1
  -4  -6  -1 39.5907 1.10895   1
  -4  -6  -1 39.2935 0.87523   1
  -4  -6  -1 44.8566 1.18547   2
  -4  -6  -1 43.0968 1.38734   2
  -4  -6  -1 45.1511 1.12162   2
   5   6  -8 100.515 2.26248  -2
  -5  -6  -1 100.515 2.26248   1
   5   6  -8 101.817 2.19618  -2
  -5  -6  -1 101.817 2.19618   1
   5   6  -8 103.865 2.56994  -2
  -5  -6  -1 103.865 2.56994   1
  -5  -6  -1 48.7106 1.06388   2
   7  -7   2 0.87106 0.09867  -2
  -7   7   1 0.87106 0.09867   1
   7  -7   2 0.71920 0.12897  -2
  -7   7   1 0.71920 0.12897   1
   6  -7  -1 1.69593 0.23948   1
   6  -7  -1 1.47106 0.25686   1
   6  -7  -1 1.50022 0.18452   2
   6  -7  -1 1.66352 0.11537   2
  -6   7   1 1.59897 0.17325   1
  -6   7   1 1.45759 0.18831   1
  -6   7   1 1.64290 0.11826   2
   5  -7  -1 2.90525 0.37615   1
  -5   7  -3 15.4054 0.71212  -2
   5  -7  -1 15.4054 0.71212   1
  -5   7   1 2.01666 0.17037   2
   5  -7   3 15.8814 0.63771  -2
  -5   7   1 15.8814 0.63771   1
   4  -7  -1 19.9321 1.02810   2
   4  -7  -1 19.5682 0.63863   2
   4  -7  -1 20.1515 0.71754   2
   4  -7  -1 17.1474 0.63821   1
   4  -7  -1 17.4162 0.81377   1
   4  -7  -1 17.1742 0.76068   1
  -4   7   1 20.0060 0.66753   2
  -4   7   1 19.4855 0.60446   2
  -4   7   1 17.3812 0.98357   1
  -4   7   1 16.4455 0.76276   1
  -4   7   1 16.6976 0.64960   1
   3  -7  -1 3.67541 0.42939   1
   3  -7  -1 3.88143 0.28473   1
   3  -7  -1 2.87279 0.34238   1
   3  -7  -1 3.61444 0.37954   1
   3  -7  -1 2.52929 0.23047   1
   3  -7  -1 2.35491 0.20407   1
   3  -7  -1 2.75145 0.25318   1
   3  -7  -1 2.86328 0.24746   2
   3  -7  -1 2.57730 0.44241   2
   3  -7  -1 2.80724 0.27569   2
  -3   7   1 2.84347 0.21962   2
  -3   7   1 2.79188 0.27156   2
  -3   7   1 2.27684 0.33157   1
  -3   7   1 2.81877 0.46998   1
   2  -7  -1 29.4086 0.92133   1
   2  -7  -1 30.9864 1.09969   1
   2  -7  -1 29.3077 1.10276   1
   2  -7  -1 29.8324 0.83048   1
   2  -7  -1 30.7680 1.17952   1
   2  -7  -1 29.7337 0.93655   1
   2  -7  -1 30.0568 0.88412   1
   2  -7  -1 32.6119 1.41522   2
   2  -7  -1 32.8413 0.95873   2
  -2   7   1 31.0454 1.35012   1
  -2   7   1 30.7843 1.18111   1
  -2   7   1 33.1063 0.89767   2
  -2   7   1 33.9364 0.97791   2
   1  -7  -1 80.3809 2.00982   1
   1  -7  -1 82.6969 2.44240   1
   1  -7  -1 80.8809 1.86646   1
   1  -7  -1 82.1719 2.35921   1
   1  -7  -1 80.6606 1.89730   1
   1  -7  -1 82.0678 2.34090   1
   1  -7  -1 80.7744 2.12149   1
   1  -7  -1 90.9345 2.16806   2
   1  -7  -1 92.2778 2.92703   2
   1  -7  -1 91.9712 2.24104   2
  -1   7   1 90.5532 2.08148   2
  -1   7   1 91.4355 2.17317   2
  -1   7   1 80.9117 2.63488   1
   0  -7  -1 96.2302 2.70712   1
   0  -7  -1 96.6983 2.18783   1
   0  -7  -1 98.4046 2.49111   1
   0  -7  -1 98.8568 2.19223   1
   0   7  -6 122.472 3.32132  -2
   0  -7  -1 122.472 3.32132   1
   0   7  -6 118.661 2.83550  -2
   0  -7  -1 118.661 2.83550   1
   0   7  -6 120.704 3.38073  -2
   0  -7  -1 120.704 3.38073   1
   0  -7  -1 109.985 2.54716   2
  -1  -7  -1 244.637 5.18060   1
  -1  -7  -1 243.006 5.92224   1
  -1  -7  -1 245.370 5.08640   1
  -1  -7  -1 245.050 6.11525   1
  -1  -7  -1 243.603 5.37587   1
  -1  -7  -1 248.729 6.27886   1
  -1  -7  -1 250.699 5.34988   1
  -1  -7  -1 247.745 6.38928   1
  -1  -7  -1 286.403 6.24679   2
  -1  -7  -1 286.039 7.17561   2
  -1  -7  -1 284.528 6.08525   2
   1   7   1 286.074 6.08639   2
   1   7   1 285.779 5.96868   2
   2   7  -7 49.7003 1.15040  -2
  -2  -7  -1 49.7003 1.15040   1
   2   7  -7 50.3345 1.39689  -2
  -2  -7  -1 50.3345 1.39689   1
   2   7  -7 53.3306 1.58903  -2
  -2  -7  -1 53.3306 1.58903   1
   2   7  -7 48.1785 1.33819  -2
  -2  -7  -1 48.1785 1.33819   1
   2   7  -7 52.1939 1.23676  -2
  -2  -7  -1 52.1939 1.23676   1
   2   7  -7 49.6250 1.63108  -2
  -2  -7  -1 49.6250 1.63108   1
  -2  -7   7 49.2481 1.63865  -2
   2   7   1 49.2481 1.63865   1
  -3  -7  -1 20.1461 0.45068   1
  -3  -7  -1 20.2479 0.78575   1
  -3  -7  -1 19.5756 0.67695   1
  -3  -7  -1 19.7712 0.82097   1
  -3  -7  -1 19.0663 0.66328   1
  -3  -7  -1 19.7986 0.58739   1
  -3  -7  -1 22.6005 0.72974   2
  -3  -7  -1 21.8373 0.83038   2
  -3  -7  -1 23.0839 0.66252   2
   4   7  -8 37.2799 1.08900  -2
  -4  -7  -1 37.2799 1.08900   1
   4   7  -8 36.3566 0.94939  -2
  -4  -7  -1 36.3566 0.94939   1
   4   7  -8 36.9774 0.88688  -2
  -4  -7  -1 36.9774 0.88688   1
   6  -8  -1 1.96695 0.17317   2
   6  -8  -1 1.98489 0.20149   1
  -6   8   1 2.01949 0.17181   1
  -6   8   1 2.04889 0.15346   1
   5  -8  -1 0.36344 0.08178   2
  -5   8  -4 11.8870 0.54329  -2
   5  -8  -1 11.8870 0.54329   1
  -5   8  -4 10.9134 0.54873  -2
   5  -8  -1 10.9134 0.54873   1
   5  -8   4 11.3067 0.46529  -2
  -5   8   1 11.3067 0.46529   1
   4  -8  -1 37.8995 1.21159   1
   4  -8  -1 35.5118 1.26387   1
   4  -8  -1 35.9558 1.00423   1
   4  -8  -1 37.2856 1.02833   1
   4  -8  -1 40.9367 1.13615   2
   4  -8  -1 41.6101 1.04239   2
  -4   8   1 41.8749 0.97468   2
  -4   8   1 41.5058 1.09055   2
  -4   8   1 36.1102 1.02089   1
  -3   8  -5 176.604 4.62745  -2
   3  -8  -1 176.604 4.62745   1
  -3   8  -5 178.058 4.42814  -2
   3  -8  -1 178.058 4.42814   1
  -3   8  -5 176.614 3.89080  -2
   3  -8  -1 176.614 3.89080   1
  -3   8  -5 177.900 3.76682  -2
   3  -8  -1 177.900 3.76682   1
  -3   8  -5 177.582 3.76759  -2
   3  -8  -1 177.582 3.76759   1
  -3   8  -5 172.785 4.28230  -2
   3  -8  -1 172.785 4.28230   1
  -3   8  -5 155.440 4.46270  -2
   3  -8  -1 155.440 4.46270   1
   3  -8   5 173.811 4.76395  -2
  -3   8   1 173.811 4.76395   1
   3  -8   5 174.349 4.95761  -2
  -3   8   1 174.349 4.95761   1
   2  -8  -1 37.4901 1.01467   2
   2  -8  -1 35.1417 1.49755   2
   2  -8  -1 33.7141 1.17263   1
   2  -8  -1 31.9702 0.97402   1
   2  -8  -1 31.6678 0.92030   1
   2  -8  -1 34.0997 0.89760   1
   2  -8  -1 32.8061 1.00206   1
   2  -8  -1 32.9537 1.14810   1
   2  -8  -1 33.1556 1.22013   1
  -2   8   1 31.0233 1.23641   1
  -2   8   1 31.6752 1.40421   1
  -2   8   1 36.9864 0.92036   2
  -2   8   1 36.8902 1.04361   2
  -1   8  -6 115.370 3.15585  -2
   1  -8  -1 115.370 3.15585   1
  -1   8  -6 107.935 3.17267  -2
   1  -8  -1 107.935 3.17267   1
  -1   8  -6 116.978 2.92725  -2
   1  -8  -1 116.978 2.92725   1
  -1   8  -6 106.966 3.03974  -2
   1  -8  -1 106.966 3.03974   1
  -1   8  -6 114.145 2.52850  -2
   1  -8  -1 114.145 2.52850   1
  -1   8  -6 125.211 2.75444  -2
   1  -8  -1 125.211 2.75444   1
  -1   8  -6 119.852 2.57947  -2
   1  -8  -1 119.852 2.57947   1
   0  -8  -1 33.6586 0.87382   1
   0  -8  -1 33.1190 0.88214   1
   0  -8  -1 31.2664 1.14206   1
   0  -8  -1 33.5494 1.16771   1
   0  -8  -1 33.9921 1.22467   1
   0  -8  -1 34.0010 1.00658   1
   0  -8  -1 34.0826 0.97713   1
   0  -8  -1 38.2196 1.09342   2
   0  -8  -1 37.1751 1.03072   2
   0  -8  -1 37.3710 1.49261   2
   0   8   1 38.5219 1.05603   2
   0   8   1 37.7894 0.91431   2
   1   8  -7 17.5889 0.64237  -2
  -1  -8  -1 17.5889 0.64237   1
   1   8  -7 17.7489 0.76708  -2
  -1  -8  -1 17.7489 0.76708   1
   1   8  -7 19.0155 0.75880  -2
  -1  -8  -1 19.0155 0.75880   1
   1   8  -7 17.1289 0.61418  -2
  -1  -8  -1 17.1289 0.61418   1
   1   8  -7 18.0097 0.62415  -2
  -1  -8  -1 18.0097 0.62415   1
   1   8  -7 18.5212 0.55401  -2
  -1  -8  -1 18.5212 0.55401   1
   1   8  -7 17.7942 0.48686  -2
  -1  -8  -1 17.7942 0.48686   1
  -2  -8  -1 9.35900 0.33846   1
  -2  -8  -1 9.54386 0.47345   1
  -2  -8  -1 8.19317 0.36571   1
  -2  -8  -1 8.97669 0.50221   1
  -2  -8  -1 8.96953 0.39347   1
  -2  -8  -1 10.8529 0.38292   2
  -2  -8  -1 10.7874 0.44273   2
  -3  -8  -1 0.05322 0.08430   1
  -3  -8  -1 0.11631 0.06001   1
  -3  -8  -1 0.13063 0.08199   1
  -3  -8  -1 0.20919 0.08390   2
  -3  -8  -1 0.05760 0.05884   2
  -4   9  -5 53.4766 1.46334  -2
   4  -9  -1 53.4766 1.46334   1
  -4   9  -5 54.1415 1.25646  -2
   4  -9  -1 54.1415 1.25646   1
   3  -9  -1 7.71666 0.28514   2
   3  -9  -1 6.75790 0.40296   1
   3  -9  -1 6.71290 0.43058   1
   3  -9  -1 6.67841 0.28796   1
   3  -9  -1 6.84445 0.31506   1
   3  -9  -1 7.36375 0.31965   1
  -3   9   1 7.74999 0.34519   2
   2  -9  -1 11.8394 0.59765   1
   2  -9  -1 12.6042 0.48272   1
   2  -9  -1 12.0911 0.42183   1
   2  -9  -1 13.4393 0.58426   1
   2  -9  -1 12.8877 0.47239   1
   2  -9  -1 13.3519 0.43875   1
   2  -9  -1 14.5396 0.45795   2
  -2   9   1 14.4002 0.51223   2
   1  -9  -1 1.59890 0.22897   1
   1  -9  -1 1.76402 0.25955   1
   1  -9  -1 1.43745 0.17637   1
   1  -9  -1 1.57837 0.16279   1
   1  -9  -1 1.38134 0.14918   1
   1  -9  -1 1.57418 0.15093   1
   1  -9  -1 1.92514 0.16972   2
   1  -9  -1 2.03458 0.20618   2
  -1   9   1 1.87367 0.19378   2
   0  -9  -1 6.24607 0.29748   1
   0  -9  -1 5.44421 0.37866   1
   0  -9  -1 5.91246 0.36792   1
   0  -9  -1 6.17820 0.19412   1
   0  -9  -1 6.67478 0.26868   1
   0  -9  -1 5.89860 0.29431   1
   0  -9  -1 6.88688 0.32903   2
   0  -9  -1 7.12101 0.28111   2
   0   9   1 7.19747 0.32441   2
  -1  -9  -1 0.15855 0.08951   2
  -1  -9  -1 0.19526 0.07031   2
  -1  -9  -1 0.13466 0.10288   1
  -1  -9  -1 0.11853 0.06024   1
   1   9   1 0.13572 0.07982   2
   1  10  -2 61.7892 1.39980   2
   1  10  -2 51.5255 1.21504   1
  -1 -10   2 61.9457 1.43434   2
  -1 -10   2 51.0935 1.18767   1
  -1 -10   2 51.7515 1.11537   1
   0 -10   5 2.82489 0.22788  -2
   0  10  -2 2.82489 0.22788   1
   0  10  -5 3.22090 0.21453  -2
   0 -10   2 3.22090 0.21453   1
   0  10  -5 3.34199 0.17704  -2
   0 -10   2 3.34199 0.17704   1
  -1  10  -2 124.056 2.71683   2
   1 -10   2 106.647 2.36280   1
   1 -10   2 109.343 2.35926   1
   1 -10   2 123.613 2.77329   2
   1 -10   2 126.820 2.72880   2
  -2  10  -4 0.42154 0.16910  -2
   2 -10   2 0.42154 0.16910   1
   3 -10   2 1.64841 0.15013   2
   3 -10   2 1.27503 0.16375   1
   4 -10   2 3.20735 0.16257   2
   3   9  -6 34.8978 0.87514  -2
  -3  -9   2 34.8978 0.87514   1
  -3  -9   2 35.4094 0.75709   1
   2   9  -2 5.95337 0.29374   2
   2   9  -2 5.31888 0.27816   1
  -2  -9   2 4.60230 0.28633   1
  -2  -9   2 5.24893 0.26076   1
  -2  -9   2 5.16761 0.24023   1
  -2  -9   2 5.06808 0.43720   1
  -2  -9   2 5.83749 0.29426   2
   1   9  -2 6.93354 0.35915   2
   1   9  -2 5.60242 0.42080   1
  -1  -9   2 6.25317 0.35052   1
  -1  -9   2 6.02209 0.38673   1
  -1  -9   2 6.37614 0.35179   1
  -1  -9   2 6.23556 0.30600   1
  -1  -9   2 6.05346 0.42071   1
  -1  -9   2 5.46929 0.29996   1
  -1  -9   2 8.74743 0.39377   2
   0   9  -2 0.45641 0.13252   2
   0   9  -2 0.49865 0.20578   1
   0  -9   2 0.48619 0.13305   1
   0  -9   2 0.55293 0.14564   1
   0  -9   2 0.58004 0.18326   1
   0  -9   2 0.60234 0.20501   1
   0  -9   2 0.48500 0.14215   1
   0  -9   2 0.65005 0.14506   1
   0  -9   2 0.40277 0.14060   1
   0  -9   2 0.51267 0.15504   2
  -1   9  -2 20.1614 0.66797   2
  -1   9  -2 16.6857 0.76452   1
   1  -9   2 17.5031 0.64905   1
   1  -9   2 17.2752 0.75893   1
   1  -9   2 18.1703 0.63476   1
   1  -9   2 17.5388 0.63049   1
   1  -9   2 17.7058 0.77381   1
  -2   9  -2 0.21670 0.11045   2
   2  -9   2 0.23014 0.13822   1
   2  -9   2 0.19369 0.11844   1
   2  -9   2 0.21357 0.17122   1
  -3   9  -2 11.3109 0.53811   2
   3  -9   2 12.1139 0.60683   1
   3  -9   2 12.0446 0.45562   1
   4  -9   2 58.1139 1.41250  -2
  -4   9  -2 58.1139 1.41250   1
  -5   9  -2 1.23625 0.12940   1
   5  -9   2 1.16974 0.12408   2
  -4  -8   2 1.60681 0.15712   2
  -4  -8   2 1.15359 0.17018   1
  -4  -8   2 1.40197 0.11485   1
  -4  -8   2 1.64798 0.15752   1
  -4  -8   2 1.34683 0.15186   1
   3   8  -2 4.16807 0.26840   2
  -3  -8   2 3.32604 0.32462   1
  -3  -8   2 3.66808 0.27014   1
  -3  -8   2 3.80534 0.28277   1
  -3  -8   2 3.64468 0.24037   1
  -3  -8   2 3.84822 0.32188   1
  -3  -8   2 3.68672 0.23126   1
  -3  -8   2 4.20436 0.26649   2
   2   8  -2 8.50928 0.41180   2
   2   8  -2 7.47018 0.50502   1
  -2  -8   2 7.24491 0.35828   1
  -2  -8   2 7.32135 0.41054   1
  -2  -8   2 7.49487 0.46675   1
  -2  -8   2 7.50757 0.50901   1
  -2  -8   2 7.64248 0.41216   1
  -2  -8   2 7.10189 0.36836   1
  -2  -8   2 8.93630 0.42920   2
  -2  -8   2 7.82182 0.46925   2
  -1  -8   4 7.61521 0.56462  -2
   1   8  -2 7.61521 0.56462   1
  -1  -8   4 8.85447 0.61006  -2
   1   8  -2 8.85447 0.61006   1
   1   8  -4 8.28899 0.54665  -2
  -1  -8   2 8.28899 0.54665   1
   1   8  -4 8.03776 0.52328  -2
  -1  -8   2 8.03776 0.52328   1
   1   8  -4 8.01239 0.44686  -2
  -1  -8   2 8.01239 0.44686   1
   1   8  -4 8.15534 0.40139  -2
  -1  -8   2 8.15534 0.40139   1
   1   8  -4 7.09510 0.43674  -2
  -1  -8   2 7.09510 0.43674   1
   0   8  -2 17.2314 0.63461   2
   0   8  -2 17.7875 0.67302   2
   0   8  -2 15.3074 0.76880   1
   0  -8   2 14.4065 0.54976   1
   0  -8   2 14.7665 0.60148   1
   0  -8   2 14.6978 0.61770   1
   0  -8   2 14.6077 0.59703   1
   0  -8   2 15.9332 0.62604   1
   0  -8   2 14.9439 0.70564   1
   0  -8   2 15.4012 0.75211   1
   0  -8   2 14.2334 0.69277   1
   0  -8   2 16.9540 0.75415   2
   0  -8   2 16.6988 0.76765   2
   1  -8   3 13.1877 0.83888  -2
  -1   8  -2 13.1877 0.83888   1
   1  -8   3 12.8146 0.68254  -2
  -1   8  -2 12.8146 0.68254   1
  -1   8  -3 13.1540 0.56168  -2
   1  -8   2 13.1540 0.56168   1
  -1   8  -3 14.1539 0.58015  -2
   1  -8   2 14.1539 0.58015   1
  -1   8  -3 13.9724 0.56202  -2
   1  -8   2 13.9724 0.56202   1
  -1   8  -3 12.9703 0.66578  -2
   1  -8   2 12.9703 0.66578   1
  -1   8  -3 12.1687 0.62405  -2
   1  -8   2 12.1687 0.62405   1
  -1   8  -3 12.6192 0.55569  -2
   1  -8   2 12.6192 0.55569   1
  -1   8  -3 12.4115 0.61618  -2
   1  -8   2 12.4115 0.61618   1
  -2   8  -2 10.3383 0.53733   2
  -2   8  -2 9.85580 0.49278   2
  -2   8  -2 10.5297 0.46232   2
  -2   8  -2 8.92504 0.71595   1
  -2   8  -2 8.81825 0.55321   1
   2  -8   2 8.86674 0.57836   1
   2  -8   2 9.17398 0.44892   1
   2  -8   2 8.98811 0.45439   1
   2  -8   2 9.09858 0.74257   2
   2  -8   2 10.2210 0.57385   2
   3  -8   2 0.00100 0.40129  -2
  -3   8  -2 0.00100 0.40129   1
   3  -8   2 0.43240 0.29304  -2
  -3   8  -2 0.43240 0.29304   1
  -3   8  -2 -0.0507 0.22107  -2
   3  -8   2 -0.0507 0.22107   1
  -4   8  -2 324.250 7.00234   1
  -4   8  -2 322.074 6.80877   1
  -4   8  -2 323.496 8.53847   1
  -4   8  -2 380.145 9.33062   2
   4  -8   2 373.846 9.83448   2
   4  -8   2 375.413 8.12810   2
   4  -8   2 319.963 8.11564   1
   5  -8   1 133.177 3.04309  -2
  -5   8  -2 133.177 3.04309   1
  -5   8  -2 111.907 2.48265   1
   5  -8   2 127.635 2.82927   2
  -6   8  -2 687.161 14.5815   1
  -6   8  -2 700.517 14.0206   1
   6  -8   2 752.827 15.4021   2
   6  -8   2 766.677 15.9460   2
  -5  -7   2 0.46427 0.10114   1
  -5  -7   2 0.70083 0.11366   1
  -5  -7   2 0.61387 0.14196   1
  -5  -7   2 0.69262 0.08980   1
  -5  -7   2 0.49604 0.10730   2
   4   7  -5 139.473 3.55207  -2
  -4  -7   2 139.473 3.55207   1
   4   7  -5 148.589 3.50693  -2
  -4  -7   2 148.589 3.50693   1
   4   7  -5 139.082 3.68689  -2
  -4  -7   2 139.082 3.68689   1
   4   7  -5 140.011 3.13387  -2
  -4  -7   2 140.011 3.13387   1
   4   7  -5 134.003 3.04554  -2
  -4  -7   2 134.003 3.04554   1
   3   7  -2 4.34581 0.41159   1
   3   7  -2 3.48551 0.45018   1
   3   7  -2 3.99782 0.30403   2
  -3  -7   2 3.45655 0.26567   1
  -3  -7   2 3.69492 0.30894   1
  -3  -7   2 3.46981 0.36308   1
  -3  -7   2 3.45874 0.31755   1
  -3  -7   2 3.59587 0.28655   1
  -3  -7   2 3.60019 0.39532   1
  -3  -7   2 4.27399 0.30907   2
  -3  -7   2 4.61917 0.36760   2
  -3  -7   2 3.98257 0.35743   2
  -2  -7   4 1387.38 35.3061  -2
   2   7  -2 1387.38 35.3061   1
  -2  -7   4 1502.82 34.0436  -2
   2   7  -2 1502.82 34.0436   1
   2   7  -4 1483.13 28.8524  -2
  -2  -7   2 1483.13 28.8524   1
   2   7  -4 1388.95 28.7609  -2
  -2  -7   2 1388.95 28.7609   1
   2   7  -4 1344.30 28.1569  -2
  -2  -7   2 1344.30 28.1569   1
   2   7  -4 1391.31 34.0325  -2
  -2  -7   2 1391.31 34.0325   1
   2   7  -4 1458.03 32.9011  -2
  -2  -7   2 1458.03 32.9011   1
   2   7  -4 1352.61 32.6878  -2
  -2  -7   2 1352.61 32.6878   1
   1   7  -2 18.3638 0.69965   2
   1   7  -2 20.4371 0.80928   2
   1   7  -2 18.7915 0.67276   2
   1   7  -2 15.5486 0.78796   1
  -1  -7   2 15.4986 0.62826   1
  -1  -7   2 15.0037 0.72917   1
  -1  -7   2 16.0696 0.77587   1
  -1  -7   2 15.6407 0.62985   1
  -1  -7   2 15.4293 0.61352   1
  -1  -7   2 16.4867 0.73254   1
  -1  -7   2 15.4911 0.63107   1
  -1  -7   2 15.7055 0.56600   1
  -1  -7   2 18.4703 0.80933   2
  -1  -7   2 18.4005 0.83198   2
   0   7  -2 7.94393 0.56106   1
   0   7  -2 11.0131 0.50062   2
   0   7  -2 12.1610 0.56941   2
   0  -7   3 1915.56 45.2375  -2
   0   7  -2 1915.56 45.2375   1
   0   7  -3 1774.89 36.5851  -2
   0  -7   2 1774.89 36.5851   1
   0   7  -3 1862.09 42.7187  -2
   0  -7   2 1862.09 42.7187   1
   0   7  -3 1846.73 38.1117  -2
   0  -7   2 1846.73 38.1117   1
   0   7  -3 1804.96 37.3767  -2
   0  -7   2 1804.96 37.3767   1
   0  -7   2 9.56184 0.41257   1
   0  -7   2 9.42564 0.59066   2
  -1   7  -2 7.02525 0.77360   1
  -1   7  -2 5.84735 0.57553   1
  -1   7  -2 5.89982 0.57077   1
  -1   7  -2 6.31547 0.46616   1
  -1   7  -2 6.41499 0.36853   2
  -1   7  -2 6.57076 0.44411   2
  -1   7  -2 6.40952 0.41785   2
  -1   7  -2 5.92890 0.38229   2
  -1   7  -2 6.38772 0.36232   2
   1  -7   2 5.76442 0.35705   1
   1  -7   2 5.80017 0.32893   1
   1  -7   2 5.05066 0.45656   1
   1  -7   2 5.76847 0.43029   1
   1  -7   2 5.77171 0.36978   1
   1  -7   2 5.89789 0.35632   1
   1  -7   2 6.20967 0.64026   2
   1  -7   2 6.33674 0.46602   2
   1  -7   2 7.30206 0.61361   2
   1  -7   2 5.99108 0.54587   2
  -2   7  -2 437.504 11.3041   1
  -2   7  -2 436.469 11.1943   1
  -2   7  -2 509.457 10.8013   2
  -2   7  -2 510.977 12.4827   2
  -2   7  -2 501.764 10.5537   2
   2  -7   2 435.838 9.26284   1
   2  -7   2 431.650 9.12880   1
   2  -7   2 435.939 10.8496   1
   2  -7   2 504.104 12.9814   2
   2  -7   2 515.442 13.0604   2
  -3   7  -2 170.080 4.56019   1
  -3   7  -2 165.250 3.83204   1
  -3   7  -2 170.345 4.83304   1
  -3   7  -2 189.222 5.01539   2
  -3   7  -2 194.456 4.82014   2
   3  -7   2 193.455 5.23664   2
   3  -7   2 193.122 5.45997   2
   3  -7   2 200.084 4.72077   2
   3  -7   2 165.963 3.54173   1
   3  -7   2 166.260 3.73755   1
   3  -7   2 168.876 4.48494   1
  -4   7  -2 468.015 9.63848   1
  -4   7  -2 435.079 9.50984   1
  -4   7  -2 429.940 11.4146   1
  -4   7  -2 484.357 11.9450   2
  -4   7  -2 484.999 11.4521   2
   4  -7   2 480.176 12.3215   2
   4  -7   2 483.622 10.4218   2
   4  -7   2 487.472 12.4831   2
   4  -7   2 435.315 9.04888   1
   4  -7   2 433.505 10.9769   1
   5  -7   0 81.7706 2.04155  -2
  -5   7  -2 81.7706 2.04155   1
  -5   7  -2 34.5748 0.96459   1
  -5   7  -2 38.4418 1.28106   2
   5  -7   2 35.9964 0.89443   1
   5  -7   2 35.2713 1.25142   1
  -6   7  -2 104.869 2.47016   1
  -6   7  -2 106.073 2.27847   1
  -6   7  -2 120.041 2.99365   2
  -6   7  -2 117.576 3.13744   2
   6  -7   2 105.954 2.20006   1
   6  -7   2 117.041 2.74414   2
   6  -7   2 120.205 2.62319   2
   7  -7  -1 1.26060 0.14177  -2
  -7   7  -2 1.26060 0.14177   1
  -6  -6   2 1.26759 0.09989   1
   5   6  -5 1.19460 0.15712  -2
  -5  -6   2 1.19460 0.15712   1
   5   6  -5 1.53036 0.33879  -2
  -5  -6   2 1.53036 0.33879   1
   5   6  -5 1.15080 0.18496  -2
  -5  -6   2 1.15080 0.18496   1
   5   6  -5 1.27993 0.26772  -2
  -5  -6   2 1.27993 0.26772   1
   4   6  -2 27.1452 0.94596   2
   4   6  -2 26.2730 0.82069   2
   4   6  -2 24.0474 0.96639   1
   4   6  -2 22.4009 1.04999   1
  -4  -6   2 23.7059 0.99671   1
  -4  -6   2 23.0222 0.85534   1
  -4  -6   2 23.4940 0.80404   1
  -4  -6   2 23.4761 0.76359   1
  -4  -6   2 23.7923 0.95232   1
  -4  -6   2 23.0602 0.76094   1
  -4  -6   2 25.6033 0.98051   2
  -4  -6   2 27.1432 0.99992   2
   3   6  -2 39.7182 1.11801   2
   3   6  -2 39.0053 1.26634   2
   3   6  -2 35.9179 1.29084   1
   3   6  -2 34.4839 1.35348   1
  -3  -6   2 39.0368 1.13520   2
  -3  -6   2 40.4687 1.34434   2
  -3  -6   2 39.4340 1.38743   2
  -3  -6   2 31.9027 1.21038   1
  -3  -6   2 34.7721 1.30390   1
  -3  -6   2 35.4578 1.06799   1
  -3  -6   2 34.7711 1.02177   1
  -3  -6   2 34.7513 1.12590   1
  -3  -6   2 33.6306 0.98834   1
   2   6  -2 16.1843 0.76812   1
   2   6  -2 13.7534 0.91279   1
   2   6  -2 14.7763 0.76291   1
   2   6  -2 17.4368 0.70897   2
   2   6  -2 17.2227 0.63490   2
   2   6  -2 16.0802 0.63201   2
   2   6  -2 15.1627 0.54584   2
   2   6  -2 16.2361 0.61390   2
  -2  -6   2 16.6831 0.76055   2
  -2  -6   2 16.3788 0.73469   2
  -2  -6   2 14.6675 0.93813   2
  -2  -6   2 15.6429 0.82722   2
  -2  -6   2 14.6636 0.60345   1
  -2  -6   2 14.4918 0.57875   1
  -2  -6   2 14.0625 0.59452   1
  -2  -6   2 15.6059 0.75283   1
  -2  -6   2 14.9707 0.54999   1
  -2  -6   2 15.2057 0.72312   1
  -2  -6   2 15.0530 0.61396   1
   1   6  -2 8.06953 0.38473   2
   1   6  -2 7.89121 0.43701   2
   1   6  -2 8.54429 0.50617   1
   1   6  -2 7.65847 0.65669   1
   1   6  -2 7.06993 1.09563   1
   1   6  -2 8.34330 0.57239   1
  -1  -6   2 7.84162 0.53000   2
  -1  -6   2 8.73015 0.50870   2
  -1  -6   2 7.71080 0.76172   2
  -1  -6   2 7.65319 0.65519   2
  -1  -6   2 7.55364 0.46751   1
  -1  -6   2 6.75449 0.47860   1
  -1  -6   2 7.14683 0.37762   1
   0   6  -2 61.7223 2.45720   1
   0   6  -2 61.8511 1.94427   1
   0   6  -2 62.0907 1.93650   1
   0   6  -2 64.6950 1.93874   1
   0   6  -2 63.8805 2.10720   1
   0   6  -2 59.6038 2.30077   1
   0   6  -2 71.0530 1.96707   2
   0   6  -2 70.1472 1.83391   2
   0  -6   2 130.901 3.73306  -2
   0   6  -2 130.901 3.73306   1
   0  -6   2 62.0554 1.68252   1
   0  -6   2 62.0336 1.88199   1
   0  -6   2 65.3586 2.46614   2
   0  -6   2 68.9068 2.10568   2
   0  -6   2 72.1823 2.10082   2
   0  -6   2 69.1191 2.48315   2
   0  -6   2 68.1835 2.03758   2
   0  -6   2 67.1433 2.21283   2
  -1   6  -2 49.1599 1.66766   1
  -1   6  -2 52.1807 1.79988   1
  -1   6  -2 50.5915 2.03870   1
  -1   6  -2 53.0892 1.65962   1
  -1   6  -2 51.0356 1.73419   1
  -1   6  -2 52.6832 1.83626   1
  -1   6  -2 56.6681 1.69797   2
  -1   6  -2 56.3810 1.58320   2
  -1   6  -2 59.2243 1.71183   2
   1  -6   2 50.7238 1.59933   1
   1  -6   2 51.4586 1.42609   1
   1  -6   2 51.3635 1.53505   1
   1  -6   2 60.0582 1.99080   2
   1  -6   2 59.6694 1.83520   2
   1  -6   2 59.4933 2.19902   2
   1  -6   2 59.1406 1.81011   2
   1  -6   2 57.6658 2.19596   2
   1  -6   2 58.5344 1.95772   2
   1  -6   2 62.0084 1.93185   2
   2  -6   1 46.1759 1.71064  -2
  -2   6  -2 46.1759 1.71064   1
   2  -6   1 50.1750 1.54676  -2
  -2   6  -2 50.1750 1.54676   1
   2  -6   1 48.9677 1.72906  -2
  -2   6  -2 48.9677 1.72906   1
   2  -6   1 42.9107 1.89008  -2
  -2   6  -2 42.9107 1.89008   1
   2  -6   1 47.9112 1.69547  -2
  -2   6  -2 47.9112 1.69547   1
  -2   6  -1 40.6463 1.41120  -2
   2  -6   2 40.6463 1.41120   1
  -3   6  -2 0.95798 0.28428   1
  -3   6  -2 0.53433 0.30315   1
  -3   6  -2 0.23338 0.13576   1
  -3   6  -2 0.50437 0.17994   2
   3  -6   2 0.49541 0.20978   1
   3  -6   2 0.54478 0.18003   2
   3  -6   2 0.48062 0.24110   2
   3  -6   2 0.34025 0.22934   2
   4  -6   0 0.39625 0.18369  -2
  -4   6  -2 0.39625 0.18369   1
   4  -6   0 0.55178 0.31847  -2
  -4   6  -2 0.55178 0.31847   1
   4  -6   0 -0.1187 0.17193  -2
  -4   6  -2 -0.1187 0.17193   1
  -4   6   0 1.10871 0.16549  -2
   4  -6   2 1.10871 0.16549   1
  -4   6   0 0.25811 0.17558  -2
   4  -6   2 0.25811 0.17558   1
  -5   6  -2 -0.0061 0.06085   2
  -5   6  -2 0.05141 0.14037   2
  -5   6  -2 0.17149 0.13390   2
  -5   6  -2 0.06074 0.08337   1
  -5   6  -2 0.08370 0.11392   1
   5  -6   2 0.01208 0.21304   2
   5  -6   2 -0.0753 0.11740   2
   5  -6   2 -0.0105 0.10690   2
   5  -6   2 0.02606 0.17555   1
   5  -6   2 0.09927 0.11276   1
   6  -6  -1 27.7429 0.87677  -2
  -6   6  -2 27.7429 0.87677   1
   6  -6  -1 28.0137 0.73605  -2
  -6   6  -2 28.0137 0.73605   1
  -6   6   1 27.9158 1.03166  -2
   6  -6   2 27.9158 1.03166   1
  -6   6   1 28.2463 0.79919  -2
   6  -6   2 28.2463 0.79919   1
  -7   6  -2 0.20170 0.11759   2
  -7   6  -2 0.08176 0.08807   1
   7  -6   2 0.08566 0.09710   2
   7  -6   2 0.11895 0.07096   2
   7  -6   2 0.24980 0.08172   1
   6   5  -2 2.56243 0.30390   1
   6   5  -2 2.33595 0.20635   2
  -6  -5   2 2.66521 0.22118   1
  -6  -5   2 2.51822 0.19432   1
  -6  -5   2 2.16106 0.26525   1
  -6  -5   2 2.66907 0.21331   2
  -6  -5   2 2.47246 0.22482   2
   5   5  -2 25.9903 0.78046   2
   5   5  -2 26.0286 0.91901   2
   5   5  -2 22.1952 1.01753   1
  -5  -5   2 23.0456 0.77148   1
  -5  -5   2 22.3123 0.90978   1
  -5  -5   2 21.4407 0.81520   1
  -5  -5   2 21.7686 0.72675   1
  -5  -5   2 21.6223 0.94039   1
  -5  -5   2 22.3929 0.72686   1
  -5  -5   2 25.4968 0.94980   2
  -5  -5   2 24.2984 0.93452   2
   4   5  -2 2.33856 0.34169   1
   4   5  -2 1.46513 0.42128   1
   4   5  -2 2.38806 0.37596   1
   4   5  -2 2.39019 0.26150   2
   4   5  -2 2.73149 0.32892   2
   4   5  -2 2.40121 0.30229   2
  -4  -5   2 2.35431 0.29392   1
  -4  -5   2 2.19062 0.36165   1
  -4  -5   2 1.69188 0.22163   1
  -4  -5   2 2.00949 0.26116   1
  -4  -5   2 1.81759 0.30425   1
  -4  -5   2 2.00671 0.30885   2
  -4  -5   2 2.22605 0.52225   2
  -4  -5   2 2.67682 0.33765   2
  -3  -5   3 6.66056 0.48305  -2
   3   5  -2 6.66056 0.48305   1
  -3  -5   3 5.92156 0.56350  -2
   3   5  -2 5.92156 0.56350   1
  -3  -5   3 7.08172 0.52608  -2
   3   5  -2 7.08172 0.52608   1
  -3  -5   3 5.23845 0.64916  -2
   3   5  -2 5.23845 0.64916   1
  -3  -5   3 6.16747 0.69983  -2
   3   5  -2 6.16747 0.69983   1
   3   5  -3 5.93039 0.39211  -2
  -3  -5   2 5.93039 0.39211   1
   3   5  -3 5.99761 0.46962  -2
  -3  -5   2 5.99761 0.46962   1
   3   5  -3 6.29463 0.37909  -2
  -3  -5   2 6.29463 0.37909   1
   3   5  -3 6.35934 0.46520  -2
  -3  -5   2 6.35934 0.46520   1
   3   5  -3 5.53386 0.33417  -2
  -3  -5   2 5.53386 0.33417   1
   2   5  -2 60.0244 1.89186   1
   2   5  -2 55.1547 2.17041   1
   2   5  -2 62.4718 1.83189   1
   2   5  -2 60.1816 2.16369   1
   2   5  -2 59.7500 1.97363   1
   2   5  -2 60.6043 1.89113   1
   2   5  -2 61.0770 2.46521   1
   2   5  -2 68.2152 1.83013   2
   2   5  -2 70.2717 1.96493   2
  -2  -5   2 66.2557 2.42321   2
  -2  -5   2 69.7800 2.09238   2
  -2  -5   2 71.6371 2.53410   2
  -2  -5   2 69.3753 2.51249   2
  -2  -5   2 71.6504 2.01173   2
  -2  -5   2 69.3975 2.03041   2
  -2  -5   2 69.6423 2.17442   2
  -2  -5   2 59.8476 1.64022   1
  -2  -5   2 59.2877 1.82100   1
  -1  -5   2 10.1370 0.64731  -2
   1   5  -2 10.1370 0.64731   1
  -1  -5   2 9.31121 0.74002  -2
   1   5  -2 9.31121 0.74002   1
  -1  -5   2 9.56194 0.70096  -2
   1   5  -2 9.56194 0.70096   1
  -1  -5   2 9.61562 0.53496  -2
   1   5  -2 9.61562 0.53496   1
  -1  -5   2 9.45461 0.50004  -2
   1   5  -2 9.45461 0.50004   1
   1   5  -2 9.56430 0.47059  -2
  -1  -5   2 9.56430 0.47059   1
   0   5  -2 54.9174 1.79949   1
   0   5  -2 57.7279 2.02809   1
   0   5  -2 56.7732 2.10960   1
   0   5  -2 56.5522 1.70628   1
   0   5  -2 57.6542 1.69920   1
   0   5  -2 56.5538 1.70037   1
   0   5  -2 55.5360 1.78766   1
   0   5  -2 62.9629 1.78159   2
   0  -5   2 63.4602 1.80770   2
   0  -5   2 64.6812 2.19404   2
   0  -5   2 64.9666 1.87748   2
   0  -5   2 66.3480 1.96693   2
   0  -5   2 63.3158 1.87636   2
   0  -5   2 61.7523 1.96056   2
   0  -5   2 63.7316 2.18779   2
   0  -5   2 56.5223 1.61466   1
   1  -5   1 36.0009 1.33617  -2
  -1   5  -2 36.0009 1.33617   1
   1  -5   1 37.1052 1.35179  -2
  -1   5  -2 37.1052 1.35179   1
   1  -5   1 37.9160 1.23492  -2
  -1   5  -2 37.9160 1.23492   1
   1  -5   1 37.0193 1.51690  -2
  -1   5  -2 37.0193 1.51690   1
   1  -5   1 38.0075 1.22245  -2
  -1   5  -2 38.0075 1.22245   1
   1  -5   1 37.6387 1.30940  -2
  -1   5  -2 37.6387 1.30940   1
  -1   5  -1 35.7520 1.12025  -2
   1  -5   2 35.7520 1.12025   1
  -2   5  -2 44.7041 1.33693   2
  -2   5  -2 43.1367 1.68711   2
  -2   5  -2 44.1353 1.31618   2
  -2   5  -2 39.8273 1.32257   1
  -2   5  -2 39.1926 1.43231   1
  -2   5  -2 37.8785 1.59169   1
  -2   5  -2 40.1964 1.28122   1
  -2   5  -2 37.9757 1.36873   1
  -2   5  -2 39.9249 1.43930   1
   2  -5   2 44.0937 1.56369   2
   2  -5   2 44.2790 1.48261   2
   2  -5   2 43.9436 1.42043   2
   2  -5   2 45.1116 1.66655   2
   2  -5   2 44.1881 1.40551   2
   2  -5   2 44.2255 1.50642   2
  -3   5  -2 1.04574 0.35052   2
  -3   5  -2 0.99320 0.15447   2
  -3   5  -2 0.67056 0.30233   1
  -3   5  -2 0.68473 0.22666   1
  -3   5  -2 0.94881 0.17354   1
  -3   5  -2 0.60543 0.24698   1
  -3   5  -2 0.76889 0.30316   1
   3  -5   2 0.94929 0.25064   2
   3  -5   2 0.78788 0.18076   2
   3  -5   2 1.08576 0.24321   2
   3  -5   2 0.97903 0.29919   2
   3  -5   2 0.99168 0.27229   1
  -3   5   0 37.1067 1.18915  -2
   3  -5   2 37.1067 1.18915   1
  -4   5  -2 5.59518 0.50614   1
  -4   5  -2 5.55119 0.43352   1
  -4   5  -2 5.12903 0.62308   1
  -4   5  -2 5.95790 0.40349   2
  -4   5  -2 5.53596 0.30788   2
  -4   5  -2 5.77166 0.47896   2
  -4   5  -2 5.79187 0.57970   2
   4  -5   2 5.79044 0.52734   2
   4  -5   2 5.50556 0.41502   2
   4  -5   2 4.65004 0.50112   1
   4  -5   2 4.93417 0.42102   1
  -5   5  -2 1.41177 0.22078   1
  -5   5  -2 0.77080 0.13581   1
  -5   5  -2 0.63649 0.32159   2
  -5   5  -2 1.18358 0.23957   2
  -5   5  -2 0.84122 0.20297   2
  -5   5  -2 0.99080 0.11366   2
   5  -5   2 1.28976 0.26875   1
   5  -5   2 0.46879 0.26215   1
   5  -5   2 1.07267 0.20209   1
   5  -5   2 0.86246 0.18592   2
   5  -5   2 0.97691 0.20713   2
  -6   5  -2 34.0686 0.84760   1
  -6   5  -2 35.1723 1.03289   1
  -6   5  -2 39.8135 1.31706   2
  -6   5  -2 39.3620 1.27235   2
   6  -5   2 35.0119 1.24712   1
   6  -5   2 33.1912 1.01978   1
   6  -5   2 39.6406 1.16665   2
   6  -5   2 40.1736 1.10243   2
  -7   5  -2 16.6168 0.66201   2
  -7   5  -2 16.8430 0.64003   2
  -7   5  -2 14.3855 0.51483   1
   7  -5   2 17.0135 0.52564   2
   7  -5   2 16.9956 0.57622   2
   7  -5   2 15.0439 0.51973   1
   7   4  -2 2.49138 0.17047   2
   7   4  -2 2.02160 0.21680   1
  -7  -4   2 2.19128 0.14674   1
  -7  -4   2 2.36941 0.15522   1
  -7  -4   2 2.57901 0.17008   2
  -7  -4   2 2.58626 0.19401   2
  -6  -4   4 13.0197 0.64552  -2
   6   4  -2 13.0197 0.64552   1
   6   4  -4 15.5719 0.53395  -2
  -6  -4   2 15.5719 0.53395   1
   6   4  -4 14.1397 0.52582  -2
  -6  -4   2 14.1397 0.52582   1
   6   4  -4 14.4637 0.65877  -2
  -6  -4   2 14.4637 0.65877   1
   5   4  -2 3.44087 0.28110   2
   5   4  -2 3.31453 0.34597   2
   5   4  -2 3.36667 0.35064   2
   5   4  -2 4.60547 0.46546   1
  -5  -4   2 4.19517 0.36186   2
  -5  -4   2 3.30803 0.33165   2
  -5  -4   2 3.28265 0.31277   1
  -5  -4   2 2.93977 0.30322   1
  -5  -4   2 3.65852 0.29007   1
  -5  -4   2 4.56827 0.34871   1
  -5  -4   2 3.78298 0.44987   1
  -5  -4   2 3.39845 0.40107   1
  -5  -4   2 2.74840 0.26892   1
  -4  -4   3 95.4205 3.37130  -2
   4   4  -2 95.4205 3.37130   1
  -4  -4   3 90.1344 2.88664  -2
   4   4  -2 90.1344 2.88664   1
  -4  -4   3 101.580 2.71516  -2
   4   4  -2 101.580 2.71516   1
  -4  -4   3 100.785 2.91106  -2
   4   4  -2 100.785 2.91106   1
   4   4  -3 94.8172 2.28687  -2
  -4  -4   2 94.8172 2.28687   1
   4   4  -3 94.7376 2.23023  -2
  -4  -4   2 94.7376 2.23023   1
   4   4  -3 87.6388 2.20151  -2
  -4  -4   2 87.6388 2.20151   1
   4   4  -3 96.0705 2.52781  -2
  -4  -4   2 96.0705 2.52781   1
   4   4  -3 99.4016 2.75952  -2
  -4  -4   2 99.4016 2.75952   1
   4   4  -3 94.0563 2.63123  -2
  -4  -4   2 94.0563 2.63123   1
   4   4  -3 95.5879 2.20660  -2
  -4  -4   2 95.5879 2.20660   1
   3   4  -2 14.7074 0.67145   1
   3   4  -2 14.8643 0.87873   1
   3   4  -2 15.8166 0.73850   1
   3   4  -2 14.4351 0.83804   1
   3   4  -2 13.5657 1.01594   1
   3   4  -2 15.0238 0.94187   1
   3   4  -2 15.4983 0.78179   1
   3   4  -2 17.0595 0.60474   2
   3   4  -2 17.5939 0.69608   2
  -3  -4   2 16.0173 0.95850   2
  -3  -4   2 16.9853 0.86765   2
  -3  -4   2 17.1094 0.69655   2
  -3  -4   2 17.9762 1.01653   2
  -3  -4   2 17.2731 1.03924   2
  -3  -4   2 16.2155 0.73655   2
  -3  -4   2 18.3658 0.75887   2
  -3  -4   2 15.2393 0.70410   1
  -3  -4   2 14.8479 0.58099   1
   2   4  -2 58.3906 1.81795   1
   2   4  -2 57.3737 1.73347   1
   2   4  -2 57.8747 2.21049   1
   2   4  -2 57.5883 2.02235   1
   2   4  -2 56.1483 1.74114   1
  -2  -4   2 120.915 3.24921  -2
   2   4  -2 120.915 3.24921   1
  -2  -4   2 126.470 3.69830  -2
   2   4  -2 126.470 3.69830   1
  -2  -4   2 67.9150 2.31977   2
  -2  -4   2 65.8943 1.96065   2
  -2  -4   2 65.4425 1.87299   2
  -2  -4   2 67.4473 2.01286   2
  -2  -4   2 68.5060 2.34329   2
   1   4  -2 7.05943 0.40612   1
   1   4  -2 6.48263 0.35984   1
   1   4  -2 6.54720 0.58614   1
   1   4  -2 6.57809 0.43461   1
   1   4  -2 5.91453 0.42829   1
   1   4  -2 6.35897 0.49360   1
   1   4  -2 6.83811 0.39649   1
   1   4  -2 6.54393 0.39639   1
   1   4  -2 7.20412 0.36670   2
  -1  -4   2 7.45559 0.55429   2
  -1  -4   2 8.25397 0.49744   2
  -1  -4   2 7.27399 0.41014   2
  -1  -4   2 7.77977 0.47698   2
  -1  -4   2 7.81841 0.39745   2
  -1  -4   2 7.68936 0.53820   2
  -1  -4   2 6.43666 0.34487   1
   0   4  -2 15.7715 0.80665   1
   0   4  -2 14.1083 0.59350   1
   0   4  -2 14.5512 0.75405   1
   0   4  -2 14.5398 0.61718   1
   0   4  -2 13.9876 0.62630   1
   0   4  -2 13.1976 0.60852   1
   0   4  -2 14.2400 0.66445   1
   0   4  -2 13.7099 0.55777   1
   0   4  -2 15.4508 0.75943   2
   0  -4   2 15.2295 0.74618   2
   0  -4   2 15.2930 0.64170   2
   0  -4   2 15.5495 0.56875   2
   0  -4   2 15.2360 0.65531   2
   0  -4   2 15.0977 0.66768   2
  -1   4  -2 6.65673 0.52139   1
  -1   4  -2 6.62779 0.35565   1
  -1   4  -2 6.73860 0.46097   1
  -1   4  -2 6.83362 0.44119   1
  -1   4  -2 6.44050 0.43732   1
  -1   4  -2 6.68966 0.39299   1
  -1   4  -2 7.78888 0.53510   2
   1  -4   2 7.22223 0.48997   1
   1  -4   2 7.53850 0.28730   1
   1  -4   2 6.83996 0.50015   2
   1  -4   2 7.21500 0.44433   2
   1  -4   2 7.69159 0.47322   2
   1  -4   2 7.59883 0.45659   2
   1  -4   2 7.49507 0.38138   2
  -2   4  -2 40.9085 1.37738   1
  -2   4  -2 40.5774 1.25595   1
  -2   4  -2 41.4208 1.53780   1
  -2   4  -2 40.9768 1.24564   1
  -2   4  -2 41.5989 1.32470   1
  -2   4  -2 39.7318 1.37657   1
  -2   4  -2 44.7768 1.54216   2
  -2   4  -2 46.2981 1.64150   2
   2  -4   2 41.5159 1.40842   1
   2  -4   2 38.8916 1.17933   1
   2  -4   2 40.3701 1.49571   1
   2  -4   2 46.0981 1.34885   2
   2  -4   2 46.2881 1.37998   2
   2  -4   2 44.6572 1.44099   2
   2  -4   2 43.4196 1.37107   2
   2  -4   2 44.3027 1.50312   2
   2  -4   2 44.7057 1.53221   2
  -3   4  -2 0.69701 0.12952   1
  -3   4  -2 1.02683 0.30129   2
  -3   4  -2 0.67566 0.14197   2
   3  -4   2 0.85829 0.15829   1
   3  -4   2 1.10466 0.18848   2
   3  -4   2 0.86940 0.19691   2
  -4   4  -2 72.3144 2.53808   2
  -4   4  -2 71.8235 2.04051   2
  -4   4  -2 71.8153 2.59230   2
  -4   4  -2 60.0284 2.03902   1
  -4   4  -2 62.4518 2.33384   1
   4  -4   2 62.6201 2.21065   1
   4  -4   2 62.7632 1.88857   1
   4  -4   2 62.7743 1.85238   1
   4  -4   2 69.6183 2.12838   2
   4  -4   2 71.4671 2.29047   2
   4  -4   2 70.3058 2.19056   2
   4  -4   2 72.6201 2.15473   2
   5  -4  -2 234.271 5.27018  -2
  -5   4  -2 234.271 5.27018   1
   5  -4  -2 236.401 4.97112  -2
  -5   4  -2 236.401 4.97112   1
  -5   4   2 238.147 6.16160  -2
   5  -4   2 238.147 6.16160   1
  -5   4   2 221.647 6.97672  -2
   5  -4   2 221.647 6.97672   1
  -5   4   2 248.953 6.04302  -2
   5  -4   2 248.953 6.04302   1
  -6   4  -2 68.3607 1.99996   2
  -6   4  -2 69.0363 1.93482   2
  -6   4  -2 62.6427 2.53220   2
  -6   4  -2 69.0755 1.50550   2
  -6   4  -2 61.7822 1.59696   1
  -6   4  -2 60.4799 1.31997   1
   6  -4   2 68.4930 1.70098   2
   6  -4   2 68.3836 1.77333   2
   6  -4   2 59.5584 1.90605   1
   7  -4  -3 102.239 2.17889  -2
  -7   4  -2 102.239 2.17889   1
  -7   4   3 88.4018 2.12142  -2
   7  -4   2 88.4018 2.12142   1
  -7   4   3 84.4639 2.48347  -2
   7  -4   2 84.4639 2.48347   1
  -8   4  -2 63.0116 1.59889   2
   8  -4   2 59.6871 1.33614   1
  -7  -3   4 1.72104 0.31007  -2
   7   3  -2 1.72104 0.31007   1
  -7  -3   4 1.46696 0.28515  -2
   7   3  -2 1.46696 0.28515   1
   7   3  -4 1.76200 0.21548  -2
  -7  -3   2 1.76200 0.21548   1
   7   3  -4 2.16442 0.22615  -2
  -7  -3   2 2.16442 0.22615   1
   6   3  -2 1.13582 0.22953   2
   6   3  -2 1.13051 0.19449   2
   6   3  -2 1.08587 0.26393   1
   6   3  -2 1.24093 0.28914   1
  -6  -3   2 2.53545 0.30484   2
  -6  -3   2 1.41040 0.23838   2
  -6  -3   2 0.92159 0.17498   1
  -6  -3   2 0.56589 0.20957   1
  -6  -3   2 1.12862 0.19270   1
   5   3  -2 0.09879 0.12274   2
   5   3  -2 0.13760 0.14430   2
   5   3  -2 0.08916 0.14619   2
   5   3  -2 -0.0133 0.15511   1
   5   3  -2 0.57561 0.29552   1
  -5  -3   2 -0.0055 0.10355   2
  -5  -3   2 0.01968 0.13991   2
  -5  -3   2 0.16627 0.25648   2
  -5  -3   2 -0.0962 0.12776   1
  -5  -3   2 0.08416 0.17273   1
  -5  -3   2 0.15625 0.12141   1
  -5  -3   2 0.08507 0.17082   1
  -5  -3   2 0.01947 0.12206   1
  -5  -3   2 -0.0333 0.10666   1
   4   3  -2 1.98084 0.21988   2
   4   3  -2 1.52160 0.23170   2
   4   3  -2 1.72673 0.30387   1
   4   3  -2 0.97309 0.34804   1
   4   3  -2 1.56749 0.37643   1
   4   3  -2 1.56985 0.25279   1
   4   3  -2 1.70496 0.35414   1
   4   3  -2 1.69461 0.35120   1
   4   3  -2 1.55486 0.64567   1
  -4  -3   2 1.74667 0.41071   2
  -4  -3   2 1.40242 0.27464   2
  -4  -3   2 1.79021 0.38111   2
  -4  -3   2 1.60657 0.33706   2
  -4  -3   2 1.96882 0.56181   2
  -4  -3   2 1.57726 0.24198   2
  -4  -3   2 2.18333 0.29527   2
  -4  -3   2 1.32679 0.20416   1
  -4  -3   2 1.28457 0.24878   1
   3   3  -2 4.31426 0.43675   1
   3   3  -2 4.49727 0.41967   1
   3   3  -2 4.57493 0.39313   1
   3   3  -2 3.86975 0.39793   1
   3   3  -2 5.40893 0.68725   1
   3   3  -2 4.38915 0.31552   1
   3   3  -2 4.20441 0.33933   1
   3   3  -2 4.57945 0.48656   1
  -3  -3   2 4.85376 0.34211   2
  -3  -3   2 4.60732 0.30415   2
  -3  -3   2 5.23682 0.49383   2
  -3  -3   2 4.89883 0.50053   2
  -3  -3   2 5.17652 0.42454   2
  -3  -3   2 4.64217 0.46307   2
  -3  -3   2 5.88133 0.53851   2
  -3  -3   2 4.87593 0.34682   2
   2   3  -2 21.1285 0.80609   1
   2   3  -2 20.5470 0.76824   1
   2   3  -2 20.9747 0.95688   1
   2   3  -2 22.1168 0.86244   1
   2   3  -2 21.9343 1.09213   1
   2   3  -2 22.8144 0.95658   1
   2   3  -2 21.7499 0.84002   1
  -2  -3   2 24.8598 0.80919   2
  -2  -3   2 25.0426 1.08912   2
  -2  -3   2 24.6667 0.96107   2
  -2  -3   2 25.0531 1.07532   2
  -2  -3   2 25.1557 0.92842   2
  -2  -3   2 24.5286 1.02172   2
   1   3  -2 1.17304 0.15610   1
   1   3  -2 1.20426 0.17515   1
   1   3  -2 0.95115 0.23841   1
   1   3  -2 0.98463 0.18617   1
   1   3  -2 1.02739 0.16561   1
   1   3  -2 1.10908 0.21735   1
   1   3  -2 0.99408 0.18643   1
  -1  -3   2 1.08565 0.20827   2
  -1  -3   2 1.16482 0.23625   2
  -1  -3   2 1.15506 0.19574   2
  -1  -3   2 1.10876 0.13857   2
  -1  -3   2 1.26343 0.15793   2
  -1  -3   2 0.99914 0.18656   2
  -1  -3   2 1.43604 0.17828   2
   0  -3   0 335.969 8.63379  -2
   0   3  -2 335.969 8.63379   1
   0  -3   0 333.966 7.71619  -2
   0   3  -2 333.966 7.71619   1
   0  -3   0 340.833 7.38145  -2
   0   3  -2 340.833 7.38145   1
   0  -3   0 350.302 8.59616  -2
   0   3  -2 350.302 8.59616   1
   0  -3   0 335.457 8.68753  -2
   0   3  -2 335.457 8.68753   1
   0  -3   0 337.757 9.41751  -2
   0   3  -2 337.757 9.41751   1
   0   3  -2 62.2279 1.64759   1
   0  -3   2 70.7935 1.73252   2
   0   3   0 328.108 7.69891  -2
   0  -3   2 328.108 7.69891   1
  -1   3  -2 40.0584 1.34609   1
  -1   3  -2 39.5913 1.27242   1
  -1   3  -2 39.2083 1.20689   1
  -1   3  -2 39.3511 1.15740   1
  -1   3  -2 39.0900 1.14702   1
  -1   3  -2 39.3019 1.12894   1
  -1   3  -2 45.5309 1.48789   2
   1  -3   2 39.9752 1.16631   1
   1  -3   2 37.6737 1.12127   1
   1  -3   2 39.2722 1.24822   1
   1  -3   2 40.1823 1.06498   1
   1  -3   2 43.8915 1.24331   2
   1  -3   2 45.0623 1.18605   2
   1  -3   2 43.7877 1.27370   2
   1  -3   2 44.9466 1.39962   2
   2  -3  -1 55.5592 1.82230  -2
  -2   3  -2 55.5592 1.82230   1
   2  -3  -1 57.8815 1.55684  -2
  -2   3  -2 57.8815 1.55684   1
   2  -3  -1 58.0370 1.54083  -2
  -2   3  -2 58.0370 1.54083   1
   2  -3  -1 53.3248 1.77234  -2
  -2   3  -2 53.3248 1.77234   1
   2  -3  -1 56.1051 1.63909  -2
  -2   3  -2 56.1051 1.63909   1
   2  -3  -1 52.9676 1.64374  -2
  -2   3  -2 52.9676 1.64374   1
  -2   3   1 54.8208 1.49678  -2
   2  -3   2 54.8208 1.49678   1
  -2   3   1 53.5424 1.56379  -2
   2  -3   2 53.5424 1.56379   1
  -2   3   1 56.4850 1.65132  -2
   2  -3   2 56.4850 1.65132   1
  -2   3   1 53.5586 1.78731  -2
   2  -3   2 53.5586 1.78731   1
  -3   3  -2 78.3479 2.47029   2
  -3   3  -2 76.1439 2.45740   2
  -3   3  -2 71.9008 2.06728   2
  -3   3  -2 73.3842 2.20868   2
  -3   3  -2 67.3190 2.24567   1
  -3   3  -2 68.8839 1.90224   1
  -3   3  -2 67.6074 2.04271   1
  -3   3  -2 69.1810 2.29339   1
  -3   3  -2 69.8131 2.06103   1
   3  -3   2 69.7832 2.25931   1
   3  -3   2 70.7843 2.18604   1
   3  -3   2 71.8260 1.91687   1
   3  -3   2 68.3327 2.00958   1
   3  -3   2 75.7420 2.08703   2
   3  -3   2 75.2192 2.05789   2
   3  -3   2 75.4255 2.14715   2
   4  -3  -2 16.5955 0.90929  -2
  -4   3  -2 16.5955 0.90929   1
   4  -3  -2 16.4529 1.02201  -2
  -4   3  -2 16.4529 1.02201   1
  -4   3   2 16.7735 0.92342  -2
   4  -3   2 16.7735 0.92342   1
  -4   3   2 16.5537 0.77525  -2
   4  -3   2 16.5537 0.77525   1
  -4   3   2 12.7771 0.64151  -2
   4  -3   2 12.7771 0.64151   1
  -4   3   2 16.4103 0.72593  -2
   4  -3   2 16.4103 0.72593   1
  -4   3   2 16.3024 0.94784  -2
   4  -3   2 16.3024 0.94784   1
  -5   3  -2 15.0136 0.64755   2
  -5   3  -2 14.0478 0.58722   2
  -5   3  -2 13.5143 0.61787   2
  -5   3  -2 13.9093 0.47137   2
  -5   3  -2 13.8304 0.93779   2
  -5   3  -2 12.0674 0.85255   1
  -5   3  -2 12.6709 0.53292   1
  -5   3  -2 11.8955 0.56551   1
  -5   3  -2 12.4564 0.40151   1
   5  -3   2 14.7795 0.67303   2
   5  -3   2 13.1320 0.83734   1
   5  -3   2 12.6748 0.66806   1
   5  -3   2 12.9289 0.67338   1
   6  -3  -3 29.1958 0.93147  -2
  -6   3  -2 29.1958 0.93147   1
  -6   3  -2 26.0195 0.87017   1
  -6   3  -2 30.3317 0.78174   2
  -6   3  -2 30.7586 1.05411   2
  -6   3  -2 29.6431 1.06685   2
   6  -3   2 24.7603 1.27026   1
   6  -3   2 25.9794 1.03645   1
   6  -3   2 23.9132 0.99238   1
   6  -3   2 29.1992 0.91064   2
  -7   3  -2 5.51817 0.36912   2
  -7   3  -2 5.62292 0.36141   2
   7  -3   2 5.27510 0.41813   1
   7  -3   2 5.93534 0.30042   2
  -8   3  -2 0.08718 0.07833   2
   8  -3   2 0.25506 0.10561   1
   8   2  -2 7.83350 0.34403   2
   8   2  -2 8.67478 0.43519   1
  -8  -2   2 8.74230 0.34913   2
   7   2  -2 1.42127 0.19284   2
   7   2  -2 1.23251 0.24375   1
   7   2  -2 1.42958 0.25342   1
  -7  -2   2 1.37119 0.21180   2
  -7  -2   2 1.88012 0.23808   2
  -7  -2   2 1.95561 0.28030   2
   7   2  -3 1.46042 0.26201  -2
  -7  -2   2 1.46042 0.26201   1
   6   2  -2 2.20005 0.34363   1
   6   2  -2 2.49095 0.38551   1
   6   2  -2 2.44897 0.30475   2
   6   2  -2 2.28632 0.25598   2
  -6  -2   2 2.59500 0.32238   2
  -6  -2   2 3.04577 0.31545   2
  -6  -2   2 2.10723 0.24272   1
  -6  -2   2 1.82540 0.30683   1
   5   2  -2 0.71672 0.08694   2
   5   2  -2 0.50808 0.31764   1
  -5  -2   2 0.92779 0.44787  -2
   5   2  -2 0.92779 0.44787   1
  -5  -2   2 0.92889 0.31015  -2
   5   2  -2 0.92889 0.31015   1
  -5  -2   2 0.72790 0.08512   1
   5   2  -2 0.87078 0.25372  -2
  -5  -2   2 0.87078 0.25372   1
   4   2  -2 4.06012 0.46418   1
   4   2  -2 3.97228 0.46199   1
   4   2  -2 3.87882 0.32385   1
   4   2  -2 4.72595 0.70356   1
   4   2  -2 4.11022 0.40697   1
   4   2  -2 3.73397 0.43823   1
   4   2  -2 4.13919 0.53707   1
   4   2  -2 3.78463 0.36153   1
   4   2  -2 4.38601 0.32746   2
   4   2  -2 4.56085 0.27317   2
  -4  -2   2 4.72417 0.47748   2
  -4  -2   2 4.63413 0.52081   2
  -4  -2   2 4.73233 0.37784   2
  -4  -2   2 4.58856 0.60906   2
  -4  -2   2 4.89249 0.54772   2
  -4  -2   2 4.21568 0.29919   2
  -4  -2   2 4.27075 0.41778   2
  -4  -2   2 4.50385 0.34296   2
  -4  -2   2 4.32994 0.35859   1
  -4  -2   2 3.86291 0.30322   1
  -3  -2   1 53.9215 1.99344  -2
   3   2  -2 53.9215 1.99344   1
  -3  -2   1 59.3659 1.92456  -2
   3   2  -2 59.3659 1.92456   1
  -3  -2   1 52.5217 1.66400  -2
   3   2  -2 52.5217 1.66400   1
  -3  -2   1 60.7480 2.05349  -2
   3   2  -2 60.7480 2.05349   1
  -3  -2   1 53.0019 1.61548  -2
   3   2  -2 53.0019 1.61548   1
  -3  -2   1 59.8433 1.88501  -2
   3   2  -2 59.8433 1.88501   1
   2   2  -2 162.868 4.35893   1
   2   2  -2 161.808 3.94827   1
   2   2  -2 152.858 4.21294   1
   2   2  -2 164.974 3.90704   1
   2   2  -2 165.129 4.76309   1
   2   2  -2 161.216 3.54833   1
   2   2  -2 166.272 4.37404   1
   2   2  -2 185.836 4.38149   2
  -2  -2   2 181.084 5.35226   2
  -2  -2   2 179.488 4.91859   2
  -2  -2   2 184.304 4.99101   2
  -2  -2   2 184.117 4.28895   2
  -2  -2   2 182.980 4.87331   2
  -1  -2   0 289.605 6.70727  -2
   1   2  -2 289.605 6.70727   1
  -1  -2   0 291.123 7.48697  -2
   1   2  -2 291.123 7.48697   1
  -1  -2   0 286.979 8.16625  -2
   1   2  -2 286.979 8.16625   1
  -1  -2   0 294.837 6.29678  -2
   1   2  -2 294.837 6.29678   1
  -1  -2   0 289.762 6.60284  -2
   1   2  -2 289.762 6.60284   1
  -1  -2   0 295.281 7.52462  -2
   1   2  -2 295.281 7.52462   1
  -1  -2   0 289.819 7.38808  -2
   1   2  -2 289.819 7.38808   1
  -1  -2   2 35.1936 1.08914   2
  -1  -2   2 28.4441 0.75960   1
   0   2  -2 774.163 17.2063   1
   0   2  -2 802.385 19.2419   1
   0   2  -2 782.668 19.4483   1
   0   2  -2 780.298 19.4995   1
   0   2  -2 771.036 17.5550   1
   0   2  -2 780.281 21.2737   1
   0   2  -2 748.490 16.4396   1
   0   2  -2 879.222 22.0911   2
   0  -2   2 872.667 18.6018   2
   0  -2   2 898.763 21.7301   2
   0  -2   2 878.245 19.4334   2
   0  -2   2 783.070 17.5108   1
  -1   2  -2 13.8101 0.60675   2
  -1   2  -2 13.4667 0.49426   2
  -1   2  -2 11.7901 0.55266   1
  -1   2  -2 12.1301 0.48393   1
  -1   2  -2 11.5678 0.40736   1
  -1   2  -2 11.9271 0.49577   1
  -1   2  -2 12.1648 0.47487   1
  -1   2  -2 11.3886 0.49660   1
   1  -2   2 13.5520 0.39746   2
   1  -2   2 13.9597 0.50363   2
   1  -2   2 13.3292 0.51669   2
   1  -2   2 13.5756 0.44576   2
   1  -2   2 12.5128 0.42241   1
   1  -2   2 12.1370 0.41981   1
  -2   2  -2 12.4541 0.60982   2
  -2   2  -2 12.8566 0.58270   2
  -2   2  -2 13.4690 0.65754   2
  -2   2  -2 11.9465 0.62223   1
  -2   2  -2 11.0459 0.54530   1
  -2   2  -2 14.2838 0.52732   1
  -2   2  -2 11.9797 0.56366   1
   2  -2   2 13.3216 0.46396   2
   2  -2   2 12.7092 0.55386   2
   2  -2   2 12.9269 0.48971   2
   2  -2   2 11.6379 0.48373   1
   2  -2   2 11.9475 0.57137   1
   2  -2   2 11.5075 0.56761   1
  -3   2  -2 204.165 5.54772   2
  -3   2  -2 203.168 5.60382   2
  -3   2  -2 201.395 5.24927   2
  -3   2  -2 198.934 5.75616   2
  -3   2  -2 184.126 4.50109   1
  -3   2  -2 181.090 5.01716   1
  -3   2  -2 180.949 4.13681   1
  -3   2  -2 183.723 5.33641   1
   3  -2   2 196.987 5.24153   2
   3  -2   2 203.217 4.88521   2
   3  -2   2 206.897 4.69526   2
   3  -2   2 180.607 4.40848   1
   3  -2   2 180.769 4.99490   1
   3  -2   2 180.647 5.15716   1
   3  -2   2 173.879 4.77074   1
  -4   2  -2 13.6544 0.83599   2
  -4   2  -2 14.2826 0.89832   2
  -4   2  -2 14.1097 0.85240   2
  -4   2  -2 13.9850 0.58399   2
  -4   2  -2 14.2565 0.58669   2
  -4   2  -2 12.6222 0.74427   1
  -4   2  -2 11.5087 0.81284   1
   4  -2   2 11.8791 0.73733   1
   4  -2   2 11.9805 0.57952   1
   4  -2   2 11.1745 0.67480   1
   4  -2   2 13.0499 0.63577   1
   4  -2   2 11.1484 0.73678   1
   4  -2   2 12.5462 0.64059   1
   4  -2   2 14.6580 0.69386   2
   4  -2   2 14.8131 0.64437   2
  -5   2  -2 21.5535 0.82599   2
  -5   2  -2 22.7972 0.84605   2
  -5   2  -2 21.6480 0.65651   2
  -5   2  -2 22.9128 0.84943   2
  -5   2  -2 21.3699 1.19097   2
  -5   2  -2 19.2986 1.06336   1
   5  -2   2 19.4658 1.05884   1
   5  -2   2 18.0690 1.05137   1
   5  -2   2 19.2438 0.89383   1
   5  -2   2 19.9961 0.85176   1
   5  -2   2 17.7552 0.90107   1
   5  -2   2 22.2309 0.87084   2
  -6   2  -2 5.34527 0.37992   2
  -6   2  -2 5.05941 0.26118   2
   6  -2  -4 4.47115 0.35203  -2
  -6   2  -2 4.47115 0.35203   1
   6  -2  -4 4.76830 0.43384  -2
  -6   2  -2 4.76830 0.43384   1
  -6   2   4 5.41016 0.71233  -2
   6  -2   2 5.41016 0.71233   1
  -6   2   4 5.03705 0.50931  -2
   6  -2   2 5.03705 0.50931   1
   6  -2   2 4.44532 0.44381   1
  -7   2  -2 22.3664 0.79437   2
  -7   2  -2 21.8571 0.80321   2
  -7   2  -2 20.4173 0.62243   1
   7  -2   2 19.5938 0.82829   1
   7  -2   2 22.7112 0.66524   2
  -8  -1   3 1.34144 0.17043  -2
   8   1  -2 1.34144 0.17043   1
  -8  -1   3 1.12604 0.14840  -2
   8   1  -2 1.12604 0.14840   1
   8   1  -3 1.14928 0.14452  -2
  -8  -1   2 1.14928 0.14452   1
   7   1  -2 0.48847 0.20153   1
   7   1  -2 0.47128 0.19397   1
   7   1  -2 0.39080 0.13509   2
  -7  -1   2 0.47183 0.16067   2
  -7  -1   2 0.94532 0.20008   2
  -7  -1   2 0.47506 0.13822   1
  -6  -1   2 28.0000 1.10819  -2
   6   1  -2 28.0000 1.10819   1
  -6  -1   2 29.6002 1.11943  -2
   6   1  -2 29.6002 1.11943   1
   6   1  -2 27.2619 0.86476  -2
  -6  -1   2 27.2619 0.86476   1
   5   1  -2 9.35507 0.72715   1
   5   1  -2 9.61380 0.58540   1
   5   1  -2 8.98300 0.54912   1
   5   1  -2 11.4134 0.53886   2
  -5  -1   2 10.7820 0.83896   2
  -5  -1   2 11.4700 0.58773   2
  -5  -1   2 10.9377 0.64386   2
   4   1  -2 190.643 5.48567   1
   4   1  -2 199.333 5.75619   1
   4   1  -2 194.024 4.86777   1
   4   1  -2 199.649 5.21329   1
   4   1  -2 187.967 5.83603   1
   4   1  -2 218.393 5.46395   2
  -4  -1   1 225.611 6.16540  -2
   4   1  -2 225.611 6.16540   1
  -4  -1   1 211.936 5.47820  -2
   4   1  -2 211.936 5.47820   1
  -4  -1   2 216.438 6.16171   2
  -4  -1   2 214.073 5.23115   2
  -4  -1   2 211.230 5.62626   2
  -4  -1   2 217.702 6.05039   2
   3   1  -2 14.9034 0.61892   1
   3   1  -2 16.9510 0.67522   1
   3   1  -2 14.8155 0.73399   1
   3   1  -2 15.1146 0.85699   1
   3   1  -2 14.9891 0.74129   1
   3   1  -2 15.0832 0.63867   1
   3   1  -2 17.0688 0.71643   2
   3   1  -2 17.6876 0.79699   2
  -3  -1   2 15.0978 0.80549   2
  -3  -1   2 16.5971 0.82282   2
  -3  -1   2 16.9569 0.76520   2
  -3  -1   2 16.8838 0.82107   2
  -3  -1   2 16.9147 0.60589   2
  -3  -1   2 16.2048 0.61180   2
  -3  -1   2 14.8991 0.47318   1
  -3  -1   2 13.8855 0.63559   1
   2   1  -2 219.040 4.96817   1
   2   1  -2 215.878 5.99743   1
   2   1  -2 216.777 4.53181   1
   2   1  -2 218.867 5.55170   1
   2   1  -2 183.360 4.80203   1
   2   1  -2 229.089 5.86905   1
   2   1  -2 211.235 5.65679   1
   2   1  -2 177.265 5.35563   1
   2   1  -2 246.097 6.57598   2
   2   1  -2 257.428 5.89960   2
  -2  -1   2 253.194 6.66324   2
  -2  -1   2 254.085 5.83675   2
  -2  -1   2 263.669 6.75887   2
  -2  -1   2 216.729 4.85708   1
   1   1  -2 193.667 4.18545   1
   1   1  -2 195.047 5.42179   1
   1   1  -2 183.697 4.33955   1
   1   1  -2 193.465 5.03367   1
   1   1  -2 197.850 4.47216   1
   1   1  -2 198.797 5.00272   1
   1   1  -2 183.633 4.85296   1
   1   1  -2 226.455 6.33455   2
   1   1  -2 229.160 5.74316   2
   1   1  -2 225.960 5.13799   2
  -1  -1   2 217.720 5.79624   2
  -1  -1   2 225.739 5.82657   2
  -1  -1   2 193.341 4.42745   1
   0   1  -2 236.154 6.10566   2
   0   1  -2 240.216 6.11516   2
   0   1  -2 240.998 5.15653   2
   0   1  -2 207.868 4.56696   1
   0   1  -2 209.376 5.28705   1
   0   1  -2 212.841 5.86038   1
   0   1  -2 210.406 4.74749   1
   0   1  -2 214.493 5.39595   1
   0   1  -2 203.817 5.29318   1
   0  -1   2 210.832 4.78808   1
  -1   1  -2 1061.52 28.8700   1
  -1   1  -2 1044.93 22.2302   1
  -1   1  -2 1084.25 26.5289   1
  -1   1  -2 1034.25 23.2986   1
  -1   1  -2 1079.62 26.0521   1
  -1   1  -2 1225.53 31.0395   2
  -1   1  -2 1241.81 26.1805   2
  -1   1  -2 1265.62 31.2008   2
   1  -1   2 1233.85 27.8979   2
   1  -1   2 1265.04 30.3870   2
   1  -1   2 1240.02 30.3969   2
   1  -1   2 1037.28 23.7812   1
  -2   1  -2 364.710 9.41133   1
  -2   1  -2 370.011 8.42499   1
  -2   1  -2 372.192 7.92143   1
  -2   1  -2 371.953 10.3103   1
  -2   1  -2 411.514 10.6383   2
  -2   1  -2 418.966 11.4826   2
  -2   1  -2 411.371 8.96122   2
  -2   1  -2 412.960 11.1319   2
  -2   1  -2 409.401 10.6828   2
   2  -1   2 365.921 8.44558   1
   2  -1   2 373.430 9.54159   1
   2  -1   2 367.491 9.90428   1
   2  -1   2 359.107 9.32632   1
   2  -1   2 421.712 9.48850   2
   3  -1  -3 266.938 7.16634  -2
  -3   1  -2 266.938 7.16634   1
   3  -1  -3 276.725 6.42635  -2
  -3   1  -2 276.725 6.42635   1
   3  -1  -3 270.093 7.82835  -2
  -3   1  -2 270.093 7.82835   1
  -3   1   3 260.025 7.29105  -2
   3  -1   2 260.025 7.29105   1
  -3   1   3 260.814 7.49734  -2
   3  -1   2 260.814 7.49734   1
  -3   1   3 275.277 6.32234  -2
   3  -1   2 275.277 6.32234   1
  -4   1  -2 4.96224 0.31912   2
  -4   1  -2 4.98871 0.52153   2
  -4   1  -2 4.36943 0.47548   2
  -4   1  -2 4.59891 0.31439   2
  -4   1  -2 4.71975 0.51687   2
  -4   1  -2 5.33787 0.57029   1
  -4   1  -2 3.93706 0.26757   1
  -4   1  -2 4.65006 0.47912   1
   4  -1   2 4.51125 0.47727   1
   4  -1   2 3.46357 0.39474   1
   4  -1   2 3.89805 0.34302   1
   4  -1   2 4.90307 0.46217   1
   4  -1   2 4.52713 0.39768   2
   4  -1   2 4.86857 0.34116   2
   5  -1  -4 101.574 2.60883  -2
  -5   1  -2 101.574 2.60883   1
   5  -1  -4 92.1231 2.96789  -2
  -5   1  -2 92.1231 2.96789   1
   5  -1  -4 91.1389 2.34079  -2
  -5   1  -2 91.1389 2.34079   1
   5  -1  -4 98.8698 2.29719  -2
  -5   1  -2 98.8698 2.29719   1
  -5   1   4 106.647 2.99357  -2
   5  -1   2 106.647 2.99357   1
  -5   1   4 110.537 3.44925  -2
   5  -1   2 110.537 3.44925   1
  -5   1   4 97.2128 3.43176  -2
   5  -1   2 97.2128 3.43176   1
  -5   1   4 100.627 2.79255  -2
   5  -1   2 100.627 2.79255   1
  -5   1   4 96.0480 2.79858  -2
   5  -1   2 96.0480 2.79858   1
  -6   1  -2 33.3001 0.96473   1
  -6   1  -2 34.0880 1.05367   1
  -6   1  -2 34.5837 0.90500   1
  -6   1  -2 34.4220 0.97434   1
  -6   1  -2 41.1563 1.04214   2
  -6   1  -2 40.4037 1.28787   2
  -6   1  -2 39.4975 1.80806   2
  -6   1  -2 41.0165 1.31925   2
   6  -1   2 40.7992 1.12378   2
   6  -1   2 34.2171 1.53445   1
   6  -1   2 33.4922 1.25747   1
   6  -1   2 33.8461 1.34406   1
  -7   1  -2 8.00059 0.23413   2
   7  -1  -5 11.7320 0.47262  -2
  -7   1  -2 11.7320 0.47262   1
   7  -1  -5 11.8845 0.50705  -2
  -7   1  -2 11.8845 0.50705   1
   7  -1  -5 10.9764 0.45308  -2
  -7   1  -2 10.9764 0.45308   1
  -7   1   5 11.8389 0.61092  -2
   7  -1   2 11.8389 0.61092   1
   8   0  -2 0.27386 0.15426   1
   8   0  -2 0.27105 0.12095   1
   8   0  -2 0.55504 0.11097   2
  -8   0   2 0.54760 0.11507   2
  -8   0   2 0.44442 0.12571   2
  -8   0   2 0.46203 0.10398   1
   7   0  -2 5.87712 0.46841   1
   7   0  -2 6.19972 0.46295   1
   7   0  -2 14.3970 0.57823  -2
  -7   0   2 14.3970 0.57823   1
  -7   0   2 7.21905 0.45802   2
  -7   0   2 7.34908 0.44160   2
   6   0  -2 29.4550 0.89980   2
   6   0  -2 29.6658 0.68408   2
   6   0  -2 24.5579 1.29844   1
   6   0  -2 24.2466 1.36934   1
   6   0  -2 24.3317 1.00738   1
   6   0  -2 25.4249 1.04157   1
   6   0  -2 26.1141 1.01202   1
  -6   0   2 29.3379 1.04571   2
  -6   0   2 29.3468 1.08463   2
  -6   0   2 28.0917 1.51605   2
  -6   0   2 29.6209 1.08824   2
  -6   0   2 25.4501 0.67891   1
  -6   0   2 25.4902 0.79371   1
   5   0  -2 36.2658 1.28142   1
   5   0  -2 34.6892 1.53866   1
   5   0  -2 35.3831 1.44725   1
   5   0  -2 35.8889 1.88922   1
   5   0  -2 35.2033 1.24882   1
  -5   0   2 38.8033 1.76506   2
  -5   0   2 42.0952 1.72188   2
  -5   0   2 39.8857 1.29727   2
  -5   0   2 39.0385 1.75330   2
  -5   0   2 40.3819 1.35493   2
  -5   0   2 40.1201 1.39704   2
   4   0  -2 142.607 4.35566   1
   4   0  -2 146.980 4.40476   1
   4   0  -2 139.409 4.14256   1
   4   0  -2 135.055 3.82487   1
   4   0  -2 143.137 4.15963   1
   4   0  -2 142.160 3.62726   1
   4   0  -2 160.859 4.02130   2
   4   0  -2 156.666 4.47608   2
  -4   0   0 135.976 3.50282  -2
   4   0  -2 135.976 3.50282   1
  -4   0   2 151.608 4.68654   2
  -4   0   2 157.809 4.21900   2
  -4   0   2 162.580 4.57673   2
  -4   0   2 159.230 3.95892   2
  -4   0   2 156.549 4.90653   2
  -4   0   2 162.700 4.72914   2
   3   0  -2 210.805 5.68271   1
   3   0  -2 221.110 5.95501   1
   3   0  -2 223.223 6.35834   1
   3   0  -2 222.800 6.09592   1
   3   0  -2 225.724 6.11811   1
   3   0  -2 224.391 5.25836   1
   3   0  -2 250.038 6.57762   2
   3   0  -2 253.287 5.91149   2
  -3   0   2 246.940 5.85618   2
  -3   0   2 247.941 7.24491   2
  -3   0   2 248.308 6.62838   2
  -3   0   2 254.218 6.81810   2
  -3   0   2 252.220 6.95952   2
  -3   0   2 219.519 5.11020   1
  -3   0   2 218.242 5.59990   1
  -3   0   2 220.356 5.16766   1
   2   0  -2 213.041 5.18021   1
   2   0  -2 203.507 5.83440   1
   2   0  -2 205.636 5.43484   1
   2   0  -2 202.727 5.60084   1
  -2   0  -1 645.269 14.7884  -2
   2   0  -2 645.269 14.7884   1
  -2   0  -1 669.319 16.5781  -2
   2   0  -2 669.319 16.5781   1
  -2   0  -1 647.306 13.8553  -2
   2   0  -2 647.306 13.8553   1
   2   0  -2 237.118 6.76248   2
  -2   0   2 206.495 4.78241   1
  -2   0   2 205.290 4.63964   1
  -2   0   2 236.654 6.46349   2
   1   0  -2 303.658 7.73883   1
   1   0  -2 310.996 6.76816   1
   1   0  -2 320.248 8.73804   1
   1   0  -2 321.759 8.08496   1
   1   0  -2 318.253 7.73888   1
   1   0  -2 314.630 8.07201   1
   1   0  -2 365.659 10.1716   2
   1   0  -2 366.878 7.77653   2
   1   0  -2 369.845 9.36666   2
   1   0  -2 369.089 8.21214   2
  -1   0   2 361.130 9.19280   2
  -1   0   2 324.107 7.16595   1
   0   0  -2 836.745 22.8142  -2
   0   0  -2 836.745 22.8142   1
   0   0  -2 863.037 21.0028  -2
   0   0  -2 863.037 21.0028   1
   0   0  -2 801.618 18.3542  -2
   0   0  -2 801.618 18.3542   1
   0   0  -2 835.915 17.5982  -2
   0   0  -2 835.915 17.5982   1
   0   0  -2 832.298 20.5600  -2
   0   0  -2 832.298 20.5600   1
   0   0  -2 834.546 20.8545  -2
   0   0  -2 834.546 20.8545   1
  -1   0  -2 356.812 9.84938   2
  -1   0  -2 362.096 9.43991   2
  -1   0  -2 381.551 9.01254   2
  -1   0  -2 365.239 7.91972   2
  -1   0  -2 376.093 9.34558   2
  -1   0  -2 365.440 10.2048   2
  -1   0  -2 324.212 7.40457   1
  -1   0  -2 335.837 8.28913   1
  -1   0  -2 329.347 9.11454   1
  -1   0  -2 327.328 8.40802   1
  -1   0  -2 324.418 6.99715   1
   1   0   2 366.049 9.00451   2
   1   0   2 369.589 8.33617   2
   1   0   2 322.671 8.27390   1
   2   0  -3 310.791 7.12608  -2
  -2   0  -2 310.791 7.12608   1
   2   0  -3 315.680 8.72314  -2
  -2   0  -2 315.680 8.72314   1
   2   0  -3 304.222 6.58801  -2
  -2   0  -2 304.222 6.58801   1
   2   0  -3 310.001 7.96091  -2
  -2   0  -2 310.001 7.96091   1
  -2   0   3 289.584 7.88277  -2
   2   0   2 289.584 7.88277   1
  -2   0   3 310.545 8.06833  -2
   2   0   2 310.545 8.06833   1
  -3   0  -2 47.4332 1.36190   2
  -3   0  -2 48.2691 1.72164   2
  -3   0  -2 47.0332 1.68591   2
  -3   0  -2 45.8607 1.35604   2
  -3   0  -2 48.9920 1.72478   2
  -3   0  -2 47.2216 1.47534   2
  -3   0  -2 46.5318 1.70406   2
  -3   0  -2 43.9748 1.65233   1
  -3   0  -2 45.3711 1.48923   1
  -3   0  -2 44.1450 1.64883   1
   3   0   2 46.1541 1.40886   2
   3   0   2 46.8056 1.41687   2
   3   0   2 42.4235 1.57530   1
   3   0   2 42.6398 1.27574   1
   3   0   2 44.7159 1.55141   1
   3   0   2 41.4276 1.54620   1
  -4   0  -2 27.8500 1.36397   2
  -4   0  -2 27.5153 1.31652   2
  -4   0  -2 33.1877 1.43213   2
  -4   0  -2 30.2252 1.34196   2
  -4   0  -2 23.3462 1.24611   1
  -4   0  -2 23.9799 1.11968   1
  -4   0  -2 24.3700 0.78449   1
  -4   0  -2 24.2041 0.91821   1
   4   0   2 24.0071 1.16490   1
   4   0   2 23.1389 1.15813   1
   4   0   2 24.3056 0.96430   1
   4   0   2 30.8648 1.04569   2
  -5   0  -2 4.20621 0.30944   1
  -5   0  -2 4.92000 0.68929   1
  -5   0  -2 5.19723 0.37502   1
  -5   0  -2 4.78084 0.29533   1
  -5   0  -2 4.83525 0.27563   1
  -5   0  -2 4.80752 0.31289   1
  -5   0  -2 4.74159 0.29200   1
  -5   0  -2 5.38881 0.60699   2
  -5   0  -2 5.60286 0.40329   2
  -5   0  -2 5.48991 0.29625   2
  -5   0  -2 4.91640 0.37760   2
   5   0   2 4.61512 0.55522   1
   5   0   2 4.18389 0.51403   1
   5   0   2 5.17661 0.45323   1
   5   0   2 4.92324 0.48905   1
   5   0   2 5.49847 0.34898   2
   5   0   2 5.59981 0.36913   2
  -6   0  -2 1.05134 0.19871   1
  -6   0  -2 1.14312 0.16598   1
  -6   0  -2 1.13714 0.20619   1
  -6   0  -2 1.04909 0.17977   1
  -6   0  -2 0.76692 0.14488   1
  -6   0  -2 1.56073 0.24446   2
  -6   0  -2 1.49162 0.25862   2
  -6   0  -2 0.98149 0.14752   2
   6   0   2 1.51242 0.20175   2
   6   0   2 1.46949 0.21445   2
   6   0   2 1.34159 0.32982   1
   6   0   2 1.11392 0.27978   1
  -7   0  -2 18.5454 0.43245   2
  -7   0  -2 19.5970 0.68978   2
  -7   0  -2 17.0774 0.55227   1
  -7   0  -2 16.4041 0.50034   1
  -7   0  -2 17.3608 0.60111   1
  -7   0  -2 16.6571 0.52329   1
   7   0   2 20.2097 0.56058   2
   7   0   2 20.0458 0.61148   2
   7   0   2 16.8344 0.73022   1
   8  -1  -2 370.160 8.54332   1
   8  -1  -2 363.635 7.45768   1
   8  -1  -2 348.511 9.01722   1
   8  -1  -2 440.564 8.78511   2
  -8   1   2 441.367 10.0856   2
  -8   1   2 399.846 10.5293   2
  -8   1   2 440.631 8.83733   2
  -7   1   1 18.5604 0.69551  -2
   7  -1  -2 18.5604 0.69551   1
  -7   1   1 22.0510 0.89515  -2
   7  -1  -2 22.0510 0.89515   1
  -7   1   1 21.2322 0.91852  -2
   7  -1  -2 21.2322 0.91852   1
   7  -1  -1 20.8962 0.69117  -2
  -7   1   2 20.8962 0.69117   1
  -7   1   2 17.8880 0.41225   1
   6  -1  -2 333.831 6.73458   2
   6  -1  -2 323.408 6.87967   2
   6  -1  -2 278.895 8.26058   1
   6  -1  -2 298.185 7.44061   1
   6  -1  -2 288.979 7.14542   1
  -6   1   2 295.238 6.05756   1
  -6   1   2 286.765 6.08758   1
  -6   1   2 322.754 7.90986   2
  -6   1   2 329.428 8.47704   2
  -6   1   2 336.258 8.25599   2
  -6   1   2 324.989 9.47599   2
  -5   1   0 36.6859 1.25365  -2
   5  -1  -2 36.6859 1.25365   1
  -5   1   0 38.5834 1.22329  -2
   5  -1  -2 38.5834 1.22329   1
  -5   1   0 39.6128 1.61480  -2
   5  -1  -2 39.6128 1.61480   1
  -5   1   0 36.4152 1.74455  -2
   5  -1  -2 36.4152 1.74455   1
   4  -1  -2 38.3877 1.50957   1
   4  -1  -2 38.5170 1.47658   1
   4  -1  -2 40.4837 1.49476   1
   4  -1  -2 40.4069 1.71363   1
   4  -1  -2 38.1898 1.17314   1
   4  -1  -2 38.5140 1.22621   1
   4  -1  -2 41.8951 1.62974   2
   4  -1  -2 45.2936 1.49410   2
  -4   1   2 39.8131 1.18181   1
  -4   1   2 48.1086 1.72733   2
  -4   1   2 43.4934 1.74658   2
  -4   1   2 41.3147 1.73529   2
  -4   1   2 45.5951 1.40835   2
  -4   1   2 47.2890 1.70837   2
  -4   1   2 45.6803 1.39038   2
  -3   1  -1 75.4158 2.39845  -2
   3  -1  -2 75.4158 2.39845   1
  -3   1  -1 74.6625 2.43396  -2
   3  -1  -2 74.6625 2.43396   1
  -3   1  -1 77.0891 2.06345  -2
   3  -1  -2 77.0891 2.06345   1
  -3   1  -1 78.0680 2.44107  -2
   3  -1  -2 78.0680 2.44107   1
  -3   1  -1 82.3634 2.46890  -2
   3  -1  -2 82.3634 2.46890   1
   3  -1   1 78.6052 1.94415  -2
  -3   1   2 78.6052 1.94415   1
   3  -1   1 75.5804 2.12762  -2
  -3   1   2 75.5804 2.12762   1
   3  -1   1 79.1598 2.05149  -2
  -3   1   2 79.1598 2.05149   1
   2  -1  -2 6.13839 0.44949   1
   2  -1  -2 5.95393 0.35961   1
   2  -1  -2 6.13859 0.35697   1
   2  -1  -2 6.15137 0.32177   1
   2  -1  -2 7.23528 0.31256   2
   2  -1  -2 6.86214 0.43463   2
   2  -1  -2 7.25110 0.39759   2
   2  -1  -2 6.98597 0.44429   2
  -2   1   2 6.92949 0.33630   2
  -2   1   2 7.02737 0.29889   2
  -2   1   2 6.41067 0.41191   2
  -2   1   2 6.81380 0.44465   2
  -2   1   2 6.04408 0.27428   1
   1  -1  -2 17.5501 0.61613   2
   1  -1  -2 17.7310 0.56555   2
   1  -1  -2 18.5421 0.75596   2
   1  -1  -2 18.2040 0.69343   2
   1  -1  -2 17.4050 0.71228   2
   1  -1  -2 15.0673 0.50183   1
   1  -1  -2 14.5015 0.53433   1
   1  -1  -2 15.7393 0.65238   1
   1  -1  -2 14.6646 0.55867   1
  -1   1   2 14.5156 0.40426   1
  -1   1   2 15.9674 0.41253   1
  -1   1   2 15.1154 0.39520   1
  -1   1   2 17.5976 0.50452   2
   0  -1  -2 196.753 5.43028   1
   0  -1  -2 192.991 5.06077   1
   0  -1  -2 192.578 4.23911   1
   0  -1  -2 191.844 4.92614   1
   0  -1  -2 196.448 5.02190   1
   0  -1  -2 190.609 4.41167   1
   0  -1  -2 220.516 4.94157   2
   0  -1  -2 219.200 6.16113   2
   0  -1  -2 221.202 5.52532   2
   0  -1  -2 213.675 5.45953   2
   0  -1  -2 214.582 4.78415   2
   0  -1  -2 213.484 5.69349   2
   0   1   2 217.956 4.97475   2
  -1  -1  -2 0.16544 0.07883   2
  -1  -1  -2 0.02334 0.08417   2
  -1  -1  -2 0.05395 0.08526   2
  -1  -1  -2 0.07380 0.09841   2
  -1  -1  -2 0.12010 0.10482   2
  -1  -1  -2 0.11651 0.09756   2
  -1  -1  -2 0.16897 0.07108   2
  -1  -1  -2 0.03344 0.06387   1
  -1  -1  -2 0.06328 0.10690   1
  -1  -1  -2 0.14363 0.09084   1
  -1  -1  -2 0.07197 0.07407   1
  -1  -1  -2 -0.0291 0.07422   1
   1   1   2 0.11825 0.06980   2
   1   1   2 0.02007 0.11262   1
  -2  -1  -2 4.31412 0.32412   1
  -2  -1  -2 4.32087 0.40209   1
  -2  -1  -2 4.71763 0.37974   1
  -2  -1  -2 4.01136 0.35663   1
  -2  -1  -2 5.18213 0.38427   2
  -2  -1  -2 6.03392 0.35937   2
  -2  -1  -2 5.12814 0.42587   2
  -2  -1  -2 5.32974 0.41124   2
  -2  -1  -2 5.28792 0.42033   2
   2   1   2 5.16115 0.39744   1
   2   1   2 4.73143 0.42222   1
   2   1   2 5.09544 0.31615   2
   2   1   2 5.44248 0.29992   2
  -3  -1  -2 3.32814 0.37300   2
  -3  -1  -2 2.99755 0.44017   2
  -3  -1  -2 3.55615 0.40330   2
  -3  -1  -2 3.43873 0.46541   2
  -3  -1  -2 3.09651 0.25622   2
  -3  -1  -2 3.50837 0.48652   1
  -3  -1  -2 3.43303 0.44468   1
  -3  -1  -2 3.23834 0.38534   1
   3   1   2 3.27396 0.26780   2
   3   1   2 3.50250 0.31754   2
   3   1   2 3.59436 0.39261   1
   3   1   2 3.77044 0.50299   1
   3   1   2 3.20503 0.26677   1
   3   1   2 2.89516 0.33241   1
   4   1  -5 31.7516 1.39860  -2
  -4  -1  -2 31.7516 1.39860   1
  -4  -1  -2 2.45688 0.47972   2
  -4  -1  -2 2.67381 0.21396   1
  -4  -1  -2 2.85315 0.31186   1
   4   1   2 2.85144 0.27316   2
   4   1   2 2.11840 0.39283   1
   4   1   2 2.34104 0.34656   1
   4   1   2 2.47729 0.42046   1
  -5  -1  -2 3.26787 0.36436   1
  -5  -1  -2 3.07177 0.27495   1
  -5  -1  -2 3.46384 0.24713   1
  -5  -1  -2 3.29255 0.27263   1
  -5  -1  -2 2.72546 0.35561   1
  -5  -1  -2 3.35131 0.31210   1
  -5  -1  -2 3.19991 0.24867   1
  -5  -1  -2 3.72533 0.25656   2
  -5  -1  -2 3.97935 0.36841   2
  -5  -1  -2 3.98658 0.61898   2
   5   1   2 4.10245 0.31404   2
   5   1   2 3.95441 0.30785   2
   5   1   2 3.97371 0.60211   1
   6   1  -6 5.62108 0.29263  -2
  -6  -1  -2 5.62108 0.29263   1
   6   1  -6 5.38419 0.34040  -2
  -6  -1  -2 5.38419 0.34040   1
   6   1  -6 5.56427 0.37827  -2
  -6  -1  -2 5.56427 0.37827   1
   6   1  -6 5.75097 0.31323  -2
  -6  -1  -2 5.75097 0.31323   1
  -6  -1   6 6.25046 0.46821  -2
   6   1   2 6.25046 0.46821   1
  -6  -1   6 5.12033 0.51494  -2
   6   1   2 5.12033 0.51494   1
  -7  -1  -2 0.24375 0.07978   1
  -7  -1  -2 0.22528 0.07257   1
  -7  -1  -2 0.25930 0.09879   1
  -7  -1  -2 0.16186 0.10883   1
   7   1   2 0.07512 0.09583   2
   7   1   2 0.27141 0.07052   2
   7   1   2 0.16064 0.18043   1
  -8   2   1 1206.83 23.4081  -2
   8  -2  -2 1206.83 23.4081   1
  -8   2   1 1107.56 26.6717  -2
   8  -2  -2 1107.56 26.6717   1
   7  -2  -2 0.69402 0.22276   1
   7  -2  -2 0.53190 0.20576   1
   7  -2  -2 0.65195 0.16543   1
  -7   2   2 0.68788 0.19812   2
  -7   2   2 0.56461 0.17947   2
  -7   2   2 0.65698 0.15147   2
  -7   2   2 0.46616 0.09861   1
   6  -2  -2 12.1732 0.54233   1
  -6   2   0 519.959 14.8716  -2
   6  -2  -2 519.959 14.8716   1
  -6   2   0 548.406 12.7082  -2
   6  -2  -2 548.406 12.7082   1
  -6   2   2 9.79651 0.55331   2
  -6   2   2 9.66767 0.52124   2
  -6   2   2 8.60225 0.50310   2
   6  -2   0 541.469 11.0703  -2
  -6   2   2 541.469 11.0703   1
   5  -2  -2 4.01923 0.46330   1
   5  -2  -2 3.66150 0.36762   1
  -5   2   2 4.14849 0.33726   2
  -5   2   2 4.50524 0.34751   2
  -5   2   2 4.91606 0.67212   2
  -5   2   2 3.72731 0.27096   1
   4  -2  -2 0.48786 0.30003   1
   4  -2  -2 0.56419 0.21089   1
   4  -2  -2 0.39206 0.13937   1
   4  -2  -2 0.40787 0.19334   1
   4  -2  -2 0.41471 0.15657   1
   4  -2  -2 0.46267 0.19442   2
   4  -2  -2 0.77048 0.26981   2
  -4   2   2 0.51804 0.14946   2
  -4   2   2 0.67571 0.19154   2
  -4   2   2 0.60436 0.18919   2
  -4   2   2 0.32594 0.21710   2
  -4   2   2 0.54145 0.25837   2
  -4   2   2 0.49495 0.22924   2
  -4   2   2 0.42344 0.11976   1
   3  -2  -2 88.3484 2.83833   2
   3  -2  -2 88.9549 2.41713   2
   3  -2  -2 89.7642 2.72556   2
   3  -2  -2 87.8701 2.17295   2
   3  -2  -2 78.5459 2.53994   1
   3  -2  -2 75.8972 2.38729   1
   3  -2  -2 72.5007 2.11779   1
   3  -2  -2 77.9066 2.32674   1
  -3   2   2 85.5478 2.79487   2
  -3   2   2 85.4080 2.40782   2
  -3   2   2 90.2478 2.76660   2
  -3   2   2 86.5912 2.28917   2
  -3   2   2 75.3834 2.00008   1
  -3   2   2 75.5638 2.09828   1
  -3   2   2 78.7685 1.98257   1
   2  -2  -2 0.08342 0.10081   2
   2  -2  -2 0.10293 0.09563   2
   2  -2  -2 0.12634 0.10737   2
   2  -2  -2 -0.0075 0.11682   2
   2  -2  -2 0.22209 0.10643   1
   2  -2  -2 0.01456 0.13302   1
   2  -2  -2 0.08391 0.08320   1
   2  -2  -2 0.16672 0.10809   1
  -2   2   2 0.00218 0.09737   1
  -2   2   2 0.04375 0.10626   2
  -2   2   2 0.04822 0.12026   2
   1  -2  -2 0.48981 0.14355   2
   1  -2  -2 0.62753 0.15711   2
   1  -2  -2 0.48574 0.14572   2
   1  -2  -2 0.96153 0.18417   2
   1  -2  -2 0.54886 0.15149   2
   1  -2  -2 0.54468 0.13134   2
   1  -2  -2 0.47845 0.10952   1
   1  -2  -2 0.43715 0.11888   1
   1  -2  -2 0.52429 0.18199   1
  -1   2   2 0.45759 0.04518   1
  -1   2   2 0.58889 0.13888   1
  -1   2   2 0.46456 0.10177   1
  -1   2   2 0.69046 0.10385   1
  -1   2   2 0.43643 0.09524   2
   0  -2  -2 27.5910 0.99217   2
   0  -2  -2 28.0865 0.87809   2
   0  -2  -2 27.9948 0.97643   2
   0  -2  -2 27.3151 1.00491   2
   0  -2  -2 27.8637 1.06992   2
   0  -2  -2 28.0178 0.87656   2
   0  -2  -2 26.9015 0.81072   2
   0  -2  -2 24.4144 0.84634   1
   0  -2  -2 22.7885 0.94431   1
   0  -2  -2 23.3071 0.81603   1
   0  -2  -2 25.0591 0.81638   1
   0   2   2 27.7031 0.82240   2
   0   2   2 25.3071 0.75521   1
   0   2   2 24.1296 0.87012   1
   1   2  -4 83.9249 2.44802  -2
  -1  -2  -2 83.9249 2.44802   1
   1   2  -4 83.8973 2.62136  -2
  -1  -2  -2 83.8973 2.62136   1
   1   2  -4 84.3819 2.46628  -2
  -1  -2  -2 84.3819 2.46628   1
   1   2  -4 80.0014 2.18088  -2
  -1  -2  -2 80.0014 2.18088   1
  -1  -2   4 82.7182 2.02423  -2
   1   2   2 82.7182 2.02423   1
  -1  -2   4 81.2115 2.49434  -2
   1   2   2 81.2115 2.49434   1
  -2  -2  -2 0.34609 0.16976   2
  -2  -2  -2 0.54496 0.16549   2
  -2  -2  -2 0.73461 0.21227   2
  -2  -2  -2 0.47646 0.16337   2
  -2  -2  -2 0.91156 0.24265   2
  -2  -2  -2 0.47675 0.19614   2
  -2  -2  -2 0.43175 0.12000   2
  -2  -2  -2 0.34630 0.20595   1
  -2  -2  -2 0.46832 0.17853   1
  -2  -2  -2 0.41769 0.16966   1
   2   2   2 0.40310 0.17075   1
   2   2   2 0.43583 0.22311   1
   2   2   2 0.49226 0.14674   2
   2   2   2 0.44196 0.12396   2
   3   2  -5 13.0045 0.59819  -2
  -3  -2  -2 13.0045 0.59819   1
   3   2  -5 12.8789 0.88158  -2
  -3  -2  -2 12.8789 0.88158   1
   3   2  -5 14.0027 0.80986  -2
  -3  -2  -2 14.0027 0.80986   1
  -3  -2   5 14.8725 0.87120  -2
   3   2   2 14.8725 0.87120   1
  -3  -2   5 15.6492 0.89377  -2
   3   2   2 15.6492 0.89377   1
  -3  -2   5 12.0246 0.84753  -2
   3   2   2 12.0246 0.84753   1
  -3  -2   5 12.9129 0.53412  -2
   3   2   2 12.9129 0.53412   1
  -4  -2  -2 0.79068 0.19919   2
  -4  -2  -2 0.62735 0.27929   2
  -4  -2  -2 0.70954 0.20308   1
  -4  -2  -2 0.95611 0.36441   1
  -4  -2  -2 0.82365 0.14722   1
  -4  -2  -2 0.77575 0.25302   1
  -4  -2  -2 0.62657 0.13478   1
   4   2   2 0.91203 0.18514   2
   4   2   2 0.68805 0.21632   2
   4   2   2 0.81252 0.25783   1
   4   2   2 0.39744 0.25646   1
   5   2  -6 33.3302 1.16889  -2
  -5  -2  -2 33.3302 1.16889   1
   5   2  -6 32.5423 0.97381  -2
  -5  -2  -2 32.5423 0.97381   1
   5   2  -6 32.1517 1.02056  -2
  -5  -2  -2 32.1517 1.02056   1
   5   2  -6 33.3059 0.90762  -2
  -5  -2  -2 33.3059 0.90762   1
   5   2  -6 33.4120 1.03352  -2
  -5  -2  -2 33.4120 1.03352   1
   5   2  -6 33.5325 0.89957  -2
  -5  -2  -2 33.5325 0.89957   1
  -6  -2  -2 1.34777 0.23306   2
  -6  -2  -2 1.04728 0.13021   2
  -6  -2  -2 1.17256 0.17195   1
  -6  -2  -2 1.00203 0.13435   1
  -6  -2  -2 1.33658 0.23732   1
  -6  -2  -2 0.77846 0.17220   1
  -6  -2  -2 0.99832 0.14149   1
  -6  -2  -2 1.18570 0.19391   1
   6   2   2 1.21704 0.20298   2
   6   2   2 1.36814 0.16564   2
   6   2   2 1.07784 0.25446   1
  -7  -2  -2 0.57230 0.08584   1
  -7  -2  -2 0.48493 0.06495   1
  -7  -2  -2 0.60537 0.10387   1
  -7  -2  -2 0.47243 0.10914   1
   7   2   2 0.49698 0.11148   2
   8  -3  -2 3.74549 0.14946   1
   8  -3  -2 2.70362 0.28576   1
  -8   3   2 4.02132 0.20263   2
  -8   3   2 4.01814 0.24849   2
   7  -3  -2 22.7376 0.89304   1
   7  -3  -2 21.7160 0.68720   1
   7  -3  -2 22.9326 0.93750   1
  -7   3   2 25.4510 0.93804   2
  -7   3   2 26.0528 0.77884   2
  -7   3   2 24.4178 0.87041   2
  -7   3   2 22.1036 0.63467   1
   6  -3  -2 1.29257 0.26495   1
   6  -3  -2 0.90780 0.16688   1
  -6   3  -1 51.8158 2.20878  -2
   6  -3  -2 51.8158 2.20878   1
  -6   3  -1 55.5500 1.71843  -2
   6  -3  -2 55.5500 1.71843   1
   6  -3  -2 1.39965 0.14448   2
  -6   3   2 1.53814 0.23517   2
  -6   3   2 1.16320 0.41564   2
  -6   3   2 1.23325 0.23190   2
   6  -3   1 55.1358 1.49556  -2
  -6   3   2 55.1358 1.49556   1
  -6   3   2 1.00640 0.16634   1
   5  -3  -2 12.0541 0.79926   1
   5  -3  -2 14.3303 0.70709   1
   5  -3  -2 12.2887 0.50205   1
   5  -3  -2 13.8646 0.57214   1
   5  -3  -2 14.5094 0.48283   2
  -5   3   2 12.9296 0.58206   1
  -5   3   2 15.3598 1.00117   2
  -5   3   2 15.5746 0.67219   2
  -5   3   2 14.5085 0.64966   2
  -4   3  -2 18.1441 0.74084  -2
   4  -3  -2 18.1441 0.74084   1
  -4   3  -2 21.4646 1.04969  -2
   4  -3  -2 21.4646 1.04969   1
  -4   3  -2 16.8733 0.71180  -2
   4  -3  -2 16.8733 0.71180   1
  -4   3  -2 20.4985 1.16329  -2
   4  -3  -2 20.4985 1.16329   1
   4  -3   2 18.8739 0.86689  -2
  -4   3   2 18.8739 0.86689   1
   4  -3   2 18.3550 0.77463  -2
  -4   3   2 18.3550 0.77463   1
   4  -3   2 17.6403 0.91667  -2
  -4   3   2 17.6403 0.91667   1
   3  -3  -2 70.1210 1.99778   1
   3  -3  -2 67.7277 2.20066   1
   3  -3  -2 64.9295 1.85744   1
   3  -3  -2 66.8801 2.38566   1
   3  -3  -2 78.6530 2.08573   2
   3  -3  -2 78.7519 2.26128   2
   3  -3  -2 73.9521 2.50567   2
   3  -3  -2 77.5602 2.25889   2
   3  -3  -2 77.9903 2.58477   2
  -3   3   2 79.0964 2.60197   2
  -3   3   2 77.8663 2.19221   2
  -3   3   2 75.0513 2.50641   2
  -3   3   2 78.2375 2.11620   2
  -3   3   2 67.5048 1.85988   1
  -3   3   2 68.1575 1.89433   1
  -3   3   2 67.4774 1.92661   1
  -2   3  -3 578.953 15.0759  -2
   2  -3  -2 578.953 15.0759   1
  -2   3  -3 587.189 16.2207  -2
   2  -3  -2 587.189 16.2207   1
  -2   3  -3 700.569 15.8103  -2
   2  -3  -2 700.569 15.8103   1
   2  -3   3 599.476 13.1829  -2
  -2   3   2 599.476 13.1829   1
   2  -3   3 578.559 13.8573  -2
  -2   3   2 578.559 13.8573   1
   1  -3  -2 10.3807 0.56378   2
   1  -3  -2 10.7991 0.62119   2
   1  -3  -2 10.3399 0.52016   2
   1  -3  -2 10.2298 0.52561   2
   1  -3  -2 10.3696 0.59841   2
   1  -3  -2 10.4220 0.57070   2
   1  -3  -2 10.1966 0.55044   2
   1  -3  -2 9.18282 0.47029   1
   1  -3  -2 9.02237 0.45255   1
   1  -3  -2 9.85130 0.64502   1
  -1   3   2 10.8790 0.47167   2
  -1   3   2 10.4966 0.43678   2
  -1   3   2 9.38244 0.30141   1
  -1   3   2 9.39317 0.42875   1
  -1   3   2 9.26107 0.46991   1
  -1   3   2 9.33452 0.47602   1
   0   3  -4 473.502 12.5535  -2
   0  -3  -2 473.502 12.5535   1
   0   3  -4 452.273 12.0654  -2
   0  -3  -2 452.273 12.0654   1
   0  -3   4 498.154 10.5939  -2
   0   3   2 498.154 10.5939   1
   0  -3   4 498.575 10.9823  -2
   0   3   2 498.575 10.9823   1
   0  -3   4 508.742 12.2949  -2
   0   3   2 508.742 12.2949   1
  -1  -3  -2 28.8347 1.06398   2
  -1  -3  -2 30.0703 1.15335   2
  -1  -3  -2 29.5551 1.27155   2
  -1  -3  -2 30.1196 1.04499   2
  -1  -3  -2 29.2376 1.19766   2
  -1  -3  -2 29.4370 1.03082   2
  -1  -3  -2 29.1751 0.85574   2
   1   3   2 29.3969 0.95645   2
   1   3   2 29.7828 0.97443   2
   1   3   2 26.7973 0.85899   1
   1   3   2 27.0867 1.26867   1
   1   3   2 24.4432 1.00643   1
   1   3   2 27.3230 1.01987   1
   1   3   2 26.4740 1.13422   1
  -2  -3  -2 17.2176 0.78299   2
  -2  -3  -2 15.7186 0.91106   2
  -2  -3  -2 16.0285 0.74724   2
  -2  -3  -2 16.9356 0.95654   2
  -2  -3  -2 16.1547 0.63107   2
  -2  -3  -2 15.4946 0.83992   1
  -2  -3  -2 14.1159 0.63397   1
   2   3   2 15.2398 0.81883   1
   2   3   2 14.7065 0.91383   1
   2   3   2 14.3569 0.96981   1
   2   3   2 16.2179 0.64517   2
  -3  -3  -2 19.4347 1.12645   2
  -3  -3  -2 18.2596 0.74956   2
  -3  -3  -2 16.2486 0.52755   1
  -3  -3  -2 16.7740 0.98016   1
  -3  -3  -2 16.2775 0.74199   1
   3   3   2 15.9260 0.95345   1
   3   3   2 15.0093 1.13331   1
   3   3   2 18.8033 0.72077   2
  -4  -3  -2 0.96365 0.18914   2
  -4  -3  -2 1.32703 0.25741   2
  -4  -3  -2 0.98800 0.38821   2
  -4  -3  -2 0.96578 0.24900   1
  -4  -3  -2 1.04981 0.14844   1
  -4  -3  -2 1.05775 0.17696   1
  -4  -3  -2 1.02782 0.23536   1
  -4  -3  -2 0.81431 0.18177   1
  -4  -3  -2 0.90332 0.12837   1
  -4  -3  -2 0.91261 0.16122   1
   4   3   2 0.86638 0.33610   1
   4   3   2 1.55473 0.20805   2
   4   3   2 1.16854 0.20764   2
  -5  -3  -2 -0.0003 0.06299   1
  -5  -3  -2 0.03061 0.09333   1
  -5  -3  -2 -0.0239 0.07528   1
  -5  -3  -2 0.09266 0.16133   1
  -5  -3  -2 0.03286 0.10616   1
  -5  -3  -2 0.13085 0.13085   1
  -5  -3  -2 0.29081 0.17493   1
  -5  -3  -2 0.03750 0.08916   2
  -5  -3  -2 -0.0428 0.13762   2
   5   3   2 0.03421 0.09637   2
   5   3   2 -0.0587 0.12461   2
  -6  -3  -2 10.1235 0.30760   1
  -6  -3  -2 9.46821 0.41811   1
  -6  -3  -2 9.56615 0.37541   1
  -6  -3  -2 9.39646 0.33626   1
  -6  -3  -2 9.00561 0.46483   1
  -6  -3  -2 9.88046 0.44362   1
  -6  -3  -2 10.8790 0.32646   2
   6   3   2 9.60150 0.53152   1
   6   3   2 10.7846 0.33603   2
   6   3   2 10.9747 0.44219   2
   8  -4  -2 0.19544 0.12014   1
  -8   4   2 0.17945 0.05922   2
  -7   4  -1 18.0394 0.49519  -2
   7  -4  -2 18.0394 0.49519   1
  -7   4  -1 18.7295 0.74932  -2
   7  -4  -2 18.7295 0.74932   1
  -7   4  -1 18.5252 0.77938  -2
   7  -4  -2 18.5252 0.77938   1
   7  -4   1 19.1164 0.64351  -2
  -7   4   2 19.1164 0.64351   1
   7  -4   1 19.7688 0.57776  -2
  -7   4   2 19.7688 0.57776   1
   6  -4  -2 6.60346 0.37822   2
   6  -4  -2 6.54265 0.26504   2
   6  -4  -2 5.81343 0.29714   1
   6  -4  -2 4.89770 0.56729   1
   6  -4  -2 5.21133 0.44605   1
   6  -4  -2 6.07777 0.47051   1
  -6   4   2 6.08260 0.36388   2
  -6   4   2 5.98655 0.69156   2
  -6   4   2 6.71024 0.43433   2
  -6   4   2 6.06019 0.38141   1
  -6   4   2 6.18505 0.35504   1
  -5   4  -2 211.065 5.38740  -2
   5  -4  -2 211.065 5.38740   1
  -5   4  -2 212.269 5.59453  -2
   5  -4  -2 212.269 5.59453   1
  -5   4  -2 221.627 6.44013  -2
   5  -4  -2 221.627 6.44013   1
  -5   4  -2 208.684 4.55389  -2
   5  -4  -2 208.684 4.55389   1
   5  -4   2 224.399 5.71116  -2
  -5   4   2 224.399 5.71116   1
   4  -4  -2 3.92059 0.66046   1
   4  -4  -2 3.82809 0.45200   1
   4  -4  -2 3.98747 0.33033   1
   4  -4  -2 4.53623 0.37001   1
   4  -4  -2 4.27838 0.26466   1
   4  -4  -2 4.87898 0.59309   2
   4  -4  -2 3.58932 0.61625   2
  -4   4   2 4.25377 0.34056   1
  -4   4   2 4.31339 0.51769   1
  -4   4   2 4.32235 0.42285   1
  -4   4   2 3.94211 0.38858   1
  -4   4   2 4.38068 0.61181   2
  -4   4   2 4.66988 0.33412   2
   3  -4  -2 89.1885 2.66010   2
   3  -4  -2 89.7117 2.68125   2
   3  -4  -2 75.1931 2.25436   1
   3  -4  -2 78.6005 2.00731   1
   3  -4  -2 80.6056 2.58137   1
   3  -4  -2 79.6391 2.81452   1
   3  -4  -2 77.3205 2.18788   1
   3  -4  -2 84.7128 2.37474   1
  -3   4   2 89.1152 2.54030   2
  -3   4   2 95.6640 3.06735   2
  -3   4   2 81.6281 2.28368   1
  -3   4   2 77.9550 2.19283   1
  -3   4   2 77.8086 2.26196   1
   2  -4  -2 6.05253 0.36024   1
   2  -4  -2 6.36175 0.43532   1
   2  -4  -2 6.09361 0.61897   1
   2  -4  -2 6.37944 0.41635   1
   2  -4  -2 6.59885 0.51387   2
   2  -4  -2 6.52574 0.51640   2
   2  -4  -2 6.59832 0.46478   2
   2  -4  -2 7.19467 0.60852   2
   2  -4  -2 6.57803 0.49033   2
  -2   4   2 6.16414 0.46668   1
  -2   4   2 6.08119 0.34445   1
  -2   4   2 7.06909 0.43649   2
  -2   4   2 6.89391 0.54317   2
  -2   4   2 6.35932 0.37925   2
   1  -4  -2 9.35086 0.44426   1
   1  -4  -2 9.15299 0.71221   1
   1  -4  -2 9.62832 0.51415   1
   1  -4  -2 10.9497 0.62291   2
   1  -4  -2 11.3163 0.68721   2
   1  -4  -2 11.3891 0.60795   2
   1  -4  -2 10.7032 0.70629   2
   1  -4  -2 11.0450 0.64203   2
  -1   4   2 11.0263 0.48790   2
  -1   4   2 10.6312 0.65272   2
  -1   4   2 12.3420 0.55520   2
  -1   4   2 9.69586 0.55834   1
  -1   4   2 9.90213 0.38480   1
   0  -4  -2 33.2642 1.05677   1
   0  -4  -2 33.8394 1.47915   1
   0  -4  -2 32.6459 1.13480   1
   0  -4  -2 41.5699 1.60531   2
   0  -4  -2 39.1815 1.32503   2
   0  -4  -2 37.9900 1.36538   2
   0  -4  -2 38.2149 1.50553   2
   0  -4  -2 37.2591 1.34204   2
   0   4   2 34.9289 1.20546   1
   0   4   2 33.3898 1.13929   1
   0   4   2 35.4597 1.34624   1
   0   4   2 39.9617 1.23754   2
   0   4   2 39.5809 1.21902   2
  -1  -4  -2 80.0218 2.58400   2
  -1  -4  -2 79.7113 2.30217   2
  -1  -4  -2 79.9816 2.79801   2
  -1  -4  -2 80.7686 2.27653   2
  -1  -4  -2 79.2328 2.41496   2
  -1  -4  -2 77.7330 2.15841   2
  -1  -4  -2 67.5125 1.91138   1
  -1  -4  -2 67.5804 1.99691   1
   1   4   2 69.2273 2.38548   1
   1   4   2 69.5518 2.12740   1
   1   4   2 69.4576 2.60605   1
   1   4   2 78.5434 2.22644   2
   2   4  -6 24.8959 0.90636  -2
  -2  -4  -2 24.8959 0.90636   1
  -2  -4  -2 13.4469 0.65428   1
   2   4   2 12.8004 0.82593   1
   2   4   2 13.9438 1.10190   1
   2   4   2 15.5744 0.62619   2
  -3  -4  -2 14.9580 0.67778   2
  -3  -4  -2 15.1145 0.59985   2
  -3  -4  -2 14.1572 1.03009   2
  -3  -4  -2 14.4229 0.53934   2
  -3  -4  -2 12.7816 0.57100   1
  -3  -4  -2 13.6025 0.69917   1
  -3  -4  -2 12.8322 0.42915   1
  -3  -4  -2 13.6492 0.48622   1
  -3  -4  -2 13.7215 0.66486   1
   3   4   2 14.6989 0.57966   2
   3   4   2 14.1667 0.55323   2
   4   4  -7 40.6378 1.35067  -2
  -4  -4  -2 40.6378 1.35067   1
   4   4  -7 40.7076 1.03764  -2
  -4  -4  -2 40.7076 1.03764   1
   4   4  -7 41.0860 1.18185  -2
  -4  -4  -2 41.0860 1.18185   1
   4   4  -7 39.6628 1.18636  -2
  -4  -4  -2 39.6628 1.18636   1
   4   4  -7 38.5490 1.40263  -2
  -4  -4  -2 38.5490 1.40263   1
   4   4  -7 40.1963 0.96852  -2
  -4  -4  -2 40.1963 0.96852   1
  -5  -4  -2 68.6225 2.09042   1
  -5  -4  -2 71.1237 1.64433   1
  -5  -4  -2 70.2703 1.76423   1
  -5  -4  -2 69.4020 1.87374   1
  -5  -4  -2 69.7593 1.50704   1
  -5  -4  -2 70.2304 1.98527   1
  -5  -4  -2 77.9098 2.24510   2
  -5  -4  -2 77.9973 1.77579   2
   5   4   2 79.2030 1.77865   2
   5   4   2 79.5509 1.89060   2
   6   4  -8 -0.0198 0.07829  -2
  -6  -4  -2 -0.0198 0.07829   1
   6   4  -8 -0.0901 0.13079  -2
  -6  -4  -2 -0.0901 0.13079   1
   7  -5  -2 185.214 4.63467   1
   7  -5  -2 185.754 4.84804   1
   7  -5  -2 207.947 4.51047   2
  -7   5   2 204.804 4.30823   2
  -7   5   2 202.256 5.14804   2
  -7   5   2 186.983 3.96741   1
  -7   5   2 190.550 4.15708   1
   6  -5  -2 3.84546 0.40745   1
   6  -5  -2 3.97146 0.38645   1
   6  -5  -2 4.68606 0.20654   2
   6  -5  -2 5.31237 0.33676   2
  -6   5   2 4.37052 0.28721   2
  -6   5   2 3.98012 0.34067   2
  -6   5   2 4.14828 0.31777   1
  -6   5   2 4.10557 0.29417   1
   5  -5  -2 83.3874 2.46094   1
   5  -5  -2 81.3027 2.34117   1
   5  -5  -2 77.9164 2.81336   1
   5  -5  -2 93.0872 2.06132   2
   5  -5  -2 90.9840 2.25940   2
  -5   5   2 82.5588 2.41496   1
  -5   5   2 91.5075 2.15718   2
  -5   5   2 88.9461 3.25110   2
   4  -5  -2 14.2877 0.57953   1
   4  -5  -2 15.7180 0.90266   1
   4  -5  -2 14.8578 0.56830   1
   4  -5  -2 15.1454 0.71869   1
   4  -5  -2 15.7649 0.57259   1
   4  -5  -2 15.7788 0.68442   1
   4  -5  -2 15.6098 0.76236   1
   4  -5  -2 16.9803 1.01008   2
   4  -5  -2 16.5217 0.62353   2
   4  -5  -2 18.1027 0.90307   2
   4  -5  -2 16.5543 0.55277   2
   4  -5  -2 17.3413 0.64960   2
  -4   5   2 15.8546 0.86837   1
  -4   5   2 14.8714 0.81205   1
  -4   5   2 15.9234 0.72191   1
  -4   5   2 17.0423 0.67613   2
  -4   5   2 16.2105 1.05863   2
   3  -5  -2 22.8722 1.29287   2
   3  -5  -2 23.4564 1.07083   2
   3  -5  -2 22.0195 0.68527   1
   3  -5  -2 21.5179 0.88644   1
  -3   5  -4 45.1666 1.43809  -2
   3  -5  -2 45.1666 1.43809   1
  -3   5   2 25.1440 0.87922   2
  -3   5   2 25.0906 1.24064   2
  -3   5   2 20.2251 0.88088   1
  -3   5   2 20.9361 0.99414   1
  -3   5   2 21.4805 0.86102   1
   2  -5  -2 7.51512 0.54986   2
   2  -5  -2 7.02385 0.69279   2
   2  -5  -2 7.17641 0.59818   2
   2  -5  -2 7.61779 0.59952   2
   2  -5  -2 6.91047 0.29792   1
   2  -5  -2 6.89234 0.48336   1
   2  -5  -2 8.99702 0.46382   1
   2  -5  -2 7.01016 0.74863   1
   2  -5  -2 6.38035 0.44491   1
  -2   5   2 8.39812 0.42292   2
  -2   5   2 6.80763 0.55911   1
  -2   5   2 6.66071 0.42582   1
  -1   5  -5 62.2034 1.75863  -2
   1  -5  -2 62.2034 1.75863   1
  -1   5  -5 58.5480 1.50822  -2
   1  -5  -2 58.5480 1.50822   1
  -1   5  -5 55.6016 1.76770  -2
   1  -5  -2 55.6016 1.76770   1
   1  -5   5 59.9027 1.90833  -2
  -1   5   2 59.9027 1.90833   1
   1  -5   5 59.9913 1.67304  -2
  -1   5   2 59.9913 1.67304   1
   0  -5  -2 35.9346 1.73390   1
   0  -5  -2 37.7700 0.98261   1
   0  -5  -2 37.4449 1.21145   1
   0  -5  -2 38.9313 1.32642   1
   0  -5  -2 35.8100 1.25952   1
   0  -5  -2 42.9961 1.77604   2
   0  -5  -2 44.1772 1.59355   2
   0  -5  -2 45.3026 1.60532   2
   0  -5  -2 41.0948 1.53122   2
   0  -5  -2 42.7467 1.81088   2
   0   5   2 38.9803 1.50989   1
   0   5   2 36.6465 1.33480   1
   0   5   2 43.6469 1.33911   2
   1   5  -6 104.864 2.42444  -2
  -1  -5  -2 104.864 2.42444   1
   1   5  -6 100.404 2.72415  -2
  -1  -5  -2 100.404 2.72415   1
   1   5  -6 95.3813 2.75031  -2
  -1  -5  -2 95.3813 2.75031   1
  -1  -5   6 93.8666 2.86526  -2
   1   5   2 93.8666 2.86526   1
  -2  -5  -2 5.60927 0.26692   1
  -2  -5  -2 6.22443 0.45944   1
  -2  -5  -2 5.92102 0.25098   1
  -2  -5  -2 5.90613 0.24139   1
  -2  -5  -2 5.88330 0.44234   1
  -2  -5  -2 5.79700 0.37440   1
  -2  -5  -2 5.99950 0.40830   1
  -2  -5  -2 6.52231 0.42542   2
  -2  -5  -2 7.32582 0.74436   2
  -2  -5  -2 6.94926 0.39437   2
  -2  -5  -2 6.78118 0.35664   2
   2   5   2 6.81168 0.35754   2
   3   5  -7 97.2256 2.44594  -2
  -3  -5  -2 97.2256 2.44594   1
   3   5  -7 96.9978 2.33952  -2
  -3  -5  -2 96.9978 2.33952   1
   3   5  -7 95.5899 2.64996  -2
  -3  -5  -2 95.5899 2.64996   1
   3   5  -7 94.6586 2.13671  -2
  -3  -5  -2 94.6586 2.13671   1
   3   5  -7 97.4975 2.77600  -2
  -3  -5  -2 97.4975 2.77600   1
  -4  -5  -2 3.03799 0.23909   1
  -4  -5  -2 2.92823 0.34107   1
  -4  -5  -2 2.92962 0.29621   1
  -4  -5  -2 3.17424 0.14623   1
  -4  -5  -2 3.07753 0.37679   1
  -4  -5  -2 3.28787 0.21611   1
  -4  -5  -2 3.12169 0.27656   2
  -4  -5  -2 3.58307 0.34607   2
  -4  -5  -2 3.38931 0.23970   2
   4   5   2 3.03010 0.21649   2
   4   5   2 3.16388 0.27112   2
  -5  -5  -2 1.21063 0.21358   1
  -5  -5  -2 1.47578 0.20212   1
  -5  -5  -2 1.51779 0.14409   1
  -5  -5  -2 1.18958 0.16703   1
  -5  -5  -2 1.52673 0.16189   1
  -5  -5  -2 1.87558 0.11481   2
   5   5   2 1.43989 0.16316   2
   7  -6  -2 22.9938 0.66530   2
   7  -6  -2 20.5075 0.71209   1
  -7   6   2 20.4653 0.62418   1
  -7   6   2 20.0691 0.55859   1
  -7   6   2 22.7516 0.56097   2
  -6   6  -3 11.7488 0.59313  -2
   6  -6  -2 11.7488 0.59313   1
  -6   6  -3 11.0272 0.60454  -2
   6  -6  -2 11.0272 0.60454   1
   6  -6   3 12.3407 0.52540  -2
  -6   6   2 12.3407 0.52540   1
   5  -6  -2 31.2881 0.81990   2
   5  -6  -2 30.9211 0.97389   2
   5  -6  -2 28.3332 1.05622   1
   5  -6  -2 28.5492 1.10926   1
  -5   6   2 31.5206 0.91281   2
  -5   6   2 32.2762 0.90023   2
  -5   6   2 26.6463 1.23053   1
  -5   6   2 26.4819 1.03102   1
  -5   6   2 28.0501 0.90673   1
  -4   6  -4 2.55762 0.21391  -2
   4  -6  -2 2.55762 0.21391   1
  -4   6  -4 2.37499 0.24651  -2
   4  -6  -2 2.37499 0.24651   1
  -4   6  -4 2.94507 0.24477  -2
   4  -6  -2 2.94507 0.24477   1
  -4   6  -4 2.55603 0.33772  -2
   4  -6  -2 2.55603 0.33772   1
  -4   6  -4 2.97537 0.33914  -2
   4  -6  -2 2.97537 0.33914   1
  -4   6  -4 2.44017 0.25630  -2
   4  -6  -2 2.44017 0.25630   1
  -4   6  -4 2.70908 0.30754  -2
   4  -6  -2 2.70908 0.30754   1
   4  -6   4 3.15013 0.43608  -2
  -4   6   2 3.15013 0.43608   1
   4  -6   4 2.55877 0.31893  -2
  -4   6   2 2.55877 0.31893   1
   3  -6  -2 4.82346 0.37141   1
   3  -6  -2 3.70475 0.27296   1
   3  -6  -2 4.27454 0.30425   1
   3  -6  -2 4.12762 0.39814   1
   3  -6  -2 4.04390 0.23062   1
   3  -6  -2 3.79631 0.25303   1
   3  -6  -2 4.23833 0.38347   1
   3  -6  -2 3.89969 0.27659   1
   3  -6  -2 4.26167 0.26752   2
   3  -6  -2 4.41513 0.48868   2
   3  -6  -2 4.46567 0.32213   2
  -3   6   2 4.46496 0.57437   1
  -3   6   2 3.50125 0.35632   1
  -3   6   2 4.28728 0.19940   2
  -3   6   2 4.22337 0.31245   2
  -3   6   2 4.63965 0.29438   2
  -2   6  -5 3.27962 0.36971  -2
   2  -6  -2 3.27962 0.36971   1
  -2   6  -5 3.18656 0.39529  -2
   2  -6  -2 3.18656 0.39529   1
  -2   6  -5 3.06079 0.21878  -2
   2  -6  -2 3.06079 0.21878   1
  -2   6  -5 2.95627 0.25629  -2
   2  -6  -2 2.95627 0.25629   1
  -2   6  -5 3.58146 0.26054  -2
   2  -6  -2 3.58146 0.26054   1
  -2   6  -5 3.91273 0.32780  -2
   2  -6  -2 3.91273 0.32780   1
  -2   6  -5 3.16418 0.36480  -2
   2  -6  -2 3.16418 0.36480   1
   2  -6   5 3.01141 0.47636  -2
  -2   6   2 3.01141 0.47636   1
   1  -6  -2 22.3108 0.75176   2
   1  -6  -2 24.1540 1.11486   2
   1  -6  -2 21.2252 1.12442   2
   1  -6  -2 21.6731 0.70032   2
   1  -6  -2 21.5708 0.88958   1
   1  -6  -2 18.9188 0.82088   1
   1  -6  -2 20.0820 0.62821   1
   1  -6  -2 19.8435 0.59332   1
   1  -6  -2 19.6622 0.81378   1
   1  -6  -2 19.2800 0.55478   1
   1  -6  -2 19.3691 0.68737   1
  -1   6   2 22.6824 0.56334   2
  -1   6   2 22.5808 0.69913   2
  -1   6   2 21.4283 0.72391   2
  -1   6   2 18.7557 0.82218   1
  -1   6   2 20.3591 0.99919   1
   0   6  -6 29.3416 1.09124  -2
   0  -6  -2 29.3416 1.09124   1
   0  -6  -2 23.4074 0.77209   1
   0  -6  -2 23.8605 0.63458   1
   0  -6  -2 24.1192 0.66875   1
   0  -6  -2 24.9719 1.00155   1
   0  -6  -2 24.3692 0.71721   1
   0  -6  -2 23.8915 0.95475   1
   0  -6  -2 25.1816 0.83410   2
   0  -6  -2 26.4112 0.78596   2
   0   6   2 25.9312 0.80390   2
   0   6   2 25.6768 0.77663   2
  -1  -6  -2 15.0288 0.88501   2
  -1  -6  -2 16.5443 0.62942   2
  -1  -6  -2 16.0280 0.74595   2
  -1  -6  -2 15.3068 0.56917   2
  -1  -6  -2 13.5564 0.42911   1
  -1  -6  -2 14.5053 0.58847   1
  -1  -6  -2 14.1320 0.43503   1
  -1  -6  -2 13.9050 0.66550   1
  -1  -6  -2 14.0877 0.55371   1
  -1  -6  -2 13.8997 0.71298   1
  -1  -6  -2 14.1595 0.69276   1
  -1  -6  -2 13.8003 0.48269   1
   1   6   2 15.7222 0.58956   2
   1   6   2 15.6131 0.55532   2
  -2  -6  -2 1.38141 0.14724   1
  -2  -6  -2 1.28317 0.12092   1
  -2  -6  -2 1.26658 0.20911   1
  -2  -6  -2 1.26160 0.24753   1
  -2  -6  -2 1.31009 0.15945   1
  -2  -6  -2 1.34102 0.27294   1
  -2  -6  -2 1.43982 0.22514   2
  -2  -6  -2 1.53936 0.18653   2
  -2  -6  -2 1.50185 0.25630   2
   2   6   2 1.46370 0.18424   2
  -3  -6  -2 3.97421 0.25505   2
  -3  -6  -2 4.27155 0.35803   2
  -3  -6  -2 3.65232 0.30041   2
  -3  -6  -2 3.67835 0.30811   1
  -3  -6  -2 3.50383 0.24165   1
  -3  -6  -2 3.21394 0.20665   1
  -3  -6  -2 3.88775 0.35351   1
  -3  -6  -2 3.72893 0.37255   1
   3   6   2 4.04669 0.24042   2
  -4  -6  -2 5.45715 0.24803   1
  -4  -6  -2 5.57769 0.36316   1
  -4  -6  -2 5.22072 0.37747   1
  -4  -6  -2 5.54767 0.32165   1
  -4  -6  -2 5.56136 0.28168   1
  -4  -6  -2 6.79030 0.24511   2
  -4  -6  -2 6.67942 0.32698   2
   4   6   2 6.23087 0.31499   2
   4   6   2 6.04289 0.17490   2
  -5  -6  -2 8.52450 0.28172   1
   6  -7  -2 1.82179 0.19180   2
   6  -7  -2 1.51395 0.23723   1
   6  -7  -2 1.96303 0.23967   1
  -6   7   2 1.68852 0.18807   1
  -6   7   2 1.61250 0.17950   1
  -6   7   2 1.76268 0.13187   2
   5  -7  -2 0.22989 0.12414   1
   5  -7  -2 0.16349 0.16172   1
  -5   7  -4 1.07867 0.32363  -2
   5  -7  -2 1.07867 0.32363   1
   5  -7  -2 0.83839 0.09911   2
   5  -7   4 1.17870 0.25962  -2
  -5   7   2 1.17870 0.25962   1
  -5   7   2 0.37449 0.10000   2
   4  -7  -2 39.5502 1.02989   1
   4  -7  -2 39.6081 1.16296   1
   4  -7  -2 35.5683 1.50605   1
   4  -7  -2 40.1482 1.08544   1
   4  -7  -2 40.2188 1.38343   1
   4  -7  -2 39.4913 1.07516   1
   4  -7  -2 39.4600 1.31083   1
   4  -7  -2 44.7857 1.26955   2
   4  -7  -2 44.8696 1.11557   2
   4  -7  -2 45.3815 1.71333   2
  -4   7   2 45.9047 1.14984   2
  -4   7   2 44.8996 1.20506   2
  -4   7   2 39.1838 1.37871   1
  -4   7   2 36.8262 1.54565   1
  -4   7   2 39.5304 1.13254   1
   3  -7  -2 33.3319 0.89013   1
   3  -7  -2 34.1994 1.18712   1
   3  -7  -2 34.3755 1.17489   1
   3  -7  -2 32.0615 1.23090   1
   3  -7  -2 31.9385 0.92538   1
   3  -7  -2 34.1391 1.01040   1
   3  -7  -2 33.8877 0.98861   1
   3  -7  -2 38.8083 1.55794   2
   3  -7  -2 37.3857 0.99902   2
   3  -7  -2 36.9266 1.10274   2
  -3   7   2 32.4628 1.24690   1
  -3   7   2 31.4046 1.40555   1
  -3   7   2 37.9045 1.01804   2
  -3   7   2 37.9141 1.07098   2
   2  -7  -2 71.5428 2.09386   1
   2  -7  -2 69.2340 1.85980   1
   2  -7  -2 69.8568 1.63896   1
   2  -7  -2 71.3992 1.78906   1
   2  -7  -2 68.6984 1.66556   1
   2  -7  -2 70.9543 2.08194   1
   2  -7  -2 71.6232 2.18632   1
   2  -7  -2 80.4803 2.67935   2
   2  -7  -2 79.5023 1.89453   2
  -2   7   2 81.8148 1.95997   2
  -2   7   2 80.6580 1.88901   2
  -2   7   2 72.0412 2.40750   1
   1  -7  -2 102.656 2.25253   1
   1  -7  -2 103.035 2.84315   1
   1  -7  -2 100.260 2.80126   1
   1  -7  -2 102.093 2.56882   1
   1  -7  -2 101.430 2.25794   1
   1  -7  -2 100.313 2.42156   1
   1  -7  -2 101.722 2.92783   1
   1  -7  -2 111.373 2.55081   2
   1  -7  -2 112.905 2.65916   2
   1  -7  -2 114.329 3.46501   2
  -1   7   2 112.218 2.53724   2
  -1   7   2 113.151 2.60679   2
  -1   7   2 98.9306 3.12953   1
   0  -7  -2 5.08308 0.24604   1
   0  -7  -2 5.23367 0.27833   1
   0  -7  -2 5.08585 0.41926   1
   0   7  -7 5.69612 0.50327  -2
   0  -7  -2 5.69612 0.50327   1
   0   7  -7 5.54296 0.49249  -2
   0  -7  -2 5.54296 0.49249   1
   0   7  -7 6.44858 0.39822  -2
   0  -7  -2 6.44858 0.39822   1
   0   7  -7 5.74864 0.28348  -2
   0  -7  -2 5.74864 0.28348   1
   0  -7  -2 5.91094 0.32650   2
  -1  -7  -2 0.16847 0.08634   1
  -1  -7  -2 0.05929 0.13355   1
  -1  -7  -2 0.06620 0.16128   1
  -1  -7  -2 0.03838 0.06063   1
  -1  -7  -2 0.06090 0.06379   1
  -1  -7  -2 -0.0324 0.13718   1
  -1  -7  -2 0.05183 0.09342   1
  -1  -7  -2 0.01679 0.08587   2
  -1  -7  -2 0.09622 0.11709   2
   1   7   2 0.01354 0.08565   2
   1   7   2 -0.0407 0.10401   2
   2   7  -8 17.1578 0.51314  -2
  -2  -7  -2 17.1578 0.51314   1
   2   7  -8 17.9129 0.78255  -2
  -2  -7  -2 17.9129 0.78255   1
   2   7  -8 16.9021 0.57868  -2
  -2  -7  -2 16.9021 0.57868   1
   2   7  -8 16.7760 0.73275  -2
  -2  -7  -2 16.7760 0.73275   1
   2   7  -8 17.2949 0.62712  -2
  -2  -7  -2 17.2949 0.62712   1
  -2  -7   8 17.1798 0.78463  -2
   2   7   2 17.1798 0.78463   1
  -3  -7  -2 2.24052 0.21616   1
  -3  -7  -2 2.61568 0.25912   1
  -3  -7  -2 2.12836 0.26514   1
  -3  -7  -2 2.16426 0.17325   1
  -3  -7  -2 2.30042 0.15622   1
  -3  -7  -2 2.63621 0.15691   2
  -3  -7  -2 2.68793 0.21896   2
   4   7  -9 3.18730 0.13719  -2
  -4  -7  -2 3.18730 0.13719   1
   6  -8  -2 69.6478 2.01167   1
   6  -8  -2 77.4608 1.76072   2
  -5   8  -5 163.044 3.97888  -2
   5  -8  -2 163.044 3.97888   1
  -5   8  -5 158.620 3.41294  -2
   5  -8  -2 158.620 3.41294   1
  -5   8   2 150.283 3.33609   1
   4  -8  -2 65.4266 1.54111   1
   4  -8  -2 63.9362 1.93182   1
   4  -8  -2 66.3791 1.84438   1
   4  -8  -2 61.7858 1.50561   1
   4  -8  -2 65.1966 1.56085   1
   4  -8  -2 75.2839 1.81569   2
   4  -8  -2 74.4020 1.60656   2
  -4   8   2 74.7292 1.75432   2
  -4   8   2 73.6382 1.65115   2
  -3   8  -6 77.6818 1.83238  -2
   3  -8  -2 77.6818 1.83238   1
  -3   8  -6 83.1857 1.84796  -2
   3  -8  -2 83.1857 1.84796   1
  -3   8  -6 76.9676 2.24514  -2
   3  -8  -2 76.9676 2.24514   1
  -3   8  -6 79.9305 2.09507  -2
   3  -8  -2 79.9305 2.09507   1
  -3   8  -6 82.0534 2.24025  -2
   3  -8  -2 82.0534 2.24025   1
  -3   8  -6 82.2456 1.94999  -2
   3  -8  -2 82.2456 1.94999   1
  -3   8  -6 76.7251 2.30847  -2
   3  -8  -2 76.7251 2.30847   1
   2  -8  -2 35.9998 1.22192   1
   2  -8  -2 36.0243 0.93874   1
   2  -8  -2 35.1380 0.92564   1
   2  -8  -2 35.9232 1.20804   1
   2  -8  -2 36.2226 1.03210   1
   2  -8  -2 36.4648 1.05819   1
   2  -8  -2 35.8926 1.27554   1
   2  -8  -2 38.6011 1.54487   2
   2  -8  -2 39.4033 0.99830   2
  -2   8   2 40.2261 1.08911   2
  -2   8   2 39.9891 0.99135   2
  -2   8   2 33.2445 1.57234   1
  -1   8  -7 1.36492 0.17293  -2
   1  -8  -2 1.36492 0.17293   1
  -1   8  -7 1.13030 0.14433  -2
   1  -8  -2 1.13030 0.14433   1
  -1   8  -7 1.00045 0.24741  -2
   1  -8  -2 1.00045 0.24741   1
  -1   8  -7 1.61533 0.28192  -2
   1  -8  -2 1.61533 0.28192   1
  -1   8  -7 1.02833 0.13027  -2
   1  -8  -2 1.02833 0.13027   1
  -1   8  -7 0.99239 0.19924  -2
   1  -8  -2 0.99239 0.19924   1
  -1   8  -7 1.33285 0.24225  -2
   1  -8  -2 1.33285 0.24225   1
   0  -8  -2 16.3689 0.55762   1
   0  -8  -2 15.6360 0.41228   1
   0  -8  -2 15.2877 0.67482   1
   0  -8  -2 15.8122 0.48528   1
   0  -8  -2 16.2640 0.56637   1
   0  -8  -2 16.0856 0.73466   1
   0  -8  -2 16.1155 0.69876   1
   0  -8  -2 19.4222 0.57226   2
   0  -8  -2 19.2425 0.66149   2
   0   8   2 18.9962 0.54424   2
   0   8   2 19.0904 0.62598   2
   1   8  -8 1.90734 0.28905  -2
  -1  -8  -2 1.90734 0.28905   1
   1   8  -8 1.59058 0.30150  -2
  -1  -8  -2 1.59058 0.30150   1
   1   8  -8 1.55308 0.18441  -2
  -1  -8  -2 1.55308 0.18441   1
   1   8  -8 1.95278 0.16748  -2
  -1  -8  -2 1.95278 0.16748   1
  -1  -8  -2 1.52018 0.14373   2
  -2  -8  -2 14.2880 0.55801   1
  -2  -8  -2 13.6116 0.46299   1
  -2  -8  -2 14.3795 0.40945   1
  -2  -8  -2 13.3922 0.32879   2
  -2  -8  -2 15.8911 0.49937   2
  -4   9  -6 21.5274 0.57382  -2
   4  -9  -2 21.5274 0.57382   1
  -4   9  -6 22.2225 0.72464  -2
   4  -9  -2 22.2225 0.72464   1
   3  -9  -2 0.24248 0.07586   1
   3  -9  -2 0.31722 0.08194   1
   3  -9  -2 0.17423 0.08050   1
   3  -9  -2 0.26648 0.12557   1
  -3   9   2 0.27880 0.09730   2
   2  -9  -2 3.65641 0.29921   1
   2  -9  -2 3.33227 0.28218   1
   2  -9  -2 3.58861 0.21611   1
   2  -9  -2 3.69050 0.22172   1
   2  -9  -2 4.08839 0.19947   1
   2  -9  -2 3.44848 0.16881   1
  -2   9   2 4.25915 0.24530   2
   1  -9  -2 1.04436 0.13618   1
   1  -9  -2 1.22487 0.13489   1
   1  -9  -2 1.44968 0.12428   1
   1  -9  -2 1.29059 0.19640   1
   1  -9  -2 1.58034 0.29582   1
  -1   9   2 1.65947 0.16862   2
   0  -9  -2 30.8195 0.94287   1
   0  -9  -2 30.6538 0.74837   1
   0  -9  -2 30.3169 0.78336   1
   0  -9  -2 34.0934 0.88250   2
   0   9   2 35.4136 0.85227   2
  -1  -9  -2 0.00067 0.09684   2
  -1  -9  -2 0.08334 0.04813   1
  -1  -9  -2 0.13615 0.08556   1
   1  10  -3 217.116 4.49561   2
   1  10  -3 211.777 4.38891   2
   1  10  -3 184.916 3.99189   1
  -1 -10   3 185.110 3.92004   1
  -1 -10   3 186.083 3.81632   1
  -1 -10   3 214.775 4.57965   2
   0 -10   4 36.0161 0.93510  -2
   0  10  -3 36.0161 0.93510   1
   0  10  -4 35.3378 0.89555  -2
   0 -10   3 35.3378 0.89555   1
   0  10  -4 31.7761 0.84844  -2
   0 -10   3 31.7761 0.84844   1
  -1  10  -3 10.6538 0.38575   2
  -1  10  -3 10.9956 0.39368   2
  -1  10  -3 9.00183 0.39168   1
   1 -10   3 10.5190 0.41184   2
   1 -10   3 9.43545 0.37261   1
   1 -10   3 9.15858 0.38929   1
   2 -10   3 25.9739 0.75758  -2
  -2  10  -3 25.9739 0.75758   1
  -2  10  -3 27.3406 0.72778  -2
   2 -10   3 27.3406 0.72778   1
  -3  10  -3 0.45100 0.10299   1
  -3  10  -3 0.36623 0.10195   2
   3 -10   3 0.40934 0.10591   2
  -4  10  -3 5.63722 0.21225   1
   3   9  -5 38.2612 0.95525  -2
  -3  -9   3 38.2612 0.95525   1
   2   9  -3 3.33153 0.23829   1
   2   9  -3 4.13900 0.24209   2
   2   9  -3 3.84638 0.25352   2
  -2  -9   3 3.06312 0.21799   1
  -2  -9   3 3.12955 0.24698   1
  -2  -9   3 4.02116 0.24771   2
   1   9  -3 8.29159 0.50312   1
   1   9  -3 8.42001 0.42216   1
   1   9  -3 10.5709 0.42843   2
   1   9  -3 11.8193 0.45809   2
  -1  -9   3 11.1001 0.46464   2
  -1  -9   3 10.2951 0.52152   2
  -1  -9   3 9.06414 0.42554   1
  -1  -9   3 9.48917 0.41405   1
   0   9  -3 1.07111 0.16198   2
   0   9  -3 1.06962 0.16919   2
   0   9  -3 0.76160 0.16641   2
   0   9  -3 0.95375 0.23000   1
   0  -9   3 1.25216 0.18745   1
   0  -9   3 1.02894 0.19369   1
   0  -9   3 0.87121 0.17040   1
   0  -9   3 1.13684 0.22151   2
  -1   9  -3 2.26533 0.24874   2
  -1   9  -3 3.12501 0.25286   2
  -1   9  -3 3.03673 0.25136   2
   1  -9   3 2.15307 0.23755   1
   1  -9   3 2.63837 0.25195   1
   1  -9   3 2.77077 0.34051   1
  -2   9  -3 48.0133 1.23909   2
  -2   9  -3 49.6230 1.48200   2
  -2   9  -3 48.7191 1.25310   2
   2  -9   3 44.1634 1.18244   1
  -3   9  -3 0.09703 0.12656   2
  -3   9  -3 0.17652 0.10417   2
  -3   9  -3 0.24801 0.11731   1
   3  -9   3 0.08322 0.10191   1
   4  -9   1 30.4930 0.83146  -2
  -4   9  -3 30.4930 0.83146   1
  -5   9  -3 2.18630 0.13614   1
   5  -9   3 2.60669 0.17441   2
   4   8  -3 0.80463 0.11758   2
  -4  -8   3 0.50402 0.11262   1
  -4  -8   3 0.46912 0.13346   1
  -4  -8   3 0.51627 0.09954   1
   3   8  -3 14.6855 0.66838   1
   3   8  -3 17.5349 0.57510   2
   3   8  -3 17.7037 0.59285   2
  -3  -8   3 14.8291 0.62846   1
  -3  -8   3 15.0270 0.56576   1
  -3  -8   3 14.9094 0.53024   1
  -3  -8   3 14.7783 0.52465   1
   2   8  -3 43.9199 1.18505   2
   2   8  -3 44.3619 1.14611   2
   2   8  -3 36.0215 1.36169   1
   2   8  -3 38.7770 1.10984   1
   2   8  -3 38.1364 1.31974   1
  -2  -8   3 42.6629 1.40752   2
  -2  -8   3 42.8627 1.45848   2
  -2  -8   3 44.3895 1.21971   2
  -2  -8   3 37.9689 1.23670   1
  -2  -8   3 38.2316 1.07090   1
  -2  -8   3 38.1996 1.05565   1
  -2  -8   3 35.4310 1.52978   1
  -2  -8   3 37.2288 1.18903   1
  -2  -8   3 38.1058 1.10330   1
  -1  -8   3 4.24843 0.45463  -2
   1   8  -3 4.24843 0.45463   1
  -1  -8   3 4.49299 0.45966  -2
   1   8  -3 4.49299 0.45966   1
   1   8  -3 4.58305 0.36940  -2
  -1  -8   3 4.58305 0.36940   1
   1   8  -3 3.44412 0.30339  -2
  -1  -8   3 3.44412 0.30339   1
   0   8  -3 1.49908 0.21239   2
   0   8  -3 1.34354 0.19371   2
   0   8  -3 1.52889 0.19208   2
   0   8  -3 1.29868 0.21581   2
   0   8  -3 1.21744 0.19380   2
   0   8  -3 1.36794 0.23571   2
   0   8  -3 1.17273 0.26515   1
   0   8  -3 1.19194 0.27521   1
   0  -8   3 1.04195 0.19947   1
   0  -8   3 1.07431 0.19034   1
   0  -8   3 1.27485 0.23919   1
   0  -8   3 1.20703 0.25536   2
   0  -8   3 1.17595 0.24079   2
   1  -8   2 13.0703 0.67246  -2
  -1   8  -3 13.0703 0.67246   1
   1  -8   2 11.4908 0.78937  -2
  -1   8  -3 11.4908 0.78937   1
  -1   8  -2 12.7195 0.54574  -2
   1  -8   3 12.7195 0.54574   1
  -1   8  -2 13.0105 0.54471  -2
   1  -8   3 13.0105 0.54471   1
  -2   8  -3 764.364 18.6168   2
  -2   8  -3 765.304 15.9553   2
  -2   8  -3 761.537 17.7177   2
  -2   8  -3 766.081 15.3266   2
  -2   8  -3 761.711 15.5969   2
  -2   8  -3 764.101 18.4611   2
  -2   8  -3 659.996 16.9036   1
  -2   8  -3 672.487 16.8347   1
   2  -8   3 758.648 19.1751   2
   2  -8   3 730.974 19.1364   2
   2  -8   3 673.051 13.7842   1
   2  -8   3 657.109 13.9891   1
   3  -8   1 73.8176 2.50391  -2
  -3   8  -3 73.8176 2.50391   1
  -3   8  -1 74.2950 1.83602  -2
   3  -8   3 74.2950 1.83602   1
  -4   8  -3 981.847 20.2397   1
  -4   8  -3 993.997 20.9090   1
  -4   8  -3 985.665 24.7496   1
  -4   8  -3 1141.11 27.6688   2
  -4   8  -3 1171.11 26.5665   2
   4  -8   3 1150.49 24.1058   2
   4  -8   3 1128.29 28.4859   2
   4  -8   3 1011.58 20.3047   1
  -5   8  -3 14.4631 0.46567   1
   5  -8   0 27.1469 0.82641  -2
  -5   8  -3 27.1469 0.82641   1
  -6   8  -3 255.886 6.02745   2
  -6   8  -3 234.029 5.03570   1
   6  -8   3 256.689 5.50009   2
   6  -8   3 257.128 5.31210   2
   5   7  -3 2.21616 0.17425   2
  -5  -7   3 2.16141 0.16574   1
  -5  -7   3 2.09513 0.18092   1
  -5  -7   3 2.28722 0.22631   1
  -4  -7   4 255.351 6.25241  -2
   4   7  -3 255.351 6.25241   1
   4   7  -4 244.774 5.27613  -2
  -4  -7   3 244.774 5.27613   1
   4   7  -4 245.451 6.22238  -2
  -4  -7   3 245.451 6.22238   1
   4   7  -4 250.001 5.99807  -2
  -4  -7   3 250.001 5.99807   1
   4   7  -4 239.328 5.12793  -2
  -4  -7   3 239.328 5.12793   1
   3   7  -3 0.42164 0.14886   2
   3   7  -3 0.31067 0.15087   2
   3   7  -3 0.07638 0.11921   2
   3   7  -3 0.33429 0.19334   1
   3   7  -3 0.31022 0.18803   1
   3   7  -3 0.23449 0.14386   1
  -3  -7   3 0.48098 0.14472   1
  -3  -7   3 0.20463 0.20177   1
  -3  -7   3 0.49131 0.17560   1
  -3  -7   3 0.45380 0.17117   1
  -3  -7   3 0.23187 0.15059   1
  -3  -7   3 0.48873 0.18169   1
  -3  -7   3 0.35113 0.13659   2
  -3  -7   3 0.33644 0.16768   2
  -3  -7   3 0.30599 0.16023   2
  -2  -7   3 283.643 7.61315  -2
   2   7  -3 283.643 7.61315   1
  -2  -7   3 294.081 7.33699  -2
   2   7  -3 294.081 7.33699   1
   2   7  -3 263.526 6.01372  -2
  -2  -7   3 263.526 6.01372   1
   2   7  -3 288.228 7.01918  -2
  -2  -7   3 288.228 7.01918   1
   2   7  -3 299.212 6.99951  -2
  -2  -7   3 299.212 6.99951   1
   2   7  -3 294.953 7.30258  -2
  -2  -7   3 294.953 7.30258   1
   2   7  -3 289.548 6.18949  -2
  -2  -7   3 289.548 6.18949   1
   2   7  -3 290.531 6.12546  -2
  -2  -7   3 290.531 6.12546   1
   1   7  -3 78.3452 1.95221   2
   1   7  -3 81.3474 2.14698   2
   1   7  -3 79.4245 2.28581   2
   1   7  -3 79.7619 1.88239   2
   1   7  -3 81.4054 2.01947   2
   1   7  -3 79.4641 2.20805   2
   1   7  -3 81.1233 1.89829   2
   1   7  -3 70.5428 2.16510   1
   1   7  -3 71.4593 2.24708   1
  -1  -7   3 72.4166 1.80400   1
  -1  -7   3 70.8086 2.14840   1
  -1  -7   3 70.0018 1.79716   1
  -1  -7   3 69.5353 1.74169   1
  -1  -7   3 68.6563 1.81319   1
  -1  -7   3 72.3120 1.97758   1
  -1  -7   3 80.3240 2.34889   2
  -1  -7   3 81.7499 2.47154   2
   0   7  -3 1821.34 43.7170   2
   0   7  -3 1830.67 37.0035   2
   0   7  -3 1771.94 41.9849   2
   0  -7   2 1617.84 38.8552  -2
   0   7  -3 1617.84 38.8552   1
   0   7  -3 1600.46 39.8838   1
   0   7  -2 1596.27 32.6955  -2
   0  -7   3 1596.27 32.6955   1
   0   7  -2 1517.57 32.1108  -2
   0  -7   3 1517.57 32.1108   1
   0  -7   3 1866.99 45.3761   2
   0  -7   3 1599.62 37.2283   1
  -1   7  -3 197.519 6.30227   1
  -1   7  -3 212.998 5.73027   1
  -1   7  -3 208.944 5.54072   1
  -1   7  -3 236.617 5.90073   2
  -1   7  -3 229.316 4.87833   2
  -1   7  -3 234.737 5.88827   2
  -1   7  -3 228.736 4.92151   2
  -1   7  -3 229.291 4.97359   2
  -1   7  -3 226.496 5.65385   2
  -1   7  -3 230.126 5.11744   2
  -1   7  -3 231.206 5.61502   2
   1  -7   3 235.977 6.31583   2
   1  -7   3 227.152 5.96637   2
   1  -7   3 232.470 6.18798   2
   1  -7   3 203.384 4.27906   1
   1  -7   3 204.809 4.52660   1
   1  -7   3 205.752 5.26397   1
   1  -7   3 207.577 4.57956   1
  -2   7  -3 1304.92 32.5179   1
  -2   7  -3 1335.38 32.3397   1
  -2   7  -3 1496.96 35.6843   2
  -2   7  -3 1489.15 30.2619   2
  -2   7  -3 1448.22 34.3454   2
  -2   7  -3 1471.28 35.7680   2
  -2   7  -3 1485.20 30.8595   2
  -2   7  -3 1497.40 34.5940   2
  -2   7  -3 1481.81 29.6657   2
   2  -7   3 1475.67 37.1097   2
   2  -7   3 1542.16 36.7933   2
   2  -7   3 1314.91 27.0590   1
   2  -7   3 1291.99 26.3818   1
   2  -7   3 1271.07 26.6105   1
  -3   7  -3 3.65809 0.34036   2
  -3   7  -3 3.30728 0.34030   2
  -3   7  -3 3.48129 0.30598   2
  -3   7  -3 3.35669 0.27618   2
  -3   7  -3 3.65776 0.30414   1
  -3   7  -3 2.99261 0.46872   1
   3  -7   3 3.18901 0.35251   2
   3  -7   3 3.13493 0.50486   2
   3  -7   3 3.54091 0.25042   1
   3  -7   3 3.24060 0.29630   1
  -4   7  -3 207.699 4.49236   1
  -4   7  -3 203.431 4.66500   1
  -4   7  -3 207.872 5.77777   1
  -4   7  -3 240.804 6.13335   2
  -4   7  -3 236.682 5.87858   2
   4  -7   3 207.334 4.45234   1
   4  -7   3 212.989 4.54841   1
   4  -7   3 241.031 5.35620   2
   4  -7   3 234.457 6.56142   2
   4  -7   3 244.890 6.36235   2
  -5   7  -3 11.1392 0.41577   1
   5  -7  -1 12.3079 0.54982  -2
  -5   7  -3 12.3079 0.54982   1
  -5   7  -3 12.5808 0.60823   2
   5  -7   3 11.0671 0.42388   1
  -6   7  -3 1.78195 0.22078   2
  -6   7  -3 1.73783 0.22300   2
  -6   7  -3 1.05654 0.15535   1
   6  -7   3 1.21522 0.15779   2
   6  -7   3 1.32777 0.17460   2
   6  -7   3 1.36247 0.13649   1
   6   6  -3 6.95256 0.34981   1
  -6  -6   3 6.98468 0.26085   1
   5   6  -4 79.3934 2.11941  -2
  -5  -6   3 79.3934 2.11941   1
   5   6  -4 75.2676 1.83378  -2
  -5  -6   3 75.2676 1.83378   1
   4   6  -3 251.826 6.86809   1
   4   6  -3 259.685 6.57406   1
   4   6  -3 288.330 6.16902   2
   4   6  -3 295.341 7.28280   2
   4   6  -3 290.229 7.01108   2
   4   6  -3 287.253 6.04122   2
  -4  -6   3 254.921 6.58428   1
  -4  -6   3 254.969 5.55904   1
  -4  -6   3 253.329 5.52442   1
  -4  -6   3 256.692 6.30529   1
  -4  -6   3 258.605 6.34334   1
  -4  -6   3 258.408 5.43975   1
  -4  -6   3 286.894 7.57205   2
  -4  -6   3 288.518 7.28627   2
   3   6  -3 161.740 4.26631   2
   3   6  -3 158.003 4.11239   2
   3   6  -3 160.331 3.53158   2
   3   6  -3 161.440 3.55785   2
   3   6  -3 162.245 3.62703   2
   3   6  -3 164.125 4.05499   2
   3   6  -3 143.785 3.85949   1
   3   6  -3 143.587 4.05007   1
  -3  -6   3 165.581 4.49309   2
  -3  -6   3 164.010 4.29727   2
  -3  -6   3 143.375 3.86330   1
  -3  -6   3 139.200 3.23858   1
  -3  -6   3 138.378 3.19542   1
  -3  -6   3 138.585 3.70185   1
  -3  -6   3 136.712 3.19425   1
  -3  -6   3 144.895 3.65283   1
   2   6  -3 1074.24 25.1163   2
   2   6  -3 1057.82 24.9823   2
   2   6  -3 1102.04 26.0143   2
   2   6  -3 1069.90 21.9764   2
   2   6  -3 1059.20 21.5406   2
   2   6  -3 1085.52 22.0353   2
   2   6  -3 1081.26 22.4498   2
   2   6  -3 972.024 22.7893   1
   2   6  -3 975.789 23.6526   1
   2   6  -3 926.046 21.7686   1
   2   6  -3 893.902 21.4035   1
  -2  -6   3 928.674 18.9441   1
  -2  -6   3 950.107 22.8020   1
  -2  -6   3 930.007 19.2791   1
  -2  -6   3 938.827 19.2581   1
  -2  -6   3 930.694 19.5794   1
  -2  -6   3 956.369 22.0009   1
  -2  -6   3 921.167 21.8965   1
  -2  -6   3 1033.62 24.4316   2
  -2  -6   3 1109.97 26.0161   2
  -2  -6   3 1080.78 24.8257   2
  -2  -6   3 1098.83 27.0150   2
   1   6  -3 140.699 3.73747   2
   1   6  -3 144.097 3.53618   2
   1   6  -3 145.624 3.76682   2
   1   6  -3 127.538 3.53702   1
   1   6  -3 121.966 3.54209   1
   1   6  -3 122.802 3.45218   1
   1   6  -3 121.880 3.39183   1
   1   6  -3 125.585 4.17043   1
  -1  -6   3 139.192 3.72352   2
  -1  -6   3 145.150 3.96036   2
  -1  -6   3 140.169 3.93385   2
  -1  -6   3 125.080 3.18030   1
  -1  -6   3 126.721 3.44721   1
   0   6  -3 566.648 13.1515   1
   0   6  -3 563.767 14.7167   1
   0   6  -3 561.395 13.2210   1
   0   6  -3 549.517 12.4639   1
   0   6  -3 565.742 14.2550   1
   0  -6   1 594.129 14.9825  -2
   0   6  -3 594.129 14.9825   1
   0   6  -3 636.330 14.8576   2
   0   6  -3 635.609 15.4341   2
   0   6  -3 634.610 15.4114   2
   0  -6   3 617.663 14.7004   2
   0  -6   3 643.275 16.6589   2
   0  -6   3 652.671 15.9522   2
   0  -6   3 621.118 16.3993   2
   0  -6   3 636.449 14.6522   2
   0  -6   3 632.237 16.0437   2
   0  -6   3 634.359 13.9798   2
   0  -6   3 563.310 13.2399   1
  -1   6  -3 2.58571 0.26372   2
  -1   6  -3 2.07036 0.42741   2
  -1   6  -3 1.77932 0.18053   2
  -1   6  -3 1.86038 0.25726   2
  -1   6  -3 3.73594 0.51409   1
  -1   6  -3 2.06403 0.46839   1
  -1   6  -3 1.73239 0.26215   1
  -1   6  -3 1.33423 0.33152   1
   1  -6   3 3.02552 0.53533   2
   1  -6   3 1.75227 0.32387   2
   1  -6   3 2.15742 0.29861   2
   1  -6   3 2.87009 0.44725   2
   1  -6   3 1.80091 0.38694   2
   1  -6   3 2.27203 0.32673   2
   1  -6   3 1.64800 0.23583   1
   2  -6   0 35.4486 1.53817  -2
  -2   6  -3 35.4486 1.53817   1
   2  -6   0 37.0674 1.29910  -2
  -2   6  -3 37.0674 1.29910   1
   2  -6   0 46.5793 1.62450  -2
  -2   6  -3 46.5793 1.62450   1
  -3   6  -3 0.23777 0.22032   1
  -3   6  -3 0.21277 0.13045   1
  -3   6  -3 0.01925 0.12946   1
  -3   6  -3 0.32592 0.25723   1
  -3   6  -3 0.08413 0.08482   2
  -3   6  -3 0.29171 0.10914   2
  -3   6  -3 0.32674 0.15970   2
  -3   6  -3 0.15428 0.12518   2
  -3   6  -3 0.18260 0.14593   2
  -3   6  -3 0.11009 0.19561   2
   3  -6   3 -0.0028 0.18405   2
   3  -6   3 0.09763 0.13054   2
   3  -6   3 0.10960 0.20401   2
   3  -6   3 0.16743 0.14553   1
   3  -6   3 0.09593 0.12435   1
   4  -6  -1 53.4567 1.43606  -2
  -4   6  -3 53.4567 1.43606   1
   4  -6  -1 53.2005 1.90241  -2
  -4   6  -3 53.2005 1.90241   1
   4  -6  -1 53.7083 1.33403  -2
  -4   6  -3 53.7083 1.33403   1
  -4   6   1 50.9399 1.36423  -2
   4  -6   3 50.9399 1.36423   1
  -4   6   1 48.5495 1.33992  -2
   4  -6   3 48.5495 1.33992   1
  -5   6  -3 4.90984 0.34250   1
  -5   6  -3 5.64389 0.28944   1
  -5   6  -3 5.91712 0.42168   2
  -5   6  -3 6.13344 0.41039   2
   5  -6   3 5.81721 0.42035   2
   5  -6   3 5.99320 0.38469   2
   5  -6   3 5.23869 0.56302   2
   5  -6   3 5.43531 0.36212   1
   5  -6   3 5.80054 0.36983   1
   6  -6  -2 12.2875 0.52005  -2
  -6   6  -3 12.2875 0.52005   1
  -6   6   2 12.2363 0.46413  -2
   6  -6   3 12.2363 0.46413   1
  -7   6  -3 0.17504 0.10293   2
  -7   6  -3 0.16387 0.08439   1
   7  -6   3 0.19504 0.07785   2
   7  -6   3 0.07402 0.08404   2
   7  -6   3 0.05146 0.07520   1
   6   5  -3 63.5253 1.86871   1
   6   5  -3 79.4800 1.81128   2
   6   5  -3 77.1916 1.76417   2
  -6  -5   3 65.0514 1.52762   1
  -6  -5   3 67.1685 1.82764   1
  -6  -5   3 64.3843 1.48550   1
   5   5  -3 64.8253 1.86143   2
   5   5  -3 63.1210 1.60706   2
   5   5  -3 65.2559 1.61110   2
   5   5  -3 66.9143 1.92630   2
   5   5  -3 64.6387 1.57086   2
   5   5  -3 52.0987 1.85379   1
   5   5  -3 55.3830 1.72107   1
  -5  -5   3 63.3569 1.88177   2
  -5  -5   3 61.8049 1.96505   2
  -5  -5   3 55.8705 1.45156   1
  -5  -5   3 55.4020 1.72151   1
  -5  -5   3 57.9933 1.38273   1
  -5  -5   3 54.8897 1.45836   1
  -5  -5   3 56.3743 1.78606   1
   4   5  -3 111.376 2.52381   2
   4   5  -3 112.866 2.59429   2
   4   5  -3 111.142 2.52339   2
   4   5  -3 108.700 2.95028   2
   4   5  -3 111.779 2.86986   2
   4   5  -3 113.499 3.06861   2
   4   5  -3 101.345 2.82322   1
   4   5  -3 92.0669 3.41675   1
   4   5  -3 99.5823 2.99327   1
  -4  -5   3 98.2294 2.34941   1
  -4  -5   3 99.1405 2.37120   1
  -4  -5   3 97.7935 2.34558   1
  -4  -5   3 95.9144 2.73074   1
  -4  -5   3 98.7554 2.66759   1
  -4  -5   3 101.333 2.85832   1
  -4  -5   3 111.478 3.21125   2
  -4  -5   3 106.923 3.89536   2
  -4  -5   3 112.820 3.05176   2
  -3  -5   2 6.51796 0.66530  -2
   3   5  -3 6.51796 0.66530   1
  -3  -5   2 5.53101 0.64054  -2
   3   5  -3 5.53101 0.64054   1
  -3  -5   2 7.01345 0.53745  -2
   3   5  -3 7.01345 0.53745   1
  -3  -5   2 5.44179 0.47892  -2
   3   5  -3 5.44179 0.47892   1
  -3  -5   2 5.96175 0.67880  -2
   3   5  -3 5.96175 0.67880   1
   3   5  -2 5.69934 0.48579  -2
  -3  -5   3 5.69934 0.48579   1
   3   5  -2 5.06628 0.39926  -2
  -3  -5   3 5.06628 0.39926   1
   2   5  -3 35.9290 1.01975   2
   2   5  -3 36.6801 1.15538   2
   2   5  -3 35.7731 1.14359   2
   2   5  -3 32.8605 1.14543   1
   2   5  -3 31.9372 1.31711   1
   2   5  -3 32.3915 1.38748   1
   2   5  -3 32.7593 1.25979   1
   2   5  -3 33.4411 1.65683   1
   2   5  -3 32.6472 1.18880   1
   2   5  -3 32.5862 1.47322   1
  -2  -5   3 31.3200 1.49510   2
  -2  -5   3 35.4184 1.60776   2
  -2  -5   3 34.4760 1.52156   2
  -2  -5   3 34.7448 1.19967   2
  -2  -5   3 35.0274 1.35940   2
  -2  -5   3 31.8249 1.01621   1
  -2  -5   3 30.8603 1.11831   1
  -1  -5   1 5.40448 0.41751  -2
   1   5  -3 5.40448 0.41751   1
  -1  -5   1 5.55609 0.36920  -2
   1   5  -3 5.55609 0.36920   1
  -1  -5   1 5.53105 0.59048  -2
   1   5  -3 5.53105 0.59048   1
  -1  -5   1 5.82264 0.43375  -2
   1   5  -3 5.82264 0.43375   1
  -1  -5   1 6.27810 0.58528  -2
   1   5  -3 6.27810 0.58528   1
  -1  -5   1 5.94402 0.38874  -2
   1   5  -3 5.94402 0.38874   1
  -1  -5   1 5.35270 0.43796  -2
   1   5  -3 5.35270 0.43796   1
  -1  -5   1 6.84551 0.53989  -2
   1   5  -3 6.84551 0.53989   1
   0   5  -3 38.6170 1.30805   1
   0   5  -3 39.5102 1.42248   1
   0   5  -3 38.5768 1.57429   1
   0   5  -3 38.4187 1.31508   1
   0   5  -3 39.2593 1.36970   1
   0   5  -3 37.9584 1.25001   1
   0   5  -3 38.3353 1.59271   1
   0   5  -3 43.5113 1.29548   2
   0  -5   3 38.0030 1.17351   1
   0  -5   3 42.3879 1.46605   2
   0  -5   3 43.0617 1.63376   2
   0  -5   3 41.5624 1.44806   2
   0  -5   3 43.1176 1.38680   2
   0  -5   3 42.3743 1.28899   2
   0  -5   3 42.4648 1.70276   2
   1  -5   0 286.413 6.58633  -2
  -1   5  -3 286.413 6.58633   1
   1  -5   0 284.434 6.86584  -2
  -1   5  -3 284.434 6.86584   1
   1  -5   0 287.808 6.79472  -2
  -1   5  -3 287.808 6.79472   1
   1  -5   0 280.892 7.38494  -2
  -1   5  -3 280.892 7.38494   1
   1  -5   0 281.890 7.30061  -2
  -1   5  -3 281.890 7.30061   1
   1  -5   0 281.073 7.67133  -2
  -1   5  -3 281.073 7.67133   1
  -2   5  -3 51.9852 1.74079   1
  -2   5  -3 50.3227 1.74283   1
  -2   5  -3 50.0401 1.51318   1
  -2   5  -3 49.2280 1.92737   1
  -2   5  -3 47.5021 1.64581   1
  -2   5  -3 54.8046 1.61596   2
  -2   5  -3 55.1181 1.60855   2
  -2   5  -3 54.0034 1.46507   2
  -2   5  -3 55.3637 2.06357   2
   2  -5   3 55.0888 1.66073   2
   2  -5   3 57.1248 1.88346   2
   2  -5   3 55.3709 1.71456   2
   2  -5   3 55.2102 1.79934   2
   2  -5   3 50.2497 1.41481   1
  -3   5  -3 0.51989 0.12644   2
  -3   5  -3 0.62949 0.31865   2
  -3   5  -3 0.60461 0.26216   1
  -3   5  -3 0.64592 0.23153   1
  -3   5  -3 0.41519 0.27383   1
  -3   5  -3 0.52288 0.26420   1
   3  -5   3 0.51546 0.27054   2
   3  -5   3 1.28644 0.25933   2
   3  -5   3 1.07762 0.21509   2
  -4   5  -3 47.5371 1.48962   2
  -4   5  -3 46.9008 1.36131   2
  -4   5  -3 46.7046 1.32792   2
  -4   5  -3 47.3447 1.45894   2
  -4   5  -3 47.4425 1.90358   2
  -4   5  -3 46.3391 1.44017   2
  -4   5  -3 39.7830 1.16557   1
  -4   5  -3 41.0342 1.53527   1
  -4   5  -3 40.1556 1.64341   1
  -4   5  -3 39.7690 1.16164   1
  -4   5  -3 38.0862 1.02959   1
   4  -5   3 47.8403 1.77215   2
   4  -5   3 47.6618 1.59119   2
   4  -5   3 44.8565 1.62069   2
   4  -5   3 39.5553 1.63031   1
   4  -5   3 41.6402 1.28116   1
  -5   5  -3 43.3908 1.88541   2
  -5   5  -3 44.5407 1.44082   2
  -5   5  -3 43.6275 1.26864   2
  -5   5  -3 44.5359 1.39833   2
  -5   5  -3 38.9587 0.97340   1
  -5   5  -3 39.4620 1.14063   1
   5  -5   3 36.1929 1.62428   1
   5  -5   3 45.3499 1.50823   2
   5  -5   3 43.4155 1.73107   2
  -6   5  -3 85.7066 2.33409   2
  -6   5  -3 88.2643 2.43172   2
  -6   5  -3 72.8994 1.78580   1
   6  -5   3 83.8044 2.13334   2
   6  -5   3 71.0897 1.78499   1
   6  -5   3 66.0459 1.83468   1
  -7   5  -3 156.202 3.83450   2
  -7   5  -3 156.246 3.98896   2
  -7   5  -3 145.327 3.20515   1
   7  -5   3 156.357 3.34269   2
   7  -5   3 156.178 3.47268   2
   7  -5   3 142.762 3.14915   1
   7   4  -3 1.49062 0.14560   2
   7   4  -3 1.30395 0.13879   2
   7   4  -3 1.29096 0.19359   1
  -7  -4   3 1.70379 0.16012   2
  -7  -4   3 1.41408 0.16691   2
  -7  -4   3 1.24010 0.12599   1
  -7  -4   3 1.13536 0.13459   1
  -6  -4   3 15.9193 0.70471  -2
   6   4  -3 15.9193 0.70471   1
   6   4  -3 15.8733 0.70116  -2
  -6  -4   3 15.8733 0.70116   1
   6   4  -3 16.5848 0.60470  -2
  -6  -4   3 16.5848 0.60470   1
   6   4  -3 18.0126 0.59339  -2
  -6  -4   3 18.0126 0.59339   1
   5   4  -3 4.16239 0.32779   2
   5   4  -3 4.15498 0.30733   2
   5   4  -3 4.07032 0.38835   2
   5   4  -3 3.91991 0.30095   2
   5   4  -3 4.10317 0.31002   2
   5   4  -3 3.58405 0.35970   2
   5   4  -3 3.79718 0.37883   1
   5   4  -3 3.63488 0.45323   1
  -5  -4   3 3.94284 0.42274   1
  -5  -4   3 3.40870 0.27734   1
  -5  -4   3 3.14587 0.37770   1
  -5  -4   3 4.00513 0.37276   2
  -4  -4   2 95.7118 2.94614  -2
   4   4  -3 95.7118 2.94614   1
  -4  -4   2 103.198 3.67755  -2
   4   4  -3 103.198 3.67755   1
  -4  -4   2 110.852 2.93966  -2
   4   4  -3 110.852 2.93966   1
  -4  -4   2 106.957 3.06240  -2
   4   4  -3 106.957 3.06240   1
   4   4  -2 111.540 2.95877  -2
  -4  -4   3 111.540 2.95877   1
   4   4  -2 108.798 2.85420  -2
  -4  -4   3 108.798 2.85420   1
   4   4  -2 100.449 2.40143  -2
  -4  -4   3 100.449 2.40143   1
   4   4  -2 107.175 2.75173  -2
  -4  -4   3 107.175 2.75173   1
   3   4  -3 0.80613 0.19632   1
   3   4  -3 1.12839 0.33111   1
   3   4  -3 0.61824 0.36281   1
   3   4  -3 0.99113 0.27739   1
   3   4  -3 1.05766 0.29842   1
   3   4  -3 0.97107 0.22075   1
   3   4  -3 1.40604 0.31393   1
   3   4  -3 1.11864 0.15340   2
   3   4  -3 1.08968 0.19866   2
  -3  -4   3 1.36925 0.36406   2
  -3  -4   3 0.92847 0.18757   2
  -3  -4   3 1.35841 0.23392   2
  -3  -4   3 1.21914 0.24060   2
  -3  -4   3 1.01891 0.31216   2
  -3  -4   3 0.76196 0.32408   2
  -3  -4   3 1.06639 0.27473   2
  -3  -4   3 0.85480 0.20767   1
  -3  -4   3 1.01035 0.18891   1
  -2  -4   1 55.5131 1.74702  -2
   2   4  -3 55.5131 1.74702   1
   2   4  -3 53.8758 1.91273   1
   2   4  -3 52.7781 2.08380   1
   2   4  -3 55.9724 1.97686   1
   2   4  -3 53.6167 1.61987   1
   2   4  -3 54.5813 1.70712   1
   2   4  -3 56.4595 1.69637   1
  -2  -4   3 63.7427 1.96615   2
  -2  -4   3 64.9412 1.79081   2
  -2  -4   3 62.5515 2.26573   2
  -2  -4   3 65.8974 2.27647   2
   1   4  -3 0.86663 0.19745   1
   1   4  -3 0.10897 0.14951   1
   1   4  -3 0.09102 0.10634   1
   1   4  -3 0.14346 0.14441   1
   1   4  -3 -0.0281 0.11128   1
   1   4  -3 0.55045 0.13698   1
   1   4  -3 0.08693 0.13634   1
   1   4  -3 0.06166 0.19488   1
   1   4  -3 -0.0301 0.12860   1
   1   4  -3 0.10995 0.10676   2
  -1  -4   3 0.12231 0.12996   2
  -1  -4   3 0.09781 0.15465   2
  -1  -4   3 0.26407 0.10246   2
  -1  -4   3 -0.1490 0.13133   2
  -1  -4   3 0.15718 0.15889   2
  -1  -4   3 -0.0401 0.12174   2
   0   4  -3 19.7568 0.72263   1
   0   4  -3 20.1429 0.77909   1
   0   4  -3 20.7099 0.84726   1
   0   4  -3 20.8494 0.94238   1
   0   4  -3 21.0240 0.81147   1
   0   4  -3 20.3719 0.85653   1
   0   4  -3 19.3700 0.80577   1
   0   4  -3 19.8461 0.94589   1
   0   4  -3 21.5020 1.00443   2
   0  -4   3 21.3535 0.85228   2
   0  -4   3 22.5617 0.84574   2
   0  -4   3 23.2912 0.96288   2
   0  -4   3 23.0837 0.70874   2
   0  -4   3 22.8280 0.85129   2
   0  -4   3 20.2267 0.62553   1
  -1   4  -3 10.3647 0.65256   2
  -1   4  -3 9.92753 0.53385   2
  -1   4  -3 9.33465 0.46193   2
  -1   4  -3 8.90819 0.46755   1
  -1   4  -3 8.47591 0.54065   1
  -1   4  -3 8.69057 0.40604   1
  -1   4  -3 8.71360 0.53343   1
  -1   4  -3 8.13114 0.49748   1
  -1   4  -3 9.31828 0.49206   1
  -1   4  -3 9.03070 0.60911   1
   1  -4   3 10.5660 0.60151   2
   1  -4   3 9.79572 0.43630   2
   1  -4   3 9.38339 0.56056   2
   1  -4   3 11.0514 0.54111   2
   1  -4   3 8.80108 0.38203   1
  -2   4  -3 348.655 8.19872   1
  -2   4  -3 339.049 7.79465   1
  -2   4  -3 348.584 9.15509   1
  -2   4  -3 340.820 8.71471   1
  -2   4  -3 348.528 8.84871   1
  -2   4  -3 389.091 9.78383   2
  -2   4  -3 372.432 9.39053   2
  -2   4  -3 384.644 10.1965   2
  -2   4  -3 396.954 10.4661   2
   2  -4   3 344.143 9.41739   1
   2  -4   3 350.242 8.05946   1
   2  -4   3 386.877 8.66127   2
   2  -4   3 378.784 8.95796   2
   3  -4  -2 418.306 9.36065  -2
  -3   4  -3 418.306 9.36065   1
   3  -4  -2 415.176 11.0077  -2
  -3   4  -3 415.176 11.0077   1
  -3   4  -3 379.238 9.58629   2
  -3   4  -3 376.566 10.3383   2
  -3   4  -3 371.171 9.17379   2
  -3   4  -3 369.280 9.19424   2
  -3   4  -3 370.179 10.0723   2
  -3   4  -3 355.761 8.82947   2
  -3   4  -3 335.170 8.56450   1
  -3   4  -3 335.172 8.01094   1
   3  -4   3 373.793 9.57384   2
   3  -4   3 378.124 8.55203   2
   3  -4   3 388.679 8.88447   2
   3  -4   3 328.713 9.19818   1
   3  -4   3 328.498 8.50423   1
  -4   4  -3 227.464 5.92973   1
  -4   4  -3 269.969 6.77844   2
  -4   4  -3 267.309 7.78521   2
  -4   4  -3 271.304 6.49650   2
  -4   4  -3 275.401 6.76681   2
   4  -4   3 235.295 6.74877   1
   4  -4   3 233.945 6.12662   1
   4  -4   3 268.903 7.07962   2
   4  -4   3 260.714 6.64688   2
   4  -4   3 273.937 6.61102   2
   5  -4  -3 402.474 8.71144  -2
  -5   4  -3 402.474 8.71144   1
  -5   4  -3 401.220 8.21006   1
  -5   4  -3 460.392 9.31641   2
  -5   4   3 408.773 10.3414  -2
   5  -4   3 408.773 10.3414   1
  -5   4   3 395.354 11.2710  -2
   5  -4   3 395.354 11.2710   1
  -6   4  -3 90.8534 2.20509   1
  -6   4  -3 90.1098 2.18819   1
  -6   4  -3 104.820 2.86246   2
  -6   4  -3 104.279 2.76590   2
   6  -4   3 102.618 2.51960   2
   6  -4   3 89.5277 2.56910   1
  -7   4   4 25.2862 0.75595  -2
   7  -4   3 25.2862 0.75595   1
   7   3  -3 1.68294 0.25719   1
  -7  -3   3 4.19911 0.35596  -2
   7   3  -3 4.19911 0.35596   1
  -7  -3   3 1.86296 0.22122   2
   7   3  -3 3.78179 0.26850  -2
  -7  -3   3 3.78179 0.26850   1
   6   3  -3 14.9255 0.74347   1
   6   3  -3 15.8613 0.77275   1
   6   3  -3 15.1386 0.72305   2
   6   3  -3 18.2269 0.74979   2
   6   3  -3 18.4697 0.63872   2
  -6  -3   3 17.9199 0.74773   2
  -6  -3   3 17.3705 0.77047   2
  -6  -3   3 15.9031 0.74486   1
  -6  -3   3 15.9149 0.57503   1
   5   3  -3 0.63782 0.19484   2
   5   3  -3 0.83419 0.18818   2
   5   3  -3 0.73828 0.16157   2
   5   3  -3 0.48349 0.12744   2
   5   3  -3 0.61103 0.16167   2
   5   3  -3 0.42511 0.19325   2
   5   3  -3 0.59395 0.16945   2
   5   3  -3 0.48666 0.18655   1
   5   3  -3 0.49127 0.28696   1
   5   3  -3 0.78641 0.22115   1
  -5  -3   3 0.83243 0.21148   2
  -5  -3   3 0.54635 0.33219   2
  -5  -3   3 0.69365 0.16173   1
  -5  -3   3 0.57211 0.22786   1
  -5  -3   3 0.57831 0.20162   1
   4   3  -3 0.97875 0.32660   1
   4   3  -3 0.57841 0.27336   1
   4   3  -3 0.64985 0.26257   1
   4   3  -3 0.91446 0.22901   1
   4   3  -3 0.97323 0.22266   1
   4   3  -3 1.12251 0.20793   2
   4   3  -3 0.80841 0.14758   2
  -4  -3   3 0.93337 0.22730   1
  -4  -3   3 0.80750 0.26028   2
  -4  -3   3 0.96696 0.32702   2
  -4  -3   3 0.88998 0.34215   2
  -4  -3   3 1.07226 0.22721   2
  -4  -3   3 1.26950 0.24727   2
  -4  -3   3 1.14206 0.20538   2
   3   3  -3 0.21311 0.16832   1
   3   3  -3 0.34485 0.18929   1
   3   3  -3 1.18775 0.26243   1
   3   3  -3 0.42408 0.19811   1
   3   3  -3 0.24575 0.12308   1
   3   3  -3 0.38717 0.25418   1
   3   3  -3 0.30710 0.19134   1
   3   3  -3 0.36515 0.14346   2
  -3  -3   3 0.21072 0.21736   2
  -3  -3   3 0.31310 0.16951   2
  -3  -3   3 0.48774 0.23115   2
  -3  -3   3 0.46157 0.14485   2
  -3  -3   3 0.23633 0.11526   2
  -3  -3   3 0.30203 0.18971   2
  -3  -3   3 0.44043 0.25003   2
   2   3  -3 181.244 4.48159   1
   2   3  -3 179.593 5.13691   1
   2   3  -3 181.109 4.93336   1
   2   3  -3 180.793 4.89620   1
   2   3  -3 181.545 5.35776   1
   2   3  -3 176.443 4.74399   1
   2   3  -3 184.461 4.41533   1
  -2  -3   3 207.439 4.80669   2
  -2  -3   3 195.969 4.94046   2
  -2  -3   3 208.002 5.67606   2
  -2  -3   3 205.659 6.02416   2
  -2  -3   3 203.709 5.52955   2
  -2  -3   3 203.984 5.50738   2
   1   3  -3 23.6903 0.83497   1
   1   3  -3 22.9224 0.78523   1
   1   3  -3 22.7030 0.93262   1
   1   3  -3 22.3368 0.92498   1
   1   3  -3 23.5582 0.79192   1
   1   3  -3 23.2931 1.01016   1
   1   3  -3 23.8563 0.85110   1
   1   3  -3 23.5838 0.82439   1
  -1  -3   3 26.5005 0.91804   2
  -1  -3   3 26.7031 1.06864   2
  -1  -3   3 25.8544 0.67368   2
  -1  -3   3 26.1645 0.88057   2
  -1  -3   3 26.3404 1.01525   2
  -1  -3   3 26.1762 1.00471   2
  -1  -3   3 26.0142 0.80705   2
  -1  -3   3 23.4233 0.70654   1
   0  -3  -1 627.142 15.5523  -2
   0   3  -3 627.142 15.5523   1
   0  -3  -1 607.030 13.2040  -2
   0   3  -3 607.030 13.2040   1
   0  -3  -1 615.826 15.5690  -2
   0   3  -3 615.826 15.5690   1
   0  -3  -1 628.208 15.4619  -2
   0   3  -3 628.208 15.4619   1
   0  -3  -1 618.271 13.8193  -2
   0   3  -3 618.271 13.8193   1
   0  -3  -1 618.846 16.9887  -2
   0   3  -3 618.846 16.9887   1
   0   3  -3 431.008 11.0714   1
   0   3  -3 452.951 10.1798   1
   0   3   1 624.041 13.9695  -2
   0  -3   3 624.041 13.9695   1
   0   3   1 576.998 15.2919  -2
   0  -3   3 576.998 15.2919   1
  -1   3  -3 1047.84 29.3084   1
  -1   3  -3 1078.75 22.7332   1
  -1   3  -3 1070.61 26.9096   1
  -1   3  -3 1064.70 26.4931   1
  -1   3  -3 1096.42 23.7928   1
  -1   3  -3 1081.69 26.5984   1
  -1   3  -3 1053.27 26.2215   1
  -1   3  -3 1185.73 30.4343   2
  -1   3  -3 1180.39 29.6277   2
   1  -3   3 1085.15 24.1514   1
   1  -3   3 1052.39 26.5529   1
   1  -3   3 1069.50 28.1315   1
   1  -3   3 1215.33 29.8436   2
   1  -3   3 1261.50 26.7107   2
   1  -3   3 1217.99 27.2074   2
   1  -3   3 1209.38 25.6858   2
   2  -3  -2 538.810 14.2716  -2
  -2   3  -3 538.810 14.2716   1
   2  -3  -2 568.871 13.0854  -2
  -2   3  -3 568.871 13.0854   1
   2  -3  -2 568.886 12.4625  -2
  -2   3  -3 568.886 12.4625   1
   2  -3  -2 616.733 16.0465  -2
  -2   3  -3 616.733 16.0465   1
   2  -3  -2 548.290 14.5993  -2
  -2   3  -3 548.290 14.5993   1
  -2   3   2 593.154 13.1914  -2
   2  -3   3 593.154 13.1914   1
  -2   3   2 604.237 14.7981  -2
   2  -3   3 604.237 14.7981   1
  -2   3   2 619.007 15.4558  -2
   2  -3   3 619.007 15.4558   1
  -2   3   2 517.761 14.3993  -2
   2  -3   3 517.761 14.3993   1
  -3   3  -3 439.901 9.62391   1
  -3   3  -3 432.355 10.1853   1
  -3   3  -3 431.584 11.3617   1
  -3   3  -3 432.535 10.9591   1
  -3   3  -3 434.586 12.2980   1
  -3   3  -3 486.420 12.2491   2
  -3   3  -3 491.530 12.7722   2
  -3   3  -3 499.103 13.2602   2
  -3   3  -3 478.911 11.8310   2
   3  -3   3 491.673 10.7879   2
   3  -3   3 476.960 12.2997   2
   3  -3   3 480.777 11.3046   2
   3  -3   3 430.516 11.0808   1
   3  -3   3 439.881 10.1617   1
   3  -3   3 437.474 11.4102   1
   3  -3   3 435.625 11.8630   1
   4  -3  -3 134.784 4.24777  -2
  -4   3  -3 134.784 4.24777   1
   4  -3  -3 134.838 3.80144  -2
  -4   3  -3 134.838 3.80144   1
  -4   3   3 141.438 3.63124  -2
   4  -3   3 141.438 3.63124   1
  -4   3   3 131.552 4.14069  -2
   4  -3   3 131.552 4.14069   1
  -4   3   3 141.680 4.28613  -2
   4  -3   3 141.680 4.28613   1
  -4   3   3 137.993 3.83236  -2
   4  -3   3 137.993 3.83236   1
  -5   3  -3 0.05660 0.14719   2
  -5   3  -3 0.04705 0.11068   2
  -5   3  -3 -0.1273 0.18899   2
  -5   3  -3 -0.1108 0.09636   2
  -5   3  -3 0.01012 0.10793   2
  -5   3  -3 -0.0067 0.05644   2
  -5   3  -3 0.01864 0.11698   1
  -5   3  -3 -0.1203 0.14682   1
   5  -3   3 -0.0471 0.12163   2
   5  -3   3 0.04870 0.18895   1
   5  -3   3 0.06277 0.15420   1
  -6   3  -3 5.46987 0.37148   2
  -6   3  -3 5.05395 0.37450   2
  -6   3  -3 4.56781 0.68156   2
   6  -3  -4 4.86884 0.38294  -2
  -6   3  -3 4.86884 0.38294   1
  -6   3  -3 4.66887 0.35644   1
   6  -3   3 4.62242 0.42306   1
   6  -3   3 3.75576 0.56841   1
  -7   3  -3 0.05957 0.10662   1
  -7   3  -3 0.19483 0.13258   2
  -7   3  -3 0.20714 0.12244   2
   7  -3   3 0.02875 0.08174   2
   8   2  -3 0.26233 0.07145   2
   8   2  -3 0.24804 0.09760   1
  -8  -2   3 0.26096 0.08402   2
  -8  -2   3 0.17154 0.06467   1
   7   2  -3 0.13986 0.14363   1
   7   2  -3 0.03401 0.14404   1
  -7  -2   3 0.14238 0.12728   2
  -7  -2   3 0.09649 0.12407   2
  -7  -2   3 -0.0391 0.09816   1
   6   2  -3 13.0587 0.63767   2
   6   2  -3 12.6751 0.53286   2
   6   2  -3 11.1612 0.63577   1
   6   2  -3 11.0402 0.63151   1
  -6  -2   3 12.5907 0.63305   2
  -6  -2   3 13.1346 0.65943   2
  -6  -2   3 11.4622 0.48997   1
  -5  -2   1 26.1489 1.41407  -2
   5   2  -3 26.1489 1.41407   1
  -5  -2   1 28.9849 1.08015  -2
   5   2  -3 28.9849 1.08015   1
  -5  -2   1 27.3970 1.00435  -2
   5   2  -3 27.3970 1.00435   1
  -5  -2   1 27.2420 1.01285  -2
   5   2  -3 27.2420 1.01285   1
   5   2  -1 26.5207 0.71843  -2
  -5  -2   3 26.5207 0.71843   1
   5   2  -1 25.1707 0.83482  -2
  -5  -2   3 25.1707 0.83482   1
   4   2  -3 10.3760 0.66758   1
   4   2  -3 10.1525 0.71576   1
   4   2  -3 10.7025 0.88738   1
   4   2  -3 10.5591 0.57640   1
   4   2  -3 10.1492 0.72196   1
   4   2  -3 11.7582 0.45691   2
   4   2  -3 11.7026 0.55960   2
   4   2  -3 11.6478 0.70061   2
  -4  -2   3 11.9966 0.84269   2
  -4  -2   3 11.9251 0.82934   2
  -4  -2   3 11.4430 0.58039   2
  -4  -2   3 11.9714 0.78604   2
  -4  -2   3 12.2314 0.58265   2
  -4  -2   3 11.1169 0.81206   2
  -4  -2   3 9.97286 0.54311   1
  -3  -2   0 58.9445 1.93620  -2
   3   2  -3 58.9445 1.93620   1
  -3  -2   0 59.9473 2.17011  -2
   3   2  -3 59.9473 2.17011   1
  -3  -2   0 59.6462 1.72549  -2
   3   2  -3 59.6462 1.72549   1
  -3  -2   0 60.9147 1.74501  -2
   3   2  -3 60.9147 1.74501   1
  -3  -2   0 58.9887 2.05312  -2
   3   2  -3 58.9887 2.05312   1
  -3  -2   0 67.3408 1.80271  -2
   3   2  -3 67.3408 1.80271   1
  -3  -2   0 62.9160 1.81423  -2
   3   2  -3 62.9160 1.81423   1
  -3  -2   0 65.4274 2.21486  -2
   3   2  -3 65.4274 2.21486   1
   2   2  -3 34.8348 1.10215   1
   2   2  -3 35.4489 1.07439   1
   2   2  -3 35.0038 1.36021   1
   2   2  -3 35.5869 1.10746   1
   2   2  -3 35.2425 1.31247   1
   2   2  -3 35.5011 0.98742   1
   2   2  -3 36.6980 1.23915   1
   2   2  -3 35.6242 1.20058   1
   2   2  -3 35.1613 1.14771   1
   2   2  -3 38.1752 1.39643   2
   2   2  -3 40.5219 1.25245   2
  -2  -2   3 39.9902 1.01204   2
  -2  -2   3 40.4478 1.39255   2
  -2  -2   3 38.5001 1.44622   2
  -2  -2   3 38.9723 1.40855   2
  -2  -2   3 35.4087 1.01961   1
  -2  -2   3 35.7170 0.99103   1
  -1  -2  -1 606.216 13.4921  -2
   1   2  -3 606.216 13.4921   1
  -1  -2  -1 587.510 12.6396  -2
   1   2  -3 587.510 12.6396   1
  -1  -2  -1 606.344 15.0397  -2
   1   2  -3 606.344 15.0397   1
  -1  -2  -1 577.963 14.7480  -2
   1   2  -3 577.963 14.7480   1
  -1  -2  -1 592.887 13.1986  -2
   1   2  -3 592.887 13.1986   1
  -1  -2  -1 583.787 16.3576  -2
   1   2  -3 583.787 16.3576   1
  -1  -2  -1 584.696 15.0209  -2
   1   2  -3 584.696 15.0209   1
   1   2   1 594.572 13.4250  -2
  -1  -2   3 594.572 13.4250   1
   0   2  -3 623.493 15.4849   2
   0   2  -3 604.067 15.5067   2
   0   2  -3 619.262 16.8295   2
   0   2  -3 532.333 13.6716   1
   0   2  -3 541.443 13.4733   1
   0   2  -3 541.427 11.5637   1
   0   2  -3 538.876 13.5141   1
   0   2  -3 535.996 12.0601   1
   0   2  -3 552.143 14.8978   1
   0   2  -3 534.451 12.2052   1
   0  -2   3 537.948 12.2251   1
   0  -2   3 604.319 13.5951   2
   0  -2   3 614.388 13.0757   2
   0  -2   3 613.283 15.2035   2
  -1   2  -3 0.89420 0.17202   1
  -1   2  -3 0.88317 0.16192   1
  -1   2  -3 0.99606 0.20719   1
  -1   2  -3 0.89401 0.16979   1
  -1   2  -3 1.18077 0.18628   1
  -1   2  -3 1.31707 0.20720   1
  -1   2  -3 1.33913 0.19966   2
  -1   2  -3 1.35026 0.21673   2
  -1   2  -3 0.98188 0.21191   2
   1  -2   3 1.03937 0.13705   1
   1  -2   3 1.12288 0.14338   2
   1  -2   3 1.35056 0.13565   2
   1  -2   3 0.95681 0.18419   2
  -2   2  -3 16.7449 0.77243   2
  -2   2  -3 16.6113 0.80723   2
  -2   2  -3 17.8087 0.75944   2
  -2   2  -3 15.8963 0.68090   2
  -2   2  -3 14.8944 0.70505   1
  -2   2  -3 13.9873 0.60867   1
  -2   2  -3 15.1864 0.76444   1
  -2   2  -3 15.2153 0.61895   1
  -2   2  -3 14.2226 0.67241   1
   2  -2   3 17.3826 0.70819   2
   2  -2   3 16.5694 0.58949   2
   2  -2   3 14.6654 0.73088   1
   2  -2   3 15.1124 0.71085   1
   2  -2   3 15.2003 0.71527   1
  -3   2  -3 4.54866 0.42237   1
  -3   2  -3 4.57615 0.47862   1
  -3   2  -3 3.33283 0.41430   1
  -3   2  -3 4.72767 0.45113   2
  -3   2  -3 4.74587 0.44662   2
  -3   2  -3 4.72878 0.37452   2
  -3   2  -3 4.97582 0.48731   2
  -3   2  -3 5.07460 0.31317   2
   3  -2   3 5.37698 0.36534   2
   3  -2   3 4.94227 0.33212   2
   3  -2   3 5.27565 0.42787   2
   3  -2   3 4.39969 0.43245   1
   3  -2   3 4.24004 0.35344   1
   3  -2   3 4.20952 0.40917   1
   3  -2   3 4.06948 0.32664   1
  -4   2  -3 28.9620 1.39227   2
  -4   2  -3 29.3262 1.13600   2
  -4   2  -3 28.0288 0.95263   2
  -4   2  -3 29.1682 1.34530   2
  -4   2  -3 28.3706 0.98455   2
  -4   2  -3 28.8286 1.35616   2
  -4   2  -3 24.7099 1.14754   1
  -4   2  -3 25.6808 1.23045   1
  -4   2  -3 26.1857 1.31707   1
   4  -2   3 24.9731 1.02550   1
   4  -2   3 24.8811 1.17912   1
   4  -2   3 23.1579 1.18867   1
   4  -2   3 28.8082 1.05042   2
   4  -2   3 27.6430 1.09824   2
  -5   2  -3 17.8773 0.51716   2
  -5   2  -3 17.3150 0.72172   2
  -5   2  -3 18.4679 0.77227   2
  -5   2  -3 18.9901 0.74023   2
  -5   2  -3 18.3321 0.68422   2
  -5   2  -3 17.7156 1.09130   2
  -5   2  -3 15.4184 0.56421   1
  -5   2  -3 15.3067 0.52176   1
  -5   2  -3 15.7684 0.65446   1
  -5   2  -3 15.3859 0.56700   1
   5  -2   3 16.2619 0.96699   1
   5  -2   3 14.9546 0.74787   1
   5  -2   3 14.2042 0.94965   1
   5  -2   3 15.9841 0.81884   1
   5  -2   3 18.2902 0.80943   2
  -6   2  -3 4.44462 0.15888   2
  -6   2  -3 4.10590 0.27968   1
   6  -2  -5 40.3957 1.12437  -2
  -6   2  -3 40.3957 1.12437   1
   6  -2  -5 41.9910 1.19439  -2
  -6   2  -3 41.9910 1.19439   1
  -6   2   5 39.3482 1.42712  -2
   6  -2   3 39.3482 1.42712   1
   6  -2   3 4.18620 0.44671   1
  -7   2  -3 33.0284 0.87791   1
  -7   2  -3 33.6852 0.94127   1
  -7   2  -3 32.9409 0.88305   1
  -7   2  -3 38.6898 1.14609   2
   7  -2   3 37.7836 0.98608   2
  -8  -1   2 0.84227 0.15653  -2
   8   1  -3 0.84227 0.15653   1
  -8  -1   2 0.74463 0.12067  -2
   8   1  -3 0.74463 0.12067   1
   8   1  -2 1.01210 0.12608  -2
  -8  -1   3 1.01210 0.12608   1
   7   1  -3 9.22865 0.41943   2
   7   1  -3 8.05791 0.50405   1
   7   1  -3 8.05148 0.41775   1
   7   1  -3 7.44046 0.49926   1
  -7  -1   3 8.54092 0.48372   2
  -7  -1   3 8.79137 0.46854   2
  -7  -1   3 8.37875 0.39013   1
  -6  -1   1 46.3440 1.54508  -2
   6   1  -3 46.3440 1.54508   1
  -6  -1   1 44.5761 1.48668  -2
   6   1  -3 44.5761 1.48668   1
  -6  -1   1 41.7026 1.45631  -2
   6   1  -3 41.7026 1.45631   1
   6   1  -1 47.9231 1.25135  -2
  -6  -1   3 47.9231 1.25135   1
   6   1  -1 48.0379 1.08926  -2
  -6  -1   3 48.0379 1.08926   1
   5   1  -3 1.24117 0.32944   1
   5   1  -3 1.01871 0.22243   1
   5   1  -3 1.62534 0.27602   1
   5   1  -3 1.25359 0.24445   1
   5   1  -3 1.35637 0.19186   2
   5   1  -3 1.20982 0.23187   2
   5   1  -3 1.22090 0.34160   2
  -5  -1   3 1.45743 0.25793   2
  -5  -1   3 1.09665 0.35391   2
  -5  -1   3 1.27244 0.26710   2
   4   1  -3 7.35951 0.45062   1
   4   1  -3 7.26969 0.44996   1
   4   1  -3 8.20608 0.60353   1
   4   1  -3 6.57063 0.71054   1
   4   1  -3 8.38664 0.62828   1
   4   1  -3 8.80079 0.46151   2
   4   1  -3 8.15173 0.36516   2
  -4  -1   0 50.5922 1.50730  -2
   4   1  -3 50.5922 1.50730   1
  -4  -1   0 51.9227 1.85135  -2
   4   1  -3 51.9227 1.85135   1
  -4  -1   3 8.28562 0.69161   2
  -4  -1   3 8.58950 0.46708   2
  -4  -1   3 8.71487 0.66890   2
  -4  -1   3 8.66813 0.66972   2
   3   1  -3 23.2782 0.91559   1
   3   1  -3 22.4328 0.80902   1
   3   1  -3 22.5104 0.98268   1
   3   1  -3 23.5380 1.00502   1
   3   1  -3 21.6444 1.10268   1
   3   1  -3 23.2551 0.82697   1
   3   1  -3 27.3541 1.01538   2
   3   1  -3 27.2174 1.13098   2
  -3  -1   3 25.1040 1.15105   2
  -3  -1   3 27.3899 1.09857   2
  -3  -1   3 25.1288 1.14032   2
  -3  -1   3 25.0162 1.05465   2
  -3  -1   3 26.5061 0.81567   2
  -3  -1   3 22.8193 0.73112   1
   2   1  -3 11.1786 0.57523   1
   2   1  -3 11.1306 0.45029   1
   2   1  -3 11.2236 0.44800   1
   2   1  -3 12.2455 0.46912   1
   2   1  -3 11.4153 0.64888   1
   2   1  -3 13.3520 0.43219   1
   2   1  -3 14.1686 0.49353   1
   2   1  -3 11.3414 0.52099   1
   2   1  -3 11.1047 0.56636   1
   2   1  -3 16.0609 0.70191   2
   2   1  -3 16.3068 0.63364   2
   2   1  -3 12.5532 0.68045   2
  -2  -1   3 12.6961 0.36090   2
  -2  -1   3 13.3707 0.67654   2
  -2  -1   3 12.8579 0.62607   2
  -2  -1   3 15.2251 0.63257   2
  -2  -1   3 11.1671 0.43382   1
  -2  -1   3 11.4873 0.44016   1
   1   1  -3 348.308 8.57604   1
   1   1  -3 345.997 7.67101   1
   1   1  -3 348.313 8.84825   1
   1   1  -3 346.284 8.82690   1
   1   1  -3 331.083 9.15581   1
   1   1  -3 341.570 9.58354   1
   1   1  -3 342.747 7.42779   1
   1   1  -3 389.432 8.23276   2
   1   1  -3 390.211 10.7703   2
   1   1  -3 368.289 8.68732   2
   1   1  -3 390.277 9.72667   2
  -1  -1   3 346.163 7.85241   1
  -1  -1   3 388.310 9.80629   2
  -1  -1   3 386.138 9.89828   2
   0   1  -3 170.353 4.88868   2
   0   1  -3 172.835 4.53623   2
   0   1  -3 169.365 3.95819   2
   0   1  -3 173.081 4.92954   2
   0   1  -3 176.337 4.43264   2
   0   1  -3 175.770 4.59370   2
   0   1  -3 171.881 3.86597   2
   0   1  -3 156.220 4.22040   1
   0   1  -3 156.678 4.00091   1
   0   1  -3 152.282 3.47024   1
   0   1  -3 150.691 3.91480   1
   0   1  -3 154.648 4.08899   1
   0   1  -3 155.004 3.58130   1
   0   1  -3 150.846 4.40600   1
   0  -1   3 151.123 3.55231   1
  -1   1  -3 207.705 4.76237   1
  -1   1  -3 199.613 5.79139   1
  -1   1  -3 204.850 4.51951   1
  -1   1  -3 201.819 5.54459   1
  -1   1  -3 195.212 5.36909   1
  -1   1  -3 204.525 5.31823   1
  -1   1  -3 231.082 5.94105   2
  -1   1  -3 221.095 5.01072   2
  -1   1  -3 228.694 6.15207   2
  -1   1  -3 218.763 5.87026   2
   1  -1   3 203.764 4.67361   1
   1  -1   3 220.406 5.05642   2
  -2   1  -3 1.63807 0.23802   2
  -2   1  -3 1.63793 0.22953   2
  -2   1  -3 1.23395 0.25127   2
  -2   1  -3 1.39249 0.26795   2
  -2   1  -3 1.39792 0.24918   2
  -2   1  -3 1.21619 0.23478   1
  -2   1  -3 1.89581 0.27109   1
  -2   1  -3 1.01904 0.23987   1
  -2   1  -3 1.00750 0.21279   1
  -2   1  -3 1.84686 0.22086   1
   2  -1   3 1.21470 0.23618   1
   2  -1   3 1.40876 0.17648   1
   2  -1   3 1.27697 0.17146   2
   3  -1  -4 626.225 14.2105  -2
  -3   1  -3 626.225 14.2105   1
   3  -1  -4 603.889 15.8569  -2
  -3   1  -3 603.889 15.8569   1
   3  -1  -4 623.459 17.5105  -2
  -3   1  -3 623.459 17.5105   1
  -3   1   4 607.073 16.1975  -2
   3  -1   3 607.073 16.1975   1
  -3   1   4 643.647 14.2380  -2
   3  -1   3 643.647 14.2380   1
  -4   1  -3 36.9773 1.49753   1
  -4   1  -3 37.0070 1.11890   1
  -4   1  -3 37.0306 1.68088   1
  -4   1  -3 38.2343 1.65311   1
  -4   1  -3 43.9928 1.36341   2
  -4   1  -3 42.4579 1.80751   2
  -4   1  -3 42.8884 1.80810   2
  -4   1  -3 42.7898 1.77547   2
   4  -1   3 45.9942 1.45387   2
   4  -1   3 43.8987 1.47386   2
   4  -1   3 38.9630 1.56315   1
   4  -1   3 37.3362 1.31160   1
   4  -1   3 39.7593 1.34526   1
   4  -1   3 37.4000 1.59892   1
   5  -1  -5 664.453 13.5258  -2
  -5   1  -3 664.453 13.5258   1
   5  -1  -5 631.691 13.7139  -2
  -5   1  -3 631.691 13.7139   1
   5  -1  -5 633.992 13.3460  -2
  -5   1  -3 633.992 13.3460   1
   5  -1  -5 631.820 12.4403  -2
  -5   1  -3 631.820 12.4403   1
   5  -1  -5 662.587 15.5831  -2
  -5   1  -3 662.587 15.5831   1
  -5   1   5 651.636 18.1024  -2
   5  -1   3 651.636 18.1024   1
  -5   1   5 716.349 16.2095  -2
   5  -1   3 716.349 16.2095   1
  -5   1   5 620.684 18.8076  -2
   5  -1   3 620.684 18.8076   1
  -5   1   5 745.567 16.9226  -2
   5  -1   3 745.567 16.9226   1
  -6   1  -3 4.43368 0.26663   1
  -6   1  -3 4.51090 0.28137   1
  -6   1  -3 4.45869 0.35752   1
  -6   1  -3 4.60897 0.30692   1
  -6   1  -3 5.38813 0.40599   2
  -6   1  -3 5.43815 0.37248   2
  -6   1  -3 5.40728 0.19962   2
   6  -1   3 4.93482 0.44537   1
   6  -1   3 4.47107 0.46428   1
   6  -1   3 5.02207 0.33714   2
   7  -1  -6 327.877 6.73730  -2
  -7   1  -3 327.877 6.73730   1
   7  -1  -6 334.335 6.95408  -2
  -7   1  -3 334.335 6.95408   1
   7  -1  -6 329.824 6.83109  -2
  -7   1  -3 329.824 6.83109   1
   8   0  -3 18.9028 0.55922   1
   8   0  -3 19.1057 0.68195   1
   8   0  -3 20.8004 0.57900   2
  -8   0   3 18.3823 0.52596   1
  -8   0   3 20.5862 0.67893   2
  -8   0   3 20.6603 0.58888   2
   7   0  -3 5.12889 0.34210   1
   7   0  -3 4.62177 0.41936   1
   7   0  -3 5.71211 0.43203   1
  -7   0   3 5.59185 0.39457   2
  -7   0   3 5.67515 0.38745   2
   7   0  -1 9.92680 0.48078  -2
  -7   0   3 9.92680 0.48078   1
   6   0  -3 4.84125 0.54802   1
   6   0  -3 4.55833 0.36517   1
   6   0  -3 4.82041 0.42652   1
   6   0  -3 5.30100 0.45298   1
   6   0  -3 6.08366 0.35594   2
  -6   0   3 5.18015 0.32393   1
  -6   0   3 4.62527 0.26861   1
  -6   0   3 5.67050 0.44087   2
  -6   0   3 5.93612 0.44647   2
  -6   0   3 5.48288 0.40309   2
  -6   0   3 5.33582 0.65941   2
   5   0  -3 190.248 5.83823   1
   5   0  -3 188.886 4.96768   1
   5   0  -3 193.266 5.02261   1
   5   0  -3 184.882 4.90147   1
   5   0  -3 192.396 5.59396   1
   5   0  -3 212.991 5.41226   2
   5   0  -3 212.049 5.17988   2
  -5   0   3 210.252 5.33463   2
  -5   0   3 211.608 5.65650   2
  -5   0   3 219.942 6.34845   2
  -5   0   3 206.971 6.57427   2
  -5   0   3 211.565 5.42488   2
   4   0  -3 74.5579 2.25413   2
   4   0  -3 76.8877 2.15291   2
   4   0  -3 74.8367 2.51407   2
   4   0  -3 70.8984 2.44958   1
   4   0  -3 71.3969 2.40480   1
   4   0  -3 70.2950 2.59610   1
   4   0  -3 75.0444 2.37285   1
   4   0  -3 71.8319 2.05260   1
  -4   0  -1 68.9225 1.94301  -2
   4   0  -3 68.9225 1.94301   1
  -4   0   3 73.9414 2.66478   2
  -4   0   3 77.4952 2.21915   2
  -4   0   3 82.2516 2.63209   2
  -4   0   3 78.3914 2.11688   2
  -4   0   3 75.4401 2.66664   2
  -4   0   3 78.4604 2.50335   2
  -4   0   3 70.9883 1.99216   1
   3   0  -3 48.4095 1.71595   2
   3   0  -3 50.8456 1.56191   2
   3   0  -3 49.9345 1.84721   2
   3   0  -3 44.9395 1.53495   1
   3   0  -3 42.4083 1.28750   1
   3   0  -3 44.9259 1.58510   1
   3   0  -3 53.5195 1.77421   1
   3   0  -3 45.7499 1.22014   1
   3   0  -3 42.9299 1.56242   1
  -3   0   3 43.4072 1.30405   1
  -3   0   3 43.9295 1.27856   1
  -3   0   3 50.0840 1.63091   2
  -3   0   3 49.3555 1.34981   2
  -3   0   3 49.0484 1.73604   2
  -3   0   3 50.2810 1.80362   2
  -2   0  -2 348.283 8.50766  -2
   2   0  -3 348.283 8.50766   1
  -2   0  -2 324.517 8.77141  -2
   2   0  -3 324.517 8.77141   1
  -2   0  -2 322.004 7.06762  -2
   2   0  -3 322.004 7.06762   1
  -2   0  -2 318.493 9.10166  -2
   2   0  -3 318.493 9.10166   1
  -2   0  -2 310.205 8.44653  -2
   2   0  -3 310.205 8.44653   1
   2   0   2 318.803 7.46994  -2
  -2   0   3 318.803 7.46994   1
   1   0  -3 837.760 22.5237   1
   1   0  -3 808.305 21.6221   1
   1   0  -3 848.908 17.9830   1
   1   0  -3 798.937 17.3944   1
   1   0  -3 837.628 20.7396   1
   1   0  -3 813.521 20.0958   1
   1   0  -3 837.732 20.6634   1
   1   0  -3 944.037 23.6479   2
   1   0  -3 910.163 19.7384   2
   1   0  -3 948.049 20.7008   2
   1   0  -3 923.897 25.7005   2
   1   0  -3 933.723 23.1408   2
   1   0  -3 960.227 24.6391   2
  -1   0   3 931.559 23.2881   2
  -1   0   3 793.897 18.4727   1
   0   0  -3 488.782 10.2734  -2
   0   0  -3 488.782 10.2734   1
   0   0  -3 488.198 10.6583  -2
   0   0  -3 488.198 10.6583   1
   0   0  -3 452.814 12.7019  -2
   0   0  -3 452.814 12.7019   1
   0   0  -3 454.301 12.2110  -2
   0   0  -3 454.301 12.2110   1
   0   0  -3 486.505 13.2635  -2
   0   0  -3 486.505 13.2635   1
   0   0  -3 496.328 11.9271  -2
   0   0  -3 496.328 11.9271   1
   0   0  -3 482.562 12.0620  -2
   0   0  -3 482.562 12.0620   1
  -1   0  -3 0.20253 0.09983   1
  -1   0  -3 0.15678 0.10172   1
  -1   0  -3 0.38512 0.10946   1
  -1   0  -3 0.53310 0.13868   1
  -1   0  -3 0.44928 0.12661   1
  -1   0  -3 0.32402 0.13712   1
   1   0   3 0.34288 0.11193   1
   2   0  -4 96.1963 3.05797  -2
  -2   0  -3 96.1963 3.05797   1
   2   0  -4 92.9031 2.24061  -2
  -2   0  -3 92.9031 2.24061   1
   2   0  -4 93.2603 2.87177  -2
  -2   0  -3 93.2603 2.87177   1
   2   0  -4 95.8618 2.54253  -2
  -2   0  -3 95.8618 2.54253   1
   2   0  -4 94.5300 2.82105  -2
  -2   0  -3 94.5300 2.82105   1
  -2   0   4 90.1815 2.18727  -2
   2   0   3 90.1815 2.18727   1
  -3   0  -3 475.118 11.1525   1
  -3   0  -3 474.582 12.4593   1
  -3   0  -3 481.875 13.5922   1
  -3   0  -3 524.249 13.7623   2
  -3   0  -3 531.761 11.5928   2
  -3   0  -3 529.397 13.8998   2
  -3   0  -3 512.254 12.8418   2
  -3   0  -3 523.959 13.2264   2
  -3   0  -3 536.582 14.9218   2
  -3   0  -3 546.520 14.3924   2
   3   0   3 531.965 12.2766   2
   3   0   3 523.688 13.3470   2
   3   0   3 481.183 12.6034   1
   3   0   3 467.115 11.0407   1
   3   0   3 489.565 13.0112   1
  -4   0  -3 0.42984 0.17628   1
  -4   0  -3 0.51009 0.12400   1
  -4   0  -3 0.43279 0.24809   1
  -4   0  -3 0.56167 0.26077   2
  -4   0  -3 0.89655 0.19583   2
  -4   0  -3 0.50857 0.30402   2
  -4   0  -3 0.65897 0.27723   2
   4   0   3 0.61203 0.25739   1
   4   0   3 0.22347 0.17529   1
   4   0   3 0.69574 0.21405   1
   4   0   3 0.46185 0.16119   2
  -5   0  -3 199.043 4.82370   1
  -5   0  -3 190.670 4.10074   1
  -5   0  -3 192.169 4.20975   1
  -5   0  -3 196.973 3.86132   1
  -5   0  -3 195.017 4.35843   1
  -5   0  -3 231.943 5.84560   2
  -5   0  -3 227.865 4.78566   2
  -5   0  -3 222.978 6.81045   2
   5   0   3 197.394 5.12705   1
   5   0   3 190.400 6.14870   1
   5   0   3 195.248 5.81520   1
   5   0   3 233.347 6.00629   2
   5   0   3 224.032 4.89510   2
  -6   0  -3 25.1398 0.60718   2
  -6   0  -3 26.0023 0.95774   2
  -6   0  -3 21.1952 0.69599   1
  -6   0  -3 22.0813 0.77186   1
  -6   0  -3 21.9108 0.62907   1
  -6   0  -3 21.9578 0.65362   1
   6   0   3 25.0646 0.79442   2
   6   0   3 25.1187 0.79452   2
   6   0   3 21.2325 1.01969   1
   6   0   3 21.2624 0.90911   1
  -7   0  -3 23.1787 0.66047   1
  -7   0  -3 23.0935 0.60686   1
  -7   0  -3 22.5089 0.59298   1
  -7   0  -3 23.9359 0.70887   1
   7   0   3 25.1881 0.66161   2
   7   0   3 25.3986 0.68253   2
   8  -1  -3 0.07072 0.09465   1
   8  -1  -3 0.29948 0.13355   1
  -8   1   3 0.37502 0.10024   2
  -7   1   0 88.8562 2.61295  -2
   7  -1  -3 88.8562 2.61295   1
  -7   1   0 92.0798 2.52773  -2
   7  -1  -3 92.0798 2.52773   1
  -7   1   0 91.4878 2.15211  -2
   7  -1  -3 91.4878 2.15211   1
   7  -1   0 93.0802 2.11727  -2
  -7   1   3 93.0802 2.11727   1
   7  -1   0 93.5428 2.01194  -2
  -7   1   3 93.5428 2.01194   1
   6  -1  -3 42.0896 1.14903   2
   6  -1  -3 37.0901 1.08666   1
   6  -1  -3 37.3081 1.30743   1
   6  -1  -3 36.8747 1.61973   1
   6  -1  -3 39.0531 1.36380   1
  -6   1   3 41.5384 1.87463   2
  -6   1   3 39.4018 1.30220   2
  -6   1   3 43.2723 1.43887   2
  -6   1   3 43.0086 1.38997   2
  -6   1   3 36.7213 1.03529   1
  -6   1   3 37.4614 1.00642   1
  -5   1  -1 12.7802 0.82464  -2
   5  -1  -3 12.7802 0.82464   1
  -5   1  -1 9.50305 0.53744  -2
   5  -1  -3 9.50305 0.53744   1
   4  -1  -3 3.99702 0.44472   1
   4  -1  -3 4.18429 0.58974   1
   4  -1  -3 3.52939 0.39086   1
   4  -1  -3 3.88372 0.42576   1
   4  -1  -3 4.32743 0.59020   1
   4  -1  -3 4.68348 0.52148   2
   4  -1  -3 3.96585 0.51733   2
  -4   1   3 3.91282 0.31224   2
  -4   1   3 4.92637 0.51399   2
  -4   1   3 4.07003 0.46471   2
  -4   1   3 4.90805 0.63784   2
  -4   1   3 4.38571 0.35318   2
  -4   1   3 4.49223 0.31577   2
  -4   1   3 3.82269 0.27801   1
  -3   1  -2 241.098 6.64830  -2
   3  -1  -3 241.098 6.64830   1
  -3   1  -2 227.382 6.84189  -2
   3  -1  -3 227.382 6.84189   1
  -3   1  -2 240.725 6.69906  -2
   3  -1  -3 240.725 6.69906   1
  -3   1  -2 235.068 6.09931  -2
   3  -1  -3 235.068 6.09931   1
  -3   1  -2 236.306 6.48792  -2
   3  -1  -3 236.306 6.48792   1
   3  -1   2 253.599 5.71268  -2
  -3   1   3 253.599 5.71268   1
   3  -1   2 240.605 6.14909  -2
  -3   1   3 240.605 6.14909   1
   3  -1   2 245.480 5.41306  -2
  -3   1   3 245.480 5.41306   1
   2  -1  -3 120.215 2.74841   2
   2  -1  -3 115.150 3.61792   2
   2  -1  -3 120.495 3.36273   2
   2  -1  -3 117.317 2.99140   2
   2  -1  -3 115.063 3.46029   2
   2  -1  -3 95.0201 2.69261   1
   2  -1  -3 102.738 3.01631   1
   2  -1  -3 102.210 2.42161   1
   2  -1  -3 102.509 2.96037   1
   2  -1  -3 100.974 2.86436   1
  -2   1   3 116.532 3.40165   2
  -2   1   3 119.187 2.82425   2
  -2   1   3 100.565 2.44435   1
   1  -1  -3 19.3436 0.82623   1
   1  -1  -3 19.8796 0.76141   1
   1  -1  -3 20.3623 0.67401   1
   1  -1  -3 23.4240 0.79185   2
   1  -1  -3 23.2954 0.92949   2
   1  -1  -3 23.1371 0.75154   2
   1  -1  -3 22.5729 0.94088   2
   1  -1  -3 23.2773 0.90447   2
   1  -1  -3 22.6602 0.87967   2
  -1   1   3 19.3403 0.49435   1
  -1   1   3 22.0494 0.62951   2
   0  -1  -3 36.6253 1.26800   1
   0  -1  -3 37.9075 1.24130   1
   0  -1  -3 40.0179 1.25338   1
   0  -1  -3 37.7275 1.06986   1
   0  -1  -3 38.0586 1.29107   1
   0  -1  -3 38.6614 1.19782   1
   0  -1  -3 39.4172 1.07466   1
   0  -1  -3 43.3371 1.20406   2
   0  -1  -3 43.7432 1.34183   2
   0  -1  -3 42.4269 1.51514   2
   0  -1  -3 41.7878 1.18486   2
   0  -1  -3 45.2213 1.46705   2
   0  -1  -3 42.7437 1.45342   2
   0  -1  -3 41.3764 1.21882   2
   0   1   3 44.4620 1.12107   2
  -1  -1  -3 162.147 4.79789   1
  -1  -1  -3 163.476 4.47032   1
  -1  -1  -3 161.186 3.70224   1
  -1  -1  -3 169.061 3.98550   1
  -1  -1  -3 161.128 4.57502   1
  -1  -1  -3 170.631 4.45160   1
  -1  -1  -3 184.956 5.01765   2
  -1  -1  -3 174.413 4.69947   2
  -1  -1  -3 180.948 4.77722   2
  -1  -1  -3 181.933 4.64031   2
  -1  -1  -3 183.993 4.19141   2
  -1  -1  -3 179.409 5.31838   2
  -1  -1  -3 182.313 5.11047   2
   1   1   3 160.685 4.47783   1
   1   1   3 177.657 4.27229   2
  -2  -1  -3 1.23312 0.27096   2
  -2  -1  -3 1.02448 0.22168   2
  -2  -1  -3 0.96035 0.24151   2
  -2  -1  -3 0.90717 0.16365   2
  -2  -1  -3 1.00050 0.24462   2
  -2  -1  -3 0.70360 0.22676   2
  -2  -1  -3 0.78779 0.18514   2
  -2  -1  -3 0.87604 0.20860   1
  -2  -1  -3 0.77933 0.21991   1
  -2  -1  -3 0.79187 0.21893   1
  -2  -1  -3 0.64527 0.21696   1
   2   1   3 0.76920 0.22729   1
   2   1   3 0.73211 0.25036   1
   2   1   3 0.82161 0.15456   2
   2   1   3 0.59697 0.14751   2
  -3  -1  -3 53.8793 2.04938   1
  -3  -1  -3 52.8178 2.04699   1
  -3  -1  -3 53.5790 1.84710   1
  -3  -1  -3 61.5777 2.15543   2
  -3  -1  -3 58.5530 2.20001   2
  -3  -1  -3 61.1969 1.74694   2
  -3  -1  -3 59.3298 1.79037   2
  -3  -1  -3 57.3531 2.22156   2
  -3  -1  -3 61.1815 1.90828   2
  -3  -1  -3 58.9535 2.12587   2
   3   1   3 55.8292 1.92349   1
   3   1   3 52.5033 1.96429   1
   3   1   3 53.4931 1.50468   1
   3   1   3 60.3196 1.80943   2
   3   1   3 61.4327 1.81644   2
  -4  -1  -3 10.1152 0.52417   2
   4   1  -6 12.8197 0.92366  -2
  -4  -1  -3 12.8197 0.92366   1
   4   1  -6 13.6020 0.52617  -2
  -4  -1  -3 13.6020 0.52617   1
  -4  -1  -3 7.33838 0.42927   1
  -4  -1  -3 7.91558 0.49883   1
   4   1   3 7.78741 0.53762   1
   4   1   3 7.89724 0.69752   1
   4   1   3 8.78844 0.51253   2
  -5  -1  -3 1.08453 0.13647   2
  -5  -1  -3 1.16036 0.23898   2
  -5  -1  -3 0.82116 0.14923   1
  -5  -1  -3 0.81756 0.13522   1
  -5  -1  -3 0.97253 0.14330   1
  -5  -1  -3 0.97092 0.17641   1
  -5  -1  -3 0.66679 0.17447   1
  -5  -1  -3 1.13747 0.18872   1
   5   1   3 1.09810 0.20104   2
   5   1   3 1.05524 0.26919   1
   6   1  -7 20.3437 0.71900  -2
  -6  -1  -3 20.3437 0.71900   1
   6   1  -7 19.7884 0.57647  -2
  -6  -1  -3 19.7884 0.57647   1
   6   1  -7 20.0440 0.59607  -2
  -6  -1  -3 20.0440 0.59607   1
   6   1  -7 23.8407 0.70980  -2
  -6  -1  -3 23.8407 0.70980   1
  -6  -1  -3 4.19319 0.13598   2
  -6  -1   7 21.1767 0.83473  -2
   6   1   3 21.1767 0.83473   1
  -7  -1  -3 11.0118 0.29688   1
  -7  -1  -3 10.9335 0.32690   1
  -7  -1  -3 10.5312 0.40168   1
  -7  -1  -3 10.9225 0.37344   1
   7   1   3 11.8722 0.38777   2
   7   1   3 12.2989 0.32475   2
  -8   2   0 24.8895 0.80543  -2
   8  -2  -3 24.8895 0.80543   1
  -8   2   0 24.6084 0.57490  -2
   8  -2  -3 24.6084 0.57490   1
   7  -2  -3 4.18061 0.29292   2
   7  -2  -3 3.29695 0.24739   1
   7  -2  -3 3.20989 0.33591   1
   7  -2  -3 3.45493 0.37199   1
  -7   2   3 4.33516 0.33218   2
  -7   2   3 3.95616 0.34049   2
  -7   2   3 3.57256 0.22148   1
   6  -2  -3 10.1911 0.46004   1
   6  -2  -3 11.4900 0.63525   1
  -6   2  -1 59.5618 1.77424  -2
   6  -2  -3 59.5618 1.77424   1
  -6   2  -1 56.0232 2.31160  -2
   6  -2  -3 56.0232 2.31160   1
   6  -2   1 59.8575 1.49842  -2
  -6   2   3 59.8575 1.49842   1
  -6   2   3 13.0140 0.63928   2
   5  -2  -3 4.25434 0.48886   1
   5  -2  -3 4.06891 0.37261   1
   5  -2  -3 4.92230 0.59733   2
  -5   2   3 4.43247 0.51984   2
  -5   2   3 5.15009 0.38722   2
  -5   2   3 4.46404 0.34985   2
  -5   2   3 4.75301 0.45840   2
  -5   2   3 3.99707 0.60802   2
  -5   2   3 3.79380 0.30516   1
   4  -2  -3 0.12202 0.20468   2
   4  -2  -3 0.13477 0.19386   2
   4  -2  -3 -0.0182 0.14716   2
   4  -2  -3 0.05562 0.23722   1
   4  -2  -3 0.13266 0.11645   1
   4  -2  -3 0.08108 0.17310   1
   4  -2  -3 0.12035 0.12932   1
   4  -2  -3 0.04811 0.16071   1
  -4   2   3 0.27346 0.13581   2
  -4   2   3 0.10847 0.12811   2
  -4   2   3 0.04389 0.20063   2
  -4   2   3 -0.0049 0.19970   2
  -4   2   3 -0.0336 0.09834   2
  -4   2   3 0.15126 0.13012   1
  -4   2   3 0.22867 0.11726   1
   3  -2  -3 0.04372 0.16524   2
   3  -2  -3 0.18844 0.15773   2
   3  -2  -3 -0.0187 0.12297   2
   3  -2  -3 0.02274 0.13621   2
   3  -2  -3 0.25508 0.14819   1
   3  -2  -3 0.58434 0.26756   1
   3  -2  -3 0.11210 0.10078   1
   3  -2  -3 -0.0449 0.10831   1
   3  -2  -3 0.11822 0.10481   1
  -3   2   3 0.08063 0.15355   2
  -3   2   3 0.04414 0.15823   2
  -3   2   3 0.08402 0.09915   2
  -3   2   3 0.05319 0.09756   2
  -3   2   3 -0.0222 0.12161   1
   2  -2  -3 34.2425 1.05727   2
   2  -2  -3 33.8424 1.34145   2
   2  -2  -3 32.8749 1.10617   2
   2  -2  -3 35.0597 1.31083   2
   2  -2  -3 33.4575 1.15353   2
   2  -2  -3 30.4511 1.26262   1
   2  -2  -3 29.7804 1.06898   1
   2  -2  -3 28.3316 0.99369   1
   2  -2  -3 29.2364 1.10573   1
  -2   2   3 30.2871 0.86528   1
  -2   2   3 29.7362 0.98671   1
  -2   2   3 32.8401 1.29307   2
  -2   2   3 32.0240 1.03115   2
  -2   2   3 34.0210 1.01641   2
  -2   2   3 34.2732 1.30026   2
   1  -2  -3 2.35947 0.32260   2
   1  -2  -3 2.05964 0.23440   2
   1  -2  -3 2.31620 0.28664   2
   1  -2  -3 1.86388 0.28332   2
   1  -2  -3 1.82636 0.28449   2
   1  -2  -3 2.70480 0.31596   2
   1  -2  -3 2.40314 0.29008   2
   1  -2  -3 2.06594 0.26277   1
   1  -2  -3 1.74376 0.19079   1
   1  -2  -3 1.83996 0.22188   1
   1  -2  -3 2.03706 0.33263   1
  -1   2   3 2.31055 0.20179   2
   0  -2  -3 5.11335 0.36534   2
   0  -2  -3 5.11138 0.34392   2
   0  -2  -3 4.80158 0.40736   2
   0  -2  -3 4.69976 0.34568   2
   0  -2  -3 5.12157 0.42863   2
   0  -2  -3 4.68954 0.37607   2
   0  -2  -3 4.89849 0.38665   2
   0  -2  -3 4.30152 0.30064   1
   0  -2  -3 4.02157 0.28098   1
   0  -2  -3 4.81545 0.41542   1
   0  -2  -3 4.09476 0.30459   1
   0  -2  -3 4.40657 0.31974   1
   0  -2  -3 4.66018 0.32481   1
   0  -2  -3 4.63037 0.31998   1
   0   2   3 4.74374 0.28963   2
   0   2   3 4.79921 0.36990   2
   0   2   3 4.44374 0.34972   1
   1   2  -5 223.442 6.09505  -2
  -1  -2  -3 223.442 6.09505   1
   1   2  -5 220.323 5.43621  -2
  -1  -2  -3 220.323 5.43621   1
   1   2  -5 227.651 6.36405  -2
  -1  -2  -3 227.651 6.36405   1
   1   2  -5 235.693 6.71137  -2
  -1  -2  -3 235.693 6.71137   1
  -1  -2   5 234.653 6.19725  -2
   1   2   3 234.653 6.19725   1
  -2  -2  -3 -0.0667 0.12315   2
  -2  -2  -3 -0.0332 0.07789   2
  -2  -2  -3 0.03167 0.17409   2
  -2  -2  -3 -0.0151 0.13443   2
  -2  -2  -3 -0.0072 0.14777   2
  -2  -2  -3 -0.0517 0.12236   2
  -2  -2  -3 -0.0573 0.13204   1
  -2  -2  -3 -0.0109 0.16198   1
  -2  -2  -3 -0.0146 0.11085   1
   2   2   3 0.08620 0.12082   2
   2   2   3 -0.0717 0.07096   2
   2   2   3 -0.1234 0.13911   1
   2   2   3 0.07021 0.22294   1
   3   2  -6 66.7778 1.96204  -2
  -3  -2  -3 66.7778 1.96204   1
   3   2  -6 66.7141 2.48166  -2
  -3  -2  -3 66.7141 2.48166   1
   3   2  -6 68.4406 2.22175  -2
  -3  -2  -3 68.4406 2.22175   1
   3   2  -6 68.7992 1.69334  -2
  -3  -2  -3 68.7992 1.69334   1
  -3  -2   6 65.6623 2.41997  -2
   3   2   3 65.6623 2.41997   1
  -3  -2   6 66.3987 2.49492  -2
   3   2   3 66.3987 2.49492   1
  -4  -2  -3 4.98220 0.34194   2
  -4  -2  -3 5.03478 0.26778   2
  -4  -2  -3 4.93546 0.40013   2
  -4  -2  -3 4.76388 0.67812   2
  -4  -2  -3 4.06290 0.33872   1
  -4  -2  -3 4.29225 0.29581   1
  -4  -2  -3 4.62164 0.25293   1
  -4  -2  -3 5.12053 0.41053   1
  -4  -2  -3 4.43545 0.27529   1
  -4  -2  -3 4.19456 0.22437   1
   4   2   3 4.98666 0.34945   2
   4   2   3 4.95920 0.37262   2
   4   2   3 4.02352 0.60719   1
  -5  -2  -3 3.78930 0.21033   2
   5   2  -7 3.63994 0.31212  -2
  -5  -2  -3 3.63994 0.31212   1
   5   2  -7 4.34318 0.24413  -2
  -5  -2  -3 4.34318 0.24413   1
   5   2  -7 4.10942 0.38451  -2
  -5  -2  -3 4.10942 0.38451   1
   5   2  -7 3.52398 0.30217  -2
  -5  -2  -3 3.52398 0.30217   1
  -6  -2  -3 0.58598 0.14440   1
  -6  -2  -3 0.66881 0.10833   1
  -6  -2  -3 0.54448 0.08486   1
  -6  -2  -3 0.75876 0.14510   1
  -6  -2  -3 0.46157 0.12240   1
  -6  -2  -3 0.76923 0.15823   2
  -6  -2  -3 0.90013 0.19699   2
   6   2   3 0.64634 0.12570   2
   6   2   3 0.69823 0.16200   2
   6   2   3 0.76453 0.22380   1
   8  -3  -3 0.60265 0.14808   1
  -8   3   3 0.58911 0.09573   2
   7  -3  -3 0.40435 0.17854   1
   7  -3  -3 0.24636 0.09205   1
   7  -3  -3 0.25407 0.17201   1
  -7   3   3 0.23025 0.09463   1
  -7   3   3 0.25756 0.14366   2
   6  -3  -3 3.69014 0.38967   1
   6  -3  -3 4.35805 0.40019   1
   6  -3  -3 3.79815 0.24955   1
  -6   3  -2 29.7012 1.54621  -2
   6  -3  -3 29.7012 1.54621   1
  -6   3   3 3.88354 0.34477   2
  -6   3   3 4.07369 0.36177   2
  -6   3   3 4.08077 0.63226   2
   6  -3   2 32.8375 1.01222  -2
  -6   3   3 32.8375 1.01222   1
  -6   3   3 3.62952 0.29183   1
   5  -3  -3 2.53052 0.46684   2
   5  -3  -3 3.10302 0.29838   2
   5  -3  -3 2.85504 0.16940   2
   5  -3  -3 3.05766 0.29721   2
   5  -3  -3 2.84179 0.24337   1
   5  -3  -3 2.72581 0.35294   1
   5  -3  -3 2.82825 0.48335   1
   5  -3  -3 2.65292 0.20351   1
   5  -3  -3 2.81400 0.36087   1
  -5   3   3 2.75371 0.28624   1
  -5   3   3 3.07899 0.31401   2
  -5   3   3 2.48533 0.51528   2
  -5   3   3 2.76711 0.28573   2
  -4   3  -3 146.488 3.76435  -2
   4  -3  -3 146.488 3.76435   1
  -4   3  -3 146.480 4.64583  -2
   4  -3  -3 146.480 4.64583   1
  -4   3  -3 155.130 3.97880  -2
   4  -3  -3 155.130 3.97880   1
  -4   3  -3 154.727 4.70534  -2
   4  -3  -3 154.727 4.70534   1
  -4   3  -3 157.031 3.98841  -2
   4  -3  -3 157.031 3.98841   1
   4  -3   3 149.539 3.91260  -2
  -4   3   3 149.539 3.91260   1
   4  -3   3 149.721 3.96113  -2
  -4   3   3 149.721 3.96113   1
   4  -3   3 161.159 4.20120  -2
  -4   3   3 161.159 4.20120   1
   3  -3  -3 5.92085 0.56115   2
   3  -3  -3 5.65958 0.49304   2
   3  -3  -3 5.16076 0.43116   2
   3  -3  -3 5.57032 0.41876   2
   3  -3  -3 5.06389 0.50809   2
   3  -3  -3 4.89754 0.37062   1
   3  -3  -3 4.90524 0.33727   1
   3  -3  -3 5.19638 0.44448   1
   3  -3  -3 4.58157 0.61948   1
  -3   3   3 5.38641 0.34003   1
  -3   3   3 5.00443 0.42434   1
  -3   3   3 5.10517 0.35554   1
  -3   3   3 5.40541 0.52983   2
  -3   3   3 6.61830 0.59005   2
  -3   3   3 5.68978 0.36757   2
  -3   3   3 5.52721 0.39700   2
  -2   3  -4 92.2092 2.54434  -2
   2  -3  -3 92.2092 2.54434   1
  -2   3  -4 105.511 3.12252  -2
   2  -3  -3 105.511 3.12252   1
  -2   3  -4 96.9690 2.97081  -2
   2  -3  -3 96.9690 2.97081   1
  -2   3  -4 96.0250 2.74382  -2
   2  -3  -3 96.0250 2.74382   1
   2  -3   4 92.7512 2.53434  -2
  -2   3   3 92.7512 2.53434   1
   2  -3   4 94.2461 2.42107  -2
  -2   3   3 94.2461 2.42107   1
   1  -3  -3 0.66915 0.14770   1
   1  -3  -3 0.82366 0.17786   1
   1  -3  -3 0.65161 0.24779   1
   1  -3  -3 0.94881 0.20321   1
   1  -3  -3 1.29999 0.29597   2
   1  -3  -3 1.08307 0.26431   2
   1  -3  -3 0.83037 0.20625   2
   1  -3  -3 0.89887 0.22653   2
   1  -3  -3 0.93908 0.21539   2
   1  -3  -3 0.92604 0.22588   2
   1  -3  -3 1.22643 0.27050   2
  -1   3   3 0.74397 0.19259   1
  -1   3   3 1.68666 0.19285   2
  -1   3   3 2.03476 0.24996   2
   0   3  -5 53.0046 1.70751  -2
   0  -3  -3 53.0046 1.70751   1
   0   3  -5 57.1008 1.96384  -2
   0  -3  -3 57.1008 1.96384   1
   0   3  -5 53.8437 1.55790  -2
   0  -3  -3 53.8437 1.55790   1
   0  -3   5 57.7663 1.65454  -2
   0   3   3 57.7663 1.65454   1
   0  -3   5 56.5056 1.79266  -2
   0   3   3 56.5056 1.79266   1
  -1  -3  -3 6.18350 0.45505   2
  -1  -3  -3 6.13292 0.54348   2
  -1  -3  -3 5.91157 0.47960   2
  -1  -3  -3 6.46792 0.50054   2
  -1  -3  -3 5.57783 0.52566   2
  -1  -3  -3 6.26241 0.34227   2
  -1  -3  -3 5.34376 0.32233   1
   1   3   3 6.27284 0.36699   2
   1   3   3 6.13925 0.41288   2
   1   3   3 5.50209 0.61754   1
   1   3   3 5.23189 0.45592   1
   1   3   3 6.02029 0.53860   1
  -2  -3  -3 3.73422 0.52121   1
  -2  -3  -3 3.05581 0.30703   1
  -2  -3  -3 4.48399 0.52287   2
  -2  -3  -3 3.35305 0.28839   2
  -2  -3  -3 3.68310 0.55153   2
  -2  -3  -3 3.50555 0.53033   2
  -2  -3  -3 3.53477 0.37833   2
   2   3   3 2.95762 0.43634   1
   2   3   3 2.82206 0.48216   1
   2   3   3 3.78312 0.65605   1
   2   3   3 3.28176 0.29640   2
  -3  -3  -3 1.82102 0.27192   2
  -3  -3  -3 1.69676 0.18367   2
  -3  -3  -3 1.63829 0.40840   2
  -3  -3  -3 2.06710 0.25182   2
  -3  -3  -3 1.53792 0.14386   1
  -3  -3  -3 1.51774 0.26312   1
  -3  -3  -3 1.80189 0.24168   1
  -3  -3  -3 1.52270 0.12605   1
  -3  -3  -3 1.72873 0.44511   1
   3   3   3 1.39737 0.38378   1
   3   3   3 1.80696 0.25512   2
  -4  -3  -3 2.47389 0.20309   2
  -4  -3  -3 3.18710 0.37674   2
  -4  -3  -3 2.34477 0.26406   2
  -4  -3  -3 2.13116 0.23024   1
  -4  -3  -3 1.89661 0.19937   1
  -4  -3  -3 2.50516 0.34244   1
  -4  -3  -3 2.18907 0.15217   1
  -4  -3  -3 1.96588 0.17577   1
  -4  -3  -3 2.21182 0.27642   1
  -4  -3  -3 2.36146 0.37674   1
   4   3   3 2.77056 0.29755   2
   4   3   3 2.13197 0.24485   2
  -5  -3  -3 3.72020 0.37561   1
  -5  -3  -3 3.85702 0.32205   1
  -5  -3  -3 3.71576 0.23428   1
  -5  -3  -3 3.61456 0.26493   1
  -5  -3  -3 3.83390 0.17322   1
  -5  -3  -3 3.26218 0.25412   1
  -5  -3  -3 4.06404 0.19315   2
  -5  -3  -3 4.19165 0.35671   2
  -5  -3  -3 4.54413 0.29769   2
   5   3   3 3.92596 0.27356   2
   5   3   3 4.13104 0.30898   2
  -6  -3  -3 269.911 6.49508   1
  -6  -3  -3 275.687 5.17648   1
  -6  -3  -3 275.440 5.62883   1
  -6  -3  -3 272.637 5.76079   1
  -6  -3  -3 307.866 6.67486   2
   6   3   3 312.471 6.35512   2
   6   3   3 313.281 6.42111   2
   8  -4  -3 0.27906 0.11475   1
  -8   4   3 0.46531 0.07731   2
  -7   4  -2 126.257 3.18650  -2
   7  -4  -3 126.257 3.18650   1
  -7   4  -2 127.420 3.07614  -2
   7  -4  -3 127.420 3.07614   1
   7  -4   2 106.452 2.56285  -2
  -7   4   3 106.452 2.56285   1
   7  -4   2 109.601 2.68719  -2
  -7   4   3 109.601 2.68719   1
   6  -4  -3 1.39041 0.20490   2
   6  -4  -3 0.94361 0.18236   2
   6  -4  -3 0.91689 0.23872   1
   6  -4  -3 1.05954 0.23618   1
  -6   4   3 0.91956 0.45222   2
  -6   4   3 1.37880 0.22519   2
  -6   4   3 1.03449 0.19428   1
  -5   4  -3 444.854 12.9874  -2
   5  -4  -3 444.854 12.9874   1
  -5   4  -3 457.111 11.0741  -2
   5  -4  -3 457.111 11.0741   1
  -5   4  -3 486.638 11.5439  -2
   5  -4  -3 486.638 11.5439   1
   5  -4   3 478.428 11.9664  -2
  -5   4   3 478.428 11.9664   1
   4  -4  -3 11.6933 0.81395   2
   4  -4  -3 12.9457 0.51784   2
   4  -4  -3 11.8699 0.66417   2
   4  -4  -3 10.8832 0.43984   1
   4  -4  -3 10.8025 0.73782   1
   4  -4  -3 10.0695 0.62541   1
   4  -4  -3 10.5258 0.55037   1
   4  -4  -3 10.4692 0.59455   1
   4  -4  -3 11.1195 0.50433   1
  -4   4   3 11.9571 0.59285   2
  -4   4   3 10.5976 0.84429   2
  -4   4   3 10.4538 0.56467   1
  -4   4   3 10.5439 0.63038   1
  -3   4  -4 506.903 12.6244  -2
   3  -4  -3 506.903 12.6244   1
  -3   4  -4 527.442 14.1507  -2
   3  -4  -3 527.442 14.1507   1
   3  -4  -3 7.56775 0.77000   1
   3  -4  -3 8.33891 0.53008   1
   3  -4  -3 7.50207 0.47388   1
   3  -4  -3 8.61488 0.66606   2
   3  -4  -3 9.78079 0.60929   2
   3  -4  -3 8.96122 0.75547   2
  -3   4   3 7.90958 0.49709   1
  -3   4   3 6.85068 0.44946   1
  -3   4   3 8.58359 0.59997   1
  -3   4   3 8.20721 0.54228   2
  -3   4   3 8.49079 0.69751   2
   2  -4  -3 15.5740 0.88361   2
   2  -4  -3 12.4557 0.68980   2
   2  -4  -3 12.9925 0.71659   2
   2  -4  -3 12.2690 0.75777   2
   2  -4  -3 12.5993 0.84542   2
   2  -4  -3 12.0761 0.63004   1
   2  -4  -3 11.4535 0.65225   1
   2  -4  -3 10.3990 0.84467   1
   2  -4  -3 11.5705 0.53552   1
   2  -4  -3 10.7437 0.54963   1
  -2   4   3 12.6091 0.63581   2
  -2   4   3 12.1722 0.57852   2
  -2   4   3 12.5328 0.79665   2
  -2   4   3 11.2278 0.50450   1
  -2   4   3 10.9480 0.66059   1
   1  -4  -3 7.28228 0.52232   2
   1  -4  -3 6.40250 0.52150   2
   1  -4  -3 7.26265 0.55119   2
   1  -4  -3 8.84604 0.65693   2
   1  -4  -3 7.03330 0.62177   2
   1  -4  -3 6.12283 0.37836   1
   1  -4  -3 5.59833 0.61642   1
   1  -4  -3 8.73332 0.49659   1
   1  -4  -3 6.11542 0.39929   1
  -1   4   3 7.47004 0.37751   1
  -1   4   3 7.03427 0.40486   2
  -1   4   3 7.63468 0.58023   2
  -1   4   3 7.06437 0.45898   2
   0  -4  -3 45.7837 1.48542   1
   0  -4  -3 44.8862 1.35991   1
   0  -4  -3 43.4768 1.83364   1
   0  -4  -3 45.3613 1.42749   1
   0  -4  -3 53.5190 1.77362   2
   0  -4  -3 50.9510 1.70346   2
   0  -4  -3 52.0362 1.92204   2
   0  -4  -3 50.9304 1.69852   2
   0  -4  -3 50.9113 2.04095   2
   0   4   3 51.2093 1.59855   2
   0   4   3 51.5524 1.57418   2
   0   4   3 45.7239 1.47699   1
  -1  -4  -3 6.87537 0.39664   2
  -1  -4  -3 7.15819 0.54236   2
  -1  -4  -3 7.38368 0.67323   2
  -1  -4  -3 7.53166 0.60889   2
  -1  -4  -3 6.25109 0.37526   1
  -1  -4  -3 5.51868 0.39938   1
   1   4   3 5.83207 0.54032   1
   1   4   3 7.29618 0.91290   1
   1   4   3 5.94299 0.65198   1
   1   4   3 6.99525 0.42018   2
  -2  -4  -3 1.95964 0.24390   2
  -2  -4  -3 1.71534 0.18560   2
  -2  -4  -3 3.07948 0.44381   2
   2   4  -7 9.66299 0.58619  -2
  -2  -4  -3 9.66299 0.58619   1
   2   4   3 1.83869 0.41401   1
   2   4   3 2.33797 0.26446   2
  -3  -4  -3 5.98259 0.44260   1
  -3  -4  -3 6.24119 0.47047   1
  -3  -4  -3 6.19026 0.26576   1
  -3  -4  -3 5.83800 0.39131   1
  -3  -4  -3 5.97918 0.20865   1
  -3  -4  -3 6.69591 0.30055   1
  -3  -4  -3 6.05446 0.74622   2
  -3  -4  -3 7.00736 0.32383   2
  -3  -4  -3 6.63967 0.39421   2
  -3  -4  -3 6.94434 0.46255   2
   3   4   3 6.67170 0.39153   2
   3   4   3 6.69696 0.39226   2
   4   4  -8 207.408 4.99344  -2
  -4  -4  -3 207.408 4.99344   1
   4   4  -8 204.963 4.54581  -2
  -4  -4  -3 204.963 4.54581   1
   4   4  -8 202.739 5.36345  -2
  -4  -4  -3 202.739 5.36345   1
   4   4  -8 206.753 5.13667  -2
  -4  -4  -3 206.753 5.13667   1
   4   4  -8 207.394 4.36979  -2
  -4  -4  -3 207.394 4.36979   1
  -4  -4  -3 198.765 3.97820   1
  -5  -4  -3 17.5644 0.60250   1
  -5  -4  -3 17.9908 0.53158   1
  -5  -4  -3 18.2877 0.63647   1
  -5  -4  -3 18.0036 0.74634   1
  -5  -4  -3 20.1955 0.63880   2
  -5  -4  -3 20.4265 0.99101   2
   5   4   3 20.9511 0.58213   2
   5   4   3 20.4448 0.65759   2
   7  -5  -3 0.35469 0.15262   1
   7  -5  -3 0.33952 0.14582   1
   7  -5  -3 0.15639 0.10291   2
  -7   5   3 0.23359 0.10947   1
  -7   5   3 0.30026 0.09392   1
  -7   5   3 0.07791 0.07387   2
   6  -5  -3 18.5272 0.66190   2
   6  -5  -3 16.2168 0.73576   1
   6  -5  -3 17.1199 0.78095   1
  -6   5   3 18.5936 0.61657   2
  -6   5   3 17.9292 0.61171   2
  -6   5   3 16.5543 0.63226   1
   5  -5  -3 13.4309 0.88867   1
   5  -5  -3 14.1348 0.56411   1
   5  -5  -3 15.4436 0.72336   1
   5  -5  -3 14.9846 0.74826   1
   5  -5  -3 16.6567 0.62362   2
   5  -5  -3 16.4695 0.44357   2
   5  -5  -3 16.9418 0.64608   2
  -5   5   3 14.4415 1.04077   2
  -5   5   3 15.8700 0.66040   2
  -5   5   3 14.3427 0.69061   1
  -5   5   3 14.5352 0.84764   1
   4  -5  -3 0.95792 0.17998   1
   4  -5  -3 0.62823 0.13612   1
   4  -5  -3 0.62248 0.12283   1
   4  -5  -3 0.33545 0.11829   1
   4  -5  -3 0.69462 0.15889   1
   4  -5  -3 0.57634 0.27633   1
   4  -5  -3 0.62950 0.20029   1
   4  -5  -3 0.53746 0.20261   1
   4  -5  -3 0.58823 0.20476   1
   4  -5  -3 0.66913 0.10692   2
   4  -5  -3 0.89109 0.18529   2
   4  -5  -3 0.68281 0.16812   2
  -4   5   3 0.50212 0.31066   2
  -4   5   3 0.61542 0.17330   2
  -4   5   3 0.69562 0.20709   1
  -4   5   3 0.64812 0.25696   1
   3  -5  -3 3.11809 0.26110   1
   3  -5  -3 2.12185 0.15959   1
   3  -5  -3 1.76985 0.27000   1
   3  -5  -3 2.82729 0.40234   1
   3  -5  -3 2.19841 0.32247   1
   3  -5  -3 2.29911 0.21005   1
   3  -5  -3 2.32132 0.26331   2
   3  -5  -3 1.52269 0.36180   2
   3  -5  -3 1.90630 0.17267   2
  -3   5  -5 2.91747 0.38130  -2
   3  -5  -3 2.91747 0.38130   1
  -3   5   3 2.63459 0.52166   2
  -3   5   3 2.29483 0.26485   2
  -3   5   3 2.01963 0.31713   1
   2  -5  -3 99.7040 2.94168   1
   2  -5  -3 101.452 2.75074   1
   2  -5  -3 99.6099 2.80753   1
   2  -5  -3 99.5472 2.47238   1
   2  -5  -3 114.340 3.43386   2
   2  -5  -3 114.780 3.38592   2
  -2   5   3 117.669 3.21182   2
  -2   5   3 97.4613 2.64529   1
  -1   5  -6 116.537 3.23923  -2
   1  -5  -3 116.537 3.23923   1
  -1   5  -6 122.412 3.21977  -2
   1  -5  -3 122.412 3.21977   1
   1  -5   6 117.790 3.01352  -2
  -1   5   3 117.790 3.01352   1
   0  -5  -3 8.50639 0.63214   2
   0  -5  -3 7.98157 0.66049   2
   0  -5  -3 8.35736 0.73899   2
   0  -5  -3 7.59183 0.45357   1
   0  -5  -3 7.72586 0.28145   1
   0  -5  -3 7.75022 0.50046   1
   0  -5  -3 8.33364 0.53727   1
   0   5   3 8.27556 0.45980   2
   1   5  -7 39.1001 1.29142  -2
  -1  -5  -3 39.1001 1.29142   1
   1   5  -7 40.3727 0.86860  -2
  -1  -5  -3 40.3727 0.86860   1
   1   5  -7 38.6382 1.31487  -2
  -1  -5  -3 38.6382 1.31487   1
   1   5  -7 38.3853 1.27458  -2
  -1  -5  -3 38.3853 1.27458   1
  -2  -5  -3 10.7262 0.58968   1
  -2  -5  -3 10.4992 0.50765   1
  -2  -5  -3 10.9828 0.37905   1
  -2  -5  -3 10.1260 0.33239   1
  -2  -5  -3 10.4428 0.60964   1
  -2  -5  -3 11.8912 0.53531   2
  -2  -5  -3 12.0414 0.44216   2
  -2  -5  -3 10.6481 0.95188   2
  -2  -5  -3 11.5883 0.58794   2
   2   5   3 11.7275 0.49153   2
   2   5   3 11.4427 0.50325   2
   3   5  -8 80.7124 2.28959  -2
  -3  -5  -3 80.7124 2.28959   1
   3   5  -8 82.7588 2.09196  -2
  -3  -5  -3 82.7588 2.09196   1
   3   5  -8 79.9140 2.38486  -2
  -3  -5  -3 79.9140 2.38486   1
   3   5  -8 85.6288 1.84189  -2
  -3  -5  -3 85.6288 1.84189   1
   3   5  -8 82.7698 2.02949  -2
  -3  -5  -3 82.7698 2.02949   1
  -3  -5  -3 31.8349 0.84357   2
  -4  -5  -3 8.38662 0.49163   1
  -4  -5  -3 8.36384 0.46446   1
  -4  -5  -3 8.42684 0.36336   1
  -4  -5  -3 9.19109 0.32919   1
  -4  -5  -3 8.81816 0.42625   1
  -4  -5  -3 9.87746 0.51620   2
  -4  -5  -3 9.59852 0.43544   2
  -4  -5  -3 9.50638 0.27784   2
   4   5   3 9.29520 0.41284   2
   4   5   3 9.90640 0.36917   2
  -5  -5  -3 0.47538 0.07432   1
  -5  -5  -3 0.51818 0.10900   1
  -5  -5  -3 0.43548 0.06032   1
  -5  -5  -3 0.49294 0.11233   2
   5   5   3 0.49941 0.10034   2
   7  -6  -3 11.9730 0.47929   1
   7  -6  -3 13.2431 0.43933   2
  -7   6   3 11.8328 0.37737   1
  -7   6   3 12.0462 0.41585   1
  -7   6   3 13.8254 0.37322   2
  -6   6  -4 5.56611 0.42555  -2
   6  -6  -3 5.56611 0.42555   1
  -6   6  -4 5.33960 0.40113  -2
   6  -6  -3 5.33960 0.40113   1
   6  -6   4 5.76621 0.35212  -2
  -6   6   3 5.76621 0.35212   1
   5  -6  -3 5.97559 0.46222   1
   5  -6  -3 6.98888 0.37636   1
   5  -6  -3 5.72738 0.43944   1
   5  -6  -3 6.33149 0.37923   2
  -5   6   3 6.01532 0.32610   2
  -5   6   3 6.14076 0.35006   2
  -5   6   3 5.91975 0.56426   1
  -5   6   3 5.77225 0.42825   1
  -4   6  -5 41.8863 1.14578  -2
   4  -6  -3 41.8863 1.14578   1
  -4   6  -5 38.4002 1.28503  -2
   4  -6  -3 38.4002 1.28503   1
  -4   6  -5 33.5336 1.23400  -2
   4  -6  -3 33.5336 1.23400   1
  -4   6  -5 35.7784 1.31009  -2
   4  -6  -3 35.7784 1.31009   1
  -4   6  -5 40.5220 1.11539  -2
   4  -6  -3 40.5220 1.11539   1
  -4   6  -5 35.6789 1.03817  -2
   4  -6  -3 35.6789 1.03817   1
  -4   6  -5 41.4625 1.03293  -2
   4  -6  -3 41.4625 1.03293   1
  -4   6  -5 40.4155 1.16068  -2
   4  -6  -3 40.4155 1.16068   1
   4  -6   5 37.2759 1.37116  -2
  -4   6   3 37.2759 1.37116   1
   4  -6   5 36.4582 1.54690  -2
  -4   6   3 36.4582 1.54690   1
   3  -6  -3 66.9914 2.08452   1
   3  -6  -3 69.2215 1.71700   1
   3  -6  -3 68.0046 1.57259   1
   3  -6  -3 67.6415 1.78486   1
   3  -6  -3 64.9639 1.60213   1
   3  -6  -3 69.4050 2.01167   1
   3  -6  -3 66.7345 1.70034   1
   3  -6  -3 76.0329 1.96232   2
   3  -6  -3 78.3149 2.56850   2
   3  -6  -3 77.5290 1.76286   2
  -3   6   3 67.6079 2.31579   1
  -3   6   3 78.0605 2.20985   2
  -3   6   3 76.5023 1.88676   2
  -3   6   3 77.0131 1.65999   2
  -2   6  -6 3.77751 0.41826  -2
   2  -6  -3 3.77751 0.41826   1
  -2   6  -6 3.50337 0.31817  -2
   2  -6  -3 3.50337 0.31817   1
  -2   6  -6 3.53156 0.25337  -2
   2  -6  -3 3.53156 0.25337   1
  -2   6  -6 3.49459 0.21713  -2
   2  -6  -3 3.49459 0.21713   1
  -2   6  -6 3.65552 0.24934  -2
   2  -6  -3 3.65552 0.24934   1
  -2   6  -6 3.45509 0.39949  -2
   2  -6  -3 3.45509 0.39949   1
   2  -6   6 3.33518 0.51208  -2
  -2   6   3 3.33518 0.51208   1
   1  -6  -3 1.49075 0.12549   1
   1  -6  -3 2.03600 0.32485   1
   1  -6  -3 1.88967 0.24058   1
   1  -6  -3 1.56764 0.15998   1
   1  -6  -3 1.67191 0.27674   1
   1  -6  -3 1.13739 0.23997   1
   1  -6  -3 1.51514 0.14243   1
   1  -6  -3 1.70652 0.17905   2
   1  -6  -3 1.51807 0.35643   2
  -1   6   3 1.78143 0.23091   2
  -1   6   3 1.69084 0.14553   2
  -1   6   3 1.63085 0.22372   2
  -1   6   3 1.58333 0.34969   1
   0  -6  -3 42.3273 1.18579   1
   0  -6  -3 42.8446 1.01317   1
   0  -6  -3 41.6436 1.41518   1
   0  -6  -3 43.0361 1.15016   1
   0  -6  -3 43.9580 1.48999   1
   0  -6  -3 44.4025 1.00155   1
   0  -6  -3 47.6921 1.20628   2
   0   6  -7 47.1363 1.54279  -2
   0  -6  -3 47.1363 1.54279   1
   0   6   3 48.1009 1.08178   2
   0   6   3 47.6617 1.26320   2
   0   6   3 48.8557 1.26852   2
  -1  -6  -3 0.93858 0.24391   1
  -1  -6  -3 0.73910 0.20732   1
  -1  -6  -3 0.92276 0.12247   1
  -1  -6  -3 0.89606 0.11025   1
  -1  -6  -3 0.70234 0.19923   1
  -1  -6  -3 1.86326 0.39644   2
  -1  -6  -3 1.50361 0.23104   2
  -1  -6  -3 1.11597 0.15319   2
   1   6   3 0.75838 0.15126   2
  -2  -6  -3 58.2926 1.54004   2
  -2  -6  -3 58.0870 1.35707   2
  -2  -6  -3 52.0061 1.20740   1
  -2  -6  -3 51.0173 1.37350   1
  -2  -6  -3 52.0336 1.60027   1
  -2  -6  -3 51.9207 1.68001   1
  -2  -6  -3 52.1015 1.37510   1
   2   6   3 57.1686 1.42881   2
  -3  -6  -3 12.1687 0.60485   1
  -3  -6  -3 12.2313 0.56995   1
  -3  -6  -3 12.4534 0.50043   1
  -3  -6  -3 12.7610 0.39391   1
  -3  -6  -3 11.5470 0.43520   1
  -3  -6  -3 13.5605 0.37914   2
  -3  -6  -3 14.4123 0.54589   2
  -3  -6  -3 13.2216 0.60182   2
   3   6   3 14.0368 0.45681   2
   3   6   3 14.3909 0.53898   2
  -4  -6  -3 0.20073 0.06007   1
  -4  -6  -3 0.33018 0.10126   1
  -4  -6  -3 0.24489 0.11403   1
  -4  -6  -3 0.29242 0.09644   2
   4   6   3 0.23036 0.10238   2
   6  -7  -3 0.61470 0.12677   1
   6  -7  -3 0.60795 0.15243   1
   6  -7  -3 0.53871 0.11811   2
  -6   7   3 0.76488 0.11503   2
  -6   7   3 0.67197 0.09429   2
  -6   7   3 0.65978 0.12584   1
   5  -7  -3 0.75685 0.19234   1
   5  -7  -3 0.90282 0.15055   1
   5  -7  -3 0.63628 0.19499   1
   5  -7   5 1.74954 0.26460  -2
  -5   7   3 1.74954 0.26460   1
   4  -7  -3 0.01430 0.10041   2
   4  -7  -3 0.16884 0.04950   2
   4  -7  -3 0.02743 0.07837   1
   4  -7  -3 -0.0091 0.09302   1
   4  -7  -3 0.05727 0.12266   1
   4  -7  -3 0.19968 0.15415   1
   4  -7  -3 0.10999 0.08028   1
   4  -7  -3 0.02664 0.15159   1
   4  -7  -3 0.01276 0.08754   1
  -4   7   3 0.06977 0.08284   2
  -4   7   3 -0.0527 0.09969   2
  -4   7   3 -0.0313 0.10777   1
  -4   7   3 0.02111 0.22106   1
   3  -7  -3 14.0746 0.46335   1
   3  -7  -3 13.8408 0.71187   1
   3  -7  -3 13.9199 0.51584   1
   3  -7  -3 13.6566 0.64805   1
   3  -7  -3 14.0455 0.67496   1
   3  -7  -3 13.4101 0.48378   1
   3  -7  -3 14.1574 0.54373   1
   3  -7  -3 15.2725 0.45005   2
   3  -7  -3 14.3532 0.87522   2
   3  -7  -3 15.0164 0.59991   2
  -3   7   3 15.3263 0.53933   2
  -3   7   3 15.6720 0.58479   2
  -3   7   3 13.2767 0.70447   1
  -3   7   3 12.3663 0.81349   1
   2  -7  -3 35.7251 1.23946   1
   2  -7  -3 35.6271 0.91088   1
   2  -7  -3 36.5466 1.23156   1
   2  -7  -3 35.5800 1.02844   1
   2  -7  -3 35.5954 1.03862   1
   2  -7  -3 35.9196 1.29307   1
   2  -7  -3 35.1601 0.92335   1
   2  -7  -3 39.9585 0.99076   2
   2  -7  -3 38.7327 1.58433   2
  -2   7   3 35.7406 1.47660   1
  -2   7   3 40.7035 1.06593   2
  -2   7   3 39.8796 1.10516   2
   1  -7  -3 8.01610 0.48902   1
   1  -7  -3 7.58838 0.33921   1
   1  -7  -3 7.50242 0.51704   1
   1  -7  -3 7.59218 0.39304   1
   1  -7  -3 7.45038 0.29632   1
   1  -7  -3 7.40667 0.49643   1
   1  -7  -3 7.77057 0.30385   1
   1  -7  -3 8.83592 0.34689   2
   1  -7  -3 8.64134 0.68027   2
  -1   7   3 7.18809 0.62441   1
  -1   7   3 8.55618 0.41704   2
  -1   7   3 8.51610 0.38808   2
   0  -7  -3 0.20390 0.05221   1
   0  -7  -3 0.23798 0.08536   1
   0  -7  -3 0.23378 0.07378   1
   0   7  -8 7.46529 0.51086  -2
   0  -7  -3 7.46529 0.51086   1
   0   7  -8 6.42508 0.50993  -2
   0  -7  -3 6.42508 0.50993   1
   0   7  -8 7.50236 0.50663  -2
   0  -7  -3 7.50236 0.50663   1
   0   7  -8 8.47427 0.45035  -2
   0  -7  -3 8.47427 0.45035   1
   0  -7  -3 0.36734 0.09787   2
  -1  -7  -3 3.87115 0.29236   2
  -1  -7  -3 3.66992 0.19662   2
  -1  -7  -3 3.11488 0.31584   1
  -1  -7  -3 3.00449 0.30619   1
  -1  -7  -3 2.93409 0.33380   1
  -1  -7  -3 2.84207 0.16736   1
  -1  -7  -3 2.99522 0.19227   1
   1   7   3 3.62290 0.23981   2
   2   7  -9 9.57944 0.49137  -2
  -2  -7  -3 9.57944 0.49137   1
   2   7  -9 9.95702 0.32275  -2
  -2  -7  -3 9.95702 0.32275   1
   2   7  -9 9.45276 0.36065  -2
  -2  -7  -3 9.45276 0.36065   1
   2   7  -9 10.0207 0.52893  -2
  -2  -7  -3 10.0207 0.52893   1
  -3  -7  -3 2.99001 0.13721   1
  -3  -7  -3 3.17820 0.23411   1
  -3  -7  -3 3.49563 0.21562   2
  -5   8  -6 16.5366 0.59855  -2
   5  -8  -3 16.5366 0.59855   1
  -5   8  -6 17.0304 0.49142  -2
   5  -8  -3 17.0304 0.49142   1
   5  -8  -3 9.98585 0.36807   2
  -5   8   3 7.97849 0.30857   1
   4  -8  -3 1.07522 0.19481   1
   4  -8  -3 0.60585 0.10633   1
   4  -8  -3 0.74110 0.12731   1
   4  -8  -3 0.57499 0.11388   1
   4  -8  -3 0.55481 0.11971   1
   4  -8  -3 0.39600 0.15544   1
   4  -8  -3 0.88983 0.14811   2
  -4   8   3 0.58872 0.12572   2
  -4   8   3 0.60741 0.10003   2
  -3   8  -7 73.1221 2.09946  -2
   3  -8  -3 73.1221 2.09946   1
  -3   8  -7 74.6832 1.81476  -2
   3  -8  -3 74.6832 1.81476   1
  -3   8  -7 75.8733 1.70997  -2
   3  -8  -3 75.8733 1.70997   1
  -3   8  -7 70.4442 1.93232  -2
   3  -8  -3 70.4442 1.93232   1
  -3   8  -7 75.4562 1.64901  -2
   3  -8  -3 75.4562 1.64901   1
  -3   8  -7 78.6628 2.04258  -2
   3  -8  -3 78.6628 2.04258   1
   2  -8  -3 12.7769 0.62408   1
   2  -8  -3 12.4568 0.48702   1
   2  -8  -3 12.5151 0.57998   1
   2  -8  -3 11.9857 0.45973   1
   2  -8  -3 13.1237 0.41650   1
   2  -8  -3 12.3213 0.38855   1
   2  -8  -3 12.9598 0.60308   1
  -2   8   3 14.1801 0.51510   2
  -1   8  -8 34.5254 0.85856  -2
   1  -8  -3 34.5254 0.85856   1
  -1   8  -8 31.9886 1.11327  -2
   1  -8  -3 31.9886 1.11327   1
  -1   8  -8 35.1657 1.14743  -2
   1  -8  -3 35.1657 1.14743   1
  -1   8  -8 36.8091 1.12360  -2
   1  -8  -3 36.8091 1.12360   1
  -1   8  -8 32.9444 0.96167  -2
   1  -8  -3 32.9444 0.96167   1
  -1   8  -8 33.1929 0.96749  -2
   1  -8  -3 33.1929 0.96749   1
   0  -8  -3 0.84560 0.17915   1
   0  -8  -3 1.00845 0.12433   1
   0  -8  -3 0.91476 0.13299   1
   0  -8  -3 0.92145 0.10807   1
   0  -8  -3 0.87996 0.19736   1
   0  -8  -3 0.83253 0.15355   2
   0   8   3 0.85657 0.11584   2
   0   8   3 1.16146 0.15425   2
   1   8  -9 5.59662 0.21972  -2
  -1  -8  -3 5.59662 0.21972   1
   1   8  -9 5.40316 0.35614  -2
  -1  -8  -3 5.40316 0.35614   1
  -1  -8  -3 2.86464 0.17029   1
  -2  -8  -3 9.58409 0.33327   2
   3  -9  -3 5.51156 0.22954   1
   3  -9  -3 5.44330 0.20773   1
   3  -9  -3 5.63611 0.29544   1
  -3   9   3 5.94046 0.24443   2
   2  -9  -3 27.1072 0.70323   1
   2  -9  -3 27.0649 0.82578   1
   2  -9  -3 25.9395 0.64793   1
  -2   9   3 31.6181 0.78716   2
   1  -9  -3 0.99211 0.09729   1
   1  -9  -3 0.91398 0.11300   1
   1  -9  -3 0.89527 0.14027   1
  -1   9   3 0.93722 0.13770   2
   1  10  -4 3.37865 0.21167   1
   1  10  -4 4.14084 0.19435   2
   1  10  -4 3.88834 0.21557   2
  -1 -10   4 3.42668 0.21990   1
  -1 -10   4 3.90551 0.22056   1
  -1 -10   4 4.09232 0.21675   2
   0 -10   3 32.2946 0.87062  -2
   0  10  -4 32.2946 0.87062   1
   0  10  -3 31.2736 0.83167  -2
   0 -10   4 31.2736 0.83167   1
   0  10  -3 30.9023 0.83415  -2
   0 -10   4 30.9023 0.83415   1
  -1  10  -4 1.38630 0.14868   2
  -1  10  -4 1.45445 0.15033   2
  -1  10  -4 1.20152 0.16691   1
   1 -10   4 1.14163 0.15962   1
   2 -10   2 0.55547 0.18757  -2
  -2  10  -4 0.55547 0.18757   1
   2 -10   2 0.56423 0.18351  -2
  -2  10  -4 0.56423 0.18351   1
  -2  10  -2 0.54435 0.19494  -2
   2 -10   4 0.54435 0.19494   1
  -3  10  -4 2.24125 0.15809   2
  -3  10  -4 2.00806 0.15175   1
   3 -10   4 1.73226 0.15991   1
   3   9  -4 0.16361 0.13918  -2
  -3  -9   4 0.16361 0.13918   1
   3   9  -4 0.07165 0.14680  -2
  -3  -9   4 0.07165 0.14680   1
   2   9  -4 1.34787 0.15424   2
   2   9  -4 1.03838 0.14879   2
   2   9  -4 1.34876 0.18186   1
  -2  -9   4 1.17256 0.15584   2
  -2  -9   4 1.36935 0.18728   1
  -2  -9   4 1.15574 0.17350   1
   1   9  -4 2.55936 0.23444   2
   1   9  -4 2.52815 0.20674   2
   1   9  -4 2.17611 0.29181   1
   1   9  -4 2.10063 0.23635   1
  -1  -9   4 2.47672 0.30245   2
  -1  -9   4 2.87004 0.24692   2
  -1  -9   4 2.10825 0.22813   1
  -1  -9   4 1.90131 0.23128   1
   0   9  -4 40.8268 1.16119   1
   0   9  -4 39.4243 1.31830   1
   0   9  -4 46.6386 1.37197   2
   0   9  -4 47.0451 1.43625   2
   0   9  -4 48.2964 1.23482   2
   0   9  -4 47.7617 1.18253   2
   0   9  -4 47.9039 1.28819   2
   0   9  -4 47.2829 1.18062   2
   0  -9   4 45.5720 1.46805   2
   0  -9   4 40.3625 1.12467   1
  -1   9  -4 1.66845 0.19863   2
  -1   9  -4 1.53274 0.21280   2
  -1   9  -4 1.19495 0.17206   2
  -1   9  -4 1.24808 0.21403   2
  -1   9  -4 1.65626 0.22769   2
  -1   9  -4 1.26770 0.17579   2
  -1   9  -4 1.44735 0.21903   1
   1  -9   4 1.52709 0.25516   2
   1  -9   4 1.35714 0.19578   1
  -2   9  -4 8.86652 0.45305   2
  -2   9  -4 8.98154 0.48048   2
  -2   9  -4 8.70404 0.38625   2
   2  -9   1 7.02076 0.41687  -2
  -2   9  -4 7.02076 0.41687   1
  -2   9  -4 7.60279 0.38084   1
   2  -9   4 7.57994 0.39168   1
  -3   9  -4 5.86732 0.38400   2
  -3   9  -4 6.21301 0.33194   2
  -3   9  -4 6.85630 0.32895   2
  -3   9  -4 6.17073 0.36247   2
  -3   9  -4 4.99426 0.28675   1
   3  -9   4 5.34894 0.31636   1
   4  -9   0 4.41811 0.24401  -2
  -4   9  -4 4.41811 0.24401   1
  -4   9   0 4.22305 0.28360  -2
   4  -9   4 4.22305 0.28360   1
   4   8  -4 21.4991 0.60898   2
   4   8  -4 21.1483 0.58786   2
  -4  -8   4 18.7809 0.56499   1
  -4  -8   4 18.6878 0.55415   1
   3   8  -4 0.06831 0.10825   2
   3   8  -4 0.13005 0.10366   2
   3   8  -4 -0.0290 0.08253   2
  -3  -8   3 18.0798 0.60822  -2
   3   8  -4 18.0798 0.60822   1
  -3  -8   3 16.2108 0.72356  -2
   3   8  -4 16.2108 0.72356   1
  -3  -8   4 0.04266 0.10602   1
  -3  -8   4 0.15529 0.11039   1
  -3  -8   4 0.07467 0.11223   2
   2   8  -4 3.99538 0.32404   2
   2   8  -4 4.12157 0.29826   2
   2   8  -4 4.29594 0.34632   2
   2   8  -4 3.80561 0.27459   2
   2   8  -4 4.02497 0.26217   2
   2   8  -4 4.09136 0.25108   2
   2   8  -4 3.37789 0.36192   1
   2   8  -4 3.55437 0.29903   1
   2   8  -4 3.44370 0.37062   1
  -2  -8   4 3.58386 0.31928   1
  -2  -8   4 3.84456 0.30905   1
  -2  -8   4 3.68181 0.34674   2
  -2  -8   4 4.08553 0.30610   2
  -2  -8   4 3.88913 0.37039   2
  -1  -8   2 7.32774 0.54431  -2
   1   8  -4 7.32774 0.54431   1
  -1  -8   2 8.42721 0.47019  -2
   1   8  -4 8.42721 0.47019   1
  -1  -8   2 8.18660 0.56255  -2
   1   8  -4 8.18660 0.56255   1
   1   8  -2 7.77311 0.44308  -2
  -1  -8   4 7.77311 0.44308   1
   0   8  -4 271.796 5.77264   2
   0   8  -4 270.469 5.93160   2
   0   8  -4 272.271 6.56168   2
   0   8  -4 262.488 6.81075   2
   0   8  -4 266.591 5.62196   2
   0   8  -4 266.728 5.71120   2
   0   8  -4 270.453 6.82260   2
   0   8  -4 279.368 6.53000   2
   0   8  -4 238.723 6.08827   1
   0   8  -4 229.921 6.26867   1
   0  -8   4 267.716 7.15034   2
   0  -8   4 235.124 5.20023   1
   0  -8   4 238.981 5.13889   1
   1  -8   1 25.0426 0.95762  -2
  -1   8  -4 25.0426 0.95762   1
   1  -8   1 25.8404 1.20278  -2
  -1   8  -4 25.8404 1.20278   1
  -1   8  -1 22.7311 0.80598  -2
   1  -8   4 22.7311 0.80598   1
  -1   8  -1 26.4486 0.83457  -2
   1  -8   4 26.4486 0.83457   1
  -2   8  -4 248.389 6.23769   2
  -2   8  -4 244.950 5.98887   2
  -2   8  -4 246.652 5.20899   2
  -2   8  -4 245.611 6.20928   2
  -2   8  -4 248.173 5.15360   2
  -2   8  -4 244.394 5.40298   2
  -2   8  -4 245.200 5.94323   2
  -2   8  -4 214.891 6.03777   1
   2  -8   4 217.661 4.79164   1
   2  -8   4 221.730 4.50021   1
   2  -8   4 215.740 4.76924   1
   2  -8   4 236.474 6.50971   2
   2  -8   4 238.624 6.65561   2
   3  -8   0 39.1961 1.61064  -2
  -3   8  -4 39.1961 1.61064   1
   3  -8   0 39.9450 1.11025  -2
  -3   8  -4 39.9450 1.11025   1
  -3   8   0 40.3893 0.95052  -2
   3  -8   4 40.3893 0.95052   1
  -3   8   0 40.9717 1.12059  -2
   3  -8   4 40.9717 1.12059   1
  -4   8  -4 2.70940 0.29233   2
  -4   8  -4 1.60659 0.21237   2
  -4   8  -4 0.43319 0.14807   1
  -4   8  -4 0.50026 0.11951   1
   4  -8   4 0.71383 0.11258   1
   4  -8   4 0.67642 0.16508   1
  -5   8  -4 9.91179 0.30066   1
   5  -8  -1 10.1022 0.44258  -2
  -5   8  -4 10.1022 0.44258   1
   5  -8   4 9.95646 0.27151   1
  -6   8  -4 4.34404 0.23005   2
  -6   8  -4 3.42551 0.19199   1
   6  -8   4 3.86038 0.20056   2
   5   7  -4 -0.1189 0.06498   2
   5   7  -4 0.01340 0.07827   2
   5   7  -4 0.00939 0.09092   2
  -5  -7   4 -0.0448 0.08709   1
  -5  -7   4 -0.0994 0.10400   1
  -4  -7   3 213.535 5.48320  -2
   4   7  -4 213.535 5.48320   1
   4   7  -3 214.131 5.24555  -2
  -4  -7   4 214.131 5.24555   1
   4   7  -3 211.181 4.61656  -2
  -4  -7   4 211.181 4.61656   1
   4   7  -3 220.575 4.56206  -2
  -4  -7   4 220.575 4.56206   1
   3   7  -4 8.39005 0.43886   1
   3   7  -4 9.34338 0.56190   1
   3   7  -4 8.01940 0.56588   1
   3   7  -4 9.53168 0.42233   2
   3   7  -4 9.70080 0.46494   2
   3   7  -4 9.51071 0.40617   2
   3   7  -4 10.1540 0.55222   2
   3   7  -4 9.99686 0.52239   2
   3   7  -4 10.2313 0.46479   2
  -3  -7   4 9.23599 0.58001   2
  -3  -7   4 10.3209 0.55907   2
  -3  -7   4 8.17974 0.47182   1
  -3  -7   4 8.39982 0.45025   1
  -2  -7   2 1250.18 29.3152  -2
   2   7  -4 1250.18 29.3152   1
  -2  -7   2 1178.82 25.2716  -2
   2   7  -4 1178.82 25.2716   1
  -2  -7   2 1222.68 30.4136  -2
   2   7  -4 1222.68 30.4136   1
   2   7  -2 1202.37 24.8153  -2
  -2  -7   4 1202.37 24.8153   1
   1   7  -4 33.6643 1.17564   2
   1   7  -4 32.8922 0.91883   2
   1   7  -4 32.8804 1.01896   2
   1   7  -4 32.1040 1.01111   2
   1   7  -4 33.0592 0.90648   2
   1   7  -4 33.5693 0.98266   2
   1   7  -4 32.6562 1.12060   2
   1   7  -4 33.9286 1.16294   2
   1   7  -4 28.9079 1.14758   1
   1   7  -4 29.1607 1.12431   1
  -1  -7   4 29.2375 0.92697   1
  -1  -7   4 29.0449 0.91758   1
  -1  -7   4 33.9009 1.26559   2
   0  -7   1 663.688 16.0963  -2
   0   7  -4 663.688 16.0963   1
   0  -7   1 673.676 16.6533  -2
   0   7  -4 673.676 16.6533   1
   0   7  -4 689.941 14.1437   2
   0   7  -4 683.676 16.1370   2
   0   7  -4 690.954 16.1663   2
   0   7  -4 640.686 16.0876   1
   0  -7   4 626.086 12.8808   1
   0  -7   4 692.458 17.4783   2
   0   7  -1 636.397 13.6210  -2
   0  -7   4 636.397 13.6210   1
  -1   7  -4 7.73500 0.38641   2
  -1   7  -4 8.51825 0.43933   2
  -1   7  -4 8.50113 0.51001   2
  -1   7  -4 8.49214 0.36273   2
  -1   7  -4 8.43767 0.48294   2
  -1   7  -4 9.09186 0.50867   2
  -1   7  -4 8.76246 0.41165   2
  -1   7  -4 8.41641 0.43960   2
  -1   7  -4 7.52541 0.62424   1
  -1   7  -4 7.50176 0.48748   1
   1  -7   4 7.23056 0.32879   1
   1  -7   4 7.20819 0.39464   1
   1  -7   4 7.44224 0.41937   1
   1  -7   4 8.10280 0.54326   2
   1  -7   4 8.99874 0.66983   2
  -2   7  -4 23.1525 1.14511   1
  -2   7  -4 25.7751 1.21484   1
  -2   7  -4 30.1213 1.09359   2
  -2   7  -4 29.9875 0.85288   2
  -2   7  -4 32.0387 1.10532   2
  -2   7  -4 31.0684 1.06216   2
  -2   7  -4 29.9088 0.96558   2
  -2   7  -4 31.0557 0.95601   2
  -2   7  -4 29.0424 0.87551   2
   2  -7   4 31.4718 1.35840   2
   2  -7   4 29.1555 1.17501   2
   2  -7   4 26.0959 0.76092   1
   2  -7   4 26.0334 0.84193   1
  -3   7  -4 18.8601 0.69154   2
  -3   7  -4 18.1874 0.78255   2
  -3   7  -4 18.7070 0.76954   2
  -3   7  -4 18.1135 0.63689   2
  -3   7  -4 18.5730 0.78899   2
  -3   7  -4 19.2083 0.68917   2
  -3   7  -4 18.7576 0.61340   2
  -3   7  -4 16.5451 0.59610   1
  -3   7  -4 15.8429 0.61940   1
  -3   7  -4 16.9042 0.95747   1
   3  -7   4 18.4461 1.01375   2
   3  -7   4 17.7329 0.84469   2
   3  -7   4 16.1839 0.63558   1
   3  -7   4 16.3245 0.59121   1
  -4   7  -4 2.43532 0.26370   1
  -4   7  -4 2.55744 0.22395   1
  -4   7  -4 3.18697 0.49168   1
  -4   7  -4 2.74887 0.31554   2
  -4   7  -4 3.25544 0.26457   2
  -4   7  -4 3.01733 0.30919   2
  -4   7  -4 2.70695 0.32319   2
   4  -7   4 2.76198 0.36384   2
   4  -7   4 2.62370 0.44918   2
   4  -7   4 2.92160 0.28893   2
   4  -7   4 2.57311 0.26898   1
   4  -7   4 3.08945 0.25994   1
  -5   7  -4 0.88453 0.19390   2
   5  -7  -2 0.99322 0.25664  -2
  -5   7  -4 0.99322 0.25664   1
  -5   7  -4 0.66189 0.10275   1
   5  -7   4 0.81249 0.14803   1
  -5   7   2 1.31750 0.26455  -2
   5  -7   4 1.31750 0.26455   1
  -6   7  -4 0.37642 0.12928   2
  -6   7  -4 0.42855 0.13484   2
  -6   7  -4 0.49991 0.11305   1
   6  -7   4 0.49011 0.11611   2
   6  -7   4 0.36307 0.10088   1
   6   6  -4 570.761 11.4714   2
  -6  -6   4 577.725 13.2740   2
  -6  -6   4 467.603 9.38472   1
   4   6  -4 1427.57 33.8811   2
   4   6  -4 1405.05 28.6479   2
   4   6  -4 1394.26 28.6760   2
   4   6  -4 1428.75 32.7491   2
   4   6  -4 1401.47 32.5536   2
   4   6  -4 1404.35 28.0474   2
   4   6  -4 1253.66 31.4530   1
   4   6  -4 1275.91 30.3083   1
  -4  -6   4 1404.66 33.7961   2
  -4  -6   4 1394.39 35.1185   2
  -4  -6   4 1257.51 29.1368   1
  -4  -6   4 1236.34 25.6524   1
   3   6  -4 17.5469 0.82458   1
   3   6  -4 16.7344 0.83515   1
   3   6  -4 16.8813 0.65727   1
   3   6  -4 18.3254 0.68540   2
   3   6  -4 18.8899 0.78195   2
   3   6  -4 18.4383 0.80262   2
   3   6  -4 19.2259 0.68659   2
   3   6  -4 18.4985 0.60556   2
   3   6  -4 18.2914 0.62246   2
  -3  -6   4 18.1059 0.85891   2
  -3  -6   4 19.4422 0.81182   2
  -3  -6   4 16.1940 0.65855   1
   2   6  -4 560.171 11.8549   2
   2   6  -4 573.707 14.0130   2
   2   6  -4 559.720 11.7671   2
   2   6  -4 553.556 12.0728   2
   2   6  -4 587.605 13.4563   2
   2   6  -4 566.803 13.4685   2
   2   6  -4 570.366 11.5497   2
   2   6  -4 498.354 10.7846   1
   2   6  -4 500.908 12.4104   1
   2   6  -4 521.666 12.9917   1
   2   6  -4 507.467 12.5187   1
  -2  -6   4 495.483 10.5650   1
  -2  -6   4 513.865 10.2716   1
  -2  -6   4 603.622 14.0438   2
   1   6  -4 25.7883 0.80175   2
   1   6  -4 25.6280 0.94012   2
   1   6  -4 26.0002 0.95878   2
   1   6  -4 21.6047 1.13292   1
   1   6  -4 23.1337 0.94683   1
   1   6  -4 24.1694 0.94063   1
  -1  -6   4 26.0508 1.01853   2
  -1  -6   4 24.8101 1.19243   2
   0  -6   0 40.1962 1.53138  -2
   0   6  -4 40.1962 1.53138   1
   0   6  -4 11.7372 0.44684   2
   0   6  -4 12.0818 0.56602   2
   0   6  -4 10.8686 0.56166   1
   0   6  -4 10.1265 0.55763   1
   0   6  -4 10.1306 0.70094   1
   0   6  -4 10.1445 0.75234   1
   0  -6   4 11.7648 0.69088   2
   0  -6   4 10.9346 0.85733   2
   0  -6   4 12.6002 1.11164   2
   0  -6   4 11.1347 0.59597   2
   0  -6   4 10.4169 0.72110   2
  -1   6  -4 0.12474 0.19529   1
  -1   6  -4 0.05164 0.16776   1
  -1   6  -4 0.10436 0.29433   1
  -1   6  -4 0.20818 0.12619   1
  -1   6  -4 0.07298 0.06982   2
  -1   6  -4 0.16541 0.27163   2
  -1   6  -4 0.14250 0.12863   2
  -1   6  -4 0.08073 0.12833   2
   1  -6   4 0.04157 0.13424   2
   1  -6   4 0.20658 0.22189   2
   1  -6   4 0.23331 0.17126   2
   1  -6   4 0.12612 0.23645   2
   2  -6  -1 47.6349 1.75708  -2
  -2   6  -4 47.6349 1.75708   1
   2  -6  -1 45.6580 1.79724  -2
  -2   6  -4 45.6580 1.79724   1
  -2   6  -4 28.2810 1.17872   1
  -3   6  -4 13.8971 0.57068   1
  -3   6  -4 14.5493 0.52733   1
  -3   6  -4 14.7501 0.86050   1
  -3   6  -4 16.2861 0.59648   2
  -3   6  -4 16.7715 0.56184   2
  -3   6  -4 16.5698 0.65049   2
  -3   6  -4 17.5315 0.65578   2
  -3   6  -4 17.0222 0.71203   2
  -3   6  -4 16.9735 0.62949   2
  -3   6  -4 17.3435 0.74705   2
  -3   6  -4 17.8672 0.74812   2
   3  -6   4 13.9237 0.50773   1
   3  -6   4 13.7224 0.58527   1
   3  -6   4 14.3193 0.59400   1
   3  -6   4 17.5175 0.82153   2
   3  -6   4 16.5889 0.95752   2
   4  -6  -2 3.09454 0.28254  -2
  -4   6  -4 3.09454 0.28254   1
   4  -6  -2 3.33950 0.46381  -2
  -4   6  -4 3.33950 0.46381   1
   4  -6  -2 2.40238 0.20943  -2
  -4   6  -4 2.40238 0.20943   1
  -4   6   2 2.76449 0.27247  -2
   4  -6   4 2.76449 0.27247   1
  -4   6   2 3.03172 0.29118  -2
   4  -6   4 3.03172 0.29118   1
  -5   6  -4 1.04753 0.11526   1
  -5   6  -4 0.89775 0.17489   1
  -5   6  -4 1.39461 0.23266   2
  -5   6  -4 1.15532 0.21891   2
   5  -6   4 1.70785 0.36482   2
   5  -6   4 1.30734 0.25901   2
   5  -6   4 1.03776 0.20184   2
   5  -6   4 1.10067 0.19993   1
   5  -6   4 1.45288 0.22428   1
   6  -6  -3 5.81072 0.34939  -2
  -6   6  -4 5.81072 0.34939   1
  -6   6   3 6.32860 0.33514  -2
   6  -6   4 6.32860 0.33514   1
  -6   6   3 5.99001 0.32077  -2
   6  -6   4 5.99001 0.32077   1
  -7   6  -4 1.35124 0.12875   1
  -7   6  -4 1.46865 0.15269   2
   7  -6   4 1.49490 0.12924   1
   7  -6   4 1.55275 0.12489   2
   7  -6   4 1.41020 0.13659   2
   6   5  -4 529.838 10.9816   2
   6   5  -4 560.838 10.9337   2
   6   5  -4 548.744 12.6816   2
  -6  -5   4 528.415 13.1547   2
  -6  -5   4 463.066 9.42002   1
   5   5  -4 0.40426 0.13603   2
   5   5  -4 0.15817 0.15833   2
   5   5  -4 0.15753 0.16324   2
   5   5  -4 -0.0193 0.08644   2
   5   5  -4 0.06854 0.11486   2
   5   5  -4 0.09839 0.12302   2
   5   5  -4 -0.0708 0.16893   1
   5   5  -4 0.12622 0.17661   1
  -5  -5   4 0.11991 0.16056   1
  -5  -5   4 0.25244 0.11737   1
  -5  -5   4 0.09851 0.14804   2
   4   5  -4 133.910 2.97191   2
   4   5  -4 133.845 3.48644   2
   4   5  -4 132.766 3.05350   2
   4   5  -4 135.393 3.63481   2
   4   5  -4 134.014 3.38586   2
   4   5  -4 136.090 2.94845   2
   4   5  -4 119.829 3.50433   1
   4   5  -4 122.935 3.36700   1
  -4  -5   4 118.583 3.22238   1
  -4  -5   4 120.518 5.13358   2
  -4  -5   4 139.210 3.80629   2
  -4  -5   4 135.944 3.57347   2
  -3  -5   1 29.4055 1.09806  -2
   3   5  -4 29.4055 1.09806   1
  -3  -5   1 28.3559 1.04948  -2
   3   5  -4 28.3559 1.04948   1
  -3  -5   1 26.3616 1.28361  -2
   3   5  -4 26.3616 1.28361   1
  -3  -5   1 25.6736 0.86661  -2
   3   5  -4 25.6736 0.86661   1
  -3  -5   1 28.3380 1.45405  -2
   3   5  -4 28.3380 1.45405   1
   3   5  -1 26.5785 0.86016  -2
  -3  -5   4 26.5785 0.86016   1
   2   5  -4 15.7140 1.17078   1
   2   5  -4 20.7979 1.05741   1
   2   5  -4 19.4365 1.21422   1
   2   5  -4 20.9219 0.83944   1
   2   5  -4 19.0317 1.10757   1
   2   5  -4 21.7380 0.87231   1
   2   5  -4 20.7365 1.00967   1
   2   5  -4 23.8036 0.88380   2
   2   5  -4 23.5044 0.87044   2
   2   5  -4 22.9632 0.72961   2
  -2  -5   4 24.5495 1.11318   2
  -2  -5   4 24.0186 0.91626   2
  -2  -5   4 24.6823 1.27156   2
  -2  -5   4 23.5542 1.30160   2
  -1  -5   0 21.9395 0.84975  -2
   1   5  -4 21.9395 0.84975   1
  -1  -5   0 23.3189 0.96309  -2
   1   5  -4 23.3189 0.96309   1
  -1  -5   0 21.0354 0.82144  -2
   1   5  -4 21.0354 0.82144   1
  -1  -5   0 22.3581 1.03388  -2
   1   5  -4 22.3581 1.03388   1
  -1  -5   0 22.8554 1.16762  -2
   1   5  -4 22.8554 1.16762   1
  -1  -5   0 24.3319 1.10752  -2
   1   5  -4 24.3319 1.10752   1
  -1  -5   0 21.2772 0.93137  -2
   1   5  -4 21.2772 0.93137   1
   0   5  -4 53.4889 1.99422   2
   0   5  -4 51.4817 1.55897   2
   0   5  -4 54.2982 1.57743   2
   0   5  -4 47.1122 1.47293   1
   0   5  -4 51.1613 1.53986   1
   0   5  -4 48.3502 1.89322   1
   0   5  -4 48.3099 1.65909   1
   0   5  -4 49.2162 1.69685   1
   0   5  -4 49.1743 1.60164   1
   0  -5   4 52.9033 1.71235   2
   0  -5   4 53.2580 1.91726   2
   0  -5   4 55.5966 1.53263   2
   0  -5   4 54.6069 1.68568   2
   0  -5   4 52.9460 1.75482   2
   1  -5  -1 6.41883 0.67175  -2
  -1   5  -4 6.41883 0.67175   1
   1  -5  -1 6.41056 0.52410  -2
  -1   5  -4 6.41056 0.52410   1
   1  -5  -1 5.81873 0.55507  -2
  -1   5  -4 5.81873 0.55507   1
   1  -5  -1 6.44519 0.56526  -2
  -1   5  -4 6.44519 0.56526   1
   1  -5  -1 6.67105 0.39007  -2
  -1   5  -4 6.67105 0.39007   1
  -1   5   1 6.32415 0.33702  -2
   1  -5   4 6.32415 0.33702   1
  -2   5  -4 21.2526 0.98640   1
  -2   5  -4 21.1296 1.06120   1
  -2   5  -4 21.4805 1.00516   1
  -2   5  -4 19.7668 1.15676   1
  -2   5  -4 24.4730 1.06632   2
  -2   5  -4 25.2991 0.89580   2
  -2   5  -4 24.5489 0.75340   2
  -2   5  -4 24.2390 1.27042   2
  -2   5  -4 24.0745 0.87184   2
   2  -5   4 21.7001 0.77492   1
   2  -5   4 23.0804 1.09822   2
   2  -5   4 24.7428 0.95079   2
  -3   5  -4 20.9811 1.02051   1
  -3   5  -4 21.2581 1.10241   1
  -3   5  -4 23.7366 0.78082   2
  -3   5  -4 23.4555 0.88761   2
   3  -5   4 21.0478 0.82075   1
   3  -5   4 22.0693 1.06706   1
   3  -5   4 24.5389 1.01697   2
   3  -5   4 23.9491 0.97054   2
  -4   5  -4 10.6413 0.80872   2
  -4   5  -4 10.7994 0.54311   2
  -4   5  -4 10.4932 0.56169   2
  -4   5  -4 10.1972 0.55004   2
  -4   5  -4 10.7690 0.48247   2
  -4   5  -4 10.0943 0.49702   2
  -4   5  -4 10.3597 0.47822   2
  -4   5  -4 10.8549 0.42862   2
  -4   5  -4 10.1800 0.46651   2
  -4   5  -4 9.24534 0.49318   1
  -4   5  -4 9.32262 0.36167   1
  -4   5  -4 9.51379 0.68573   1
  -4   5  -4 9.42810 0.46737   1
   4  -5   4 9.98979 0.72535   2
   4  -5   4 11.1730 0.63082   2
   4  -5   4 8.81161 0.69908   1
   4  -5   4 9.78100 0.52190   1
  -5   5  -4 70.7405 2.68162   2
  -5   5  -4 73.2392 1.89891   2
  -5   5  -4 73.5249 2.13853   2
  -5   5  -4 71.8304 2.05224   2
  -5   5  -4 63.2995 1.63607   1
  -5   5  -4 60.8493 1.29532   1
  -5   5  -4 61.9240 1.62092   1
   5  -5   4 60.8026 1.83440   1
   5  -5   4 58.9276 2.27789   1
   5  -5   4 73.9865 2.25209   2
   5  -5   4 73.2082 2.44188   2
  -6   5  -4 0.07920 0.10749   1
  -6   5  -4 -0.0172 0.10993   2
  -6   5  -4 0.26934 0.13439   2
   6  -5   4 0.02331 0.10605   2
   6  -5   4 0.12353 0.18795   1
   6  -5   4 0.07113 0.13159   1
  -7   5  -4 3.45980 0.23066   2
  -7   5  -4 2.77888 0.18152   1
   7  -5   4 3.25155 0.19628   2
   7  -5   4 3.29986 0.20854   2
   7  -5   4 2.99110 0.22485   1
   7   4  -4 0.95187 0.11632   2
   7   4  -4 1.23177 0.13014   2
   7   4  -4 1.06647 0.17151   1
   7   4  -4 0.98294 0.13106   1
  -7  -4   4 0.93722 0.11508   1
  -7  -4   4 1.20698 0.15324   2
   6   4  -2 17.8122 0.60886  -2
  -6  -4   4 17.8122 0.60886   1
   5   4  -4 0.99856 0.17777   2
   5   4  -4 1.02753 0.23971   2
   5   4  -4 0.79550 0.20636   2
   5   4  -4 0.67760 0.16730   2
   5   4  -4 0.75382 0.17312   2
   5   4  -4 1.04884 0.16693   2
   5   4  -4 0.74632 0.15872   2
   5   4  -4 0.74581 0.23532   1
   5   4  -4 0.99557 0.25112   1
  -5  -4   4 0.75106 0.21708   1
  -5  -4   4 1.13669 0.18439   1
  -5  -4   4 1.25600 0.25098   2
  -4  -4   1 63.2569 1.98825  -2
   4   4  -4 63.2569 1.98825   1
  -4  -4   1 60.8272 1.88918  -2
   4   4  -4 60.8272 1.88918   1
  -4  -4   1 64.4312 2.48486  -2
   4   4  -4 64.4312 2.48486   1
   4   4  -1 55.3554 1.79516  -2
  -4  -4   4 55.3554 1.79516   1
   4   4  -1 62.3060 1.53927  -2
  -4  -4   4 62.3060 1.53927   1
   4   4  -1 62.8292 1.39407  -2
  -4  -4   4 62.8292 1.39407   1
   3   4  -4 7.34432 0.62540   1
   3   4  -4 7.65944 0.47729   1
   3   4  -4 7.89482 0.50376   1
   3   4  -4 7.68687 0.80755   1
   3   4  -4 8.74901 0.62828   1
   3   4  -4 8.84019 0.36935   2
   3   4  -4 8.49938 0.47961   2
  -3  -4   4 8.66641 0.71045   2
  -3  -4   4 8.26368 0.49248   2
  -3  -4   4 8.99603 0.64341   2
  -3  -4   4 8.46578 0.45892   2
  -3  -4   4 8.81867 0.77318   2
  -3  -4   4 8.19094 0.71309   2
   2   4  -4 4.47421 0.43044   1
   2   4  -4 5.23403 0.51738   1
   2   4  -4 4.87260 0.64695   1
   2   4  -4 4.61479 0.33814   1
   2   4  -4 4.60228 0.45227   1
   2   4  -4 4.31917 0.34258   1
  -2  -4   0 122.921 3.28675  -2
   2   4  -4 122.921 3.28675   1
   2   4  -4 5.23195 0.34146   2
  -2  -4   4 5.13500 0.33401   2
  -2  -4   4 5.69724 0.51217   2
  -2  -4   4 4.75578 0.44820   2
  -2  -4   4 5.29396 0.53170   2
  -2  -4   4 5.19761 0.55732   2
   1   4  -4 25.2878 0.90531   1
   1   4  -4 26.6360 1.13519   1
   1   4  -4 27.0813 1.00403   1
   1   4  -4 27.2953 0.99265   1
   1   4  -4 25.3225 0.99592   1
   1   4  -4 30.5203 1.23453   1
   1   4  -4 26.7347 0.93939   1
   1   4  -4 26.4428 1.17073   1
   1   4  -4 25.8214 1.04373   1
   1   4  -4 29.4543 0.95695   2
  -1  -4   4 27.1468 0.81458   1
  -1  -4   4 30.4625 1.31153   2
  -1  -4   4 29.3298 1.10914   2
  -1  -4   4 29.9353 0.85845   2
  -1  -4   4 30.1706 1.24141   2
   0   4  -4 280.308 7.19267   2
   0   4  -4 279.732 6.93849   2
   0   4  -4 281.963 7.61258   2
   0   4  -4 251.984 6.54140   1
   0   4  -4 252.179 7.25125   1
   0   4  -4 248.621 6.44626   1
   0   4  -4 251.238 5.81666   1
   0   4  -4 252.199 6.08273   1
   0   4  -4 251.272 6.78742   1
   0  -4   4 283.141 6.60797   2
   0  -4   4 285.055 6.44982   2
   0  -4   4 280.595 6.38950   2
   0  -4   4 276.759 7.38986   2
   0  -4   4 253.670 6.41164   1
  -1   4  -4 538.370 15.0127   1
  -1   4  -4 545.152 13.4235   1
  -1   4  -4 543.077 12.3736   1
  -1   4  -4 533.682 13.8256   1
  -1   4  -4 541.837 11.8336   1
  -1   4  -4 524.861 13.4872   1
  -1   4  -4 585.018 14.7742   2
  -1   4  -4 601.143 15.3517   2
  -1   4  -4 572.681 14.3213   2
   1  -4   4 544.515 12.3608   1
   1  -4   4 529.801 13.5025   1
   1  -4   4 609.505 12.9835   2
   1  -4   4 594.587 13.4818   2
   1  -4   4 585.531 14.9169   2
   1  -4   4 599.100 13.3485   2
  -2   4  -4 101.952 2.76494   2
  -2   4  -4 105.359 3.20913   2
  -2   4  -4 104.842 3.00818   2
  -2   4  -4 103.485 3.29058   2
  -2   4  -4 95.8476 2.77802   1
  -2   4  -4 91.6389 2.55863   1
  -2   4  -4 90.4757 2.97640   1
  -2   4  -4 92.3327 2.69646   1
  -2   4  -4 92.0592 3.00588   1
   2  -4   4 94.0248 2.63563   1
   2  -4   4 94.6956 2.92647   1
   2  -4   4 95.4285 2.49663   1
   2  -4   4 105.692 2.68931   2
   2  -4   4 100.347 2.80145   2
  -3   4  -4 421.545 11.6418   1
  -3   4  -4 445.301 10.4531   1
  -3   4  -4 455.713 11.2407   1
   3  -4  -3 459.241 10.1034  -2
  -3   4  -4 459.241 10.1034   1
  -3   4  -4 505.824 12.4641   2
  -3   4  -4 469.191 11.9676   2
  -3   4  -4 488.827 13.0277   2
   3  -4   4 438.521 12.0756   1
   3  -4   4 436.853 10.3283   1
   3  -4   4 490.416 11.4683   2
   3  -4   4 491.386 11.0457   2
   3  -4   4 492.739 12.4702   2
  -3   4   3 436.729 11.4156  -2
   3  -4   4 436.729 11.4156   1
  -4   4  -4 27.0822 0.93944   2
  -4   4  -4 27.6332 1.33412   2
  -4   4  -4 27.0006 0.87321   2
  -4   4  -4 26.7223 1.16605   2
  -4   4  -4 26.0270 0.84647   2
  -4   4  -4 26.5423 0.97501   2
  -4   4  -4 27.3603 0.96296   2
  -4   4  -4 20.9582 0.96840   2
  -4   4  -4 26.2785 0.86387   2
  -4   4  -4 26.0112 0.76482   2
  -4   4  -4 25.7404 0.93723   2
  -4   4  -4 22.9925 0.60487   1
  -4   4  -4 22.6242 0.80631   1
  -4   4  -4 22.9686 0.78050   1
  -4   4  -4 22.1917 1.17253   1
   4  -4   4 21.5093 1.15438   1
   4  -4   4 24.6729 0.96319   1
   4  -4   4 25.5618 1.11493   2
   4  -4   4 27.0877 1.06369   2
   5  -4  -4 14.3911 0.60269  -2
  -5   4  -4 14.3911 0.60269   1
  -6   4  -4 0.87861 0.16162   1
  -6   4  -4 0.99227 0.18797   1
  -6   4  -4 1.20091 0.21095   2
  -6   4  -4 0.94812 0.18826   2
  -7   4   5 27.0597 0.71743  -2
   7  -4   4 27.0597 0.71743   1
  -7  -3   2 2.01159 0.23409  -2
   7   3  -4 2.01159 0.23409   1
  -7  -3   2 2.17442 0.31036  -2
   7   3  -4 2.17442 0.31036   1
   7   3  -2 2.22139 0.23236  -2
  -7  -3   4 2.22139 0.23236   1
   6   3  -4 0.70512 0.16145   2
   6   3  -4 1.00732 0.19212   2
   6   3  -4 0.90090 0.15445   2
   6   3  -4 0.46266 0.17443   2
   6   3  -4 1.39976 0.25293   2
   6   3  -4 0.68691 0.15576   2
   6   3  -4 0.66538 0.22084   1
  -6  -3   4 0.62778 0.15468   1
  -6  -3   4 0.85044 0.22402   2
  -6  -3   4 0.86125 0.20739   2
   5   3  -4 0.84383 0.16240   2
   5   3  -4 0.84123 0.20388   2
   5   3  -4 0.56869 0.12584   2
   5   3  -4 0.86303 0.17017   2
   5   3  -4 0.67370 0.16861   2
   5   3  -4 0.79112 0.21076   2
   5   3  -4 0.94346 0.17066   2
   5   3  -4 0.56652 0.21128   1
   5   3  -4 0.66167 0.21693   1
   5   3  -4 0.63544 0.21252   1
  -5  -3   4 0.56904 0.20323   2
  -5  -3   4 0.56086 0.33833   2
  -5  -3   4 1.13533 0.25789   1
  -5  -3   4 0.57596 0.09578   1
  -5  -3   4 0.80723 0.16964   1
   4   3  -4 123.715 3.45131   1
   4   3  -4 117.878 3.99982   1
   4   3  -4 121.031 3.29785   1
   4   3  -4 131.115 3.23509   2
   4   3  -4 128.433 3.48787   2
  -4  -3   4 127.746 4.33763   2
  -4  -3   4 129.163 3.38213   2
  -4  -3   4 131.503 3.61510   2
   3   3  -4 155.744 4.13373   1
   3   3  -4 153.320 4.69662   1
   3   3  -4 155.363 4.76637   1
   3   3  -4 146.631 3.97360   1
   3   3  -4 149.755 4.37911   1
   3   3  -4 167.389 4.39460   2
   3   3  -4 164.577 4.10576   2
  -3  -3   4 176.201 4.18561   2
  -3  -3   4 171.480 4.39066   2
  -3  -3   4 172.940 5.32251   2
  -3  -3   4 173.586 4.92036   2
  -3  -3   4 172.462 5.00739   2
  -3  -3   4 169.375 4.35822   2
   2   3  -4 368.318 9.57196   1
   2   3  -4 366.885 9.43728   1
   2   3  -4 379.981 10.5823   1
   2   3  -4 373.293 9.90611   1
   2   3  -4 341.162 9.09303   1
   2   3  -4 378.360 8.58439   1
   2   3  -4 372.129 8.14381   1
   2   3  -4 380.551 9.72738   1
  -2  -3   4 415.962 10.8941   2
  -2  -3   4 405.316 10.7102   2
  -2  -3   4 409.868 11.7349   2
  -2  -3   4 423.692 9.42076   2
  -2  -3   4 378.444 9.31337   1
   1   3  -4 1761.55 42.2348   1
   1   3  -4 1606.72 41.7337   1
   1   3  -4 1784.80 46.8542   1
   1   3  -4 1745.91 37.7730   1
   1   3  -4 1694.43 36.0966   1
   1   3  -4 1734.83 42.8152   1
   1   3  -4 1699.13 42.3596   1
   1   3  -4 1649.27 42.9475   1
  -1  -3   4 1891.42 47.5322   2
  -1  -3   4 1947.35 40.5634   2
  -1  -3   4 1924.78 48.2854   2
  -1  -3   4 1952.12 42.5316   2
  -1  -3   4 1936.29 52.7111   2
  -1  -3   4 1704.71 42.3321   1
  -1  -3   4 1736.93 38.4959   1
   0  -3  -2 430.157 11.1475  -2
   0   3  -4 430.157 11.1475   1
   0  -3  -2 437.607 12.2372  -2
   0   3  -4 437.607 12.2372   1
   0  -3  -2 426.275 10.9383  -2
   0   3  -4 426.275 10.9383   1
   0  -3  -2 445.668 10.0086  -2
   0   3  -4 445.668 10.0086   1
   0  -3  -2 452.903 9.60417  -2
   0   3  -4 452.903 9.60417   1
   0  -3  -2 423.842 11.6428  -2
   0   3  -4 423.842 11.6428   1
   0  -3  -2 425.343 11.2304  -2
   0   3  -4 425.343 11.2304   1
   0   3  -4 419.564 10.4783   1
   0   3   2 425.887 10.9704  -2
   0  -3   4 425.887 10.9704   1
   0   3   2 461.281 10.0636  -2
   0  -3   4 461.281 10.0636   1
  -1   3  -4 746.881 19.5685   1
  -1   3  -4 732.265 18.5868   1
  -1   3  -4 726.151 15.8978   1
  -1   3  -4 734.350 18.7757   1
  -1   3  -4 749.563 16.6427   1
  -1   3  -4 735.087 18.2658   1
  -1   3  -4 736.963 20.4226   1
  -1   3  -4 845.089 21.7043   2
  -1   3  -4 784.272 20.1940   2
  -1   3  -4 822.991 20.8335   2
   1  -3   4 748.021 16.7965   1
   1  -3   4 732.729 18.4343   1
   1  -3   4 814.433 17.5981   2
   1  -3   4 827.753 18.3903   2
   2  -3  -3 98.0688 3.03247  -2
  -2   3  -4 98.0688 3.03247   1
   2  -3  -3 89.3163 2.64188  -2
  -2   3  -4 89.3163 2.64188   1
   2  -3  -3 92.8588 2.60467  -2
  -2   3  -4 92.8588 2.60467   1
   2  -3  -3 92.0589 2.44540  -2
  -2   3  -4 92.0589 2.44540   1
   2  -3  -3 87.6866 2.86990  -2
  -2   3  -4 87.6866 2.86990   1
  -2   3   3 86.1777 2.55590  -2
   2  -3   4 86.1777 2.55590   1
  -2   3   3 98.2065 2.94652  -2
   2  -3   4 98.2065 2.94652   1
  -2   3   3 92.7513 2.42598  -2
   2  -3   4 92.7513 2.42598   1
  -2   3   3 91.8160 2.83881  -2
   2  -3   4 91.8160 2.83881   1
  -3   3  -4 53.7055 1.65497   1
  -3   3  -4 51.8305 1.96854   1
  -3   3  -4 54.1379 1.74228   1
  -3   3  -4 54.8619 1.84016   1
  -3   3  -4 53.3602 2.06240   1
  -3   3  -4 59.9314 2.13764   2
  -3   3  -4 57.0636 2.17449   2
  -3   3  -4 58.8513 1.92371   2
  -3   3  -4 58.1635 1.67907   2
  -3   3  -4 59.0746 1.72160   2
   3  -3   4 52.8854 1.94270   1
   3  -3   4 52.2070 1.61961   1
   3  -3   4 53.3584 1.71073   1
   3  -3   4 53.2635 1.95309   1
   3  -3   4 59.8093 1.82100   2
   3  -3   4 58.3204 1.74770   2
   3  -3   4 59.1573 1.87332   2
   4  -3  -4 30.8488 1.47085  -2
  -4   3  -4 30.8488 1.47085   1
   4  -3  -4 29.2301 1.37721  -2
  -4   3  -4 29.2301 1.37721   1
  -4   3   4 30.8171 1.19201  -2
   4  -3   4 30.8171 1.19201   1
  -4   3   4 29.2078 1.17782  -2
   4  -3   4 29.2078 1.17782   1
  -4   3   4 29.5545 1.41753  -2
   4  -3   4 29.5545 1.41753   1
  -5   3  -4 6.35695 0.35250   1
  -5   3  -4 6.59553 0.38636   1
  -5   3  -4 6.29930 0.42654   1
  -5   3  -4 7.61343 0.48117   2
  -5   3  -4 7.35812 0.42213   2
  -5   3  -4 6.68096 0.42730   2
  -5   3  -4 7.42883 0.70344   2
  -5   3  -4 7.12926 0.44409   2
   5  -3   4 6.42707 0.50187   1
   5  -3   4 6.68547 0.64138   1
   5  -3   4 6.94930 0.48931   2
  -6   3  -4 6.36257 0.37662   2
  -6   3  -4 6.73981 0.40942   2
  -6   3  -4 5.70004 0.38338   1
  -6   3  -4 5.88472 0.33071   1
   6  -3  -5 9.52428 0.46926  -2
  -6   3  -4 9.52428 0.46926   1
   6  -3   4 6.21874 0.42072   2
  -6   3   5 8.57749 0.60777  -2
   6  -3   4 8.57749 0.60777   1
  -7   3  -4 6.61452 0.28704   1
  -7   3  -4 7.33896 0.35528   2
   7  -3   4 7.06639 0.31052   2
   8   2  -4 15.5141 0.50796   2
   7   2  -4 4.04734 0.26029   2
   7   2  -4 3.87152 0.34206   1
   7   2  -4 3.87602 0.27745   1
   7   2  -4 3.40513 0.34017   1
   7   2  -1 145.823 3.19233  -2
  -7  -2   4 145.823 3.19233   1
  -7  -2   4 4.25593 0.32524   2
  -7  -2   4 3.61337 0.29743   2
   6   2  -4 100.352 2.30472   2
   6   2  -4 97.5006 2.70327   2
   6   2  -4 99.9644 2.62380   2
   6   2  -4 99.7687 2.32899   2
   6   2  -4 98.5128 2.34725   2
   6   2  -4 103.691 2.31373   2
   6   2  -4 87.7825 2.51540   1
   6   2  -4 91.1339 2.59494   1
  -6  -2   4 90.4838 1.91457   1
  -6  -2   4 88.2997 2.10172   1
  -6  -2   4 100.821 2.79330   2
  -6  -2   4 99.7841 2.91468   2
  -5  -2   0 479.678 11.7844  -2
   5   2  -4 479.678 11.7844   1
  -5  -2   0 471.830 13.8838  -2
   5   2  -4 471.830 13.8838   1
  -5  -2   0 481.672 11.7925  -2
   5   2  -4 481.672 11.7925   1
   5   2  -4 186.819 5.01913   1
   5   2   0 480.235 9.86140  -2
  -5  -2   4 480.235 9.86140   1
   5   2   0 479.744 9.89727  -2
  -5  -2   4 479.744 9.89727   1
   4   2  -4 199.077 4.92829   2
   4   2  -4 200.666 5.22832   2
   4   2  -4 203.351 5.23744   2
   4   2  -4 180.822 4.73464   1
   4   2  -4 179.708 5.60446   1
   4   2  -4 180.764 5.31612   1
   4   2  -4 188.713 4.91111   1
   4   2  -4 185.036 5.66929   1
  -4  -2   4 204.503 5.87559   2
  -4  -2   4 207.004 5.00736   2
  -4  -2   4 211.890 6.36240   2
  -4  -2   4 203.659 5.97909   2
  -4  -2   4 204.976 5.80852   2
  -3  -2  -1 975.479 25.7578  -2
   3   2  -4 975.479 25.7578   1
  -3  -2  -1 1173.34 29.8063  -2
   3   2  -4 1173.34 29.8063   1
  -3  -2  -1 1052.78 26.7165  -2
   3   2  -4 1052.78 26.7165   1
  -3  -2  -1 1010.35 27.2877  -2
   3   2  -4 1010.35 27.2877   1
  -3  -2  -1 1087.01 27.3669  -2
   3   2  -4 1087.01 27.3669   1
   3   2   1 1143.68 26.6706  -2
  -3  -2   4 1143.68 26.6706   1
   2   2  -4 450.377 12.1281   1
   2   2  -4 450.408 11.4073   1
   2   2  -4 463.995 9.85534   1
   2   2  -4 456.847 11.8701   1
   2   2  -4 467.722 10.2557   1
   2   2  -4 462.734 11.7849   1
   2   2  -4 457.798 12.7767   1
   2   2  -4 433.926 11.2864   1
   2   2  -4 450.086 11.4424   1
   2   2  -4 503.412 12.9504   2
   2   2  -4 505.509 11.5919   2
  -2  -2   4 452.699 11.3982   1
  -2  -2   4 453.162 10.4276   1
  -2  -2   4 511.451 13.1023   2
  -2  -2   4 512.404 13.1710   2
  -2  -2   4 508.172 14.2766   2
  -1  -2  -2 76.9463 2.41112  -2
   1   2  -4 76.9463 2.41112   1
  -1  -2  -2 77.7948 2.23837  -2
   1   2  -4 77.7948 2.23837   1
  -1  -2  -2 70.7845 2.20865  -2
   1   2  -4 70.7845 2.20865   1
  -1  -2  -2 73.8993 2.23407  -2
   1   2  -4 73.8993 2.23407   1
  -1  -2  -2 73.3290 1.92064  -2
   1   2  -4 73.3290 1.92064   1
  -1  -2  -2 72.9300 2.10480  -2
   1   2  -4 72.9300 2.10480   1
   1   2   2 73.5482 2.03788  -2
  -1  -2   4 73.5482 2.03788   1
   1   2   2 77.3992 1.92791  -2
  -1  -2   4 77.3992 1.92791   1
   0   2  -4 2.68199 0.27209   2
   0   2  -4 3.57606 0.32411   2
   0   2  -4 2.85664 0.25838   2
   0   2  -4 3.01236 0.28175   2
   0   2  -4 2.97513 0.27845   2
   0   2  -4 2.60924 0.27958   1
   0   2  -4 2.48343 0.24418   1
   0   2  -4 2.63701 0.27078   1
   0   2  -4 2.55793 0.25428   1
   0   2  -4 2.13668 0.23714   1
   0   2  -4 2.30842 0.27230   1
   0   2  -4 2.40146 0.22878   1
   0  -2   4 3.08072 0.26045   2
   0  -2   4 2.65317 0.20104   1
  -1   2  -4 104.688 3.13200   1
  -1   2  -4 109.965 2.66474   1
  -1   2  -4 108.714 3.09610   1
  -1   2  -4 108.701 3.29841   1
  -1   2  -4 105.560 2.93854   1
  -1   2  -4 106.005 3.09442   1
  -1   2  -4 106.234 2.78583   1
  -1   2  -4 124.165 3.38604   2
  -1   2  -4 118.709 3.49340   2
  -1   2  -4 120.875 2.94231   2
  -1   2  -4 112.792 3.22574   2
  -1   2  -4 118.952 3.41997   2
   1  -2   4 107.162 2.65125   1
  -2   2  -4 111.188 3.25403   2
  -2   2  -4 110.159 3.33509   2
  -2   2  -4 112.434 3.28402   2
  -2   2  -4 103.917 3.03945   2
  -2   2  -4 104.205 2.83075   2
  -2   2  -4 99.5430 2.80075   1
  -2   2  -4 98.7928 3.05760   1
  -2   2  -4 100.121 3.18699   1
  -2   2  -4 100.416 2.54983   1
  -2   2  -4 100.074 3.07211   1
  -2   2  -4 100.517 2.75093   1
   2  -2   4 110.094 2.83131   2
   2  -2   4 110.565 2.70605   2
   2  -2   4 101.981 3.07324   1
   2  -2   4 101.142 2.58233   1
  -3   2  -4 7.19215 0.57867   1
  -3   2  -4 7.80713 0.59973   1
  -3   2  -4 7.71768 0.65660   1
  -3   2  -4 8.50580 0.64288   2
  -3   2  -4 8.45713 0.43768   2
  -3   2  -4 8.75647 0.55451   2
  -3   2  -4 7.80581 0.61932   2
  -3   2  -4 7.11728 0.62693   2
   3  -2   4 8.60880 0.46686   2
   3  -2   4 8.34657 0.59852   2
   3  -2   4 7.70470 0.47797   2
   3  -2   4 7.07612 0.57223   1
   3  -2   4 8.34922 0.65560   1
  -4   2  -4 11.3313 0.81789   2
  -4   2  -4 11.3343 0.56323   2
  -4   2  -4 10.7462 0.66607   2
  -4   2  -4 9.65781 0.74797   1
  -4   2  -4 9.53582 0.73567   1
   4  -2   4 10.3059 0.62985   1
   4  -2   4 9.63022 0.60962   1
   4  -2   4 9.08680 0.70243   1
   4  -2   4 10.9934 0.59913   2
   4  -2   4 10.6230 0.65870   2
  -5   2  -4 15.3261 0.56492   1
  -5   2  -4 14.5906 0.53006   1
  -5   2  -4 15.2745 0.50571   1
  -5   2  -4 14.6160 0.64522   1
  -5   2  -4 18.9453 0.69325   2
  -5   2  -4 18.1441 0.69208   2
  -5   2  -4 17.0620 1.09813   2
  -5   2  -4 17.5487 0.71279   2
  -5   2  -4 18.2456 0.78628   2
   5  -2   4 14.4599 0.95440   1
   5  -2   4 13.6927 0.96023   1
   5  -2   4 14.6765 0.80217   1
   5  -2   4 18.2438 0.82116   2
   6  -2  -6 76.6908 1.88918  -2
  -6   2  -4 76.6908 1.88918   1
   6  -2  -6 76.1147 1.64058  -2
  -6   2  -4 76.1147 1.64058   1
   6  -2  -6 74.7734 1.80946  -2
  -6   2  -4 74.7734 1.80946   1
   6  -2  -6 73.7445 1.76361  -2
  -6   2  -4 73.7445 1.76361   1
  -6   2   6 73.6454 2.27381  -2
   6  -2   4 73.6454 2.27381   1
  -7   2  -4 37.0437 0.93023   1
  -7   2  -4 37.5843 0.91567   1
  -7   2  -4 38.0626 0.99395   1
  -7   2  -4 41.8270 1.16190   2
   7  -2   4 42.1427 1.03468   2
  -8  -1   1 13.6889 0.49515  -2
   8   1  -4 13.6889 0.49515   1
  -8  -1   1 14.4658 0.39857  -2
   8   1  -4 14.4658 0.39857   1
   8   1  -1 13.6917 0.41503  -2
  -8  -1   4 13.6917 0.41503   1
   7   1  -4 58.0777 1.45994   1
   7   1  -4 58.4778 1.72982   1
   7   1  -4 57.5064 1.76742   1
   7   1  -4 64.5060 1.58514   2
   7   1  -4 67.3575 1.60070   2
  -7  -1   4 65.8697 1.90697   2
  -7  -1   4 65.4322 1.82282   2
  -7  -1   4 58.1964 1.42692   1
  -6  -1   0 50.1045 1.66953  -2
   6   1  -4 50.1045 1.66953   1
  -6  -1   0 52.0942 1.64223  -2
   6   1  -4 52.0942 1.64223   1
  -6  -1   0 49.6838 1.38776  -2
   6   1  -4 49.6838 1.38776   1
   6   1   0 53.8838 1.26167  -2
  -6  -1   4 53.8838 1.26167   1
   6   1   0 54.3959 1.37530  -2
  -6  -1   4 54.3959 1.37530   1
   5   1  -4 68.0813 2.04017   1
   5   1  -4 65.9849 1.70738   1
   5   1  -4 69.3184 2.54859   1
   5   1  -4 69.1557 2.00861   1
   5   1  -4 66.8184 1.99036   1
   5   1  -4 74.1437 1.78526   2
   5   1  -4 75.6915 2.43111   2
   5   1  -4 75.2802 2.14605   2
   5   1  -4 78.7032 2.04079   2
   5   1  -4 77.9107 1.84091   2
   5   1  -4 74.2241 1.79755   2
   5   1  -4 77.9601 2.23933   2
   5   1  -4 75.7584 1.88043   2
  -5  -1   4 74.9005 2.88737   2
  -5  -1   4 72.9315 2.22460   2
  -5  -1   4 78.3282 2.31971   2
  -5  -1   4 64.9943 1.63770   1
  -5  -1   4 68.6310 1.62041   1
   4   1  -4 66.8446 1.90617   1
   4   1  -4 67.9725 1.92357   1
   4   1  -4 62.4147 2.48519   1
   4   1  -4 65.2732 2.31620   1
   4   1  -4 71.7144 1.84165   2
   4   1  -4 71.0674 2.02835   2
  -4  -1  -1 68.1731 2.29184  -2
   4   1  -4 68.1731 2.29184   1
  -4  -1  -1 67.9549 2.45400  -2
   4   1  -4 67.9549 2.45400   1
  -4  -1   4 66.7133 1.85297   1
  -4  -1   4 72.4584 2.42396   2
  -4  -1   4 69.4460 2.55828   2
  -4  -1   4 73.2353 1.97327   2
  -4  -1   4 65.6233 2.51301   2
   3   1  -4 14.8168 0.71172   1
   3   1  -4 14.5004 0.59560   1
   3   1  -4 14.5424 0.77130   1
   3   1  -4 14.2181 0.53401   1
   3   1  -4 13.7681 0.89662   1
   3   1  -4 15.5829 0.80038   1
   3   1  -4 17.5957 0.92336   2
   3   1  -4 16.5091 0.80387   2
  -3  -1   4 15.1044 0.55957   1
  -3  -1   4 13.9704 0.58323   1
  -3  -1   4 16.5806 0.91115   2
  -3  -1   4 17.3089 0.83899   2
  -3  -1   4 16.7196 0.58030   2
  -3  -1   4 17.1146 0.93117   2
  -3  -1   4 16.8158 0.82862   2
   2   1  -4 93.2655 2.24638   1
   2   1  -4 91.3009 2.83056   1
   2   1  -4 85.0980 2.44812   1
   2   1  -4 91.2816 2.78078   1
   2   1  -4 88.8329 2.67429   1
   2   1  -4 92.1631 2.69041   1
   2   1  -4 98.8266 3.16398   2
   2   1  -4 95.3729 2.90105   2
   2   1  -4 95.9301 2.60223   2
   2   1  -4 98.3667 2.95381   2
  -2  -1   4 90.2831 2.27865   1
  -2  -1   4 88.8004 2.42091   1
  -2  -1   4 102.959 2.84905   2
  -2  -1   4 101.244 2.98124   2
   1   1  -4 43.2024 1.25603   2
   1   1  -4 40.6932 1.40915   2
   1   1  -4 43.1325 1.52311   2
   1   1  -4 41.4334 1.43232   2
   1   1  -4 42.6314 1.15939   2
   1   1  -4 41.1918 1.38534   2
   1   1  -4 38.3286 1.36471   1
   1   1  -4 38.2119 1.16386   1
   1   1  -4 37.8970 1.29375   1
   1   1  -4 37.6444 1.29433   1
   1   1  -4 38.6773 1.04671   1
   1   1  -4 44.2145 1.31823   1
   1   1  -4 36.8169 1.19913   1
   1   1  -4 37.5440 1.12391   1
  -1  -1   4 41.6595 1.34249   2
  -1  -1   4 38.9183 1.07097   1
   0   1  -4 5.00038 0.38688   2
   0   1  -4 5.12696 0.32731   2
   0   1  -4 5.13703 0.28911   2
   0   1  -4 5.01358 0.32866   2
   0   1  -4 5.10786 0.37294   2
   0   1  -4 4.82230 0.34323   2
   0   1  -4 5.10809 0.36789   2
   0   1  -4 4.51364 0.33764   1
   0   1  -4 4.56072 0.34612   1
   0   1  -4 4.22443 0.29174   1
   0   1  -4 4.15129 0.30962   1
   0   1  -4 4.71922 0.31362   1
  -1   1  -4 0.86755 0.17130   1
  -1   1  -4 1.42958 0.21866   2
  -1   1  -4 1.53548 0.24762   2
  -1   1  -4 0.47744 0.15540   2
  -1   1  -4 0.78375 0.21029   2
   1  -1   4 0.70157 0.11912   1
  -2   1  -4 134.669 3.59230   2
  -2   1  -4 143.690 4.20981   2
  -2   1  -4 141.486 3.48742   2
  -2   1  -4 140.734 4.24881   2
  -2   1  -4 143.745 4.11952   2
  -2   1  -4 142.082 4.04083   2
  -2   1  -4 139.682 3.83978   2
  -2   1  -4 128.308 3.79245   1
  -2   1  -4 129.695 3.95565   1
  -2   1  -4 129.103 3.35454   1
  -2   1  -4 130.152 3.07553   1
  -2   1  -4 124.518 3.72793   1
  -2   1  -4 123.642 3.41681   1
   2  -1   4 142.053 3.45038   2
   2  -1   4 130.649 3.14344   1
   2  -1   4 126.934 3.78923   1
   3  -1  -5 1339.91 36.9915  -2
  -3   1  -4 1339.91 36.9915   1
   3  -1  -5 1323.86 33.4330  -2
  -3   1  -4 1323.86 33.4330   1
   3  -1  -5 1404.46 29.9628  -2
  -3   1  -4 1404.46 29.9628   1
  -3   1   5 1263.77 34.0564  -2
   3  -1   4 1263.77 34.0564   1
  -3   1   5 1349.01 30.2453  -2
   3  -1   4 1349.01 30.2453   1
  -4   1  -4 32.1730 1.45206   1
  -4   1  -4 34.7095 1.58593   1
  -4   1  -4 33.8550 1.03843   1
  -4   1  -4 39.5094 1.45671   2
  -4   1  -4 39.1078 1.27873   2
  -4   1  -4 38.9578 1.70319   2
   4  -1   4 34.8710 1.51043   1
   4  -1   4 34.1705 1.25081   1
   4  -1   4 36.7837 1.38836   2
   4  -1   4 38.9668 1.35688   2
   5  -1  -6 293.126 6.06430  -2
  -5   1  -4 293.126 6.06430   1
   5  -1  -6 266.833 6.16014  -2
  -5   1  -4 266.833 6.16014   1
   5  -1  -6 271.799 5.52268  -2
  -5   1  -4 271.799 5.52268   1
   5  -1  -6 281.565 5.92129  -2
  -5   1  -4 281.565 5.92129   1
  -5   1   6 321.458 8.47543  -2
   5  -1   4 321.458 8.47543   1
  -6   1  -4 41.1041 1.19147   1
  -6   1  -4 41.1509 1.10068   1
  -6   1  -4 40.5506 1.03398   1
  -6   1  -4 41.0156 0.99002   1
  -6   1  -4 44.6590 1.42362   2
   7  -1  -7 20.9346 0.64535  -2
  -7   1  -4 20.9346 0.64535   1
   7  -1  -7 20.9255 0.54070  -2
  -7   1  -4 20.9255 0.54070   1
   7  -1  -7 20.7135 0.55520  -2
  -7   1  -4 20.7135 0.55520   1
   7  -1  -7 21.8840 0.61464  -2
  -7   1  -4 21.8840 0.61464   1
   8   0  -4 3.56174 0.20609   2
   8   0  -4 3.32032 0.19516   2
   8   0  -4 3.06003 0.24122   1
   8   0  -4 2.66960 0.15548   1
  -8   0   4 3.70276 0.22870   2
  -8   0   4 2.71211 0.16824   1
   7   0  -4 11.9230 0.47573   1
   7   0  -4 12.3282 0.60599   1
   7   0  -4 11.8373 0.61264   1
   7   0  -4 14.4972 0.53335   2
  -7   0   4 13.5371 0.61956   2
  -7   0   4 13.3606 0.58802   2
  -7   0   4 12.1239 0.36207   1
   7   0   0 35.6746 1.00407  -2
  -7   0   4 35.6746 1.00407   1
   6   0  -4 3.92128 0.39588   1
   6   0  -4 4.08897 0.50323   1
   6   0  -4 3.80653 0.39218   1
   6   0  -4 3.51254 0.29457   1
   6   0  -4 4.38596 0.32481   2
   6   0  -4 5.12295 0.32599   2
   6   0  -4 4.61961 0.32143   2
   6   0  -4 4.59350 0.32595   2
  -6   0   4 4.05398 0.29339   1
  -6   0   4 4.01291 0.25789   1
  -6   0   4 4.09760 0.38060   2
  -6   0   4 4.25119 0.40216   2
  -6   0   4 4.72914 0.37010   2
   5   0  -4 0.88188 0.31631   2
   5   0  -4 0.98945 0.14585   2
   5   0  -4 0.88011 0.16240   2
   5   0  -4 1.09633 0.26222   2
   5   0  -4 0.98884 0.19021   2
   5   0  -4 0.79204 0.22099   1
   5   0  -4 1.24544 0.31940   1
   5   0  -4 0.72233 0.20403   1
   5   0  -4 1.03464 0.20581   1
   5   0  -4 0.87765 0.29132   1
   5   0  -4 1.00600 0.25672   1
  -5   0   4 0.94704 0.20393   2
  -5   0   4 0.95716 0.35345   2
  -5   0   4 0.99551 0.35191   2
  -5   0   4 1.04519 0.23537   1
   4   0  -4 44.3713 1.75741   2
   4   0  -4 44.7781 1.57797   2
   4   0  -4 41.3866 1.18717   2
   4   0  -4 41.5234 1.33566   2
  -4   0  -2 65.9658 1.90369  -2
   4   0  -4 65.9658 1.90369   1
   4   0  -4 38.5960 1.53052   1
   4   0  -4 35.4452 1.52701   1
   4   0  -4 37.6149 1.47807   1
   4   0  -4 37.0834 1.73707   1
  -4   0   4 43.3282 1.73829   2
  -4   0   4 41.8673 1.32911   2
  -4   0   4 45.1336 1.81956   2
  -4   0   4 42.0946 1.82305   2
  -4   0   4 39.0242 1.19559   1
   3   0  -4 181.218 4.59135   2
   3   0  -4 188.842 5.60595   2
   3   0  -4 175.396 5.10247   2
   3   0  -4 163.038 4.78024   1
   3   0  -4 165.947 3.77171   1
   3   0  -4 163.040 4.58951   1
   3   0  -4 163.886 4.67253   1
   3   0  -4 158.634 4.22566   1
   3   0  -4 165.022 4.83327   1
   3   0  -4 155.447 4.11554   1
  -3   0   4 183.030 5.25845   2
  -3   0   4 183.120 4.33973   2
  -3   0   4 185.051 5.31589   2
  -3   0   4 161.871 4.23113   1
  -3   0   4 158.968 3.94260   1
  -2   0  -3 88.0838 2.16179  -2
   2   0  -4 88.0838 2.16179   1
  -2   0  -3 85.8873 2.57197  -2
   2   0  -4 85.8873 2.57197   1
  -2   0  -3 78.9038 2.33654  -2
   2   0  -4 78.9038 2.33654   1
  -2   0  -3 88.1654 2.64770  -2
   2   0  -4 88.1654 2.64770   1
  -2   0  -3 85.6154 2.66788  -2
   2   0  -4 85.6154 2.66788   1
  -2   0  -3 84.6173 2.59338  -2
   2   0  -4 84.6173 2.59338   1
   2   0   3 81.3532 2.28841  -2
  -2   0   4 81.3532 2.28841   1
   2   0   3 85.1947 2.15522  -2
  -2   0   4 85.1947 2.15522   1
   1   0  -4 430.853 9.31058   1
   1   0  -4 428.063 11.4883   1
   1   0  -4 437.165 11.0201   1
   1   0  -4 435.380 11.0865   1
   1   0  -4 419.514 10.6655   1
   1   0  -4 416.084 11.9398   1
   1   0  -4 494.997 13.2475   2
   1   0  -4 492.819 13.8309   2
   1   0  -4 502.577 11.1462   2
   1   0  -4 491.039 10.6365   2
   1   0  -4 494.931 12.4515   2
   1   0  -4 487.356 12.7831   2
  -1   0   4 435.610 9.73977   1
  -1   0   4 490.021 12.3863   2
   0   0  -4 235.642 5.21061  -2
   0   0  -4 235.642 5.21061   1
   0   0  -4 216.232 5.74880  -2
   0   0  -4 216.232 5.74880   1
   0   0  -4 191.256 5.99139  -2
   0   0  -4 191.256 5.99139   1
   0   0  -4 228.844 5.85177  -2
   0   0  -4 228.844 5.85177   1
   0   0  -4 238.790 5.83033  -2
   0   0  -4 238.790 5.83033   1
   0   0  -4 226.774 5.09841  -2
   0   0  -4 226.774 5.09841   1
   0   0  -4 233.570 6.51294  -2
   0   0  -4 233.570 6.51294   1
   0   0  -4 231.793 6.25958  -2
   0   0  -4 231.793 6.25958   1
  -1   0  -4 1963.15 48.5616   1
  -1   0  -4 1827.78 47.9669   1
  -1   0  -4 2086.02 49.5556   1
  -1   0  -4 2017.43 51.9922   1
  -1   0  -4 1963.57 43.4291   1
  -1   0  -4 1978.45 41.4798   1
  -1   0  -4 2412.51 64.0507   2
  -1   0  -4 2311.14 49.3480   2
  -1   0  -4 2363.42 58.9073   2
  -1   0  -4 2386.84 58.3413   2
  -1   0  -4 2316.47 61.4548   2
  -1   0  -4 2300.20 57.0973   2
   1   0   4 2327.40 52.6378   2
   2   0  -5 278.149 6.68778  -2
  -2   0  -4 278.149 6.68778   1
   2   0  -5 276.334 7.78293  -2
  -2   0  -4 276.334 7.78293   1
   2   0  -5 287.676 8.19673  -2
  -2   0  -4 287.676 8.19673   1
   2   0  -5 273.597 7.45796  -2
  -2   0  -4 273.597 7.45796   1
  -3   0  -4 561.960 13.8608   2
  -3   0  -4 569.032 14.8812   2
  -3   0  -4 575.127 15.5681   2
  -3   0  -4 574.406 12.6060   2
  -3   0  -4 571.170 14.3385   2
  -3   0  -4 561.830 15.0691   2
  -3   0  -4 581.730 16.1471   2
  -3   0  -4 516.974 14.3539   1
  -3   0  -4 493.169 13.1504   1
  -3   0  -4 502.367 11.7955   1
  -3   0  -4 492.009 11.7744   1
   3   0   4 495.988 11.6173   1
   3   0   4 509.679 13.3669   1
   3   0   4 508.144 13.7428   1
   3   0   4 570.233 13.2724   2
   3   0   4 564.105 14.4055   2
  -4   0  -4 136.335 4.47065   1
  -4   0  -4 133.623 2.68954   1
  -4   0  -4 133.522 3.10814   1
  -4   0  -4 133.431 2.94246   1
  -4   0  -4 133.300 3.86054   1
  -4   0  -4 132.264 2.97969   1
  -4   0  -4 130.708 2.85431   1
  -4   0  -4 134.781 3.35032   1
  -4   0  -4 156.078 4.90611   2
  -4   0  -4 157.866 4.11200   2
  -4   0  -4 155.186 3.56193   2
  -4   0  -4 153.788 3.25757   2
   4   0   4 136.611 4.22149   1
   4   0   4 135.554 3.55996   1
   4   0   4 153.278 3.44915   2
   4   0   4 161.692 4.30127   2
  -5   0  -4 26.3178 0.87947   1
  -5   0  -4 26.3980 0.88706   1
  -5   0  -4 26.3315 0.70220   1
  -5   0  -4 25.7475 0.80694   1
  -5   0  -4 25.2923 0.72232   1
  -5   0  -4 26.6379 1.43632   2
  -5   0  -4 29.7941 1.07464   2
  -5   0  -4 28.5339 0.90523   2
  -5   0  -4 29.7991 0.93494   2
   5   0   4 28.9388 0.88642   2
   5   0   4 28.6202 1.07067   2
   5   0   4 25.7201 1.33810   1
  -6   0  -4 12.5586 0.62083   2
  -6   0  -4 11.8671 0.57837   2
  -6   0  -4 10.5416 0.36572   1
  -6   0  -4 9.57044 0.48304   1
  -6   0  -4 10.1322 0.43464   1
  -6   0  -4 10.6018 0.37036   1
   6   0   4 11.7752 0.48504   2
   6   0   4 12.2941 0.48237   2
  -7   0  -4 1.21328 0.14903   1
  -7   0  -4 1.17968 0.13276   1
  -7   0  -4 1.17946 0.10872   1
  -7   0  -4 1.15301 0.08212   1
   8  -1  -4 13.9102 0.54772   1
   8  -1  -4 15.8672 0.47457   2
  -8   1   4 16.3770 0.53286   2
  -8   1   4 16.8101 0.49871   2
  -7   1  -1 32.2107 1.14602  -2
   7  -1  -4 32.2107 1.14602   1
  -7   1  -1 33.0996 0.88270  -2
   7  -1  -4 33.0996 0.88270   1
  -7   1  -1 32.5379 1.11863  -2
   7  -1  -4 32.5379 1.11863   1
   7  -1   1 31.5732 0.84339  -2
  -7   1   4 31.5732 0.84339   1
   6  -1  -4 0.19773 0.23173   1
   6  -1  -4 0.23372 0.17440   1
   6  -1  -4 0.09292 0.14914   1
   6  -1  -4 0.06550 0.10304   1
   6  -1  -4 0.50274 0.15049   2
   6  -1  -4 0.19257 0.14223   2
   6  -1  -4 0.06252 0.12145   2
  -6   1   4 0.29619 0.17225   2
  -6   1   4 0.08419 0.13706   2
  -6   1   4 0.12470 0.26324   2
  -6   1   4 0.12620 0.14467   2
  -6   1   4 0.13513 0.10536   1
  -6   1   4 0.14980 0.12723   1
  -5   1  -2 109.511 3.00776  -2
   5  -1  -4 109.511 3.00776   1
  -5   1  -2 108.271 3.62434  -2
   5  -1  -4 108.271 3.62434   1
  -5   1  -2 111.684 2.94776  -2
   5  -1  -4 111.684 2.94776   1
  -5   1  -2 121.003 3.06951  -2
   5  -1  -4 121.003 3.06951   1
  -5   1  -2 108.677 2.48790  -2
   5  -1  -4 108.677 2.48790   1
   5  -1   2 105.725 3.04596  -2
  -5   1   4 105.725 3.04596   1
   4  -1  -4 23.1092 1.08062   1
   4  -1  -4 21.2472 0.80690   1
   4  -1  -4 21.7804 1.09111   1
   4  -1  -4 22.2723 1.27815   1
   4  -1  -4 21.4714 0.84261   1
   4  -1  -4 25.6628 1.30981   2
   4  -1  -4 25.6622 1.13522   2
   4  -1  -4 24.2088 0.77400   2
   4  -1  -4 24.1414 1.23933   2
  -4   1   4 27.0843 1.28441   2
  -4   1   4 25.2739 0.93758   2
  -4   1   4 23.6444 1.30561   2
  -4   1   4 25.8867 0.95008   2
  -4   1   4 25.4455 0.87511   2
  -4   1   4 22.7142 0.82280   1
  -4   1   4 22.0060 0.87166   1
  -3   1  -3 544.319 14.1165  -2
   3  -1  -4 544.319 14.1165   1
  -3   1  -3 560.082 14.5444  -2
   3  -1  -4 560.082 14.5444   1
  -3   1  -3 533.687 13.9783  -2
   3  -1  -4 533.687 13.9783   1
  -3   1  -3 510.050 13.0347  -2
   3  -1  -4 510.050 13.0347   1
  -3   1  -3 520.291 13.3683  -2
   3  -1  -4 520.291 13.3683   1
   3  -1   3 557.193 13.5299  -2
  -3   1   4 557.193 13.5299   1
   3  -1   3 539.298 12.3808  -2
  -3   1   4 539.298 12.3808   1
   2  -1  -4 4.32866 0.31447   2
   2  -1  -4 4.25521 0.40847   2
   2  -1  -4 3.85877 0.35325   2
   2  -1  -4 4.35399 0.42546   2
   2  -1  -4 4.97117 0.34117   2
   2  -1  -4 3.37370 0.29239   1
   2  -1  -4 3.36225 0.28034   1
   2  -1  -4 4.04173 0.39147   1
   2  -1  -4 4.42392 0.36532   1
   2  -1  -4 3.23705 0.43921   1
   2  -1  -4 3.51425 0.33216   1
   2  -1  -4 3.02160 0.27865   1
  -2   1   4 3.63684 0.40824   2
  -2   1   4 4.03690 0.24742   2
  -2   1   4 3.43128 0.23334   1
   1  -1  -4 1287.37 27.2372   1
   1  -1  -4 1190.87 31.4472   1
   1  -1  -4 1319.13 32.3529   1
   1  -1  -4 1324.36 32.4590   1
   1  -1  -4 1279.48 33.8548   1
   1  -1  -4 1313.60 35.2359   1
   1  -1  -4 1408.45 36.5165   2
   1  -1  -4 1516.76 41.0968   2
   1  -1  -4 1506.29 31.6192   2
   1  -1  -4 1507.73 39.4013   2
   1  -1  -4 1484.93 37.8093   2
   1  -1  -4 1505.96 33.0604   2
   1  -1  -4 1550.40 37.0042   2
  -1   1   4 1300.48 28.8534   1
  -1   1   4 1493.18 33.5846   2
   0  -1  -4 215.766 6.00427   2
   0  -1  -4 219.520 6.42938   2
   0  -1  -4 224.316 6.17801   2
   0  -1  -4 223.324 5.72134   2
   0  -1  -4 210.606 5.65915   2
   0  -1  -4 213.677 5.04206   2
   0  -1  -4 222.744 5.12441   2
   0  -1  -4 197.194 5.16354   1
   0  -1  -4 200.144 5.31796   1
   0  -1  -4 199.708 5.35273   1
   0  -1  -4 193.475 5.08470   1
   0  -1  -4 198.591 5.71705   1
   0  -1  -4 195.050 4.62558   1
   0  -1  -4 196.447 4.50561   1
   0  -1  -4 197.363 5.50184   1
   0   1   4 218.456 5.09540   2
  -1  -1  -4 376.419 10.2844   2
  -1  -1  -4 380.893 9.79777   2
  -1  -1  -4 392.231 8.63048   2
  -1  -1  -4 389.520 11.0589   2
  -1  -1  -4 350.748 9.06790   1
  -1  -1  -4 333.102 8.75742   1
  -1  -1  -4 353.228 9.93178   1
  -1  -1  -4 346.832 8.11929   1
  -1  -1  -4 351.208 9.21003   1
  -1  -1  -4 355.010 7.68235   1
  -1  -1  -4 355.539 9.51062   1
   1   1   4 396.090 8.95464   2
  -2  -1  -4 93.6399 3.13743   1
  -2  -1  -4 96.3713 2.71397   1
  -2  -1  -4 96.4114 3.01897   1
  -2  -1  -4 96.7405 2.95808   1
  -2  -1  -4 102.450 3.29800   2
  -2  -1  -4 104.124 2.74767   2
  -2  -1  -4 104.756 3.43433   2
  -2  -1  -4 103.904 2.77136   2
  -2  -1  -4 101.217 2.97934   2
   2   1   4 103.541 2.72853   2
   2   1   4 103.257 2.86304   2
   2   1   4 91.0509 2.98448   1
  -3  -1  -4 0.47333 0.09430   1
  -3  -1  -4 0.79557 0.34007   1
  -3  -1  -4 0.60289 0.27564   1
  -3  -1  -4 0.33236 0.21304   1
  -3  -1  -4 0.44907 0.25518   2
   3   1   4 0.21810 0.22512   1
   3   1   4 0.05521 0.22427   1
   4   1  -7 17.9533 0.65402  -2
  -4  -1  -4 17.9533 0.65402   1
   4   1  -7 18.0010 0.71811  -2
  -4  -1  -4 18.0010 0.71811   1
  -4  -1  -4 8.03647 0.34267   1
  -4  -1  -4 8.08436 0.30842   1
  -4  -1  -4 8.56870 0.39381   1
  -4  -1  -4 8.81661 0.45291   2
  -4  -1  -4 9.05614 0.30091   2
   4   1   4 7.66464 0.71634   1
   4   1   4 9.48696 0.54199   2
  -5  -1  -4 8.68656 0.51510   2
  -5  -1  -4 8.77459 0.43444   2
  -5  -1  -4 7.49443 0.38842   1
  -5  -1  -4 7.76551 0.30117   1
  -5  -1  -4 7.50664 0.31466   1
  -5  -1  -4 7.86120 0.44527   1
  -5  -1  -4 7.42619 0.39155   1
   5   1   4 7.97902 0.42616   2
   6   1  -8 300.080 6.03203  -2
  -6  -1  -4 300.080 6.03203   1
   6   1  -8 307.924 6.34004  -2
  -6  -1  -4 307.924 6.34004   1
   6   1  -8 284.159 6.22093  -2
  -6  -1  -4 284.159 6.22093   1
   6   1  -8 305.104 5.69395  -2
  -6  -1  -4 305.104 5.69395   1
  -8   2  -1 20.5059 0.68140  -2
   8  -2  -4 20.5059 0.68140   1
   7  -2  -4 0.98702 0.12624   1
   7  -2  -4 0.87845 0.21189   1
   7  -2  -4 0.97247 0.22511   1
   7  -2  -4 1.21861 0.18140   2
  -7   2   4 0.80541 0.13666   1
  -7   2   4 1.09311 0.20741   2
   6  -2  -4 0.39953 0.11544   1
   6  -2  -4 0.43973 0.17882   1
  -6   2  -2 6.17524 0.47904  -2
   6  -2  -4 6.17524 0.47904   1
  -6   2  -2 5.68554 0.70360  -2
   6  -2  -4 5.68554 0.70360   1
  -6   2   4 0.34477 0.17141   2
   6  -2   2 5.53027 0.41399  -2
  -6   2   4 5.53027 0.41399   1
   5  -2  -4 95.9207 2.25016   2
   5  -2  -4 92.5457 2.96236   2
   5  -2  -4 99.4398 2.06618   2
   5  -2  -4 95.5270 2.24532   2
   5  -2  -4 97.6241 2.31608   2
   5  -2  -4 88.7986 2.02747   1
   5  -2  -4 85.4728 2.47781   1
   5  -2  -4 90.3938 2.51131   1
   5  -2  -4 92.6689 2.60243   1
   5  -2  -4 90.5899 3.04990   1
   5  -2  -4 87.5823 2.14622   1
  -5   2   4 98.9884 2.82116   2
  -5   2   4 96.7815 3.40492   2
  -5   2   4 101.578 2.68314   2
  -5   2   4 95.1887 3.41348   2
  -5   2   4 90.3514 2.56182   1
   4  -2  -4 0.41293 0.16920   1
   4  -2  -4 0.09085 0.26221   1
   4  -2  -4 0.33454 0.17099   1
   4  -2  -4 0.17926 0.12999   1
   4  -2  -4 0.63621 0.23965   1
   4  -2  -4 0.29341 0.21601   1
   4  -2  -4 0.44242 0.27151   2
   4  -2  -4 0.36373 0.24380   2
   4  -2  -4 0.48016 0.24338   2
  -4   2   4 0.16335 0.14681   1
  -4   2   4 0.25022 0.12162   1
  -4   2   4 0.39144 0.15264   2
  -4   2   4 0.41564 0.25379   2
  -4   2   4 0.43010 0.28139   2
   3  -2  -4 137.777 3.61758   1
   3  -2  -4 144.443 4.18299   1
   3  -2  -4 139.781 4.31349   1
   3  -2  -4 140.668 4.04023   1
   3  -2  -4 138.659 3.78877   1
   3  -2  -4 155.540 4.60305   2
   3  -2  -4 160.619 4.98684   2
   3  -2  -4 156.751 4.11434   2
  -3   2   4 157.404 4.79018   2
  -3   2   4 156.102 4.19785   2
  -3   2   4 158.774 4.71769   2
  -3   2   4 136.744 3.44920   1
  -3   2   4 139.775 3.48906   1
  -3   2   4 137.570 3.71745   1
   2  -2  -4 56.5531 1.97903   2
   2  -2  -4 55.7086 2.06419   2
   2  -2  -4 53.8053 1.70344   2
   2  -2  -4 55.7230 1.73678   2
   2  -2  -4 54.4571 1.60812   2
   2  -2  -4 52.8596 1.91647   2
   2  -2  -4 47.9456 1.81277   1
   2  -2  -4 46.3474 1.65490   1
   2  -2  -4 49.6229 1.62563   1
   2  -2  -4 47.4061 1.49968   1
   2  -2  -4 45.5764 1.38070   1
  -2   2   4 54.9987 1.96085   2
  -2   2   4 53.9108 1.53400   2
  -2   2   4 47.2671 1.43979   1
  -2   2   4 47.9291 1.29300   1
   1  -2  -4 11.6983 0.59662   2
   1  -2  -4 11.9665 0.73815   2
   1  -2  -4 11.8493 0.60830   2
   1  -2  -4 11.2678 0.72302   2
   1  -2  -4 11.8566 0.60475   2
   1  -2  -4 10.9590 0.57538   1
   1  -2  -4 10.5602 0.57737   1
   1  -2  -4 10.3795 0.52438   1
   1  -2  -4 10.6494 0.69149   1
   1  -2  -4 10.5256 0.53550   1
  -1   2  -5 98.0604 2.59317  -2
   1  -2  -4 98.0604 2.59317   1
  -1   2   4 11.4121 0.49259   2
   0  -2  -4 1.83693 0.30463   2
   0  -2  -4 1.43106 0.31306   2
   0  -2  -4 1.38782 0.31427   2
   0  -2  -4 1.74976 0.26335   2
   0  -2  -4 1.34472 0.28165   2
   0  -2  -4 1.47230 0.24637   2
   0  -2  -4 1.59817 0.28309   2
   0  -2  -4 1.24760 0.22769   1
   0  -2  -4 1.47684 0.24916   1
   0  -2  -4 1.26152 0.29262   1
   0  -2  -4 1.43395 0.25558   1
   0  -2  -4 1.14179 0.23757   1
   0  -2  -4 1.49377 0.23036   1
   0   2   4 1.39688 0.20009   2
   1   2  -6 244.580 7.29361  -2
  -1  -2  -4 244.580 7.29361   1
   1   2  -6 244.336 5.93304  -2
  -1  -2  -4 244.336 5.93304   1
   1   2  -6 250.970 6.96216  -2
  -1  -2  -4 250.970 6.96216   1
   1   2  -6 246.235 6.65578  -2
  -1  -2  -4 246.235 6.65578   1
  -2  -2  -4 41.0177 1.47959   2
  -2  -2  -4 40.0493 1.74805   2
  -2  -2  -4 40.3244 1.44190   2
  -2  -2  -4 40.2057 1.74716   2
  -2  -2  -4 41.2830 1.63834   2
  -2  -2  -4 39.3890 1.26144   2
  -2  -2  -4 35.4636 1.56779   1
  -2  -2  -4 37.1914 1.42407   1
  -2  -2  -4 35.2019 1.52101   1
   2   2   4 35.8096 1.51894   1
   2   2   4 40.5093 1.32712   2
   2   2   4 38.6903 1.34711   2
   3   2  -7 32.5514 1.40352  -2
  -3  -2  -4 32.5514 1.40352   1
  -3  -2   7 27.4653 1.41764  -2
   3   2   4 27.4653 1.41764   1
  -4  -2  -4 3.71650 0.35773   2
  -4  -2  -4 3.80042 0.17866   2
  -4  -2  -4 3.88968 0.31259   2
  -4  -2  -4 3.26125 0.27271   1
  -4  -2  -4 3.38758 0.24448   1
  -4  -2  -4 3.35319 0.21510   1
  -4  -2  -4 3.19075 0.17077   1
  -4  -2  -4 3.17832 0.31905   1
   4   2   4 3.98865 0.35011   2
   4   2   4 3.79642 0.32420   2
   5   2  -8 26.8960 0.67442  -2
  -5  -2  -4 26.8960 0.67442   1
   5   2  -8 25.5344 0.83377  -2
  -5  -2  -4 25.5344 0.83377   1
   5   2  -8 26.8846 0.87654  -2
  -5  -2  -4 26.8846 0.87654   1
   5   2  -8 25.4546 0.63115  -2
  -5  -2  -4 25.4546 0.63115   1
   5   2  -8 26.7231 0.81175  -2
  -5  -2  -4 26.7231 0.81175   1
  -6  -2  -4 229.524 4.74153   1
  -6  -2  -4 227.965 4.33571   1
  -6  -2  -4 225.987 4.85166   1
  -6  -2  -4 257.920 5.66412   2
   6   2   4 265.090 5.44154   2
   6   2   4 262.865 5.43142   2
   8  -3  -4 2.59179 0.21967   1
  -8   3   4 2.98349 0.17027   2
   7  -3  -4 8.07243 0.46895   1
   7  -3  -4 7.53226 0.47847   1
  -7   3   4 7.63650 0.33934   1
  -7   3   4 8.69673 0.44409   2
   6  -3  -4 0.69796 0.17021   2
   6  -3  -4 0.49874 0.25802   1
   6  -3  -4 0.51268 0.19154   1
   6  -3  -4 0.65093 0.22118   1
  -6   3   4 0.45148 0.18081   2
  -6   3   4 0.56963 0.18178   2
  -6   3   4 0.41030 0.34035   2
   5  -3  -4 7.19470 0.49301   1
   5  -3  -4 6.98521 0.45956   1
   5  -3  -4 6.77184 0.36421   1
   5  -3  -4 6.31189 0.60031   1
   5  -3  -4 6.49941 0.47408   1
   5  -3  -4 7.06117 0.23113   1
   5  -3  -4 7.40674 0.42580   2
   5  -3  -4 7.46361 0.40918   2
  -5   3   4 6.03321 0.42866   1
  -5   3   4 7.70312 0.75482   2
  -5   3   4 7.87988 0.49334   2
  -4   3  -4 35.3062 1.16761  -2
   4  -3  -4 35.3062 1.16761   1
  -4   3  -4 35.4197 1.19749  -2
   4  -3  -4 35.4197 1.19749   1
  -4   3  -4 33.5731 1.54300  -2
   4  -3  -4 33.5731 1.54300   1
  -4   3  -4 34.2279 1.35756  -2
   4  -3  -4 34.2279 1.35756   1
   4  -3   4 32.9788 1.28859  -2
  -4   3   4 32.9788 1.28859   1
   4  -3   4 34.9637 1.26242  -2
  -4   3   4 34.9637 1.26242   1
   3  -3  -4 18.6690 0.73319   1
   3  -3  -4 17.2060 0.73917   1
   3  -3  -4 17.0970 1.11432   1
   3  -3  -4 18.5737 0.82686   1
   3  -3  -4 17.9450 0.92686   1
   3  -3  -4 18.6649 1.09366   2
   3  -3  -4 19.0628 1.11147   2
   3  -3  -4 19.4893 0.97871   2
   3  -3  -4 19.6320 0.87369   2
  -3   3   4 18.5114 0.73791   1
  -3   3   4 16.8413 0.84406   1
  -3   3   4 19.2037 0.81907   2
  -3   3   4 19.3382 0.78040   2
  -3   3   4 19.6902 1.07282   2
  -3   3   4 18.5811 1.09548   2
  -2   3  -5 51.8940 1.70009  -2
   2  -3  -4 51.8940 1.70009   1
  -2   3  -5 52.3003 1.97681  -2
   2  -3  -4 52.3003 1.97681   1
  -2   3  -5 52.1913 1.84700  -2
   2  -3  -4 52.1913 1.84700   1
  -2   3  -5 48.7416 1.50158  -2
   2  -3  -4 48.7416 1.50158   1
   2  -3   5 52.5583 1.44535  -2
  -2   3   4 52.5583 1.44535   1
   2  -3   5 46.7278 1.60318  -2
  -2   3   4 46.7278 1.60318   1
   1  -3  -4 22.8576 1.19215   1
   1  -3  -4 23.5159 0.82180   1
   1  -3  -4 23.3599 0.98272   1
   1  -3  -4 22.3314 0.90734   1
   1  -3  -4 26.6533 1.19398   2
   1  -3  -4 26.5533 1.07178   2
   1  -3  -4 25.7634 1.20276   2
   1  -3  -4 27.3632 1.26230   2
   1  -3  -4 26.6778 1.27531   2
   1  -3  -4 25.5007 1.04936   2
   1  -3  -4 26.7682 1.08342   2
  -1   3   4 26.1971 0.92471   2
  -1   3   4 25.0641 0.93597   2
  -1   3   4 22.6371 0.93104   1
   0   3  -6 48.4515 1.62516  -2
   0  -3  -4 48.4515 1.62516   1
   0   3  -6 48.7462 1.44443  -2
   0  -3  -4 48.7462 1.44443   1
   0  -3   6 49.8232 1.59738  -2
   0   3   4 49.8232 1.59738   1
  -1  -3  -4 38.7369 1.43301   2
  -1  -3  -4 39.3846 1.56249   2
  -1  -3  -4 37.8038 1.17116   2
  -1  -3  -4 34.3423 1.64222   2
  -1  -3  -4 36.7466 1.62607   2
  -1  -3  -4 37.1595 1.41017   2
   1   3   4 37.9363 2.16766   1
   1   3   4 37.0951 1.27730   2
   1   3   4 37.4905 1.25096   2
  -2  -3  -4 163.148 4.32114   2
  -2  -3  -4 166.666 5.40719   2
  -2  -3  -4 167.797 4.67999   2
   2   3   4 168.277 4.51086   2
  -3  -3  -4 23.9475 0.82161   2
  -3  -3  -4 23.4704 1.38744   2
  -3  -3  -4 24.7228 0.94487   2
  -3  -3  -4 24.3902 0.64064   2
  -3  -3  -4 20.6217 0.76052   1
   3   3   4 22.0018 1.25398   1
   3   3   4 23.8867 0.94053   2
  -4  -3  -4 1033.74 21.5430   1
  -4  -3  -4 1053.41 21.3681   1
  -4  -3  -4 1057.78 24.4347   1
  -4  -3  -4 1054.09 21.2055   1
  -4  -3  -4 1212.19 24.6643   2
  -4  -3  -4 1174.21 23.8399   2
  -4  -3  -4 1206.30 28.5403   2
   4   3   4 1145.63 23.9344   2
  -5  -3  -4 0.25251 0.10598   1
  -5  -3  -4 0.15110 0.13078   1
  -5  -3  -4 0.19754 0.09278   1
  -5  -3  -4 0.23415 0.07547   1
  -5  -3  -4 0.23944 0.15014   2
  -5  -3  -4 0.21939 0.12020   2
   5   3   4 0.24234 0.10928   2
   5   3   4 0.32355 0.13105   2
  -6  -3  -4 824.269 16.8705   1
  -6  -3  -4 834.173 15.3310   1
   6   3   4 877.388 17.8340   2
   6   3   4 894.902 17.7896   2
  -7   4  -3 36.9543 1.12453  -2
   7  -4  -4 36.9543 1.12453   1
  -7   4  -3 37.6070 1.15737  -2
   7  -4  -4 37.6070 1.15737   1
   7  -4   3 35.0886 0.96826  -2
  -7   4   4 35.0886 0.96826   1
   7  -4   3 32.9756 0.91089  -2
  -7   4   4 32.9756 0.91089   1
   6  -4  -4 0.16735 0.16141   1
   6  -4  -4 0.15203 0.15649   1
   6  -4  -4 0.13574 0.11601   2
   6  -4  -4 0.20807 0.12819   2
  -6   4   4 0.25331 0.16043   2
  -5   4  -4 7.57034 0.52802  -2
   5  -4  -4 7.57034 0.52802   1
  -5   4  -4 7.15270 0.71434  -2
   5  -4  -4 7.15270 0.71434   1
  -5   4  -4 7.59288 0.53215  -2
   5  -4  -4 7.59288 0.53215   1
  -5   4  -4 8.43003 0.55978  -2
   5  -4  -4 8.43003 0.55978   1
   5  -4   4 8.01054 0.53337  -2
  -5   4   4 8.01054 0.53337   1
   4  -4  -4 6.10588 0.37701   2
   4  -4  -4 6.65116 0.39066   2
   4  -4  -4 5.74893 0.48527   1
   4  -4  -4 5.83552 0.44276   1
   4  -4  -4 5.86841 0.32536   1
   4  -4  -4 5.67416 0.35946   1
   4  -4  -4 5.91716 0.27582   1
   4  -4  -4 5.56756 0.43927   1
   4  -4  -4 5.43786 0.32679   1
   4  -4  -4 6.32910 0.34967   1
   4  -4  -4 5.43855 0.54756   1
   4  -4  -4 6.13541 0.42746   1
   4  -4  -4 5.90060 0.31108   1
  -4   4   4 6.51253 0.44084   2
  -4   4   4 6.28284 0.68179   2
  -4   4   4 5.76395 0.42805   1
   3  -4  -4 2.41796 0.37785   1
   3  -4  -4 2.62151 0.32747   1
   3  -4  -4 2.29865 0.48109   2
   3  -4  -4 2.11710 0.40887   2
  -3   4  -5 38.5546 1.66809  -2
   3  -4  -4 38.5546 1.66809   1
  -3   4  -5 40.9178 1.34105  -2
   3  -4  -4 40.9178 1.34105   1
  -3   4   4 2.07285 0.28314   2
  -3   4   4 2.96232 0.52191   2
  -3   4   4 2.46750 0.38174   2
  -3   4   4 1.97313 0.29969   1
   2  -4  -4 2.18167 0.53491   1
   2  -4  -4 2.41496 0.32652   1
   2  -4  -4 2.54984 0.32300   1
   2  -4  -4 3.46220 0.30513   1
   2  -4  -4 2.49132 0.38319   1
   2  -4  -4 3.74710 0.47654   2
   2  -4  -4 4.34298 0.52295   2
   2  -4  -4 4.80618 0.66221   2
   2  -4  -4 2.26405 0.44571   2
   2  -4  -4 3.41530 0.47911   2
  -2   4   4 2.56433 0.42209   1
  -2   4   4 2.67171 0.26760   1
  -2   4   4 3.50895 0.41728   2
  -2   4   4 4.95396 0.54887   2
   1  -4  -4 35.7071 1.65884   2
   1  -4  -4 35.0818 1.59319   2
   1  -4  -4 35.8100 1.42799   2
   1  -4  -4 35.2996 1.38930   2
   1  -4  -4 36.9416 1.42279   2
   1  -4  -4 37.4959 1.56643   2
   1  -4  -4 33.1456 1.59640   1
   1  -4  -4 32.1756 1.09303   1
   1  -4  -4 32.8204 1.14076   1
   1  -4  -4 32.2573 1.21793   1
  -1   4   4 37.6990 1.24200   2
  -1   4   4 35.7958 1.26541   2
  -1   4   4 32.1956 1.26029   1
   0  -4  -4 359.578 8.77968   1
   0  -4  -4 361.349 9.09298   1
   0  -4  -4 355.651 8.86731   1
   0  -4  -4 355.959 9.81145   1
   0  -4  -4 398.852 10.3984   2
   0  -4  -4 400.608 11.7859   2
   0   4   4 412.138 10.2946   2
   0   4   4 397.241 9.56322   2
   0   4   4 342.655 8.10644   1
  -1  -4  -4 11.1477 0.72402   2
  -1  -4  -4 9.78352 0.47160   2
  -1  -4  -4 10.1875 0.35534   2
  -1  -4  -4 11.4593 0.91707   2
  -1  -4  -4 9.90168 0.46487   2
  -1  -4  -4 9.04767 0.53289   1
  -1  -4  -4 9.01748 0.47994   1
   1   4   4 9.79938 0.54549   2
   1   4   4 10.2663 0.37044   2
  -2  -4  -4 1608.93 38.7296   1
  -2  -4  -4 1772.80 35.8812   2
  -2  -4  -4 1794.69 36.8547   2
  -2  -4  -4 1753.30 35.8110   2
   2   4   4 1794.62 44.1738   2
  -3  -4  -4 12.9018 0.56567   1
  -3  -4  -4 12.4722 0.39748   1
  -3  -4  -4 12.7111 0.66199   1
  -3  -4  -4 12.5692 0.45052   1
  -3  -4  -4 14.0488 0.66680   2
  -3  -4  -4 13.9394 0.58744   2
  -3  -4  -4 13.6219 0.39277   2
   3   4   4 13.8220 0.57036   2
   4   4  -9 593.060 13.9098  -2
  -4  -4  -4 593.060 13.9098   1
   4   4  -9 599.808 12.1659  -2
  -4  -4  -4 599.808 12.1659   1
   4   4  -9 591.603 12.3247  -2
  -4  -4  -4 591.603 12.3247   1
  -5  -4  -4 0.12263 0.08505   2
  -5  -4  -4 0.05249 0.08909   1
  -5  -4  -4 0.03560 0.04311   1
  -5  -4  -4 0.06336 0.08661   1
   5   4   4 -0.0027 0.09040   2
   5   4   4 -0.0842 0.06467   2
   7  -5  -4 0.48406 0.14715   1
   7  -5  -4 0.60628 0.12321   2
  -7   5   4 0.42020 0.11554   1
  -7   5   4 0.34622 0.09270   1
  -7   5   4 0.34594 0.09181   2
   6  -5  -4 6.19999 0.43770   1
   6  -5  -4 6.14461 0.42756   1
   6  -5  -4 7.56079 0.37705   2
  -6   5   4 5.69737 0.34638   1
  -6   5   4 6.08318 0.34006   2
   5  -5  -4 6.29121 0.35016   1
   5  -5  -4 6.87126 0.37088   1
   5  -5  -4 6.68180 0.43397   1
   5  -5  -4 6.87331 0.49433   1
   5  -5  -4 6.16451 0.46074   1
   5  -5  -4 7.32144 0.40377   2
   5  -5  -4 8.05970 0.42356   2
  -5   5   4 6.67897 0.42245   2
  -5   5   4 6.17696 0.56911   1
  -5   5   4 6.28944 0.43886   1
   4  -5  -4 11.7188 0.52544   2
   4  -5  -4 11.6169 0.53192   2
   4  -5  -4 11.3264 0.41096   1
   4  -5  -4 11.2823 0.59442   1
   4  -5  -4 10.8692 0.60610   1
   4  -5  -4 10.9384 0.45636   1
   4  -5  -4 10.7304 0.45311   1
   4  -5  -4 10.9696 0.48120   1
   4  -5  -4 10.4947 0.47474   1
   4  -5  -4 12.9867 1.01954   1
   4  -5  -4 11.6022 0.63559   1
  -4   5   4 10.8125 0.89726   2
  -4   5   4 11.9162 0.58557   2
  -4   5   4 11.2761 0.61687   1
   3  -5  -4 0.24187 0.11288   1
   3  -5  -4 0.13503 0.06767   1
   3  -5  -4 0.25801 0.09131   1
   3  -5  -4 0.18332 0.09466   1
   3  -5  -4 0.14798 0.11533   1
   3  -5  -4 0.05936 0.15696   1
  -3   5  -6 3.07621 0.40363  -2
   3  -5  -4 3.07621 0.40363   1
  -3   5  -6 3.24950 0.38640  -2
   3  -5  -4 3.24950 0.38640   1
  -3   5  -6 3.69404 0.45139  -2
   3  -5  -4 3.69404 0.45139   1
   3  -5  -4 0.12929 0.05949   2
  -3   5   4 0.12288 0.14269   2
  -3   5   4 0.26887 0.28217   2
   2  -5  -4 282.077 7.35805   2
   2  -5  -4 273.571 5.63662   2
   2  -5  -4 266.960 6.03926   2
   2  -5  -4 237.135 5.32439   1
   2  -5  -4 250.807 6.26616   1
   2  -5  -4 244.214 5.32717   1
   2  -5  -4 253.567 6.49582   1
   2  -5  -4 246.811 6.18965   1
   2  -5  -4 244.525 5.06216   1
   2  -5  -4 237.752 6.00005   1
   2  -5  -4 228.911 4.97630   1
  -2   5   4 268.043 5.82189   2
  -2   5   4 276.099 7.12716   2
  -1   5  -7 32.9215 0.82515  -2
   1  -5  -4 32.9215 0.82515   1
  -1   5  -7 33.5973 1.02073  -2
   1  -5  -4 33.5973 1.02073   1
  -1   5  -7 36.1006 1.20258  -2
   1  -5  -4 36.1006 1.20258   1
  -1   5  -7 32.8991 0.80846  -2
   1  -5  -4 32.8991 0.80846   1
  -1   5  -7 35.8769 1.21407  -2
   1  -5  -4 35.8769 1.21407   1
  -1   5  -7 32.2998 1.13683  -2
   1  -5  -4 32.2998 1.13683   1
   1  -5  -4 19.0173 0.53585   2
   0  -5  -4 638.632 13.0864   1
   0  -5  -4 671.563 16.1962   1
   0  -5  -4 659.620 15.5580   1
   0  -5  -4 646.228 13.8562   1
   0  -5  -4 686.620 16.0898   1
   0  -5  -4 743.115 15.5472   2
   0  -5  -4 724.218 21.0427   2
   0  -5  -4 764.151 18.7071   2
   0  -5  -4 722.782 15.0409   2
   0   5   4 729.918 14.4793   2
   0   5   4 759.541 18.6385   2
   1   5  -8 35.1539 1.17736  -2
  -1  -5  -4 35.1539 1.17736   1
   1   5  -8 34.1347 1.20877  -2
  -1  -5  -4 34.1347 1.20877   1
   1   5  -8 32.5661 1.14269  -2
  -1  -5  -4 32.5661 1.14269   1
  -2  -5  -4 43.0107 1.39457   1
  -2  -5  -4 43.7083 1.47503   1
  -2  -5  -4 47.9870 1.07320   2
  -2  -5  -4 46.5063 1.30936   2
   2   5   4 46.3534 1.25402   2
   3   5  -9 3.17296 0.19474  -2
  -3  -5  -4 3.17296 0.19474   1
   3   5  -9 2.86970 0.38295  -2
  -3  -5  -4 2.86970 0.38295   1
   3   5  -9 2.86519 0.31742  -2
  -3  -5  -4 2.86519 0.31742   1
   3   5  -9 2.82358 0.21177  -2
  -3  -5  -4 2.82358 0.21177   1
  -4  -5  -4 16.5053 0.37496   1
  -4  -5  -4 16.0867 0.54702   1
  -4  -5  -4 16.2695 0.50499   1
  -4  -5  -4 17.0354 0.44100   1
  -4  -5  -4 18.8585 0.60359   2
   4   5   4 18.6886 0.57175   2
   4   5   4 18.5432 0.53055   2
   7  -6  -4 0.38204 0.10933   1
  -7   6   4 0.32218 0.10850   1
  -7   6   4 0.41617 0.06751   2
  -6   6  -5 19.4506 0.70885  -2
   6  -6  -4 19.4506 0.70885   1
  -6   6  -5 18.5429 0.59084  -2
   6  -6  -4 18.5429 0.59084   1
   6  -6   5 17.5460 0.61558  -2
  -6   6   4 17.5460 0.61558   1
   5  -6  -4 5.79428 0.31394   1
   5  -6  -4 4.69985 0.39193   1
   5  -6  -4 4.97106 0.38698   1
   5  -6  -4 5.01089 0.40608   1
   5  -6  -4 5.75429 0.34513   2
  -5   6   4 6.02462 0.33534   2
  -5   6   4 5.40373 0.29932   2
  -5   6   4 5.60517 0.20903   2
  -4   6  -6 40.2149 0.99442  -2
   4  -6  -4 40.2149 0.99442   1
  -4   6  -6 40.3689 1.11210  -2
   4  -6  -4 40.3689 1.11210   1
  -4   6  -6 33.1664 1.19164  -2
   4  -6  -4 33.1664 1.19164   1
  -4   6  -6 37.1550 1.00080  -2
   4  -6  -4 37.1550 1.00080   1
  -4   6  -6 33.4283 1.23959  -2
   4  -6  -4 33.4283 1.23959   1
  -4   6  -6 36.7433 1.25036  -2
   4  -6  -4 36.7433 1.25036   1
  -4   6  -6 39.9809 1.08854  -2
   4  -6  -4 39.9809 1.08854   1
  -4   6  -6 40.8715 1.13221  -2
   4  -6  -4 40.8715 1.13221   1
   4  -6   6 34.8826 1.32544  -2
  -4   6   4 34.8826 1.32544   1
   4  -6   6 34.4534 1.49806  -2
  -4   6   4 34.4534 1.49806   1
   3  -6  -4 18.1981 0.65381   1
   3  -6  -4 18.4023 0.58032   1
   3  -6  -4 18.4342 0.54837   1
   3  -6  -4 17.6198 0.78717   1
   3  -6  -4 17.7864 0.77364   1
   3  -6  -4 19.2797 0.84518   1
   3  -6  -4 18.5067 0.62185   1
   3  -6  -4 18.1983 0.63547   1
   3  -6  -4 20.4556 1.06239   2
   3  -6  -4 20.3891 0.74549   2
  -3   6   4 20.8896 0.56407   2
  -3   6   4 20.1204 0.79260   2
  -3   6   4 21.2965 0.70714   2
  -3   6   4 18.2308 0.99011   1
  -2   6  -7 7.88434 0.43573  -2
   2  -6  -4 7.88434 0.43573   1
  -2   6  -7 7.85041 0.36327  -2
   2  -6  -4 7.85041 0.36327   1
  -2   6  -7 8.19003 0.52569  -2
   2  -6  -4 8.19003 0.52569   1
  -2   6  -7 8.11984 0.54505  -2
   2  -6  -4 8.11984 0.54505   1
  -2   6  -7 7.54892 0.31411  -2
   2  -6  -4 7.54892 0.31411   1
  -2   6  -7 7.40361 0.32200  -2
   2  -6  -4 7.40361 0.32200   1
  -2   6  -7 7.72465 0.55077  -2
   2  -6  -4 7.72465 0.55077   1
   2  -6  -4 8.45071 0.27493   2
   2  -6   7 7.62629 0.68189  -2
  -2   6   4 7.62629 0.68189   1
   1  -6  -4 3.05509 0.18526   1
   1  -6  -4 2.80616 0.34952   1
   1  -6  -4 2.55177 0.31989   1
   1  -6  -4 2.96452 0.16592   1
   1  -6  -4 2.79664 0.36226   1
   1  -6  -4 2.95742 0.16236   1
   1  -6  -4 2.91620 0.25192   1
   1  -6  -4 3.78052 0.52920   2
   1  -6  -4 3.19398 0.17130   2
  -1   6   4 3.09935 0.26688   2
  -1   6   4 3.24542 0.30241   2
  -1   6   4 2.98330 0.18658   2
  -1   6   4 3.42318 0.47922   1
   0  -6  -4 35.3401 0.94175   1
   0  -6  -4 33.5323 0.99396   1
   0  -6  -4 35.3875 0.83088   1
   0  -6  -4 34.2050 1.24402   1
   0  -6  -4 35.2221 1.21189   1
   0   6  -8 59.4814 1.82820  -2
   0  -6  -4 59.4814 1.82820   1
   0  -6  -4 38.9838 0.91021   2
   0   6   4 39.1716 0.91351   2
  -1  -6  -4 10.0100 0.35720   1
  -1  -6  -4 10.3631 0.58269   1
  -1  -6  -4 9.99224 0.54463   1
  -1  -6  -4 10.4878 0.31782   1
  -1  -6  -4 9.75393 0.55135   1
  -1  -6  -4 11.2200 0.75534   2
  -1  -6  -4 10.9624 0.29476   2
  -1  -6  -4 11.2490 0.50054   2
   1   6   4 10.8914 0.45573   2
  -2  -6  -4 3.24465 0.26454   2
  -2  -6  -4 3.03094 0.17850   1
  -2  -6  -4 3.00215 0.15666   1
  -2  -6  -4 2.94876 0.31413   1
  -2  -6  -4 3.24385 0.29917   1
   2   6   4 3.23990 0.24219   2
  -3  -6  -4 3.56512 0.15111   1
  -3  -6  -4 4.31311 0.26070   1
  -3  -6  -4 4.10650 0.25990   2
   3   6   4 4.28986 0.24147   2
   3   6   4 3.99260 0.20971   2
   6  -7  -4 3.81134 0.24559   1
   6  -7  -4 4.13093 0.20163   1
   6  -7  -4 4.20345 0.21967   2
  -6   7   4 3.99594 0.21327   1
  -6   7   4 4.59907 0.17626   2
   5  -7  -4 7.59317 0.47618   1
   5  -7  -4 8.77972 0.33436   1
  -5   7  -6 91.2213 2.36695  -2
   5  -7  -4 91.2213 2.36695   1
  -5   7   4 8.87792 0.36117   2
   5  -7   6 90.3871 2.14147  -2
  -5   7   4 90.3871 2.14147   1
   4  -7  -4 56.7748 1.32492   1
   4  -7  -4 58.1098 1.32796   1
   4  -7  -4 56.2852 1.50461   1
   4  -7  -4 55.4897 1.64318   1
   4  -7  -4 55.2798 1.71680   1
   4  -7  -4 55.1171 1.64727   1
   4  -7  -4 57.1640 1.40480   1
   4  -7  -4 65.7924 1.65555   2
  -4   7   4 65.2686 1.54005   2
  -4   7   4 64.8767 1.57382   2
  -4   7   4 56.3714 1.44104   1
   3  -7  -4 6.82571 0.35380   1
   3  -7  -4 6.79052 0.45920   1
   3  -7  -4 6.61171 0.42831   1
   3  -7  -4 6.20434 0.27464   1
   3  -7  -4 6.62103 0.44022   1
   3  -7  -4 6.86921 0.29274   1
   3  -7  -4 6.69729 0.31471   1
   3  -7  -4 7.66682 0.39730   2
  -3   7   4 7.54425 0.34986   2
  -3   7   4 7.71653 0.38750   2
   2  -7  -4 11.8023 0.48461   1
   2  -7  -4 11.6444 0.59779   1
   2  -7  -4 11.9593 0.37517   1
   2  -7  -4 11.8576 0.58218   1
   2  -7  -4 11.4275 0.61971   1
   2  -7  -4 11.9005 0.38800   1
   2  -7  -4 11.7380 0.43382   1
   2  -7  -4 12.7074 0.80847   2
  -2   7   4 11.9987 0.75596   1
  -2   7   4 13.9236 0.51953   2
  -2   7   4 13.4659 0.49522   2
   1  -7  -4 1.62605 0.13156   1
   1  -7  -4 1.70968 0.26529   1
   1  -7  -4 1.62642 0.14952   1
   1  -7  -4 1.59711 0.26098   1
   1  -7  -4 1.95075 0.21960   1
   1  -7  -4 1.50610 0.25513   1
   1  -7  -4 1.78394 0.35723   2
  -1   7   4 1.59988 0.19311   2
   0  -7  -4 9.74877 0.41362   1
   0  -7  -4 9.69839 0.51276   1
   0  -7  -4 9.70519 0.36047   1
   0  -7  -4 10.1453 0.32373   1
   0  -7  -4 10.0670 0.54528   1
   0  -7  -4 11.0643 0.46030   2
   0   7  -9 9.29880 0.54473  -2
   0  -7  -4 9.29880 0.54473   1
  -1  -7  -4 2.33547 0.21552   2
  -1  -7  -4 2.15148 0.26982   1
  -1  -7  -4 1.81910 0.12027   1
  -1  -7  -4 1.87816 0.13874   1
  -1  -7  -4 2.00940 0.24282   1
   1   7   4 2.39497 0.18775   2
   2   7 -10 38.5283 1.08473  -2
  -2  -7  -4 38.5283 1.08473   1
   4  -8  -4 3.98182 0.27754   1
   4  -8  -4 3.97536 0.20647   1
   4  -8  -4 4.07044 0.18481   1
   4  -8  -4 3.82831 0.17284   1
   4  -8  -4 3.93022 0.21836   2
  -4   8   4 4.25986 0.22054   2
  -4   8   4 4.71253 0.19069   2
  -3   8  -8 22.1223 0.74016  -2
   3  -8  -4 22.1223 0.74016   1
  -3   8  -8 20.6896 0.66137  -2
   3  -8  -4 20.6896 0.66137   1
  -3   8  -8 22.2452 0.59024  -2
   3  -8  -4 22.2452 0.59024   1
  -3   8  -8 22.1156 0.66171  -2
   3  -8  -4 22.1156 0.66171   1
   2  -8  -4 8.17711 0.34567   1
   2  -8  -4 7.63231 0.41216   1
   2  -8  -4 7.83450 0.27801   1
   2  -8  -4 7.95637 0.31352   1
  -2   8   4 9.41037 0.33321   2
  -2   8   4 9.51969 0.37007   2
  -1   8  -9 14.0926 0.48674  -2
   1  -8  -4 14.0926 0.48674   1
  -1   8  -9 13.7614 0.45562  -2
   1  -8  -4 13.7614 0.45562   1
  -1   8  -9 13.8722 0.39953  -2
   1  -8  -4 13.8722 0.39953   1
  -1   8  -9 15.2578 0.56844  -2
   1  -8  -4 15.2578 0.56844   1
   0  -8  -4 10.1116 0.34134   1
   0  -8  -4 10.6313 0.44141   1
   0  -8  -4 10.3133 0.29473   1
   0   8   4 12.1115 0.34935   2
   1  10  -5 1.35142 0.10841   2
   1  10  -5 1.35747 0.13417   2
   1  10  -5 0.98570 0.12673   1
  -1 -10   5 1.34849 0.15355   1
  -1 -10   5 1.23733 0.13548   2
   0 -10   2 2.90955 0.22510  -2
   0  10  -5 2.90955 0.22510   1
   0 -10   2 2.89445 0.21266  -2
   0  10  -5 2.89445 0.21266   1
   0  10  -2 2.20140 0.20600  -2
   0 -10   5 2.20140 0.20600   1
  -1  10  -5 4.89842 0.21848   2
  -1  10  -5 4.91742 0.26873   2
  -1  10  -5 4.81307 0.37882   2
  -1  10  -5 4.12186 0.24500   1
  -1  10  -5 4.58517 0.23941   1
   1 -10   5 3.87143 0.25297   1
  -2  10  -5 7.33283 0.27171   2
  -2  10  -5 7.19751 0.28719   1
  -2  10  -1 6.60679 0.32655  -2
   2 -10   5 6.60679 0.32655   1
  -3  10  -5 9.03253 0.29076   2
  -3  10  -5 8.41943 0.26194   1
   3 -10   5 8.51091 0.30528   1
   3   9  -3 39.7759 0.95673  -2
  -3  -9   5 39.7759 0.95673   1
   2   9  -5 23.1127 0.74987   2
   2   9  -5 22.9227 0.63415   2
   2   9  -5 22.7800 0.61444   2
   2   9  -5 23.5399 0.67977   2
   2   9  -5 20.4532 0.63547   1
  -2  -9   5 19.4266 0.62711   1
  -2  -9   5 23.3655 0.67340   2
   1   9  -5 0.75331 0.16992   2
   1   9  -5 0.55808 0.10958   2
   1   9  -5 0.79408 0.12331   2
   1   9  -5 0.82307 0.18228   2
   1   9  -5 0.60916 0.13593   2
   1   9  -5 0.84734 0.14644   2
   1   9  -5 0.51957 0.14413   1
  -1  -9   5 0.58685 0.16298   2
  -1  -9   5 0.59362 0.14667   1
   0   9  -5 41.4775 1.18152   1
   0   9  -5 48.8435 1.51164   2
   0   9  -5 50.1638 1.20010   2
   0   9  -5 50.0988 1.45150   2
   0   9  -5 50.4781 1.33373   2
   0   9  -5 49.8630 1.26641   2
   0   9  -5 49.7261 1.39771   2
   0   9  -5 50.2577 1.22608   2
   0  -9   5 49.9550 1.54399   2
   0  -9   5 43.6027 1.16868   1
  -1   9  -5 4.98971 0.35958   2
  -1   9  -5 5.41408 0.27486   2
  -1   9  -5 4.99341 0.26906   2
  -1   9  -5 5.01758 0.37818   2
  -1   9  -5 5.52068 0.30929   2
  -1   9  -5 4.99555 0.34777   2
  -1   9  -5 5.60423 0.33828   2
  -1   9  -5 5.00505 0.32475   1
  -1   9  -5 4.47795 0.29047   1
   1  -9   5 4.86977 0.32384   1
  -2   9  -5 20.2144 0.60417   2
  -2   9  -5 18.6380 0.67178   2
  -2   9  -5 20.2818 0.77369   2
  -2   9  -5 19.5315 0.59900   2
  -2   9  -5 20.1259 0.73303   2
  -2   9  -5 17.4182 0.57413   1
   2  -9   5 17.1392 0.61806   1
  -3   9  -5 21.1061 0.79238   2
  -3   9  -5 21.8900 0.75561   2
  -3   9  -5 21.0919 0.62686   2
  -3   9  -5 22.4777 0.68961   2
  -3   9  -5 19.2914 0.56916   1
   3  -9   5 18.8024 0.62693   1
  -4   9  -5 42.7847 0.94569   1
  -4   9   1 48.4796 1.17943  -2
   4  -9   5 48.4796 1.17943   1
   4   8  -5 31.0757 0.80733   2
   4   8  -5 30.2964 0.89619   2
   4   8  -5 30.9769 0.74712   2
  -4  -8   5 24.7957 0.69191   1
  -4  -8   5 25.1936 0.67078   1
   3   8  -5 13.0921 0.42306   2
   3   8  -5 12.9231 0.48072   2
   3   8  -5 11.8285 0.54996   2
   3   8  -5 12.5232 0.42952   2
   3   8  -5 12.8500 0.54195   2
   3   8  -5 12.6498 0.48961   2
   3   8  -5 11.0537 0.44833   1
  -3  -8   5 11.3083 0.46340   1
   2   8  -5 0.95471 0.17310   2
   2   8  -5 1.10421 0.20802   2
   2   8  -5 1.75485 0.25094   2
   2   8  -5 1.08252 0.17103   2
   2   8  -5 1.32081 0.15932   2
   2   8  -5 1.11788 0.14928   2
   2   8  -5 0.87506 0.22013   1
   2   8  -5 1.14482 0.20157   1
  -2  -8   5 1.03020 0.22229   2
  -2  -8   5 1.37926 0.19854   1
  -1  -8   1 6.49776 0.42403  -2
   1   8  -5 6.49776 0.42403   1
  -1  -8   1 7.26095 0.51579  -2
   1   8  -5 7.26095 0.51579   1
   1   8  -1 7.02198 0.42880  -2
  -1  -8   5 7.02198 0.42880   1
   0   8  -5 21.4351 0.77747   1
   0   8  -5 21.2729 1.06218   1
   0   8  -5 24.3661 0.72307   2
   0   8  -5 24.7482 0.73379   2
   0   8  -5 24.5869 0.96685   2
   0   8  -5 23.8364 0.78072   2
   0   8  -5 25.1361 0.83224   2
   0   8  -5 28.1704 0.98267   2
   0   8  -5 25.8974 0.84826   2
   0   8  -5 24.6691 0.91627   2
   0  -8   5 22.2538 0.76911   1
   0  -8   5 23.9175 1.03624   2
   1  -8   0 88.4364 2.83159  -2
  -1   8  -5 88.4364 2.83159   1
   1  -8   0 83.8820 2.09551  -2
  -1   8  -5 83.8820 2.09551   1
   1  -8   0 91.6418 2.19104  -2
  -1   8  -5 91.6418 2.19104   1
  -1   8   0 88.9180 2.13530  -2
   1  -8   5 88.9180 2.13530   1
  -1   8   0 86.9694 1.91346  -2
   1  -8   5 86.9694 1.91346   1
  -2   8  -5 102.184 2.83106   2
  -2   8  -5 102.019 2.46064   2
  -2   8  -5 101.715 2.82326   2
  -2   8  -5 104.064 2.32166   2
  -2   8  -5 100.524 2.29041   2
  -2   8  -5 102.423 2.63993   2
  -2   8  -5 103.117 2.72580   2
  -2   8  -5 89.3299 2.89315   1
  -2   8  -5 90.0604 2.11852   1
   2  -8   5 89.9005 2.18311   1
   2  -8   5 98.3507 3.16057   2
   2  -8   5 100.593 2.99546   2
   3  -8  -1 196.723 5.63299  -2
  -3   8  -5 196.723 5.63299   1
   3  -8  -1 203.924 4.36314  -2
  -3   8  -5 203.924 4.36314   1
  -3   8   1 206.785 4.27970  -2
   3  -8   5 206.785 4.27970   1
  -3   8   1 206.656 4.42622  -2
   3  -8   5 206.656 4.42622   1
  -4   8  -5 1.51158 0.18988   1
  -4   8  -5 1.68473 0.15122   1
  -4   8  -5 2.16046 0.25522   2
  -4   8  -5 1.94837 0.25385   2
  -4   8  -5 1.69973 0.19209   2
  -4   8  -5 1.99902 0.21573   2
   4  -8   5 1.83534 0.17647   1
   4  -8   5 1.87420 0.22068   1
   4  -8   5 1.68161 0.20034   2
   5  -8  -2 178.172 3.86592  -2
  -5   8  -5 178.172 3.86592   1
  -5   8   2 173.288 3.70841  -2
   5  -8   5 173.288 3.70841   1
  -5   8   2 172.960 3.59991  -2
   5  -8   5 172.960 3.59991   1
   5  -8   5 6.97868 0.31120   2
   5   7  -5 3.40468 0.23504   2
   5   7  -5 3.01650 0.19626   2
   5   7  -5 3.02069 0.17434   2
  -5  -7   5 2.92906 0.21158   1
  -4  -7   2 108.513 2.94127  -2
   4   7  -5 108.513 2.94127   1
   3   7  -5 10.6636 0.48751   1
   3   7  -5 9.99168 0.58379   1
   3   7  -5 10.2700 0.59720   1
   3   7  -5 12.5357 0.45406   2
   3   7  -5 12.5043 0.60067   2
   3   7  -5 12.3101 0.45755   2
   3   7  -5 12.5092 0.51636   2
   3   7  -5 12.2631 0.51730   2
   3   7  -5 12.6112 0.61864   2
  -3  -7   5 11.7975 0.65768   2
  -3  -7   5 12.9021 0.63005   2
  -3  -7   5 10.6560 0.49502   1
  -2  -7   1 13.6501 0.59105  -2
   2   7  -5 13.6501 0.59105   1
  -2  -7   1 14.2880 0.70736  -2
   2   7  -5 14.2880 0.70736   1
  -2  -7   1 13.0802 0.68270  -2
   2   7  -5 13.0802 0.68270   1
   2   7  -1 12.8661 0.56322  -2
  -2  -7   5 12.8661 0.56322   1
   1   7  -5 1.02097 0.23834   1
   1   7  -5 1.02496 0.20918   1
   1   7  -5 1.00437 0.24145   1
   1   7  -5 1.04028 0.17743   2
   1   7  -5 0.95658 0.21337   2
   1   7  -5 1.30889 0.18009   2
   1   7  -5 1.46840 0.17306   2
   1   7  -5 1.94589 0.25148   2
   1   7  -5 0.93237 0.20110   2
   1   7  -5 0.79226 0.23128   2
   1   7  -5 1.11773 0.14971   2
  -1  -7   5 1.00410 0.12022   1
  -1  -7   5 0.90346 0.20018   1
   0   7  -5 23.2324 0.91883   1
   0   7  -5 24.6427 0.79844   2
   0   7  -5 24.4078 0.90979   2
   0   7  -5 24.4479 0.94276   2
   0   7  -5 24.3166 0.70439   2
   0  -7   0 33.8010 1.07864  -2
   0   7  -5 33.8010 1.07864   1
   0  -7   0 35.9375 1.48126  -2
   0   7  -5 35.9375 1.48126   1
   0   7   0 33.5163 1.03514  -2
   0  -7   5 33.5163 1.03514   1
  -1   7  -5 7.31710 0.32500   2
  -1   7  -5 6.89604 0.45222   2
  -1   7  -5 7.27944 0.36580   2
  -1   7  -5 6.85330 0.33780   2
  -1   7  -5 6.86657 0.44965   2
  -1   7  -5 7.08978 0.40153   2
  -1   7  -5 7.73209 0.48477   2
  -1   7  -5 6.17780 0.58591   1
  -1   7  -5 5.99060 0.36280   1
  -1   7  -5 6.38680 0.40616   1
   1  -7   5 5.97096 0.39310   1
   1  -7   5 6.09602 0.33474   1
   1  -7   5 7.02020 0.59553   2
  -2   7  -5 2.73736 0.29882   2
  -2   7  -5 2.88919 0.22925   2
  -2   7  -5 2.92620 0.35372   2
  -2   7  -5 2.61090 0.23757   2
  -2   7  -5 3.23057 0.29875   2
  -2   7  -5 2.84670 0.31300   2
  -2   7  -5 2.63953 0.20528   2
  -2   7  -5 2.13537 0.42776   1
  -2   7  -5 2.61815 0.25957   1
   2  -7   5 2.98257 0.49073   2
   2  -7   5 2.77795 0.27281   1
   2  -7   5 2.62514 0.29090   1
  -3   7  -5 2.99735 0.31156   2
  -3   7  -5 1.72324 0.26461   2
  -3   7  -5 2.19171 0.19773   2
  -3   7  -5 2.62013 0.33826   2
  -3   7  -5 2.45708 0.21621   2
  -3   7  -5 2.22803 0.28622   2
  -3   7  -5 2.38818 0.23126   2
  -3   7  -5 2.40650 0.43332   1
  -3   7  -5 2.05673 0.21299   1
  -3   7  -5 1.99710 0.23797   1
   3  -7   5 2.21216 0.25250   1
   3  -7   5 2.20742 0.26794   1
   3  -7   5 2.34344 0.43606   2
   3  -7   5 2.83722 0.38343   2
  -4   7  -5 10.1332 0.35935   1
  -4   7  -5 9.77672 0.45946   1
  -4   7  -5 10.6282 0.72916   1
  -4   7  -5 10.6416 0.42681   2
  -4   7  -5 10.3379 0.54632   2
  -4   7  -5 11.4022 0.49097   2
  -4   7  -5 11.1037 0.44968   2
  -4   7  -5 11.1671 0.49339   2
  -4   7  -5 11.0764 0.55661   2
  -4   7  -5 10.6731 0.55546   2
   4  -7   5 10.8490 0.49607   2
   4  -7   5 10.9052 0.62001   2
   4  -7   5 10.5583 0.75690   2
   4  -7   5 9.93981 0.47310   1
   4  -7   5 8.91937 0.43965   1
  -5   7  -5 0.33053 0.13991   2
  -5   7  -5 0.39084 0.15091   2
  -5   7  -5 0.31047 0.10589   2
   5  -7  -3 1.84614 0.25992  -2
  -5   7  -5 1.84614 0.25992   1
  -5   7   3 1.31147 0.22411  -2
   5  -7   5 1.31147 0.22411   1
  -5   7   3 1.64209 0.25393  -2
   5  -7   5 1.64209 0.25393   1
  -6   7  -5 1.43696 0.15032   1
  -6   7  -5 1.82488 0.18715   2
  -6   7  -5 1.92306 0.15671   2
   6  -7   5 1.56350 0.14468   1
   6  -7   5 1.67892 0.15195   1
   6  -7   5 1.26789 0.14543   2
   6   6  -5 362.881 7.27373   2
   4   6  -5 44.3444 1.20905   2
   4   6  -5 44.2475 1.26788   2
   4   6  -5 43.8688 1.42281   2
   4   6  -5 42.1296 1.35805   2
   4   6  -5 43.3204 1.11336   2
   4   6  -5 42.6373 1.09093   2
   4   6  -5 38.1697 1.32272   1
   4   6  -5 36.5806 1.30286   1
  -4  -6   5 41.3665 1.49149   2
  -4  -6   5 44.0161 1.38017   2
   3   6  -5 7.62521 0.38197   2
   3   6  -5 7.83447 0.34870   2
   3   6  -5 7.57280 0.48510   2
   3   6  -5 7.89520 0.42239   2
   3   6  -5 7.49927 0.48341   2
   3   6  -5 7.70277 0.33916   2
   3   6  -5 6.16771 0.49886   1
   3   6  -5 6.42141 0.47802   1
   3   6  -5 6.63277 0.40267   1
  -3  -6   5 6.04471 0.39591   1
  -3  -6   5 6.66354 0.20761   1
  -3  -6   5 7.77391 0.48897   2
   2   6  -5 0.04247 0.12427   2
   2   6  -5 0.01218 0.09648   2
   2   6  -5 0.16206 0.08599   2
   2   6  -5 0.08642 0.08000   2
   2   6  -5 -0.0218 0.10911   2
   2   6  -5 0.00693 0.11918   2
   2   6  -5 0.13357 0.07556   2
   2   6  -5 -0.0179 0.10534   1
   2   6  -5 -0.0865 0.13330   1
   2   6  -5 0.03547 0.13554   1
  -2  -6   5 0.08487 0.07423   1
  -2  -6   5 0.02558 0.13296   1
   1   6  -5 -0.0227 0.12397   1
   1   6  -5 0.03433 0.20179   1
   1   6  -5 -0.0113 0.11018   1
   1   6  -5 0.08228 0.23366   1
   1   6  -5 0.04073 0.13286   1
   1   6  -5 0.13085 0.11973   2
   1   6  -5 -0.0152 0.06016   2
   1   6  -5 0.10152 0.07403   2
   1   6  -5 0.06006 0.12310   2
   1   6  -5 0.13054 0.14896   2
   1   6  -5 -0.0063 0.10105   2
   1   6  -5 0.06352 0.06362   2
   1   6  -5 0.01745 0.10685   2
  -1  -6   5 -0.0379 0.19375   2
  -1  -6   5 0.04958 0.14073   2
  -1  -6   5 -0.0035 0.08838   1
  -1  -6   5 -0.0105 0.12720   1
   0   6  -5 0.06269 0.12714   1
   0   6  -5 -0.0314 0.21986   1
   0   6  -5 0.23084 0.08420   2
   0   6  -5 0.07989 0.11373   2
   0  -6  -1 0.20595 0.37986  -2
   0   6  -5 0.20595 0.37986   1
   0  -6   5 0.16694 0.20795   2
   0  -6   5 0.15919 0.22244   2
   0  -6   5 0.13903 0.13679   2
  -1   6  -5 1.31447 0.36685   1
  -1   6  -5 1.03730 0.29336   1
  -1   6  -5 1.31966 0.15972   2
  -1   6  -5 1.06382 0.22058   2
  -1   6  -5 1.00608 0.25000   2
  -1   6  -5 1.14592 0.18524   2
  -1   6  -5 0.95928 0.26805   2
  -1   6  -5 1.16708 0.21397   2
   1  -6   5 1.01801 0.29594   2
   1  -6   5 1.45898 0.26578   2
   2  -6  -2 2.77493 0.26989  -2
  -2   6  -5 2.77493 0.26989   1
   2  -6  -2 3.29629 0.48474  -2
  -2   6  -5 3.29629 0.48474   1
  -2   6   2 3.40761 0.33419  -2
   2  -6   5 3.40761 0.33419   1
  -2   6   2 2.89119 0.18878  -2
   2  -6   5 2.89119 0.18878   1
  -3   6  -5 1.21607 0.15641   2
  -3   6  -5 1.08019 0.19434   2
  -3   6  -5 0.87516 0.16107   2
  -3   6  -5 1.49353 0.22638   2
  -3   6  -5 1.60494 0.27432   2
  -3   6  -5 1.33179 0.18150   2
  -3   6  -5 1.26306 0.23109   2
  -3   6  -5 1.19104 0.33593   1
  -3   6  -5 1.39705 0.21597   1
  -3   6  -5 1.27087 0.16463   1
   3  -6   5 1.29384 0.34947   2
   3  -6   5 1.45297 0.28245   2
   3  -6   5 1.51083 0.15546   1
   3  -6   5 1.20809 0.21224   1
   4  -6  -3 41.9727 1.62597  -2
  -4   6  -5 41.9727 1.62597   1
   4  -6  -3 41.8262 1.01017  -2
  -4   6  -5 41.8262 1.01017   1
   4  -6  -3 41.0389 1.21311  -2
  -4   6  -5 41.0389 1.21311   1
  -4   6   3 43.3326 1.18379  -2
   4  -6   5 43.3326 1.18379   1
  -5   6  -5 7.71466 0.40124   1
  -5   6  -5 8.58973 0.40587   2
  -5   6  -5 8.04479 0.46768   2
  -5   6  -5 8.70761 0.46643   2
   5  -6   5 7.20261 0.41691   1
   5  -6   5 7.36532 0.40090   1
   5  -6   5 8.21711 0.85580   2
   5  -6   5 7.68587 0.61026   2
   6  -6  -4 19.9581 0.64424  -2
  -6   6  -5 19.9581 0.64424   1
  -6   6   4 19.7604 0.59089  -2
   6  -6   5 19.7604 0.59089   1
  -6   6   4 18.8965 0.59170  -2
   6  -6   5 18.8965 0.59170   1
   6   5  -5 41.9259 1.01181   2
   6   5  -5 43.3194 1.23475   2
   6   5  -5 40.1697 1.06321   2
   6   5  -5 42.1102 1.04367   2
   6   5  -5 36.2186 0.96795   1
  -6  -5   5 36.0647 0.90611   1
  -6  -5   5 40.5876 1.24421   2
   5   5  -5 0.67239 0.20209   2
   5   5  -5 0.44437 0.17169   2
   5   5  -5 0.58308 0.16575   2
   5   5  -5 0.48667 0.13888   2
   5   5  -5 0.26954 0.10462   2
   5   5  -5 0.43690 0.11611   2
  -5  -5   1 3.77968 0.45635  -2
   5   5  -5 3.77968 0.45635   1
  -5  -5   5 0.46006 0.19135   2
  -5  -5   5 0.26759 0.11705   1
   4   5  -5 3.01667 0.32432   2
   4   5  -5 3.40104 0.26219   2
   4   5  -5 3.18332 0.29000   2
   4   5  -5 3.67306 0.25036   2
   4   5  -5 3.14162 0.34914   2
   4   5  -5 3.63371 0.23176   2
   4   5  -5 3.29536 0.39696   1
   4   5  -5 3.04545 0.35367   1
  -4  -5   5 3.01942 0.26488   1
  -4  -5   5 3.06038 0.14862   1
  -3  -5   0 40.9391 1.20624  -2
   3   5  -5 40.9391 1.20624   1
  -3  -5   0 43.6577 1.44727  -2
   3   5  -5 43.6577 1.44727   1
  -3  -5   0 42.7667 1.91110  -2
   3   5  -5 42.7667 1.91110   1
   3   5  -5 17.8130 0.80660   1
   3   5   0 42.5399 1.06706  -2
  -3  -5   5 42.5399 1.06706   1
   2   5  -5 5.37142 0.55880   1
   2   5  -5 5.69252 0.42175   1
   2   5  -5 5.17569 0.40274   1
   2   5  -5 6.11731 0.58646   1
   2   5  -5 6.09045 0.39875   2
   2   5  -5 5.50321 0.39129   2
   2   5  -5 5.97349 0.28434   2
  -2  -5   5 5.80601 0.55470   2
  -2  -5   5 5.90170 0.40673   2
  -1  -5  -1 128.050 4.02523  -2
   1   5  -5 128.050 4.02523   1
  -1  -5  -1 136.323 3.49374  -2
   1   5  -5 136.323 3.49374   1
  -1  -5  -1 128.548 3.71622  -2
   1   5  -5 128.548 3.71622   1
  -1  -5  -1 143.705 3.58094  -2
   1   5  -5 143.705 3.58094   1
  -1  -5  -1 121.656 4.17343  -2
   1   5  -5 121.656 4.17343   1
  -1  -5  -1 125.114 3.39483  -2
   1   5  -5 125.114 3.39483   1
  -1  -5  -1 134.492 3.62631  -2
   1   5  -5 134.492 3.62631   1
   0   5  -5 2.19137 0.36672   1
   0   5  -5 2.21428 0.38450   1
   0   5  -5 1.95321 0.36500   1
   0   5  -5 1.78870 0.41325   1
   0   5  -5 2.41663 0.24513   1
   0   5  -5 2.03223 0.35006   1
   0   5  -5 2.78320 0.27122   2
   0   5  -5 2.47864 0.16116   2
   0   5  -5 3.04748 0.51303   2
   0   5  -5 2.38553 0.24834   2
   0  -5   5 2.87779 0.41979   2
   0  -5   5 2.33680 0.34932   2
   0  -5   5 2.63184 0.43975   2
   0  -5   5 2.88002 0.25366   2
   0  -5   5 3.23519 0.36715   2
   0  -5   5 2.55329 0.20993   1
   1  -5  -2 67.4137 2.18180  -2
  -1   5  -5 67.4137 2.18180   1
   1  -5  -2 63.9113 2.40239  -2
  -1   5  -5 63.9113 2.40239   1
   1  -5  -2 68.4293 2.11516  -2
  -1   5  -5 68.4293 2.11516   1
   1  -5  -2 68.3559 2.19552  -2
  -1   5  -5 68.3559 2.19552   1
  -1   5   2 66.7822 1.93697  -2
   1  -5   5 66.7822 1.93697   1
  -2   5  -5 7.85698 0.35174   2
  -2   5  -5 8.17725 0.44651   2
  -2   5  -5 7.87902 0.58992   2
  -2   5  -5 8.02495 0.47160   2
  -2   5  -5 7.88777 0.59879   1
  -2   5  -5 7.93169 0.77510   1
  -2   5  -5 7.87725 0.65910   1
   2  -5   5 7.84082 0.45018   1
   2  -5   5 9.66013 1.20673   2
   2  -5   5 7.94031 0.49177   2
  -3   5  -5 0.92058 0.15269   2
  -3   5  -5 0.76878 0.16180   2
  -3   5  -5 0.99717 0.19939   2
  -3   5  -5 0.99087 0.19060   2
  -3   5  -5 1.13406 0.17310   2
  -3   5  -5 1.08438 0.29645   2
  -3   5  -5 0.87429 0.13807   2
  -3   5  -5 0.97833 0.35288   1
  -3   5  -5 0.87354 0.12779   1
  -3   5  -5 0.65473 0.19209   1
   3  -5  -3 2.75332 0.47848  -2
  -3   5  -5 2.75332 0.47848   1
   3  -5  -3 3.29252 0.32338  -2
  -3   5  -5 3.29252 0.32338   1
   3  -5   5 1.07393 0.28334   2
   3  -5   5 1.09978 0.32069   1
  -4   5  -5 2.46201 0.28477   1
  -4   5  -5 3.08520 0.31063   1
  -4   5  -5 2.83377 0.14059   1
  -4   5  -5 3.06654 0.34184   2
  -4   5  -5 3.05213 0.25952   2
  -4   5  -5 3.33668 0.32082   2
  -4   5  -5 3.40313 0.29983   2
  -4   5  -5 3.13015 0.54504   2
  -4   5  -5 3.27153 0.27293   2
  -4   5  -5 3.16595 0.23348   2
  -4   5  -5 3.41896 0.31089   2
  -4   5  -5 3.20494 0.29565   2
   4  -5   5 2.80879 0.31716   1
   4  -5   5 2.50844 0.45170   1
   4  -5   5 2.97857 0.47948   2
   4  -5   5 3.86133 0.37975   2
  -5   5  -5 2.04172 0.26635   2
  -5   5  -5 2.15811 0.24308   2
  -5   5  -5 1.88885 0.26657   2
  -5   5  -5 2.12442 0.28703   2
  -5   5  -5 1.82202 0.24289   2
  -5   5  -5 1.83004 0.23149   1
  -5   5  -5 2.05578 0.26742   1
   5  -5   5 1.55305 0.27294   2
   5  -5   5 2.11729 0.41781   2
   5  -5   5 1.98887 0.28715   1
  -6   5  -5 2.19548 0.24369   2
  -6   5  -5 2.04754 0.23494   2
  -6   5  -5 2.32439 0.23180   2
  -6   5  -5 1.71791 0.19247   1
   6  -5   5 2.47947 0.23504   2
   6  -5   5 1.90849 0.21716   1
   7   4  -5 3.84323 0.17989   2
   7   4  -5 3.42089 0.18091   2
   7   4  -5 3.66898 0.20124   1
  -7  -4   5 3.75045 0.22986   2
  -7  -4   5 3.32894 0.18089   1
  -6  -4   1 33.0144 1.04856  -2
   6   4  -5 33.0144 1.04856   1
  -6  -4   1 32.6097 0.92437  -2
   6   4  -5 32.6097 0.92437   1
  -6  -4   1 31.1843 1.20654  -2
   6   4  -5 31.1843 1.20654   1
   6   4  -1 32.9586 0.90977  -2
  -6  -4   5 32.9586 0.90977   1
   5   4  -5 9.87391 0.48077   2
   5   4  -5 10.0351 0.46294   2
   5   4  -5 10.1898 0.42078   2
   5   4  -5 9.91600 0.55119   2
   5   4  -5 9.73867 0.40586   2
   5   4  -5 10.0593 0.45023   2
   5   4  -5 10.2581 0.57600   2
   5   4  -5 8.34428 0.54163   1
  -5  -4   5 8.60863 0.25467   1
  -5  -4   5 8.39866 0.52979   1
  -5  -4   5 9.14156 0.41610   1
  -5  -4   5 9.90978 0.59186   2
  -4  -4   0 24.0334 0.89935  -2
   4   4  -5 24.0334 0.89935   1
  -4  -4   0 20.6795 0.81974  -2
   4   4  -5 20.6795 0.81974   1
  -4  -4   0 17.0660 1.18262  -2
   4   4  -5 17.0660 1.18262   1
   4   4   0 18.5961 0.59594  -2
  -4  -4   5 18.5961 0.59594   1
   4   4   0 19.0946 0.68141  -2
  -4  -4   5 19.0946 0.68141   1
   3   4  -5 3.84384 0.34936   1
   3   4  -5 3.74056 0.70476   1
   3   4  -5 3.61533 0.35145   1
   3   4  -5 3.40979 0.51754   1
   3   4  -5 4.04013 0.34379   2
   3   4  -5 3.99006 0.22977   2
  -3  -4   5 3.84327 0.33336   2
  -3  -4   5 3.97856 0.58082   2
  -3  -4   5 3.98346 0.32860   2
  -3  -4   5 3.80204 0.50985   2
  -2  -4  -1 24.8654 1.24552  -2
   2   4  -5 24.8654 1.24552   1
  -2  -4  -1 25.2035 1.08353  -2
   2   4  -5 25.2035 1.08353   1
   2   4  -5 9.91993 0.52465   1
   2   4  -5 10.6892 0.51909   1
   2   4  -5 12.1213 0.40125   2
  -2  -4   5 12.5888 0.86302   2
  -2  -4   5 12.2464 0.50189   2
  -2  -4   5 12.0049 0.84374   2
  -2  -4   5 12.3781 0.72783   2
   1   4  -5 62.9876 1.79084   2
   1   4  -5 62.2739 1.79329   2
   1   4  -5 57.4569 2.03583   1
   1   4  -5 57.5127 1.74445   1
   1   4  -5 58.2753 1.67779   1
   1   4  -5 57.9526 1.84675   1
   1   4  -5 58.0745 1.69229   1
   1   4  -5 58.6991 2.09331   1
   1   4  -5 57.3367 1.82687   1
  -1  -4   5 63.1437 2.25086   2
  -1  -4   5 64.6503 1.93017   2
  -1  -4   5 63.3204 2.15915   2
  -1  -4   5 56.7936 1.65105   1
   0   4  -5 4.91621 0.51259   2
   0   4  -5 5.05330 0.38746   2
   0   4  -5 4.73462 0.31956   2
   0   4  -5 4.69285 0.42980   1
   0   4  -5 4.35032 0.38708   1
   0   4  -5 3.96339 0.51712   1
   0   4  -5 4.10891 0.41506   1
   0  -4   5 4.31681 0.29960   1
   0  -4   5 4.91354 0.34391   1
   0  -4   5 4.67729 0.44564   2
   0  -4   5 4.57469 0.41662   2
   0  -4   5 4.52670 0.39402   2
  -1   4  -5 50.2419 1.68869   1
  -1   4  -5 47.2215 1.59309   1
  -1   4  -5 48.9196 1.86680   1
  -1   4  -5 48.7841 1.80393   1
  -1   4  -5 46.4802 1.65449   1
  -1   4  -5 56.3660 1.66175   2
  -1   4  -5 52.8483 1.58185   2
  -1   4  -5 54.9053 1.79412   2
  -1   4  -5 53.0620 2.01248   2
   1  -4   5 55.7463 1.45491   2
   1  -4   5 52.3208 1.71784   2
   1  -4   5 48.5871 1.50131   1
   1  -4   5 49.5706 1.46521   1
   1  -4   5 47.3776 1.71417   1
  -2   4  -5 7.30988 0.43600   2
  -2   4  -5 7.65101 0.41221   2
  -2   4  -5 7.72396 0.58627   2
  -2   4  -5 7.74621 0.55877   2
  -2   4  -5 7.18784 0.68451   2
  -2   4  -5 7.20128 0.59239   1
  -2   4  -5 6.20911 0.50735   1
  -2   4  -5 6.59606 0.64818   1
  -2   4  -5 8.85779 0.61040   1
  -2   4  -5 7.27531 0.56880   1
   2  -4   5 6.71517 0.55654   1
   2  -4   5 6.97863 0.45267   1
   2  -4   5 6.22021 0.44826   1
   2  -4   5 7.77341 0.60844   2
   2  -4   5 8.08291 0.45028   2
  -3   4  -5 37.6070 1.47043   2
  -3   4  -5 36.7820 1.21000   2
   3  -4  -4 36.5024 1.43211  -2
  -3   4  -5 36.5024 1.43211   1
  -3   4  -5 32.4459 1.45379   1
  -3   4  -5 30.2194 1.37029   1
   3  -4   5 31.3750 1.41055   1
   3  -4   5 32.7170 1.18564   1
   3  -4   5 31.7068 1.17695   1
   3  -4   5 37.5601 1.31885   2
  -4   4  -5 0.38258 0.18093   2
  -4   4  -5 0.26391 0.11408   2
  -4   4  -5 0.43921 0.15622   2
  -4   4  -5 0.39579 0.15148   2
  -4   4  -5 0.32169 0.15376   2
  -4   4  -5 0.34578 0.22188   2
  -4   4  -5 0.29127 0.25617   2
  -4   4  -5 0.27840 0.13634   2
  -4   4  -5 0.61108 0.18287   2
  -4   4  -5 0.63125 0.12502   2
  -4   4  -5 0.37406 0.12623   2
  -4   4  -5 0.42648 0.14918   1
  -4   4  -5 0.29401 0.16327   1
   4  -4   5 0.40476 0.18285   1
   4  -4   5 0.34317 0.24422   1
   4  -4   5 0.60037 0.21278   2
   5  -4  -5 13.6675 0.57266  -2
  -5   4  -5 13.6675 0.57266   1
  -5   4   5 12.0982 0.93378  -2
   5  -4   5 12.0982 0.93378   1
  -5   4   5 13.0178 0.70173  -2
   5  -4   5 13.0178 0.70173   1
  -6   4  -5 8.50325 0.42328   1
  -6   4  -5 8.02307 0.36011   1
  -6   4  -5 7.83214 0.37277   1
  -6   4  -5 9.12882 0.42267   2
  -6   4  -5 8.62868 0.43991   2
   7  -4  -6 25.6848 0.62302  -2
  -7   4  -5 25.6848 0.62302   1
  -7   4   6 22.6081 0.61276  -2
   7  -4   5 22.6081 0.61276   1
  -7  -3   1 118.689 2.97629  -2
   7   3  -5 118.689 2.97629   1
  -7  -3   1 120.123 2.61169  -2
   7   3  -5 120.123 2.61169   1
   7   3  -1 120.901 2.61860  -2
  -7  -3   5 120.901 2.61860   1
   6   3  -5 22.8332 0.77491   2
   6   3  -5 22.5824 0.71254   2
   6   3  -5 21.7340 0.84989   2
   6   3  -5 22.4687 0.73209   2
   6   3  -5 22.2798 0.68337   2
   6   3  -5 22.3630 0.67906   2
   6   3  -5 19.3386 0.79258   1
   6   3  -5 19.3823 0.79508   1
   6   3  -5 19.5131 0.68057   1
  -6  -3   5 21.9311 0.91943   2
  -6  -3   5 21.5774 0.85456   2
  -6  -3   5 19.5912 0.64998   1
   5   3  -5 71.8612 1.83348   1
   5   3  -5 71.8001 2.17415   1
   5   3  -5 82.1099 2.03389   2
   5   3  -5 86.9926 1.92678   2
   5   3  -5 79.8003 2.17636   2
   5   3  -5 79.6188 1.90136   2
   5   3  -5 80.8725 2.40435   2
   5   3  -5 79.2452 2.29860   2
   5   3  -5 80.0293 1.95979   2
  -5  -3   5 73.2132 1.67220   1
  -5  -3   5 74.2954 1.77411   1
  -5  -3   5 89.4477 3.10290   2
   4   3  -5 24.0363 0.94650   1
   4   3  -5 24.3201 0.90297   1
   4   3  -5 22.8566 1.23391   1
   4   3  -5 28.0473 1.01918   2
   4   3  -5 26.6865 0.73475   2
   4   3  -5 26.0498 0.84774   2
   4   3  -5 27.0594 0.86243   2
   4   3  -5 26.0895 0.74397   2
   4   3  -5 26.5357 0.96405   2
   4   3  -5 26.9112 0.83059   2
  -4  -3   5 26.1553 0.99272   2
  -4  -3   5 25.9962 1.21074   2
  -4  -3   5 26.3455 1.41378   2
  -4  -3   5 23.7237 0.73898   1
  -4  -3   5 22.9164 0.70606   1
   3   3  -5 384.251 11.2251   1
   3   3  -5 390.127 10.6476   1
   3   3  -5 384.656 9.62579   1
   3   3  -5 383.840 10.3698   1
   3   3  -5 396.017 9.88685   1
   3   3  -5 410.122 9.89413   2
   3   3  -5 425.735 10.4149   2
   3   3  -5 416.483 10.0196   2
  -3  -3   5 433.846 9.78216   2
  -3  -3   5 429.810 11.3143   2
  -3  -3   5 415.446 12.2088   2
  -3  -3   5 426.581 11.1645   2
  -3  -3   5 392.220 9.76421   1
   2   3  -5 28.9834 1.15393   2
   2   3  -5 27.7297 0.98610   1
   2   3  -5 26.7987 1.13467   1
   2   3  -5 25.7920 1.19200   1
   2   3  -5 26.0925 0.93709   1
   2   3  -5 27.5215 0.88037   1
   2   3  -5 26.4145 0.99864   1
   2   3  -5 26.5860 1.25469   1
  -2  -3   5 28.3472 1.25038   2
  -2  -3   5 28.6480 1.26602   2
  -2  -3   5 29.2182 1.28103   2
  -2  -3   5 27.3228 0.89041   1
   1   3  -5 80.7577 2.25154   1
   1   3  -5 97.4538 2.99726   1
   1   3  -5 81.3462 2.22110   1
   1   3  -5 79.7174 2.53188   1
   1   3  -5 82.4885 2.53007   1
   1   3  -5 81.7373 2.27795   1
   1   3  -5 85.7689 2.75952   1
   1   3  -5 81.7030 2.41451   1
   1   3  -5 89.9644 2.42213   2
  -1  -3   5 91.1844 2.33754   2
  -1  -3   5 92.8501 2.77842   2
  -1  -3   5 93.2943 2.88972   2
  -1  -3   5 90.4476 2.92769   2
  -1  -3   5 93.3543 2.48590   2
  -1  -3   5 82.8888 2.18927   1
  -1  -3   5 80.3326 2.29126   1
   0  -3  -3 49.0756 1.77853  -2
   0   3  -5 49.0756 1.77853   1
   0  -3  -3 53.9574 1.89962  -2
   0   3  -5 53.9574 1.89962   1
   0  -3  -3 53.0373 1.73742  -2
   0   3  -5 53.0373 1.73742   1
   0  -3  -3 51.9655 1.59393  -2
   0   3  -5 51.9655 1.59393   1
   0  -3  -3 51.8782 1.61323  -2
   0   3  -5 51.8782 1.61323   1
   0  -3  -3 51.5081 1.67033  -2
   0   3  -5 51.5081 1.67033   1
   0  -3  -3 50.8704 1.76257  -2
   0   3  -5 50.8704 1.76257   1
   0   3   3 51.3667 1.48564  -2
   0  -3   5 51.3667 1.48564   1
  -1   3  -5 215.222 6.32867   1
  -1   3  -5 215.320 5.28982   1
  -1   3  -5 211.756 5.89425   1
  -1   3  -5 217.473 5.67823   1
  -1   3  -5 214.834 6.04000   1
  -1   3  -5 215.133 5.87648   1
  -1   3  -5 212.294 5.06021   1
  -1   3  -5 227.088 5.76354   2
  -1   3  -5 237.110 6.39867   2
  -1   3  -5 232.338 6.52184   2
  -1   3  -5 223.844 6.05749   2
   1  -3   5 235.447 5.45967   2
   1  -3   5 210.719 5.59956   1
   1  -3   5 214.462 5.15451   1
   2  -3  -4 50.3097 1.68667  -2
  -2   3  -5 50.3097 1.68667   1
   2  -3  -4 50.7278 1.72213  -2
  -2   3  -5 50.7278 1.72213   1
   2  -3  -4 49.2927 1.94208  -2
  -2   3  -5 49.2927 1.94208   1
   2  -3  -4 48.4725 1.90354  -2
  -2   3  -5 48.4725 1.90354   1
   2  -3  -4 51.7283 1.63110  -2
  -2   3  -5 51.7283 1.63110   1
  -2   3   4 51.3195 1.90415  -2
   2  -3   5 51.3195 1.90415   1
  -2   3   4 50.2238 1.58187  -2
   2  -3   5 50.2238 1.58187   1
  -2   3   4 51.1573 1.53194  -2
   2  -3   5 51.1573 1.53194   1
  -2   3   4 51.0960 1.90048  -2
   2  -3   5 51.0960 1.90048   1
  -3   3  -5 0.23236 0.14006   2
  -3   3  -5 0.47110 0.24488   2
  -3   3  -5 0.11927 0.17996   2
  -3   3  -5 0.29232 0.28596   2
  -3   3  -5 0.10420 0.20547   1
  -3   3  -5 0.30879 0.20729   1
  -3   3  -5 0.06479 0.29825   1
  -3   3  -5 0.22024 0.18319   1
   3  -3   5 0.23544 0.16641   1
   3  -3   5 0.22967 0.20754   1
   3  -3   5 0.64848 0.29932   1
   3  -3   5 0.14394 0.15804   1
   3  -3   5 0.35202 0.24372   2
   3  -3   5 0.91973 0.22991   2
   4  -3  -5 41.5233 1.22434  -2
  -4   3  -5 41.5233 1.22434   1
   4  -3  -5 46.0750 1.07036  -2
  -4   3  -5 46.0750 1.07036   1
   4  -3  -5 43.2097 1.18125  -2
  -4   3  -5 43.2097 1.18125   1
   4  -3  -5 44.4704 1.26021  -2
  -4   3  -5 44.4704 1.26021   1
   4  -3  -5 43.2787 1.15588  -2
  -4   3  -5 43.2787 1.15588   1
   4  -3  -5 40.8796 1.93786  -2
  -4   3  -5 40.8796 1.93786   1
  -4   3   5 42.1273 1.88983  -2
   4  -3   5 42.1273 1.88983   1
  -4   3   5 43.5618 1.50295  -2
   4  -3   5 43.5618 1.50295   1
  -5   3  -5 85.2931 2.08460   1
  -5   3  -5 82.7848 1.77395   1
  -5   3  -5 81.6172 2.01874   1
  -5   3  -5 80.8398 1.93071   1
  -5   3  -5 80.8831 1.90860   1
  -5   3  -5 92.1429 2.60012   2
  -5   3  -5 91.9418 2.16545   2
  -5   3  -5 92.8285 2.29791   2
  -5   3  -5 93.4158 2.28568   2
  -5   3  -5 93.4769 2.24252   2
  -5   3  -5 86.9150 3.22157   2
  -5   3  -5 93.5413 2.48341   2
   5  -3   5 91.2305 2.74308   2
   5  -3   5 76.2590 2.85406   1
   5  -3   5 80.9307 2.52398   1
  -6   3  -5 0.91221 0.14413   1
  -6   3  -5 1.29804 0.17941   1
  -6   3  -5 0.95659 0.18516   1
  -6   3  -5 0.77331 0.15551   1
  -6   3  -5 0.91908 0.17403   2
  -6   3  -5 0.98987 0.17585   2
  -7   3  -5 9.80757 0.30851   1
   7   2  -5 155.522 3.40750   1
   7   2  -5 159.743 3.94379   1
   7   2  -5 188.714 3.86625   2
  -7  -2   5 186.318 4.48993   2
  -7  -2   5 176.485 4.67139   2
  -7  -2   5 158.188 3.38850   1
   6   2  -5 47.5965 1.48815   2
   6   2  -5 48.2112 1.24234   2
   6   2  -5 48.1425 1.27214   2
   6   2  -5 48.3338 1.40356   2
   6   2  -5 47.8067 1.29558   2
   6   2  -5 48.1988 1.23330   2
   6   2  -5 42.7003 1.40488   1
   6   2  -5 42.7893 1.40161   1
   6   2  -5 44.5000 1.18841   1
  -6  -2   5 49.1810 1.53150   2
  -6  -2   5 49.1155 1.62687   2
  -6  -2   5 42.3636 1.15107   1
  -6  -2   5 42.8450 1.03222   1
  -5  -2  -1 335.791 7.12666  -2
   5   2  -5 335.791 7.12666   1
  -5  -2  -1 329.021 8.16280  -2
   5   2  -5 329.021 8.16280   1
  -5  -2  -1 345.948 8.47092  -2
   5   2  -5 345.948 8.47092   1
  -5  -2  -1 328.587 9.98035  -2
   5   2  -5 328.587 9.98035   1
   5   2   1 348.186 7.05769  -2
  -5  -2   5 348.186 7.05769   1
   5   2   1 333.893 7.03501  -2
  -5  -2   5 333.893 7.03501   1
   4   2  -5 88.5135 2.46162   2
   4   2  -5 87.8642 2.22084   2
   4   2  -5 86.7738 2.68733   2
   4   2  -5 81.0555 2.90416   1
   4   2  -5 82.5988 2.35817   1
  -4  -2   5 88.5460 2.36116   2
  -4  -2   5 82.7411 3.41609   2
  -4  -2   5 86.4804 3.15467   2
  -3  -2  -2 15.8555 0.64929  -2
   3   2  -5 15.8555 0.64929   1
  -3  -2  -2 14.7811 0.88015  -2
   3   2  -5 14.7811 0.88015   1
  -3  -2  -2 16.9384 0.98931  -2
   3   2  -5 16.9384 0.98931   1
  -3  -2  -2 14.5027 0.87310  -2
   3   2  -5 14.5027 0.87310   1
   3   2   2 14.5324 0.60374  -2
  -3  -2   5 14.5324 0.60374   1
   2   2  -5 0.89164 0.21106   1
   2   2  -5 0.45483 0.18794   1
   2   2  -5 0.69223 0.16872   1
   2   2  -5 0.87518 0.21090   1
   2   2  -5 1.15660 0.30412   1
   2   2  -5 0.96547 0.25252   1
   2   2  -5 0.71312 0.15349   1
   2   2  -5 0.73343 0.24604   2
   2   2  -5 0.86154 0.26333   2
   2   2  -5 0.75034 0.21137   2
  -2  -2   5 0.86639 0.16662   1
  -2  -2   5 0.67921 0.14079   1
  -2  -2   5 1.06173 0.27973   2
  -2  -2   5 0.85405 0.24878   2
  -1  -2  -3 205.812 5.70595  -2
   1   2  -5 205.812 5.70595   1
  -1  -2  -3 208.053 6.02795  -2
   1   2  -5 208.053 6.02795   1
  -1  -2  -3 201.548 4.73944  -2
   1   2  -5 201.548 4.73944   1
  -1  -2  -3 194.310 5.31434  -2
   1   2  -5 194.310 5.31434   1
  -1  -2  -3 208.242 5.61169  -2
   1   2  -5 208.242 5.61169   1
   1   2   3 211.410 4.89624  -2
  -1  -2   5 211.410 4.89624   1
   1   2   3 199.040 5.27711  -2
  -1  -2   5 199.040 5.27711   1
   0   2  -5 88.1609 2.62708   1
   0   2  -5 85.1828 2.26529   1
   0   2  -5 87.4222 2.79131   1
   0   2  -5 84.7422 2.29813   1
   0   2  -5 87.3416 2.62363   1
   0   2  -5 85.0253 2.47027   1
   0   2  -5 85.0610 2.56225   1
   0   2  -5 98.6933 2.46821   2
   0   2  -5 92.2292 2.90604   2
   0   2  -5 89.8395 2.66602   2
   0   2  -5 94.8607 2.43054   2
   0   2  -5 99.6549 2.88533   2
   0   2  -5 94.4738 2.83623   2
   0  -2   5 95.0530 2.66822   2
   0  -2   5 85.8091 2.20914   1
  -1   2  -5 96.2464 2.94195   2
  -1   2  -5 93.6770 2.84758   2
  -1   2  -5 91.8284 2.69582   2
  -1   2  -5 91.2509 2.48676   2
  -1   2  -5 92.3462 2.84368   2
  -1   2  -5 82.7027 2.43589   1
  -1   2  -5 86.8437 2.26209   1
  -1   2  -5 81.6771 2.60436   1
  -1   2  -5 81.8541 2.33609   1
  -1   2  -5 85.3028 2.76607   1
  -1   2  -5 86.2752 2.63363   1
   1  -2  -4 97.5225 2.97043  -2
  -1   2  -5 97.5225 2.97043   1
   1  -2   5 81.9453 2.16643   1
  -2   2  -5 6.90442 0.46410   1
  -2   2  -5 6.89094 0.52893   1
  -2   2  -5 7.48650 0.55205   1
  -2   2  -5 7.22561 0.55766   1
  -2   2  -5 6.96336 0.48847   1
  -2   2  -5 7.11131 0.60772   1
  -2   2  -5 7.67480 0.60771   2
  -2   2  -5 7.65961 0.52263   2
  -2   2  -5 7.49346 0.40502   2
  -2   2  -5 7.20453 0.61259   2
  -2   2  -5 7.61005 0.59358   2
   2  -2   5 7.11133 0.59906   1
   2  -2   5 6.96792 0.42479   1
   2  -2   5 7.82395 0.41007   2
  -3   2  -5 45.2538 1.85688   2
  -3   2  -5 44.9342 1.83368   2
  -3   2  -5 43.5104 1.85075   2
  -3   2  -5 45.3268 1.40949   2
  -3   2  -5 44.6912 1.62337   2
  -3   2  -5 39.9715 1.53409   1
  -3   2  -5 38.3663 1.72146   1
  -3   2  -5 39.9343 1.68629   1
   3  -2   5 41.1564 1.66900   1
   3  -2   5 37.7050 1.66908   1
   3  -2   5 39.2950 1.33044   1
   3  -2   5 44.1424 1.46338   2
   3  -2   5 45.4857 1.62737   2
  -4   2  -5 0.85510 0.14284   2
  -4   2  -5 0.28183 0.15729   2
  -4   2  -5 0.39663 0.15558   2
  -4   2  -5 0.38484 0.27396   2
  -4   2  -5 0.21766 0.12536   2
  -4   2  -5 0.18139 0.08674   2
  -4   2  -5 0.27375 0.20907   2
  -4   2  -5 0.23755 0.13959   2
  -4   2  -5 0.14968 0.12432   2
  -4   2  -5 0.28743 0.13783   1
  -4   2  -5 0.25299 0.10158   1
  -4   2  -5 0.42286 0.13908   1
  -4   2  -5 0.18011 0.10144   1
  -4   2  -5 0.11594 0.21977   1
  -4   2  -5 0.00854 0.14356   1
   4  -2   5 0.23494 0.23460   1
   4  -2   5 0.24645 0.15558   2
  -5   2  -5 2.08326 0.28126   1
  -5   2  -5 1.87743 0.20720   1
  -5   2  -5 1.96856 0.19853   1
  -5   2  -5 2.69352 0.26398   1
  -5   2  -5 2.40438 0.26046   1
  -5   2  -5 2.53811 0.29207   2
  -5   2  -5 2.16122 0.26106   2
  -5   2  -5 2.55649 0.34013   2
  -5   2  -5 2.93266 0.53399   2
  -5   2  -5 2.44325 0.27328   2
   5  -2   5 2.59883 0.40592   1
   5  -2   5 2.50992 0.48790   1
   5  -2   5 2.32691 0.32905   2
   6  -2  -7 26.1072 0.78935  -2
  -6   2  -5 26.1072 0.78935   1
   6  -2  -7 25.8803 0.73796  -2
  -6   2  -5 25.8803 0.73796   1
   6  -2  -7 26.7160 0.70136  -2
  -6   2  -5 26.7160 0.70136   1
   6  -2  -7 27.1172 0.87676  -2
  -6   2  -5 27.1172 0.87676   1
  -7   2  -5 8.23147 0.24775   1
  -7   2  -5 7.95935 0.31472   1
  -7   2  -5 7.51123 0.28914   1
   7  -2   5 8.43083 0.29436   2
   7   1  -5 96.0933 2.17480   2
   7   1  -5 95.1709 2.13637   2
   7   1  -5 82.3414 2.22920   1
   7   1  -5 83.8486 1.88831   1
  -7  -1   5 83.2093 1.88998   1
  -7  -1   5 79.0727 1.68735   1
  -7  -1   5 93.7630 2.58972   2
  -7  -1   5 96.9719 2.47744   2
  -6  -1  -1 24.9692 0.95642  -2
   6   1  -5 24.9692 0.95642   1
  -6  -1  -1 23.3560 0.76837  -2
   6   1  -5 23.3560 0.76837   1
  -6  -1  -1 23.8062 0.95328  -2
   6   1  -5 23.8062 0.95328   1
   6   1   1 25.4213 0.72949  -2
  -6  -1   5 25.4213 0.72949   1
   6   1   1 24.7164 0.78522  -2
  -6  -1   5 24.7164 0.78522   1
   5   1  -5 13.8354 0.66352   1
   5   1  -5 13.5264 0.67825   1
   5   1  -5 13.5762 0.53498   1
   5   1  -5 13.6053 0.90511   1
   5   1  -5 15.2193 0.53840   2
   5   1  -5 15.1669 0.57368   2
   5   1  -5 14.9376 0.68258   2
   5   1  -5 14.6380 0.57607   2
   5   1  -5 15.6324 0.71313   2
   5   1  -5 15.3268 0.51645   2
   5   1  -5 15.0452 0.59822   2
  -5  -1   5 13.8222 0.52942   1
  -5  -1   5 13.7232 0.52219   1
  -5  -1   5 14.4135 1.04173   2
  -4  -1  -2 29.3669 1.05992  -2
   4   1  -5 29.3669 1.05992   1
  -4  -1  -2 28.9452 1.37264  -2
   4   1  -5 28.9452 1.37264   1
  -4  -1  -2 27.3117 1.37922  -2
   4   1  -5 27.3117 1.37922   1
  -4  -1  -2 29.4065 1.30248  -2
   4   1  -5 29.4065 1.30248   1
   4   1  -5 28.5711 1.01747   2
   4   1  -5 29.3833 0.86435   2
   4   1  -5 26.3957 1.47753   1
  -4  -1   5 27.2339 0.92795   1
  -4  -1   5 30.2039 1.46117   2
  -4  -1   5 28.5706 0.99414   2
  -4  -1   5 27.0213 1.44444   2
   3   1  -5 0.71272 0.23076   1
   3   1  -5 0.98377 0.24260   1
   3   1  -5 0.73135 0.16488   1
   3   1  -5 1.36127 0.37962   1
   3   1  -5 0.89900 0.21753   1
   3   1  -5 0.91558 0.24540   1
   3   1  -5 1.11138 0.22702   1
   3   1  -5 1.21118 0.32897   2
   3   1  -5 0.62980 0.26164   2
   3   1  -5 1.11572 0.27495   2
  -3  -1   5 1.17887 0.29514   2
  -3  -1   5 0.51440 0.26448   2
  -3  -1   5 1.22900 0.16049   2
  -3  -1   5 0.92012 0.19486   1
  -3  -1   5 0.65196 0.14796   1
   2   1  -5 0.84670 0.21621   1
   2   1  -5 0.55559 0.17056   1
   2   1  -5 0.68608 0.25899   1
   2   1  -5 0.62406 0.16242   1
   2   1  -5 0.66187 0.19986   1
   2   1  -5 0.73514 0.19076   1
   2   1  -5 0.97771 0.17400   1
   2   1  -5 0.58173 0.21947   2
   2   1  -5 0.83088 0.23256   2
  -2  -1   5 0.69372 0.24123   2
  -2  -1   5 0.44229 0.12142   1
  -2  -1   5 0.48855 0.13982   1
   1   1  -5 23.4982 0.90113   1
   1   1  -5 25.2196 0.90896   1
   1   1  -5 28.5230 1.08654   1
   1   1  -5 23.9846 0.97727   1
   1   1  -5 24.2494 1.03070   1
   1   1  -5 27.2103 1.13913   2
   1   1  -5 27.4396 0.91881   2
   1   1  -5 26.6952 0.94330   2
   1   1  -5 26.8462 1.05340   2
   1   1  -5 28.0755 1.18291   2
   1   1  -5 24.0487 0.92683   2
   1   1  -5 26.5216 1.09481   2
  -1  -1   5 24.4209 0.79852   1
  -1  -1   5 25.5109 0.97637   2
   0   1  -5 134.397 3.86984   2
   0   1  -5 134.016 3.92669   2
   0   1  -5 130.784 4.04388   2
   0   1  -5 133.340 3.66434   2
   0   1  -5 128.323 3.21794   2
   0   1  -5 128.594 3.57883   2
   0   1  -5 115.278 2.89239   1
   0   1  -5 115.865 2.91183   1
   0   1  -5 114.984 3.39624   1
   0   1  -5 117.958 3.44666   1
   0   1  -5 117.032 3.20170   1
   0   1  -5 120.185 3.26683   1
   0   1  -5 114.345 3.60430   1
   0  -1   5 117.753 2.83736   1
  -1   1  -5 109.813 2.75674   1
  -1   1  -5 108.984 3.26975   1
  -1   1  -5 109.049 2.88182   1
  -1   1  -5 110.090 3.03677   1
  -1   1  -5 106.798 3.20663   1
  -1   1  -5 107.772 3.45332   1
  -1   1  -5 109.774 3.29177   1
  -1   1  -5 120.584 3.46265   2
  -1   1  -5 119.340 3.72167   2
  -1   1  -5 122.357 3.07836   2
  -1   1  -5 120.148 3.67457   2
  -1   1  -5 116.740 3.57732   2
  -1   1  -5 120.356 3.36528   2
   1  -1   5 109.301 2.68941   1
   1  -1   5 118.614 2.83925   2
  -2   1  -5 0.22623 0.15003   1
  -2   1  -5 0.26314 0.20145   1
  -2   1  -5 0.05168 0.14674   1
  -2   1  -5 0.10903 0.14829   1
  -2   1  -5 0.14064 0.12624   1
  -2   1  -5 0.17446 0.16300   1
  -2   1  -5 0.06527 0.17136   2
  -2   1  -5 0.04508 0.17728   2
  -2   1  -5 0.12672 0.14498   2
  -2   1  -5 0.04350 0.09813   2
  -2   1  -5 0.08661 0.18169   2
  -2   1  -5 0.04065 0.16106   2
   2  -1   5 0.01372 0.09460   2
   2  -1   5 -0.0369 0.16500   1
   3  -1  -6 10.4009 0.78534  -2
  -3   1  -5 10.4009 0.78534   1
   3  -1  -6 10.1515 0.81602  -2
  -3   1  -5 10.1515 0.81602   1
  -3   1   6 10.6037 0.59708  -2
   3  -1   5 10.6037 0.59708   1
  -4   1  -5 0.25461 0.13845   2
  -4   1  -5 0.39195 0.17750   2
  -4   1  -5 0.24512 0.10544   2
  -4   1  -5 0.31206 0.10851   2
  -4   1  -5 0.30898 0.21667   2
  -4   1  -5 0.28197 0.27888   2
  -4   1  -5 0.42958 0.14422   2
  -4   1  -5 0.43926 0.15621   2
  -4   1  -5 0.82682 0.12836   1
  -4   1  -5 0.39511 0.16080   1
  -4   1  -5 0.22654 0.12285   1
  -4   1  -5 0.17490 0.23841   1
  -4   1  -5 0.34818 0.09717   1
   4  -1   5 0.35730 0.17350   2
   4  -1   5 0.47204 0.26778   1
   5  -1  -7 14.5280 0.46911  -2
  -5   1  -5 14.5280 0.46911   1
   5  -1  -7 16.9603 0.60611  -2
  -5   1  -5 16.9603 0.60611   1
   5  -1  -7 14.3188 0.61042  -2
  -5   1  -5 14.3188 0.61042   1
   5  -1  -7 14.3560 0.49251  -2
  -5   1  -5 14.3560 0.49251   1
  -5   1   7 11.6766 0.91935  -2
   5  -1   5 11.6766 0.91935   1
  -6   1  -5 2.57053 0.26855   1
  -6   1  -5 2.76935 0.18213   1
  -6   1  -5 2.48739 0.22554   1
  -6   1  -5 2.72974 0.17695   1
  -6   1  -5 3.13643 0.25427   2
  -6   1  -5 3.22399 0.30660   2
   8   0  -5 0.26903 0.10871   1
   8   0  -5 0.48616 0.09862   2
   8   0  -5 0.55920 0.09120   2
   7   0  -5 0.04533 0.09982   2
   7   0  -5 0.02255 0.08890   2
   7   0  -5 0.12792 0.14683   1
   7   0  -5 0.01713 0.07914   1
   7   0   1 -0.1900 0.23004  -2
  -7   0   5 -0.1900 0.23004   1
  -7   0   5 0.11962 0.13298   2
  -7   0   5 0.08394 0.11957   2
  -7   0   5 0.10139 0.06944   1
   6   0  -5 11.6831 0.61991   1
   6   0  -5 11.9994 0.60938   1
   6   0  -5 12.2360 0.47653   1
   6   0  -5 13.1730 0.55999   2
   6   0  -5 13.8576 0.54867   2
   6   0  -5 13.4632 0.46428   2
   6   0  -5 13.0288 0.55607   2
   6   0  -5 12.6265 0.51070   2
  -6   0   5 11.5781 0.48239   1
  -6   0   5 11.8862 0.46771   1
  -6   0   5 13.7519 0.69908   2
  -6   0   5 13.4803 0.60360   2
  -6   0   5 13.5519 0.64737   2
   5   0  -5 4.73713 0.26373   2
   5   0  -5 4.68399 0.29514   2
   5   0  -5 4.39595 0.27985   2
   5   0  -5 4.60180 0.25186   2
   5   0  -5 4.60467 0.32324   2
   5   0  -5 4.26170 0.31799   2
   5   0  -5 4.53100 0.38618   1
   5   0  -5 3.84097 0.39318   1
   5   0  -5 4.57078 0.51685   1
   5   0  -5 4.11735 0.27367   1
  -5   0   5 4.39134 0.31507   1
  -5   0   5 4.03719 0.29425   1
  -5   0   5 4.78417 0.58749   2
  -5   0   5 4.84532 0.40929   2
  -5   0   5 4.96149 0.38030   2
  -5   0   5 4.85124 0.66480   2
   4   0  -5 49.2470 2.15977   1
   4   0  -5 51.0054 1.91099   1
   4   0  -5 51.0721 1.94389   1
   4   0  -5 51.5962 1.57978   1
   4   0  -5 54.7533 1.63504   2
   4   0  -5 52.5596 2.10289   2
   4   0  -5 53.5565 1.88212   2
   4   0  -5 53.8869 1.46363   2
  -4   0   5 55.3475 1.61289   2
  -4   0   5 53.6695 2.23390   2
  -4   0   5 55.5601 2.12138   2
  -4   0   5 55.7799 2.21516   2
  -4   0   5 51.9345 1.57316   1
   3   0  -5 193.762 5.68228   1
   3   0  -5 190.886 4.94769   1
   3   0  -5 196.540 4.56834   1
   3   0  -5 202.540 5.63597   1
   3   0  -5 193.811 5.11207   1
   3   0  -5 187.872 5.48754   1
   3   0  -5 197.702 5.80157   1
   3   0  -5 231.122 5.60474   2
   3   0  -5 219.120 6.79007   2
  -3   0   5 220.636 6.44678   2
  -3   0   5 221.134 5.24794   2
  -3   0   5 223.189 6.38973   2
  -3   0   5 194.331 5.09577   1
  -3   0   5 195.364 4.75016   1
  -2   0  -4 274.019 7.36540  -2
   2   0  -5 274.019 7.36540   1
  -2   0  -4 270.348 6.97480  -2
   2   0  -5 270.348 6.97480   1
  -2   0  -4 260.245 6.67890  -2
   2   0  -5 260.245 6.67890   1
  -2   0  -4 270.167 7.29800  -2
   2   0  -5 270.167 7.29800   1
  -2   0  -4 272.036 6.17256  -2
   2   0  -5 272.036 6.17256   1
  -2   0  -4 280.064 7.85030  -2
   2   0  -5 280.064 7.85030   1
  -2   0  -4 274.250 7.56339  -2
   2   0  -5 274.250 7.56339   1
   2   0   4 261.891 6.36306  -2
  -2   0   5 261.891 6.36306   1
   1   0  -5 974.667 21.5419   2
   1   0  -5 923.386 23.7312   2
   1   0  -5 968.308 24.0716   2
   1   0  -5 984.297 24.7113   2
   1   0  -5 978.689 25.6699   2
   1   0  -5 979.050 26.7858   2
   1   0  -5 952.483 20.5994   2
   1   0  -5 867.672 21.5783   1
   1   0  -5 820.806 20.8221   1
   1   0  -5 848.576 21.3952   1
   1   0  -5 852.862 23.3677   1
   1   0  -5 833.127 22.4203   1
   1   0  -5 846.917 18.1080   1
  -1   0   5 849.584 19.1043   1
   0   0  -5 201.757 5.80906  -2
   0   0  -5 201.757 5.80906   1
   0   0  -5 190.149 5.11010  -2
   0   0  -5 190.149 5.11010   1
   0   0  -5 193.141 4.55905  -2
   0   0  -5 193.141 4.55905   1
   0   0  -5 202.658 5.59694  -2
   0   0  -5 202.658 5.59694   1
   0   0  -5 187.305 5.43006  -2
   0   0  -5 187.305 5.43006   1
   0   0   5 194.293 4.49086  -2
   0   0   5 194.293 4.49086   1
  -1   0  -5 109.779 2.92171   1
  -1   0  -5 106.982 3.03949   1
  -1   0  -5 112.874 2.77744   1
  -1   0  -5 110.679 3.32484   1
  -1   0  -5 111.304 3.51393   1
  -1   0  -5 111.772 3.35871   1
  -1   0  -5 110.215 3.27119   1
  -1   0  -5 118.123 3.38877   2
  -1   0  -5 125.559 3.85547   2
  -1   0  -5 120.780 3.10485   2
  -1   0  -5 117.542 3.10629   2
  -1   0  -5 120.158 3.68282   2
   1   0   5 120.823 2.96204   2
   2   0  -6 179.300 5.21425  -2
  -2   0  -5 179.300 5.21425   1
   2   0  -6 179.018 4.95935  -2
  -2   0  -5 179.018 4.95935   1
   2   0  -6 153.342 4.25262  -2
  -2   0  -5 153.342 4.25262   1
   2   0  -6 148.157 4.71766  -2
  -2   0  -5 148.157 4.71766   1
  -3   0  -5 0.94779 0.13813   1
  -3   0  -5 0.69879 0.29285   1
  -3   0  -5 0.45177 0.22937   1
  -3   0  -5 0.41046 0.21773   2
  -3   0  -5 0.27320 0.24032   2
  -3   0  -5 0.50683 0.16824   2
  -3   0  -5 0.49592 0.26584   2
   3   0   5 0.56453 0.18891   1
   3   0   5 0.39386 0.25832   1
   3   0   5 0.36400 0.20314   2
   3   0   5 0.42892 0.16767   2
  -4   0  -5 7.23611 0.29139   1
  -4   0  -5 6.94117 0.38027   1
  -4   0  -5 6.85350 0.28777   1
  -4   0  -5 7.27165 0.36430   1
  -4   0  -5 6.82319 0.70045   1
  -4   0  -5 7.23617 0.42907   1
  -4   0  -5 8.05504 0.43245   2
  -4   0  -5 8.20531 0.43284   2
  -4   0  -5 8.69727 0.75838   2
   4   0   5 8.24838 0.43041   2
   4   0   5 7.96957 0.52576   2
   4   0   5 7.19386 0.66964   1
  -5   0  -5 0.26844 0.14034   2
  -5   0  -5 0.35117 0.16643   2
  -5   0  -5 0.32880 0.14108   2
  -5   0  -5 0.35413 0.09609   1
  -5   0  -5 0.40430 0.15417   1
  -5   0  -5 0.28905 0.12204   1
  -5   0  -5 0.63187 0.10370   1
   5   0   5 0.40997 0.17024   2
   5   0   5 0.39931 0.14189   2
  -6   0  -5 4.08491 0.20265   1
  -6   0  -5 3.98049 0.25506   1
  -6   0  -5 3.74834 0.29869   1
  -6   0  -5 4.06642 0.17130   1
  -6   0  -5 4.86520 0.29740   2
   6   0   5 7.02704 0.38141   2
   6   0   5 6.42681 0.30948   2
   8  -1  -5 0.18341 0.10309   1
   8  -1  -5 -0.0122 0.05876   2
   8  -1  -5 0.27817 0.09332   2
  -7   1  -2 13.4246 0.60050  -2
   7  -1  -5 13.4246 0.60050   1
   7  -1  -5 5.08337 0.20536   1
   7  -1   2 11.5577 0.44081  -2
  -7   1   5 11.5577 0.44081   1
   6  -1  -5 42.4680 1.18020   2
   6  -1  -5 41.5105 1.11697   2
   6  -1  -5 41.2643 1.01693   2
   6  -1  -5 41.7518 1.14808   2
   6  -1  -5 34.0081 1.56667   1
   6  -1  -5 36.8770 0.94447   1
   6  -1  -5 37.5341 1.23823   1
   6  -1  -5 36.0703 1.24522   1
  -6   1   5 37.1821 1.80834   2
  -6   1   5 42.4461 1.34668   2
  -6   1   5 41.7415 1.43276   2
  -6   1   5 36.3949 1.01912   1
  -5   1  -3 624.892 15.2447  -2
   5  -1  -5 624.892 15.2447   1
  -5   1  -3 623.567 13.2519  -2
   5  -1  -5 623.567 13.2519   1
  -5   1  -3 654.422 15.8524  -2
   5  -1  -5 654.422 15.8524   1
  -5   1  -3 676.601 17.7884  -2
   5  -1  -5 676.601 17.7884   1
   5  -1   3 670.246 16.4015  -2
  -5   1   5 670.246 16.4015   1
   4  -1  -5 80.5519 2.11097   2
   4  -1  -5 81.8501 3.05403   2
   4  -1  -5 81.7070 2.56517   2
   4  -1  -5 72.6874 2.11667   1
   4  -1  -5 73.6064 2.55998   1
   4  -1  -5 74.0842 3.35616   1
  -4   1   5 80.7541 2.27433   2
  -4   1   5 84.0789 2.92525   2
  -4   1   5 72.1410 2.12898   1
  -4   1   5 75.7675 2.17095   1
  -3   1  -4 1287.91 31.8155  -2
   3  -1  -5 1287.91 31.8155   1
  -3   1  -4 1380.75 35.1989  -2
   3  -1  -5 1380.75 35.1989   1
  -3   1  -4 1286.06 32.5695  -2
   3  -1  -5 1286.06 32.5695   1
  -3   1  -4 1336.07 33.7662  -2
   3  -1  -5 1336.07 33.7662   1
  -3   1  -4 1329.82 33.6749  -2
   3  -1  -5 1329.82 33.6749   1
   3  -1   4 1320.93 30.0881  -2
  -3   1   5 1320.93 30.0881   1
   3  -1   4 1348.92 33.0170  -2
  -3   1   5 1348.92 33.0170   1
   2  -1  -5 347.575 8.20494   2
   2  -1  -5 349.056 9.18380   2
   2  -1  -5 351.305 7.77093   2
   2  -1  -5 348.616 9.68935   2
   2  -1  -5 345.756 10.1399   2
   2  -1  -5 341.297 8.81296   2
   2  -1  -5 307.023 8.27944   1
   2  -1  -5 315.097 8.39474   1
   2  -1  -5 307.985 8.55463   1
   2  -1  -5 299.892 7.88181   1
   2  -1  -5 318.254 8.81663   1
   2  -1  -5 302.675 7.62343   1
   2  -1  -5 309.548 6.97432   1
  -2   1   5 343.865 9.39143   2
  -2   1   5 350.389 8.02234   2
  -2   1   5 310.601 7.20303   1
   1  -1  -5 197.086 5.70482   2
   1  -1  -5 197.277 5.96604   2
   1  -1  -5 195.393 4.63317   2
   1  -1  -5 197.930 4.78917   2
   1  -1  -5 193.307 5.17879   2
   1  -1  -5 195.800 5.61435   2
   1  -1  -5 194.281 5.35023   2
  -1   1  -5 270.069 6.66521  -2
   1  -1  -5 270.069 6.66521   1
   1  -1  -5 175.785 5.16364   1
   1  -1  -5 176.295 4.92130   1
   1  -1  -5 181.374 5.02846   1
   1  -1  -5 172.596 4.14488   1
   1  -1  -5 170.371 4.86232   1
   1  -1  -5 175.174 4.62864   1
  -1   1   5 171.023 4.06993   1
  -1   1   5 195.782 4.61405   2
   0  -1  -5 159.614 3.79886   1
   0  -1  -5 158.834 4.76199   1
   0  -1  -5 158.594 4.50204   1
   0  -1  -5 163.325 4.61902   1
   0  -1  -5 151.038 4.21429   1
   0  -1  -5 177.949 5.19089   2
   0  -1  -5 176.248 4.79695   2
   0  -1  -5 181.952 5.27952   2
   0  -1  -5 175.518 4.31911   2
   0  -1  -5 178.054 5.47466   2
   0   1   5 181.707 4.28525   2
  -1  -1  -5 1.78781 0.28037   1
  -1  -1  -5 1.48398 0.31494   1
  -1  -1  -5 1.54009 0.30277   1
  -1  -1  -5 0.72826 0.22281   1
  -1  -1  -5 1.76208 0.25866   1
  -1  -1  -5 1.06048 0.24831   1
  -1  -1  -5 1.05162 0.30487   2
  -1  -1  -5 0.90992 0.27169   2
  -1  -1  -5 1.33727 0.30361   2
  -1  -1  -5 1.06068 0.17920   2
  -1  -1  -5 0.71114 0.26390   2
  -1  -1  -5 0.65080 0.20542   2
   1   1   5 0.78178 0.17524   2
  -2  -1  -5 12.1257 0.74572   2
  -2  -1  -5 11.5873 0.79365   2
  -2  -1  -5 12.0571 0.71192   2
  -2  -1  -5 12.1970 0.55246   2
  -2  -1  -5 11.5325 0.87774   2
  -2  -1  -5 11.9519 0.84447   2
  -2  -1  -5 10.5046 0.68327   1
  -2  -1  -5 11.1945 0.74271   1
  -2  -1  -5 10.6132 0.74832   1
  -2  -1  -5 11.5759 0.84305   1
   2   1   5 12.1325 0.59330   2
   2   1   5 11.9962 0.62384   2
   2   1   5 11.3606 0.81814   1
  -3  -1  -5 1.87025 0.36896   2
  -3  -1  -5 1.92023 0.24894   2
  -3  -1  -5 2.30816 0.29979   2
  -3  -1  -5 1.68021 0.39524   2
  -3  -1  -5 1.29462 0.37248   2
  -3  -1  -5 3.25045 0.28322   2
  -3  -1  -5 1.72863 0.20250   2
  -3  -1  -5 1.90562 0.21922   1
  -3  -1  -5 1.73678 0.25449   1
  -3  -1  -5 1.55528 0.15759   1
  -3  -1  -5 2.05317 0.44064   1
  -3  -1  -5 1.66998 0.38698   1
  -3  -1  -5 1.74958 0.13351   1
  -3  -1  -5 1.77166 0.16676   1
  -3  -1  -5 1.66492 0.12129   1
   3   1   5 2.12090 0.44249   1
   3   1   5 1.81266 0.19955   2
   3   1   5 3.91842 0.50348   2
  -4  -1  -5 30.6030 0.96995   2
   4   1  -8 368.545 7.55907  -2
  -4  -1  -5 368.545 7.55907   1
   4   1  -8 351.926 7.62951  -2
  -4  -1  -5 351.926 7.62951   1
   4   1  -8 350.601 7.25593  -2
  -4  -1  -5 350.601 7.25593   1
   4   1  -8 371.891 6.82615  -2
  -4  -1  -5 371.891 6.82615   1
  -4  -1  -5 29.9492 0.92089   1
   4   1   5 31.1618 1.15442   2
  -5  -1  -5 1.84560 0.23210   2
  -5  -1  -5 1.55146 0.25088   2
  -5  -1  -5 1.65542 0.21847   2
  -5  -1  -5 1.55475 0.22560   1
  -5  -1  -5 1.46582 0.11257   1
  -5  -1  -5 1.31302 0.18410   1
  -5  -1  -5 1.48549 0.14691   1
   5   1   5 1.67574 0.21118   2
   6   1  -9 640.477 13.1749  -2
  -6  -1  -5 640.477 13.1749   1
   6   1  -9 653.243 12.1128  -2
  -6  -1  -5 653.243 12.1128   1
   6   1  -9 659.977 13.3434  -2
  -6  -1  -5 659.977 13.3434   1
  -8   2  -2 13.9878 0.49084  -2
   8  -2  -5 13.9878 0.49084   1
   7  -2  -5 230.471 4.82546   2
   7  -2  -5 228.015 4.90999   2
   7  -2  -5 233.765 4.85561   2
   7  -2  -5 208.683 5.07669   1
  -7   2   5 202.453 4.35374   1
  -6   2  -3 36.8745 1.26302  -2
   6  -2  -5 36.8745 1.26302   1
   6  -2  -5 36.2714 1.01536   2
   5  -2  -5 187.307 5.70230   1
   5  -2  -5 183.471 4.76547   1
   5  -2  -5 188.070 4.21874   1
   5  -2  -5 192.705 4.91443   1
   5  -2  -5 205.523 4.33720   2
   5  -2  -5 209.858 4.02172   2
   5  -2  -5 205.082 4.39978   2
   5  -2  -5 198.586 4.46656   2
  -5   2   5 190.221 5.04765   1
  -5   2   5 193.229 6.39418   2
  -5   2   5 204.924 5.46933   2
  -5   2   5 205.488 6.27621   2
   4  -2  -5 125.234 4.31148   2
   4  -2  -5 123.326 3.62800   2
   4  -2  -5 118.696 3.20032   1
   4  -2  -5 119.780 3.79705   1
   4  -2  -5 120.322 3.37320   1
  -4   2   5 112.837 3.16463   1
  -4   2   5 119.188 3.30827   1
  -4   2   5 130.366 4.19176   2
  -4   2   5 128.713 3.52933   2
  -4   2   5 125.005 3.35695   2
   3  -2  -5 28.0378 0.97826   1
   3  -2  -5 28.2108 1.24233   1
   3  -2  -5 28.0633 1.08920   1
   3  -2  -5 26.3057 1.20325   1
   3  -2  -5 27.9401 1.43215   1
   3  -2  -5 32.2812 1.55340   2
   3  -2  -5 28.6509 1.42696   2
   3  -2  -5 31.9919 1.31241   2
  -3   2   5 27.7197 1.11661   1
  -3   2   5 27.4493 0.97244   1
  -3   2   5 31.9026 1.09836   2
  -3   2   5 30.4810 1.49502   2
  -3   2   5 33.9776 1.49454   2
   2  -2  -5 0.68933 0.21608   2
   2  -2  -5 1.04312 0.27889   2
   2  -2  -5 0.54496 0.26148   2
   2  -2  -5 0.61120 0.25264   2
   2  -2  -5 0.62318 0.22195   2
   2  -2  -5 0.55280 0.26653   2
   2  -2  -5 0.52096 0.20218   1
   2  -2  -5 0.69542 0.16475   1
   2  -2  -5 0.50320 0.17336   1
   2  -2  -5 0.94746 0.34843   1
   2  -2  -5 0.44738 0.20032   1
  -2   2   5 0.57802 0.15931   2
  -2   2   5 0.59932 0.25835   2
  -2   2   5 0.62535 0.14124   1
   1  -2  -5 12.1104 0.68012   2
   1  -2  -5 11.2561 0.73589   2
   1  -2  -5 10.8106 0.79459   2
   1  -2  -5 11.3857 0.65441   2
   1  -2  -5 11.0700 0.64006   2
   1  -2  -5 12.4665 0.82605   2
  -1   2  -6 51.5063 1.51941  -2
   1  -2  -5 51.5063 1.51941   1
   1  -2  -5 10.3467 0.77166   1
   1  -2  -5 10.4266 0.56347   1
   1  -2  -5 10.6629 0.63170   1
   1  -2  -5 10.2469 0.58258   1
   1  -2  -5 10.7323 0.66030   1
  -1   2   5 11.8028 0.53884   2
   0  -2  -5 68.4694 2.05665   2
   0  -2  -5 67.4209 2.16761   2
   0  -2  -5 69.9370 2.54162   2
   0  -2  -5 64.0352 2.43309   2
   0  -2  -5 70.5436 2.41770   2
   0  -2  -5 59.9401 2.03103   1
   0  -2  -5 58.4549 1.66815   1
   0  -2  -5 58.1402 1.83350   1
   0  -2  -5 59.2710 2.01007   1
   0  -2  -5 60.3703 1.74900   1
   0   2   5 67.5720 1.90567   2
   1   2  -7 58.2793 2.12722  -2
  -1  -2  -5 58.2793 2.12722   1
   1   2  -7 57.1098 2.23461  -2
  -1  -2  -5 57.1098 2.23461   1
  -2  -2  -5 6.08393 0.65795   2
  -2  -2  -5 5.70868 0.39391   2
  -2  -2  -5 6.29560 0.61718   2
  -2  -2  -5 6.14652 0.53671   2
  -2  -2  -5 5.13805 0.55101   1
   2   2   5 5.77281 0.49753   2
   2   2   5 6.67539 0.44491   2
   3   2  -8 159.405 3.46751  -2
  -3  -2  -5 159.405 3.46751   1
   3   2  -8 174.068 3.58603  -2
  -3  -2  -5 174.068 3.58603   1
  -3  -2   8 136.897 5.00644  -2
   3   2   5 136.897 5.00644   1
  -4  -2  -5 24.5699 0.86361   1
  -4  -2  -5 24.8824 0.63095   1
  -4  -2  -5 24.6173 0.79103   1
  -4  -2  -5 28.8982 0.81711   1
  -4  -2  -5 24.8193 0.70081   1
  -4  -2  -5 27.0520 1.01092   2
  -4  -2  -5 27.0061 0.87769   2
   4   2   5 26.3794 1.00014   2
   4   2   5 27.6944 0.86598   2
   5   2  -9 33.2832 0.92518  -2
  -5  -2  -5 33.2832 0.92518   1
   5   2  -9 33.4331 0.76497  -2
  -5  -2  -5 33.4331 0.76497   1
   5   2  -9 34.6845 0.98880  -2
  -5  -2  -5 34.6845 0.98880   1
  -6  -2  -5 46.5122 0.93176   1
  -6  -2  -5 47.1235 1.12099   1
   6   2   5 50.3550 1.11969   2
   6   2   5 50.9193 1.14525   2
   7  -3  -5 23.1013 0.82236   1
   7  -3  -5 25.1854 0.72387   2
   7  -3  -5 24.7463 0.72082   2
  -7   3   5 21.5497 0.64921   1
   6  -3  -5 3.80342 0.28494   2
   6  -3  -5 3.82356 0.30085   2
   6  -3  -5 3.51248 0.25745   1
   6  -3  -5 3.08064 0.33695   1
  -6   3   5 3.02101 0.31125   1
   5  -3  -5 4.16724 0.30060   2
   5  -3  -5 4.20357 0.33892   2
   5  -3  -5 4.45548 0.30839   2
   5  -3  -5 4.13816 0.32001   2
   5  -3  -5 5.10166 0.33641   2
   5  -3  -5 3.79526 0.27680   1
   5  -3  -5 4.34186 0.37544   1
   5  -3  -5 3.66967 0.37037   1
   5  -3  -5 4.44005 0.32190   1
   5  -3  -5 3.30548 0.51716   1
  -5   3   5 4.66392 0.70557   2
  -5   3   5 4.32233 0.38418   2
  -5   3   5 3.86956 0.35579   1
  -4   3  -5 40.6943 1.19176  -2
   4  -3  -5 40.6943 1.19176   1
  -4   3  -5 39.6668 1.03880  -2
   4  -3  -5 39.6668 1.03880   1
  -4   3  -5 39.8610 1.08821  -2
   4  -3  -5 39.8610 1.08821   1
  -4   3  -5 41.1320 1.15784  -2
   4  -3  -5 41.1320 1.15784   1
  -4   3  -5 38.9990 1.15528  -2
   4  -3  -5 38.9990 1.15528   1
  -4   3  -5 42.2079 1.77793  -2
   4  -3  -5 42.2079 1.77793   1
  -4   3  -5 40.4015 1.34416  -2
   4  -3  -5 40.4015 1.34416   1
  -4   3  -5 42.7767 1.55573  -2
   4  -3  -5 42.7767 1.55573   1
  -4   3  -5 43.3175 1.39833  -2
   4  -3  -5 43.3175 1.39833   1
   4  -3   5 41.9783 1.43400  -2
  -4   3   5 41.9783 1.43400   1
   3  -3  -5 9.56737 0.67776   1
   3  -3  -5 9.42826 0.51900   1
   3  -3  -5 9.34049 0.60124   1
   3  -3  -5 10.5016 0.74115   2
   3  -3  -5 10.3886 0.85330   2
  -3   3   5 9.97637 0.79885   2
  -3   3   5 9.77466 0.58128   2
  -3   3   5 9.50899 0.54478   2
  -3   3   5 9.16574 0.53009   1
  -2   3  -6 20.6232 1.05323  -2
   2  -3  -5 20.6232 1.05323   1
  -2   3  -6 22.0772 0.82609  -2
   2  -3  -5 22.0772 0.82609   1
  -2   3  -6 20.2553 1.18698  -2
   2  -3  -5 20.2553 1.18698   1
  -2   3  -6 21.3542 0.97370  -2
   2  -3  -5 21.3542 0.97370   1
   2  -3   6 21.6084 0.79407  -2
  -2   3   5 21.6084 0.79407   1
   2  -3   6 20.5932 0.99684  -2
  -2   3   5 20.5932 0.99684   1
   1  -3  -5 18.6833 0.85001   1
   1  -3  -5 18.7563 0.73906   1
   1  -3  -5 18.7996 1.13404   1
   1  -3  -5 20.9282 1.00094   2
   1  -3  -5 21.8660 1.00161   2
   1  -3  -5 20.7354 1.12203   2
   1  -3  -5 20.1052 1.17831   2
   1  -3  -5 21.0631 1.19372   2
   1  -3  -5 22.4197 1.14626   2
   1  -3  -5 20.5330 0.99565   2
  -1   3   5 20.9822 0.86099   2
  -1   3   5 19.2532 0.90573   1
   0   3  -7 155.812 4.10654  -2
   0  -3  -5 155.812 4.10654   1
   0   3  -7 165.109 4.38333  -2
   0  -3  -5 165.109 4.38333   1
   0  -3   7 157.612 4.02339  -2
   0   3   5 157.612 4.02339   1
  -1  -3  -5 1.73729 0.44642   2
  -1  -3  -5 1.52101 0.33146   2
  -1  -3  -5 1.71472 0.22709   2
  -1  -3  -5 2.21706 0.45454   2
   1   3   5 1.49806 0.30058   2
   1   3   5 1.59620 0.25782   2
  -2  -3  -5 853.999 20.8765   2
  -2  -3  -5 844.493 20.1376   2
  -2  -3  -5 827.237 16.9688   2
  -2  -3  -5 827.274 17.4424   2
  -2  -3  -5 808.605 23.5806   2
   2   3   5 838.807 20.9329   2
   2   3   5 821.631 16.2713   2
  -3  -3  -5 35.8114 1.09202   2
  -3  -3  -5 36.4713 1.23526   2
  -3  -3  -5 33.8773 1.03678   1
   3   3   5 36.5606 1.26464   2
  -4  -3  -5 420.027 10.5069   2
  -4  -3  -5 433.794 9.10062   2
  -4  -3  -5 391.822 7.87105   1
  -4  -3  -5 368.052 8.98223   1
  -4  -3  -5 385.035 7.16247   1
  -4  -3  -5 383.232 8.05882   1
   4   3   5 427.698 8.82907   2
  -5  -3  -5 3.23842 0.22490   2
  -5  -3  -5 3.01529 0.21046   2
  -5  -3  -5 2.70318 0.22230   1
  -5  -3  -5 2.59722 0.11765   1
   5   3   5 3.16797 0.20130   2
   5   3   5 3.29425 0.22609   2
  -7   4  -4 30.8319 0.92295  -2
   7  -4  -5 30.8319 0.92295   1
   7  -4   4 29.0046 0.79461  -2
  -7   4   5 29.0046 0.79461   1
   7  -4   4 27.5400 0.76133  -2
  -7   4   5 27.5400 0.76133   1
   6  -4  -5 17.0081 1.04329   1
   6  -4  -5 16.5821 0.71740   1
   6  -4  -5 16.3150 0.57804   1
   6  -4  -5 18.2136 0.64236   2
   6  -4  -5 18.1443 0.64063   2
  -5   4  -5 14.9450 0.57937  -2
   5  -4  -5 14.9450 0.57937   1
  -5   4  -5 14.1436 0.67030  -2
   5  -4  -5 14.1436 0.67030   1
  -5   4  -5 15.2738 0.72994  -2
   5  -4  -5 15.2738 0.72994   1
   5  -4   5 13.8122 0.72655  -2
  -5   4   5 13.8122 0.72655   1
   4  -4  -5 27.5874 0.79396   1
   4  -4  -5 27.4537 0.85139   1
   4  -4  -5 27.5803 0.88919   1
   4  -4  -5 25.8394 1.13109   1
   4  -4  -5 27.8596 1.31631   1
   4  -4  -5 26.4804 1.02688   1
   4  -4  -5 27.1118 0.74724   1
   4  -4  -5 26.7454 0.85054   1
   4  -4  -5 28.5701 1.04584   1
   4  -4  -5 29.7941 0.95299   2
   4  -4  -5 30.7858 0.92583   2
   4  -4  -5 30.2144 0.94630   2
  -4   4   5 27.2864 1.51803   2
  -4   4   5 30.2594 1.12205   2
  -4   4   5 27.0611 1.06705   1
  -3   4  -6 29.8563 1.10671  -2
   3  -4  -5 29.8563 1.10671   1
  -3   4  -6 28.2286 1.36075  -2
   3  -4  -5 28.2286 1.36075   1
   3  -4  -5 25.2101 0.80887   1
   3  -4  -5 25.8515 0.82445   1
   3  -4  -5 25.8271 0.69055   1
   3  -4  -5 25.5072 0.96967   1
   3  -4  -5 27.5548 1.13606   1
   3  -4  -5 25.0175 0.63715   1
   3  -4  -5 25.6124 0.84738   1
   3  -4  -5 25.4121 0.71509   1
   3  -4  -5 28.8992 0.86606   2
   3  -4  -5 28.1255 0.90237   2
   3  -4  -5 26.7159 1.50770   2
  -3   4   5 29.1276 1.08281   2
  -3   4   5 29.6599 1.48728   2
   2  -4  -5 854.010 20.6315   1
   2  -4  -5 822.559 16.4876   1
   2  -4  -5 818.495 19.4186   1
   2  -4  -5 818.697 17.4590   1
   2  -4  -5 822.395 17.6020   1
   2  -4  -5 815.326 17.2954   1
   2  -4  -5 832.056 15.3714   1
   2  -4  -5 828.847 16.8328   1
   2  -4  -5 848.946 20.0577   1
   2  -4  -5 920.273 19.5086   2
   2  -4  -5 926.826 19.2800   2
   2  -4  -5 948.186 17.8008   2
   2  -4  -5 954.550 26.8150   2
   2  -4  -5 947.353 20.1224   2
   2  -4  -5 943.367 21.7116   2
   2  -4  -5 977.545 23.7532   2
   2  -4  -5 947.344 19.3396   2
  -2   4   5 983.676 23.8700   2
  -2   4   5 969.988 21.8981   2
  -2   4   5 953.729 25.6724   2
  -2   4   5 813.939 18.8959   1
   1  -4  -5 11.3802 0.59116   1
   1  -4  -5 9.62929 0.27165   1
   1  -4  -5 9.74442 0.52948   1
   1  -4  -5 9.34543 0.44371   1
   1  -4  -5 10.2644 0.63427   1
   1  -4  -5 9.26495 0.29548   1
   1  -4  -5 11.3461 0.74260   2
   1  -4  -5 11.1424 0.84349   2
   1  -4  -5 10.2743 0.46202   2
   1  -4  -5 10.1893 0.87758   2
   1  -4  -5 10.6660 0.49307   2
  -1   4   5 11.2467 0.58524   2
  -1   4   5 10.3193 0.63693   2
   0  -4  -5 2131.86 49.8890   1
   0  -4  -5 2061.48 43.0778   1
   0  -4  -5 2067.51 51.0062   1
   0  -4  -5 2406.34 57.6163   2
   0  -4  -5 2314.66 49.0803   2
   0  -4  -5 2302.69 48.5058   2
   0  -4  -5 2354.83 47.1514   2
   0   4   5 2334.09 45.5109   2
   0   4   5 2388.43 58.2769   2
  -1  -4  -5 13.6088 0.56373   2
  -1  -4  -5 13.6137 1.05532   2
  -1  -4  -5 13.2507 0.56667   2
  -1  -4  -5 13.2122 0.83735   2
   1   4   5 13.6194 0.45318   2
   1   4   5 14.2353 0.67742   2
  -2  -4  -5 551.091 11.7456   2
  -2  -4  -5 556.065 14.1294   2
  -3  -4  -5 4.51763 0.35479   2
  -3  -4  -5 3.64510 0.29608   2
  -3  -4  -5 3.61069 0.30072   1
   3   4   5 3.65129 0.30354   2
   4   4 -10 57.4911 1.39621  -2
  -4  -4  -5 57.4911 1.39621   1
   4   4 -10 58.2978 1.12053  -2
  -4  -4  -5 58.2978 1.12053   1
   7  -5  -5 16.7392 0.56303   1
  -7   5   5 16.8640 0.49680   1
  -7   5   5 16.7676 0.47484   1
  -7   5   5 18.7316 0.49967   2
   6  -5  -5 92.3619 2.17847   2
   6  -5  -5 81.3427 2.20004   1
   6  -5  -5 81.0226 1.86855   1
  -6   5   5 91.2144 2.07858   2
  -6   5   5 82.5957 1.97800   1
   5  -5  -5 9.14588 0.34944   1
   5  -5  -5 8.35315 0.47769   1
   5  -5  -5 8.56318 0.38655   1
   5  -5  -5 8.45936 0.51875   1
   5  -5  -5 8.98276 0.40474   1
   5  -5  -5 8.86099 0.38602   1
   5  -5  -5 9.25237 0.51788   1
   5  -5  -5 8.11309 0.38114   1
   5  -5  -5 10.0331 0.47343   2
  -5   5   5 8.31452 0.53482   1
  -5   5   5 7.65934 0.82274   1
   4  -5  -5 1133.46 23.1964   1
   4  -5  -5 1127.70 25.9464   1
   4  -5  -5 1125.62 26.8900   1
   4  -5  -5 1116.11 22.2642   1
   4  -5  -5 1106.47 26.9733   1
   4  -5  -5 1119.39 22.7011   1
   4  -5  -5 1097.73 23.4419   1
   4  -5  -5 1091.75 25.9226   1
   4  -5  -5 1118.15 27.6055   1
   4  -5  -5 1263.32 25.8066   2
  -4   5   5 1194.64 30.5284   2
  -4   5   5 1216.73 33.5112   2
   3  -5  -5 0.74636 0.21225   1
   3  -5  -5 0.37124 0.08672   1
   3  -5  -5 0.70331 0.23413   1
   3  -5  -5 0.58147 0.13744   1
   3  -5  -5 0.53110 0.27672   1
   3  -5  -5 0.44776 0.10735   1
   3  -5  -5 0.45090 0.10676   1
  -3   5  -7 11.3792 0.67149  -2
   3  -5  -5 11.3792 0.67149   1
  -3   5  -7 10.7537 0.54102  -2
   3  -5  -5 10.7537 0.54102   1
  -3   5   5 0.58607 0.33892   2
  -3   5   5 0.37466 0.17931   2
   2  -5  -5 1507.08 30.9875   1
   2  -5  -5 1511.28 34.5886   1
   2  -5  -5 1501.34 29.6353   1
   2  -5  -5 1480.23 30.2858   1
   2  -5  -5 1464.67 31.2806   1
   2  -5  -5 1520.90 35.8941   1
   2  -5  -5 1476.29 36.7613   1
   2  -5  -5 1723.21 42.1820   2
   2  -5  -5 1692.23 35.8776   2
  -2   5   5 1719.88 42.5517   2
  -2   5   5 1712.63 34.7733   2
  -1   5  -8 0.05420 0.27271  -2
   1  -5  -5 0.05420 0.27271   1
  -1   5  -8 0.20929 0.19547  -2
   1  -5  -5 0.20929 0.19547   1
  -1   5  -8 0.07522 0.29975  -2
   1  -5  -5 0.07522 0.29975   1
  -1   5  -8 0.34752 0.09843  -2
   1  -5  -5 0.34752 0.09843   1
  -1   5  -8 0.44813 0.10966  -2
   1  -5  -5 0.44813 0.10966   1
   0  -5  -5 101.990 2.36268   2
   0  -5  -5 102.202 3.16965   2
   0  -5  -5 96.2778 2.38259   2
   0  -5  -5 89.0157 2.15515   1
   0  -5  -5 91.4568 2.53343   1
   0   5   5 99.4200 2.13999   2
   0   5   5 101.458 2.86981   2
  -2  -5  -5 52.2820 1.39465   2
   2   5   5 51.8469 1.32754   2
  -4  -5  -5 7.55536 0.29117   2
   4   5   5 7.57605 0.27895   2
   4   5   5 7.54287 0.24310   2
  -6   6  -6 494.189 9.82652  -2
   6  -6  -5 494.189 9.82652   1
  -6   6  -6 497.329 11.4176  -2
   6  -6  -5 497.329 11.4176   1
   6  -6   6 475.139 10.3486  -2
  -6   6   5 475.139 10.3486   1
   5  -6  -5 6.24700 0.29608   1
   5  -6  -5 6.28590 0.39706   1
   5  -6  -5 6.30179 0.26874   1
   5  -6  -5 6.20455 0.29580   1
   5  -6  -5 6.87050 0.36365   2
  -5   6   5 7.11490 0.21073   2
  -5   6   5 6.83305 0.33332   2
  -4   6  -7 256.591 5.49103  -2
   4  -6  -5 256.591 5.49103   1
  -4   6  -7 278.215 5.79996  -2
   4  -6  -5 278.215 5.79996   1
  -4   6  -7 278.857 5.61230  -2
   4  -6  -5 278.857 5.61230   1
  -4   6  -7 289.202 5.88000  -2
   4  -6  -5 289.202 5.88000   1
  -4   6  -7 235.250 6.43166  -2
   4  -6  -5 235.250 6.43166   1
  -4   6  -7 278.791 6.41137  -2
   4  -6  -5 278.791 6.41137   1
  -4   6  -7 251.923 6.69356  -2
   4  -6  -5 251.923 6.69356   1
   3  -6  -5 0.07621 0.15937   1
   3  -6  -5 0.04474 0.06537   1
   3  -6  -5 0.14858 0.06904   1
   3  -6  -5 0.49704 0.18052   1
   3  -6  -5 0.14017 0.11201   1
   3  -6  -5 -0.0163 0.07592   1
   3  -6  -5 0.03998 0.13400   1
   3  -6  -5 0.03069 0.06773   1
   3  -6  -5 0.07935 0.20507   2
   3  -6  -5 0.00363 0.11460   2
  -3   6   5 0.03864 0.11140   2
  -3   6   5 0.04182 0.13071   2
  -3   6   5 0.09893 0.08184   2
  -3   6   5 0.05864 0.20388   1
  -2   6  -8 18.9390 0.79777  -2
   2  -6  -5 18.9390 0.79777   1
  -2   6  -8 19.3354 0.55368  -2
   2  -6  -5 19.3354 0.55368   1
  -2   6  -8 19.8949 0.52034  -2
   2  -6  -5 19.8949 0.52034   1
  -2   6  -8 19.2291 0.83806  -2
   2  -6  -5 19.2291 0.83806   1
  -2   6  -8 19.3467 0.63458  -2
   2  -6  -5 19.3467 0.63458   1
  -2   6  -8 19.3124 0.69421  -2
   2  -6  -5 19.3124 0.69421   1
   2  -6   8 18.3255 1.02386  -2
  -2   6   5 18.3255 1.02386   1
   1  -6  -5 2.98810 0.15590   1
   1  -6  -5 3.39230 0.33552   1
   1  -6  -5 2.68266 0.24245   1
   1  -6  -5 2.71059 0.30825   1
   1  -6  -5 3.07786 0.17903   1
   1  -6  -5 2.82957 0.44797   2
  -1   6   5 3.47602 0.31373   2
  -1   6   5 3.39053 0.26685   2
  -1   6   5 3.23651 0.18640   2
  -1   6   5 3.06547 0.46225   1
   0  -6  -5 22.6426 0.73829   2
   0  -6  -5 22.7104 1.09784   2
   0  -6  -5 20.9065 0.82223   1
   0  -6  -5 20.4549 0.66799   1
   0  -6  -5 21.8614 0.82305   1
   0  -6  -5 21.2327 0.53341   1
   0  -6  -5 21.2798 0.60472   1
   0   6   5 23.2784 0.58017   2
  -1  -6  -5 32.8059 0.95716   2
   1   6   5 33.3781 0.91187   2
  -2  -6  -5 0.26256 0.10701   2
   2   6   5 0.14859 0.11801   2
   2   6   5 0.05652 0.08664   2
  -3  -6  -5 0.03028 0.06261   2
   3   6   5 0.05826 0.05365   2
   5  -7  -5 4.26584 0.27394   1
   5  -7  -5 4.09643 0.18702   1
  -5   7   5 4.21002 0.21338   2
  -5   7   5 4.46376 0.19866   2
   4  -7  -5 20.7726 0.64878   2
   4  -7  -5 19.2442 0.50422   1
   4  -7  -5 18.7879 0.69109   1
   4  -7  -5 17.8326 0.58270   1
   4  -7  -5 19.2230 0.57237   1
   4  -7  -5 18.6443 0.51724   1
  -4   7   5 20.8548 0.61514   2
  -4   7   5 20.7828 0.60062   2
  -4   7   5 18.2932 0.57950   1
   3  -7  -5 0.22710 0.14130   1
   3  -7  -5 0.37022 0.08424   1
   3  -7  -5 0.21220 0.06822   1
   3  -7  -5 0.32646 0.07265   1
   3  -7  -5 0.45490 0.11391   1
   3  -7  -5 0.33233 0.12043   2
  -3   7   5 0.34487 0.11194   2
  -3   7   5 0.30986 0.10719   2
   2  -7  -5 0.41485 0.15526   1
   2  -7  -5 0.54816 0.12939   1
   2  -7  -5 0.51349 0.09408   1
   2  -7  -5 0.35663 0.07549   1
   2  -7  -5 0.50274 0.15835   1
  -2   7   5 0.44490 0.11802   2
  -2   7   5 0.52419 0.12864   2
   1  -7  -5 5.60211 0.28945   1
   1  -7  -5 5.16390 0.23207   1
   1  -7  -5 5.40531 0.20864   1
   1  -7  -5 5.57728 0.35562   1
  -1   7   5 6.10193 0.29934   2
   0  -7  -5 12.0248 0.37268   1
   0  -7  -5 11.7457 0.50126   1
   0  -7  -5 12.0881 0.32274   1
   0   7   5 13.5079 0.44183   2
  -1  -7  -5 101.324 2.28977   2
   1   7   5 104.241 2.21446   2
  -3   8  -9 23.8584 0.58341  -2
   3  -8  -5 23.8584 0.58341   1
  -3   8  -9 24.1700 0.64027  -2
   3  -8  -5 24.1700 0.64027   1
   2  -8  -5 42.2444 1.25114   1
   2  -8  -5 41.9568 0.94022   1
   2  -8  -5 42.1452 1.01565   1
  -2   8   5 45.0068 1.00940   2
   1  10  -6 1.21985 0.12879   1
  -1 -10   6 0.85867 0.12300   1
   0 -10   1 28.7893 0.72345  -2
   0  10  -6 28.7893 0.72345   1
   0 -10   1 28.6635 0.76752  -2
   0  10  -6 28.6635 0.76752   1
   0  10  -1 28.7957 0.75571  -2
   0 -10   6 28.7957 0.75571   1
  -1  10  -6 44.5458 1.05089   2
  -1  10  -6 46.5730 1.13226   2
  -1  10  -6 45.5893 0.99862   2
  -1  10  -6 45.3102 1.21989   2
  -1  10  -6 41.1506 0.95304   1
  -1  10  -6 40.1946 0.99176   1
   1 -10   6 40.3835 1.01529   1
  -2  10  -6 97.2641 2.04366   1
  -2  10  -6 106.919 2.20347   2
  -2  10   0 103.246 2.26192  -2
   2 -10   6 103.246 2.26192   1
   2   9  -6 0.64938 0.08691   2
   2   9  -6 0.67761 0.10495   2
   2   9  -6 0.51237 0.10957   2
   2   9  -6 0.66421 0.14037   2
   2   9  -6 0.50107 0.11688   1
   2   9  -6 0.64721 0.12565   1
  -2  -9   6 0.51947 0.12939   1
   1   9  -6 17.7810 0.52892   2
   1   9  -6 17.9780 0.59393   2
   1   9  -6 16.9695 0.68043   2
   1   9  -6 18.0116 0.66526   2
   1   9  -6 17.3344 0.59758   2
   1   9  -6 17.5810 0.48760   2
   1   9  -6 17.8596 0.56682   2
   1   9  -6 15.6509 0.55955   1
   1   9  -6 15.4986 0.51773   1
  -1  -9   6 15.4247 0.55491   1
   0   9  -6 23.7020 0.62160   2
   0   9  -6 23.8848 0.66038   2
   0   9  -6 22.6399 0.74271   2
   0   9  -6 23.3553 0.84806   2
   0   9  -6 23.7596 0.74812   2
   0   9  -6 22.8799 0.68253   2
   0   9  -6 23.5607 0.81577   2
   0   9  -6 20.6253 0.63803   1
   0   9  -6 20.0381 0.68397   1
   0  -9   6 20.6030 0.68107   1
   0  -9   6 21.6862 0.85638   2
  -1   9  -6 2.32596 0.20085   1
  -1   9  -6 2.21263 0.23466   1
  -1   9  -6 2.82307 0.27118   2
  -1   9  -6 2.48036 0.25530   2
  -1   9  -6 2.40546 0.23282   2
  -1   9  -6 2.24121 0.27957   2
  -1   9  -6 2.66019 0.21338   2
  -1   9  -6 2.52565 0.17404   2
  -1   9  -6 2.33462 0.18130   2
   1  -9   6 1.74626 0.21241   1
  -2   9  -6 0.30487 0.09172   1
  -2   9  -6 0.29872 0.12798   2
  -2   9  -6 0.15302 0.09070   2
  -2   9  -6 0.26674 0.08668   2
  -2   9  -6 0.40165 0.12732   2
  -2   9  -6 0.33263 0.13196   2
  -2   9  -6 0.23845 0.08019   2
   2  -9   6 0.21713 0.11955   1
  -3   9  -6 0.12486 0.10615   2
  -3   9  -6 0.12984 0.06888   2
  -3   9  -6 0.43414 0.11811   2
  -3   9  -6 0.09217 0.10256   2
  -3   9  -6 0.20747 0.10552   2
  -3   9  -6 0.13690 0.07165   2
  -3   9  -6 0.12973 0.06294   1
   3  -9   6 0.14814 0.10787   1
  -4   9   2 23.6834 0.63536  -2
   4  -9   6 23.6834 0.63536   1
   4   8  -6 7.82752 0.30531   2
   4   8  -6 7.37125 0.33855   2
   4   8  -6 6.77088 0.25545   2
   4   8  -6 7.59190 0.22511   2
   4   8  -6 6.38087 0.27254   1
   3   8  -6 8.43549 0.36966   2
   3   8  -6 8.88111 0.29758   2
   3   8  -6 8.59470 0.44981   2
   3   8  -6 8.53834 0.42694   2
   3   8  -6 8.73620 0.38254   2
   3   8  -6 8.67316 0.32652   2
   3   8  -6 7.27702 0.34115   1
   3   8  -6 7.38504 0.34458   1
  -3  -8   6 7.48893 0.35060   1
   2   8  -6 20.8693 0.81955   2
   2   8  -6 21.2145 0.80082   2
   2   8  -6 21.4836 0.75756   2
   2   8  -6 21.4807 0.58205   2
   2   8  -6 20.5876 0.61313   2
   2   8  -6 20.3758 0.67607   2
   2   8  -6 19.9701 0.69458   2
   2   8  -6 17.4362 0.63899   1
   2   8  -6 17.9679 0.77224   1
   2   8  -6 17.1949 0.60285   1
  -2  -8   6 18.3835 0.63568   1
  -2  -8   6 21.4029 0.82703   2
  -1  -8   0 100.491 2.42054  -2
   1   8  -6 100.491 2.42054   1
  -1  -8   0 100.632 2.34004  -2
   1   8  -6 100.632 2.34004   1
   1   8   0 99.3644 2.35067  -2
  -1  -8   6 99.3644 2.35067   1
   0   8  -6 46.4406 1.22501   2
   0   8  -6 44.1788 1.45820   2
   0   8  -6 44.0554 1.12298   2
   0   8  -6 45.0779 1.39644   2
   0   8  -6 44.6412 1.26999   2
   0   8  -6 44.5846 1.43588   2
   0   8  -6 44.5453 1.08720   2
   0   8  -6 44.2624 1.27820   2
   0   8  -6 39.2910 1.15516   1
   0   8  -6 38.1340 1.51447   1
   0   8  -6 38.7609 1.08194   1
   0  -8   6 39.1309 1.12901   1
   0  -8   6 39.6527 0.91895   1
   1  -8  -1 131.840 3.02102  -2
  -1   8  -6 131.840 3.02102   1
   1  -8  -1 127.795 3.95365  -2
  -1   8  -6 127.795 3.95365   1
   1  -8  -1 138.964 3.14454  -2
  -1   8  -6 138.964 3.14454   1
  -1   8   1 136.180 2.92699  -2
   1  -8   6 136.180 2.92699   1
  -1   8   1 143.396 3.10770  -2
   1  -8   6 143.396 3.10770   1
  -2   8  -6 1.68220 0.17820   2
  -2   8  -6 1.50440 0.23514   2
  -2   8  -6 1.55693 0.19883   2
  -2   8  -6 1.47478 0.16905   2
  -2   8  -6 1.17297 0.23534   2
  -2   8  -6 1.71988 0.23032   2
  -2   8  -6 1.42565 0.24817   2
  -2   8  -6 1.43105 0.33922   1
  -2   8  -6 1.15058 0.15573   1
   2  -8   6 1.82294 0.39157   2
   2  -8   6 1.83303 0.33624   2
   2  -8   6 1.14944 0.20701   1
   2  -8   6 1.50038 0.18465   1
   3  -8  -2 87.5056 1.94978  -2
  -3   8  -6 87.5056 1.94978   1
  -3   8   2 86.1290 2.06737  -2
   3  -8   6 86.1290 2.06737   1
  -3   8   2 89.4270 1.96796  -2
   3  -8   6 89.4270 1.96796   1
  -4   8  -6 10.3634 0.37665   2
  -4   8  -6 10.5522 0.41984   2
  -4   8  -6 10.5253 0.37670   2
  -4   8  -6 9.61621 0.41950   2
  -4   8  -6 10.5069 0.46974   2
  -4   8  -6 10.4670 0.48607   2
  -4   8  -6 8.72191 0.36420   1
   4  -8   6 8.76579 0.33977   1
   4  -8   6 8.88427 0.40506   1
  -5   8  -6 8.47866 0.31254   1
  -5   8   3 16.6507 0.42105  -2
   5  -8   6 16.6507 0.42105   1
  -5   8   3 16.0970 0.49930  -2
   5  -8   6 16.0970 0.49930   1
   5  -8   6 7.91736 0.29702   2
   5   7  -6 41.0406 0.99175   2
   5   7  -6 41.0459 1.13618   2
   5   7  -6 40.8174 0.89084   2
   5   7  -6 41.1443 0.95544   2
   5   7  -6 36.1258 0.89086   1
  -4  -7   1 67.5829 1.61621  -2
   4   7  -6 67.5829 1.61621   1
   3   7  -6 17.8061 0.63491   2
   3   7  -6 17.1439 0.72776   2
   3   7  -6 17.8198 0.52759   2
   3   7  -6 18.2757 0.76426   2
   3   7  -6 17.8607 0.56484   2
   3   7  -6 18.2954 0.63971   2
   3   7  -6 16.1950 0.60445   1
   3   7  -6 15.3698 0.72934   1
   3   7  -6 14.9691 0.57577   1
  -3  -7   6 18.2250 0.75535   2
  -3  -7   6 16.2226 0.65131   1
  -2  -7   0 57.8783 1.59262  -2
   2   7  -6 57.8783 1.59262   1
  -2  -7   0 62.0214 1.87323  -2
   2   7  -6 62.0214 1.87323   1
   2   7   0 61.7364 1.32646  -2
  -2  -7   6 61.7364 1.32646   1
   2   7   0 58.7684 1.53865  -2
  -2  -7   6 58.7684 1.53865   1
   1   7  -6 13.7746 0.44674   2
   1   7  -6 13.8072 0.66472   2
   1   7  -6 13.6210 0.46835   2
   1   7  -6 13.6023 0.68835   2
   1   7  -6 14.0079 0.55970   2
   1   7  -6 13.1372 0.57426   2
   1   7  -6 13.8192 0.64880   2
   1   7  -6 16.5129 0.55632   2
   1   7  -6 11.5383 0.50666   1
   1   7  -6 11.9933 0.64943   1
   1   7  -6 12.0620 0.55532   1
  -1  -7   6 11.8951 0.42427   1
  -1  -7   6 12.0192 0.54483   1
   0   7  -6 18.9074 0.64939   2
   0   7  -6 17.9165 0.56576   2
   0   7  -6 19.0869 0.77024   2
   0   7  -6 18.2076 0.54949   2
   0   7  -6 17.1509 0.62705   1
   0  -7  -1 131.745 3.07708  -2
   0   7  -6 131.745 3.07708   1
   0  -7  -1 130.422 3.88540  -2
   0   7  -6 130.422 3.88540   1
   0   7   1 130.154 2.99204  -2
   0  -7   6 130.154 2.99204   1
  -1   7  -6 9.09925 0.41613   1
  -1   7  -6 9.21175 0.47657   1
  -1   7  -6 9.61888 0.71740   1
  -1   7  -6 10.1317 0.58375   2
  -1   7  -6 10.2547 0.39295   2
  -1   7  -6 10.1469 0.53601   2
  -1   7  -6 9.82651 0.48939   2
  -1   7  -6 10.5614 0.56521   2
  -1   7  -6 10.3208 0.44455   2
  -1   7  -6 10.9553 0.39713   2
   1  -7   6 9.28140 0.48847   1
   1  -7   6 9.36603 0.43999   1
   1  -7   6 10.7790 0.75607   2
  -2   7  -6 7.65762 0.46786   2
  -2   7  -6 7.75393 0.48370   2
  -2   7  -6 7.61459 0.34137   2
  -2   7  -6 8.72784 0.40248   2
  -2   7  -6 8.13506 0.51684   2
  -2   7  -6 8.40495 0.35928   2
  -2   7  -6 7.81716 0.43953   2
  -2   7  -6 7.51350 0.64654   1
  -2   7  -6 6.91179 0.33890   1
   2  -7   6 7.00698 0.42710   1
   2  -7   6 6.90978 0.39178   1
   2  -7   6 8.91673 0.69709   2
  -3   7  -6 4.68912 0.26527   2
  -3   7  -6 4.44170 0.26535   2
  -3   7  -6 4.68193 0.37162   2
  -3   7  -6 4.94188 0.34533   2
  -3   7  -6 5.19995 0.40718   2
  -3   7  -6 4.33376 0.36489   2
  -3   7  -6 5.10285 0.30848   2
  -3   7  -6 4.58826 0.57805   1
  -3   7  -6 4.52659 0.23287   1
  -3   7  -6 4.19589 0.30131   1
   3  -7   6 4.83498 0.55094   2
   3  -7   6 4.78772 0.44244   2
   3  -7   6 4.54285 0.34346   1
   3  -7   6 4.23225 0.32416   1
  -4   7  -6 0.02699 0.08609   2
  -4   7  -6 0.20787 0.14474   2
  -4   7  -6 -0.0467 0.11167   2
  -4   7  -6 -0.0519 0.06897   2
  -4   7  -6 -0.0121 0.07251   2
  -4   7  -6 0.04646 0.12222   2
  -4   7  -6 0.03922 0.10818   2
  -4   7  -6 -0.0174 0.09544   1
   4  -7   6 -0.0928 0.09918   1
   4  -7   6 -0.0031 0.11529   1
   4  -7   6 -0.0863 0.10081   2
   5  -7  -4 81.6708 1.93504  -2
  -5   7  -6 81.6708 1.93504   1
  -5   7  -6 79.7141 1.77089   2
  -5   7  -6 78.9470 2.15372   2
   5  -7   6 67.8642 1.61776   1
  -5   7   4 81.0131 1.87087  -2
   5  -7   6 81.0131 1.87087   1
  -6   7  -6 0.04470 0.05219   1
  -6   7  -6 0.04201 0.10451   2
   6  -7   6 0.47925 0.08312   1
  -5  -6   1 25.4947 0.76808  -2
   5   6  -6 25.4947 0.76808   1
   4   6  -6 0.03841 0.10814   1
   4   6  -6 -0.0266 0.10323   1
   4   6  -6 0.13008 0.16251   1
   4   6  -6 0.02800 0.11114   2
   4   6  -6 0.05477 0.12151   2
   4   6  -6 -0.0191 0.12978   2
   4   6  -6 0.08188 0.07556   2
   4   6  -6 0.35068 0.11415   2
   4   6  -6 0.06996 0.07810   2
   3   6  -6 7.55416 0.39599   2
   3   6  -6 6.84539 0.46967   2
   3   6  -6 6.98267 0.35056   2
   3   6  -6 6.73670 0.29580   2
   3   6  -6 6.61119 0.45185   2
   3   6  -6 6.69132 0.30452   2
   3   6  -6 5.53415 0.36020   1
   3   6  -6 5.64198 0.35528   1
   3   6  -6 5.71429 0.46859   1
  -3  -6   6 5.80460 0.24941   1
  -3  -6   6 6.63014 0.45414   2
   2   6  -6 15.2781 0.58764   2
   2   6  -6 14.6966 0.67881   2
   2   6  -6 16.3049 0.72088   2
   2   6  -6 15.1140 0.48725   2
   2   6  -6 15.3164 0.69769   2
   2   6  -6 15.2217 0.54467   2
   2   6  -6 14.6897 0.46191   2
   2   6  -6 13.7330 0.59458   1
   2   6  -6 13.8745 0.70838   1
   2   6  -6 13.4181 0.54909   1
  -2  -6   6 13.8649 0.48526   1
  -2  -6   6 13.3221 0.59125   1
   1   6  -6 7.64402 0.46419   2
   1   6  -6 7.12675 0.39095   2
   1   6  -6 7.25653 0.28904   2
   1   6  -6 7.62533 0.30079   2
   1   6  -6 7.45844 0.33467   2
   1   6  -6 7.46888 0.40769   2
   1   6  -6 7.56207 0.46249   2
   1   6  -6 8.15670 0.49050   2
   1   6  -6 6.56512 0.46994   1
   1   6  -6 5.96945 0.35806   1
   1   6  -6 7.62442 0.59760   1
   1   6  -6 5.94754 0.38919   1
  -1  -6   6 6.88596 0.35650   1
  -1  -6   6 6.54315 0.40882   1
   0   6  -6 2.62780 0.24694   1
   0   6  -6 3.01242 0.53619   1
   0   6  -6 2.99843 0.31811   1
   0   6  -6 2.71132 0.19377   2
   0   6  -6 2.88724 0.17611   2
   0   6  -6 2.70767 0.29045   2
   0   6  -6 2.76724 0.17871   2
   0   6  -6 2.76567 0.30165   2
   0   6  -6 2.98236 0.27151   2
   0  -6  -2 32.3023 1.39589  -2
   0   6  -6 32.3023 1.39589   1
   0  -6   6 2.78687 0.30219   1
   0  -6   6 2.96586 0.29397   1
  -1   6  -6 4.25977 0.22352   2
  -1   6  -6 4.24279 0.22856   2
  -1   6  -6 4.21812 0.25147   2
  -1   6  -6 3.82743 0.32904   2
  -1   6  -6 4.65936 0.38265   2
  -1   6  -6 4.23368 0.32380   2
  -1   6  -6 4.04497 0.33487   2
  -1   6  -6 4.33831 0.49128   1
  -1   6  -6 3.87754 0.26283   1
   1  -6   6 4.03124 0.33167   1
   1  -6   6 3.81693 0.19393   1
   1  -6   6 4.90268 0.49311   1
   1  -6   6 4.74459 0.51537   2
   2  -6  -3 3.13123 0.24434  -2
  -2   6  -6 3.13123 0.24434   1
   2  -6  -3 4.20611 0.52958  -2
  -2   6  -6 4.20611 0.52958   1
   2  -6  -3 4.03079 0.34136  -2
  -2   6  -6 4.03079 0.34136   1
  -2   6   3 3.74484 0.22282  -2
   2  -6   6 3.74484 0.22282   1
  -2   6   3 4.20857 0.35589  -2
   2  -6   6 4.20857 0.35589   1
  -2   6   3 4.16006 0.36847  -2
   2  -6   6 4.16006 0.36847   1
  -3   6  -6 54.6684 1.33118   2
  -3   6  -6 54.6767 1.71070   2
  -3   6  -6 55.2869 1.48669   2
  -3   6  -6 54.0314 1.51542   2
  -3   6  -6 53.0221 1.65749   2
  -3   6  -6 54.1475 1.47129   2
  -3   6  -6 51.7361 1.60477   2
  -3   6  -6 52.7466 1.33031   2
  -3   6  -6 50.3880 1.85297   1
  -3   6  -6 49.2907 1.14231   1
  -3   6  -6 47.7579 1.34352   1
   3  -6   6 47.9717 1.12452   1
   3  -6   6 48.2777 1.35018   1
   3  -6   6 48.4621 1.50711   1
   3  -6   6 54.6171 2.03172   2
   4  -6  -4 38.7714 1.17621  -2
  -4   6  -6 38.7714 1.17621   1
  -4   6   4 43.5119 1.17155  -2
   4  -6   6 43.5119 1.17155   1
  -4   6   4 42.4673 0.96422  -2
   4  -6   6 42.4673 0.96422   1
  -5   6  -6 3.15531 0.25407   2
  -5   6  -6 2.16174 0.37075   2
  -5   6  -6 2.91894 0.27533   2
  -5   6  -6 3.04498 0.27696   2
  -5   6  -6 3.13036 0.23650   2
  -5   6  -6 2.55347 0.20119   2
  -5   6  -6 2.65787 0.23604   1
   5  -6   6 3.03348 0.27370   1
   5  -6   6 2.62524 0.31317   1
   5  -6   6 2.44632 0.13293   1
   6  -6  -5 556.955 11.7660  -2
  -6   6  -6 556.955 11.7660   1
  -6   6   5 565.424 11.3576  -2
   6  -6   6 565.424 11.3576   1
  -6   6   5 549.954 11.3844  -2
   6  -6   6 549.954 11.3844   1
   6   5  -6 1.04163 0.13998   2
   6   5  -6 1.01374 0.17299   2
   6   5  -6 0.99825 0.12298   2
   6   5  -6 0.72710 0.10004   2
   6   5  -6 0.63227 0.11813   1
  -6  -5   6 0.69717 0.11753   1
   5   5  -6 0.02992 0.07172   2
   5   5  -6 -0.0420 0.07265   2
   5   5  -6 -0.0461 0.10864   2
   5   5  -6 -0.0519 0.11979   2
   5   5  -6 0.03410 0.08482   2
   5   5  -6 0.07744 0.13332   2
   5   5  -6 -0.0123 0.10183   1
  -5  -5   0 0.60338 0.36115  -2
   5   5  -6 0.60338 0.36115   1
  -5  -5   6 0.04696 0.09852   1
   4   5  -6 1.48746 0.16734   2
   4   5  -6 1.70776 0.23981   2
   4   5  -6 1.69474 0.18550   2
   4   5  -6 1.61449 0.20024   2
   4   5  -6 1.21652 0.22357   2
   4   5  -6 1.40983 0.25859   2
   4   5  -6 1.13700 0.20250   1
   4   5  -6 1.48780 0.29060   1
   4   5  -6 1.58387 0.21688   1
  -4  -5   6 1.40787 0.14234   1
  -4  -5   6 1.61377 0.20371   1
  -3  -5  -1 0.95606 0.24892  -2
   3   5  -6 0.95606 0.24892   1
  -3  -5  -1 0.83540 0.25430  -2
   3   5  -6 0.83540 0.25430   1
  -3  -5  -1 1.36826 0.33923  -2
   3   5  -6 1.36826 0.33923   1
   3   5   1 0.77855 0.21522  -2
  -3  -5   6 0.77855 0.21522   1
   3   5   1 2.29326 0.29780  -2
  -3  -5   6 2.29326 0.29780   1
   2   5  -6 0.68807 0.21690   1
   2   5  -6 0.57471 0.27458   1
   2   5  -6 0.54602 0.14081   1
   2   5  -6 0.42112 0.15364   1
   2   5  -6 0.39369 0.09308   2
   2   5  -6 0.51150 0.09122   2
   2   5  -6 0.56014 0.09646   2
   2   5  -6 0.46843 0.16303   2
   2   5  -6 0.48616 0.16162   2
   2   5  -6 0.40928 0.17208   2
   2   5  -6 0.46305 0.13219   2
  -2  -5   6 0.54695 0.14136   1
  -2  -5   6 0.55835 0.26648   2
  -2  -5   6 0.57620 0.21643   2
  -1  -5  -2 101.712 3.01977  -2
   1   5  -6 101.712 3.01977   1
  -1  -5  -2 106.430 3.12631  -2
   1   5  -6 106.430 3.12631   1
  -1  -5  -2 112.305 2.87014  -2
   1   5  -6 112.305 2.87014   1
  -1  -5  -2 99.7572 3.52062  -2
   1   5  -6 99.7572 3.52062   1
   1   5   2 99.4266 2.78778  -2
  -1  -5   6 99.4266 2.78778   1
   0   5  -6 9.46464 0.34124   2
   0   5  -6 9.44032 0.49283   2
   0   5  -6 9.88585 0.62805   2
   0   5  -6 9.13406 0.49925   2
   0   5  -6 8.11693 0.64835   1
   0   5  -6 7.74702 0.86835   1
   0   5  -6 8.55286 0.67020   1
   0   5  -6 9.15636 0.63355   1
   0  -5   6 8.51005 0.44022   1
   1  -5  -3 120.682 4.15642  -2
  -1   5  -6 120.682 4.15642   1
   1  -5  -3 130.527 3.75411  -2
  -1   5  -6 130.527 3.75411   1
   1  -5  -3 121.667 3.57477  -2
  -1   5  -6 121.667 3.57477   1
  -1   5   3 134.471 3.49927  -2
   1  -5   6 134.471 3.49927   1
  -2   5  -6 0.53770 0.26988   2
  -2   5  -6 0.65371 0.17652   2
  -2   5  -6 0.40669 0.14879   2
  -2   5  -6 0.37396 0.09384   2
  -2   5  -6 0.39853 0.15707   2
  -2   5  -6 0.44302 0.15286   2
  -2   5  -6 0.26498 0.16941   2
  -2   5  -6 0.37859 0.09858   2
  -2   5  -6 0.64768 0.26283   1
  -2   5  -6 0.59729 0.15986   1
  -2   5  -6 0.31258 0.22692   1
  -2   5  -6 0.44140 0.09761   1
   2  -5   6 0.42978 0.17852   1
   2  -5   6 0.39260 0.17402   1
   2  -5   6 0.86754 0.23827   2
  -3   5  -6 2.40599 0.26596   2
  -3   5  -6 2.66046 0.43503   2
  -3   5  -6 3.00139 0.30974   2
  -3   5  -6 2.58476 0.19998   2
  -3   5  -6 2.90565 0.22211   2
  -3   5  -6 2.61308 0.22997   2
   3  -5  -4 2.57509 0.50687  -2
  -3   5  -6 2.57509 0.50687   1
   3  -5  -4 2.57618 0.32308  -2
  -3   5  -6 2.57618 0.32308   1
  -3   5  -6 2.45874 0.12001   1
   3  -5   6 2.58581 0.33414   1
   3  -5   6 2.29359 0.44815   1
  -4   5  -6 3.50001 0.32794   1
  -4   5  -6 3.26917 0.30389   1
  -4   5  -6 3.35966 0.24321   2
  -4   5  -6 3.42378 0.28006   2
  -4   5  -6 3.41867 0.31879   2
  -4   5  -6 3.69241 0.31027   2
  -4   5  -6 2.84382 0.46680   2
  -4   5  -6 3.20300 0.25975   2
  -4   5  -6 3.49031 0.36157   2
  -4   5  -6 3.35106 0.32426   2
  -4   5  -6 3.14918 0.30381   2
   4  -5   6 2.74836 0.52709   1
   4  -5   6 3.09015 0.34737   1
   4  -5   6 4.05410 0.41542   2
  -5   5  -6 7.50013 0.37846   2
  -5   5  -6 7.47965 0.36058   2
  -5   5  -6 7.24338 0.45465   2
  -5   5  -6 7.59073 0.34348   2
  -5   5  -6 7.50389 0.42091   2
  -5   5  -6 7.26493 0.41737   2
  -5   5  -6 7.18693 0.37944   2
  -5   5  -6 6.67097 0.36403   1
  -6   5  -6 5.92796 0.31705   2
  -6   5  -6 5.63256 0.28258   2
  -6   5  -6 5.39900 0.27836   1
  -6   5  -6 5.67125 0.27510   1
   6  -5   6 6.38903 0.31226   2
   6  -5   6 6.74893 0.32157   1
   7   4  -6 0.99550 0.08449   2
  -7  -4   6 1.12389 0.12967   2
  -7  -4   6 0.88899 0.10190   1
  -6  -4   0 4.05439 0.25025  -2
   6   4  -6 4.05439 0.25025   1
   6   4   0 4.12632 0.27825  -2
  -6  -4   6 4.12632 0.27825   1
   5   4  -6 -0.0584 0.10329   2
   5   4  -6 0.04990 0.08707   2
   5   4  -6 -0.0163 0.12169   2
   5   4  -6 0.11031 0.14135   2
   5   4  -6 0.16240 0.08475   2
   5   4  -6 0.11034 0.11807   2
   5   4  -6 -0.1200 0.06912   2
   5   4  -6 -0.0285 0.14500   1
   5   4  -6 0.11158 0.11371   1
  -5  -4   6 0.06894 0.06534   1
  -5  -4   6 0.10250 0.11353   1
  -4  -4  -1 5.52867 0.45828  -2
   4   4  -6 5.52867 0.45828   1
  -4  -4  -1 5.27872 0.35711  -2
   4   4  -6 5.27872 0.35711   1
  -4  -4  -1 4.55466 0.68067  -2
   4   4  -6 4.55466 0.68067   1
  -4  -4  -1 5.06189 0.36620  -2
   4   4  -6 5.06189 0.36620   1
   4   4   1 4.78236 0.30392  -2
  -4  -4   6 4.78236 0.30392   1
   4   4   1 4.84726 0.33373  -2
  -4  -4   6 4.84726 0.33373   1
   3   4  -6 13.3960 0.91731   1
   3   4  -6 14.2720 0.69730   1
   3   4  -6 16.0268 0.58807   1
   3   4  -6 13.7510 0.53349   1
   3   4  -6 14.8140 0.44890   2
   3   4  -6 14.9538 0.58195   2
   3   4  -6 15.4143 0.69029   2
   3   4  -6 14.6627 0.50324   2
   3   4  -6 14.4645 0.43995   2
   3   4  -6 14.4735 0.65967   2
  -3  -4   6 14.6464 0.65520   2
  -3  -4   6 15.2162 1.00535   2
  -3  -4   6 15.1659 0.90940   2
  -3  -4   6 13.4177 0.51464   1
  -3  -4   6 13.2642 0.52748   1
  -2  -4  -2 25.4113 0.95312  -2
   2   4  -6 25.4113 0.95312   1
  -2  -4  -2 25.8995 1.33808  -2
   2   4  -6 25.8995 1.33808   1
   2   4  -6 12.6041 0.58119   2
  -2  -4   6 11.8532 0.74651   2
  -2  -4   6 12.2372 0.90781   2
  -2  -4   6 10.6411 0.47058   1
   1   4  -6 5.04501 0.33626   2
   1   4  -6 5.27599 0.34799   2
   1   4  -6 4.39330 0.47383   1
   1   4  -6 5.13416 0.43872   1
   1   4  -6 4.67448 0.35422   1
   1   4  -6 4.92897 0.46651   1
  -1  -4   6 5.09432 0.45907   2
  -1  -4   6 5.20754 0.60346   2
  -1  -4   6 4.93938 0.54443   2
  -1  -4   6 4.75663 0.32203   1
   0   4  -6 14.9823 0.92556   1
   0   4  -6 14.4468 0.79251   1
   0   4  -6 15.2493 0.79130   1
   0   4  -6 15.2219 0.87338   1
   0   4  -6 14.4112 0.80776   1
   0   4  -6 16.8255 1.00581   2
   0   4  -6 16.9659 0.81362   2
   0   4  -6 15.9394 0.65136   2
   0   4  -6 16.8310 0.68001   2
   0  -4   6 15.3553 0.65461   1
   0  -4   6 14.3308 0.67726   1
   0  -4   6 17.3716 0.86292   2
  -1   4  -6 3.64508 0.49218   1
  -1   4  -6 2.84684 0.43415   1
  -1   4  -6 3.57000 0.40025   1
  -1   4  -6 2.45306 0.39427   1
  -1   4  -6 3.44100 0.40448   1
  -1   4  -6 2.89504 0.50375   1
  -1   4  -6 3.36754 0.53331   2
  -1   4  -6 3.60646 0.30713   2
  -1   4  -6 3.22629 0.27318   2
  -1   4  -6 3.52933 0.40133   2
   1  -4   6 3.94517 0.35882   1
   1  -4   6 4.29151 0.34388   1
   1  -4   6 3.45428 0.47720   2
  -2   4  -6 0.18772 0.20577   2
  -2   4  -6 1.18644 0.22813   2
  -2   4  -6 0.18588 0.12723   2
  -2   4  -6 0.17696 0.18446   2
  -2   4  -6 0.08777 0.19801   1
  -2   4  -6 0.26381 0.18582   1
  -2   4  -6 1.26218 0.31333   1
   2  -4   6 0.50128 0.17575   2
   2  -4   6 0.11830 0.21007   1
   2  -4   6 -0.0204 0.13511   1
  -3   4  -6 2.74562 0.44615   2
  -3   4  -6 1.68391 0.24117   2
  -3   4  -6 1.36401 0.16212   2
  -3   4  -6 1.44605 0.22992   2
  -3   4  -6 1.61961 0.16073   2
  -3   4  -6 1.38419 0.21714   2
  -3   4  -6 1.28558 0.22011   2
  -3   4  -6 1.61926 0.18516   2
  -3   4  -6 1.50176 0.37050   1
  -3   4  -6 1.07056 0.20219   1
   3  -4  -5 29.9418 1.29013  -2
  -3   4  -6 29.9418 1.29013   1
   3  -4  -5 28.6130 0.94853  -2
  -3   4  -6 28.6130 0.94853   1
   3  -4   6 1.06378 0.32461   1
   3  -4   6 1.56325 0.28443   1
  -4   4  -6 16.2255 0.56819   2
  -4   4  -6 16.7197 0.74785   2
  -4   4  -6 14.3037 1.01237   2
  -4   4  -6 15.5284 0.66013   2
  -4   4  -6 15.3827 0.64134   2
  -4   4  -6 15.8870 0.63586   2
  -4   4  -6 14.9273 0.63605   2
  -4   4  -6 14.7220 0.53612   2
  -4   4  -6 15.7065 0.92020   2
  -4   4  -6 13.4398 0.52982   1
  -4   4  -6 14.1778 0.58188   1
  -4   4  -6 14.3135 0.61785   1
   4  -4   6 13.3751 0.91995   1
   4  -4   6 14.8285 0.75544   1
   4  -4   6 16.2579 0.80788   2
   5  -4  -6 6.39197 0.35980  -2
  -5   4  -6 6.39197 0.35980   1
   5  -4  -6 6.24103 0.38014  -2
  -5   4  -6 6.24103 0.38014   1
  -5   4   6 6.30140 0.52011  -2
   5  -4   6 6.30140 0.52011   1
  -6   4  -6 81.8794 1.84195   2
  -6   4  -6 79.8359 2.08093   2
  -6   4  -6 82.3146 1.94147   2
  -6   4  -6 70.0004 1.57756   1
  -6   4  -6 69.8195 1.64986   1
   7   3  -6 3.58821 0.18966   1
   7   3   0 4.39232 0.25685  -2
  -7  -3   6 4.39232 0.25685   1
   6   3  -6 0.42354 0.10716   2
   6   3  -6 0.67471 0.18076   2
   6   3  -6 0.56748 0.14199   2
   6   3  -6 0.45213 0.11304   2
   6   3  -6 0.44049 0.13223   2
   6   3  -6 0.69590 0.14605   2
   6   3  -6 0.60374 0.19567   1
   6   3  -6 0.55297 0.12976   1
  -6  -3   6 0.52053 0.16882   2
  -6  -3   6 0.46722 0.13245   1
  -6  -3   6 0.42017 0.07225   1
   5   3  -6 6.20865 0.30395   2
   5   3  -6 5.45210 0.44200   2
   5   3  -6 5.70030 0.29268   2
   5   3  -6 6.21809 0.34259   2
   5   3  -6 6.08957 0.35676   2
   5   3  -6 6.44164 0.43618   2
   5   3  -6 7.17668 0.39671   2
   5   3  -6 5.30146 0.33008   1
   5   3  -6 7.44212 0.48385   1
  -5  -3   6 5.09804 0.28308   1
  -5  -3   6 5.44254 0.33465   1
   4   3  -6 1.23496 0.26575   1
   4   3  -6 1.87396 0.42296   1
   4   3  -6 1.58376 0.19963   1
   4   3  -6 1.27158 0.20121   1
   4   3  -6 1.54093 0.14826   2
   4   3  -6 1.83380 0.23811   2
   4   3  -6 1.56240 0.21263   2
   4   3  -6 1.70630 0.15956   2
   4   3  -6 1.60849 0.26483   2
   4   3  -6 1.18816 0.15583   2
   4   3  -6 1.71289 0.25763   2
  -4  -3   6 1.62941 0.20089   1
  -4  -3   6 1.42579 0.20090   1
  -4  -3   6 1.22820 0.40456   2
   3   3  -6 4.15148 0.33734   2
   3   3  -6 5.48121 0.63630   2
   3   3  -6 3.79502 0.20426   2
   3   3  -6 3.26509 0.49957   1
   3   3  -6 2.93448 0.71671   1
   3   3  -6 3.55318 0.34289   1
  -3  -3   6 3.71464 0.54802   2
  -3  -3   6 3.42789 0.26067   1
   2   3  -6 37.5392 1.29698   1
   2   3  -6 35.8329 1.49598   1
   2   3  -6 36.6923 1.56503   1
   2   3  -6 36.4469 1.30312   1
   2   3  -6 37.4630 1.21696   1
   2   3  -6 39.1572 1.25813   2
   2   3  -6 41.2761 1.50586   2
  -2  -3   6 40.5407 1.63326   2
  -2  -3   6 40.3294 1.68664   2
  -2  -3   6 42.7779 1.68220   2
  -2  -3   6 36.5922 1.18803   1
   1   3  -6 63.7492 2.26149   1
   1   3  -6 63.8206 1.99590   1
   1   3  -6 63.4809 2.06117   1
   1   3  -6 60.1821 2.10491   1
   1   3  -6 63.5870 1.88022   1
   1   3  -6 61.9631 1.79203   1
   1   3  -6 69.7597 1.95790   2
  -1  -3   6 61.3166 1.84553   1
  -1  -3   6 63.5052 1.79585   1
  -1  -3   6 71.0436 2.06163   2
  -1  -3   6 71.5970 2.41091   2
  -1  -3   6 70.6492 2.29802   2
   0  -3  -4 47.0651 1.57393  -2
   0   3  -6 47.0651 1.57393   1
   0  -3  -4 48.4374 1.72474  -2
   0   3  -6 48.4374 1.72474   1
   0  -3  -4 48.1513 1.79363  -2
   0   3  -6 48.1513 1.79363   1
   0  -3  -4 47.3552 1.62719  -2
   0   3  -6 47.3552 1.62719   1
   0  -3  -4 48.0023 1.58144  -2
   0   3  -6 48.0023 1.58144   1
   0  -3  -4 46.5856 1.84401  -2
   0   3  -6 46.5856 1.84401   1
   0   3   4 45.7041 1.43960  -2
   0  -3   6 45.7041 1.43960   1
   0   3   4 45.8518 1.48224  -2
   0  -3   6 45.8518 1.48224   1
  -1   3  -6 30.8935 1.36445   1
  -1   3  -6 30.1204 1.20163   1
  -1   3  -6 30.5713 1.37356   1
  -1   3  -6 31.9716 1.29329   1
  -1   3  -6 30.3509 1.22296   1
  -1   3  -6 30.1580 1.30899   1
  -1   3  -6 30.0817 1.17616   1
  -1   3  -6 32.2624 1.06704   2
  -1   3  -6 33.1036 1.37477   2
  -1   3  -6 33.0677 1.27083   2
  -1   3  -6 31.8370 1.41702   2
   1  -3   6 30.4321 1.10900   1
   1  -3   6 30.2560 1.06598   1
   1  -3   6 31.4647 1.25699   2
   2  -3  -5 21.8157 0.98846  -2
  -2   3  -6 21.8157 0.98846   1
   2  -3  -5 20.7646 1.19312  -2
  -2   3  -6 20.7646 1.19312   1
   2  -3  -5 21.1326 1.04633  -2
  -2   3  -6 21.1326 1.04633   1
   2  -3  -5 21.5421 1.00257  -2
  -2   3  -6 21.5421 1.00257   1
   2  -3  -5 22.4773 1.18962  -2
  -2   3  -6 22.4773 1.18962   1
  -2   3   5 22.0370 1.14487  -2
   2  -3   6 22.0370 1.14487   1
  -2   3   5 21.9398 1.18778  -2
   2  -3   6 21.9398 1.18778   1
  -2   3   5 20.3172 0.85797  -2
   2  -3   6 20.3172 0.85797   1
  -2   3   5 21.7319 0.88379  -2
   2  -3   6 21.7319 0.88379   1
  -3   3  -6 40.5544 1.05084   2
  -3   3  -6 44.1633 1.63256   2
  -3   3  -6 43.6495 1.83285   2
  -3   3  -6 40.4960 1.19854   2
  -3   3  -6 40.8063 1.20462   2
  -3   3  -6 40.2308 1.04707   2
  -3   3  -6 40.6325 1.35017   2
  -3   3  -6 42.8603 1.19397   2
  -3   3  -6 39.7730 0.96290   2
  -3   3  -6 37.3587 1.07859   1
  -3   3  -6 35.1634 1.53053   1
  -3   3  -6 36.1820 1.11153   1
  -3   3  -6 37.8124 1.66464   1
  -3   3  -6 37.0155 0.90332   1
  -3   3  -6 36.1067 0.97275   1
  -3   3  -6 36.2248 1.01876   1
   3  -3   6 36.6530 1.31535   1
   3  -3   6 37.2100 1.37401   1
   3  -3   6 37.6217 1.64786   1
   3  -3   6 39.9283 1.43727   2
   4  -3  -6 85.2248 1.96298  -2
  -4   3  -6 85.2248 1.96298   1
   4  -3  -6 81.7406 2.00778  -2
  -4   3  -6 81.7406 2.00778   1
   4  -3  -6 84.6524 2.12917  -2
  -4   3  -6 84.6524 2.12917   1
   4  -3  -6 87.8915 2.12455  -2
  -4   3  -6 87.8915 2.12455   1
   4  -3  -6 85.2077 1.82198  -2
  -4   3  -6 85.2077 1.82198   1
  -4   3   6 84.8563 2.61043  -2
   4  -3   6 84.8563 2.61043   1
  -4   3   6 81.6387 3.01580  -2
   4  -3   6 81.6387 3.01580   1
  -5   3  -6 30.5589 0.83263   1
  -5   3  -6 29.9314 0.88784   1
  -5   3  -6 29.0779 0.94740   1
  -5   3  -6 30.3269 0.77470   1
  -5   3  -6 29.7520 0.86826   1
  -5   3  -6 33.7044 1.03445   2
  -5   3  -6 34.2840 1.07915   2
  -5   3  -6 33.5988 1.00626   2
  -5   3  -6 33.0015 0.93411   2
  -5   3  -6 36.7761 1.18926   2
  -5   3  -6 33.7576 1.02548   2
  -5   3  -6 33.1172 0.95459   2
   5  -3   6 32.0475 1.23191   2
   5  -3   6 27.5995 1.14306   1
  -6   3  -6 58.3565 1.36170   1
  -6   3  -6 57.8489 1.24715   1
  -6   3  -6 57.7751 1.32034   1
  -6   3  -6 58.4978 1.45537   1
  -6   3  -6 66.9481 1.64051   2
  -6   3  -6 67.5718 1.56774   2
   7   2  -6 25.0785 0.62783   2
   7   2  -6 24.7611 0.70844   2
   7   2  -6 24.8770 0.66169   2
   7   2  -6 25.1141 0.70337   2
   7   2  -6 22.2725 0.58674   1
  -7  -2   6 25.0423 0.84455   2
  -7  -2   6 26.0033 0.79584   2
  -7  -2   6 21.6761 0.63251   1
   6   2  -6 22.1108 0.73413   2
   6   2  -6 22.7624 0.66571   2
   6   2  -6 22.1125 0.65366   2
   6   2  -6 21.8237 0.71039   2
   6   2  -6 21.3253 0.82920   2
   6   2  -6 22.0831 0.61767   2
   6   2  -6 22.1418 0.75257   2
   6   2  -6 18.6680 0.78960   1
   6   2  -6 19.9061 0.63157   1
  -6  -2   6 19.6073 0.57295   1
  -6  -2   6 19.6090 0.64672   1
  -6  -2   6 21.9382 0.85241   2
  -6  -2   6 22.2142 0.94211   2
  -5  -2  -2 30.7807 1.12865  -2
   5   2  -6 30.7807 1.12865   1
  -5  -2  -2 30.6393 0.88506  -2
   5   2  -6 30.6393 0.88506   1
   5   2   2 27.9235 0.88989  -2
  -5  -2   6 27.9235 0.88989   1
   5   2   2 28.9652 0.87436  -2
  -5  -2   6 28.9652 0.87436   1
   4   2  -6 2.14663 0.24973   2
   4   2  -6 2.11307 0.15788   2
   4   2  -6 2.44895 0.44189   2
   4   2  -6 1.99543 0.17832   2
   4   2  -6 2.11971 0.17080   2
   4   2  -6 1.90691 0.26526   2
   4   2  -6 2.57386 0.36501   2
   4   2  -6 2.29159 0.24862   2
   4   2  -6 1.94650 0.42081   1
   4   2  -6 1.70975 0.27874   1
   4   2  -6 1.89199 0.22886   1
   4   2  -6 1.89187 0.20612   1
  -4  -2   6 1.46535 0.20514   1
  -4  -2   6 1.96040 0.23147   1
  -4  -2   6 2.34188 0.30227   2
  -4  -2   6 2.17884 0.45624   2
  -3  -2  -3 69.1126 1.96829  -2
   3   2  -6 69.1126 1.96829   1
  -3  -2  -3 64.5372 2.27347  -2
   3   2  -6 64.5372 2.27347   1
  -3  -2  -3 67.3905 2.44933  -2
   3   2  -6 67.3905 2.44933   1
  -3  -2  -3 66.4313 2.49358  -2
   3   2  -6 66.4313 2.49358   1
   3   2   3 68.1317 1.99054  -2
  -3  -2   6 68.1317 1.99054   1
   2   2  -6 73.4515 2.47177   1
   2   2  -6 70.8529 2.55949   1
   2   2  -6 73.7501 2.38461   1
   2   2  -6 75.6820 2.10539   1
   2   2  -6 75.2300 2.22119   1
   2   2  -6 73.2009 2.08022   1
   2   2  -6 80.8808 2.37575   2
   2   2  -6 79.2666 2.64432   2
   2   2  -6 82.2900 2.88027   2
  -2  -2   6 73.9878 2.05389   1
  -2  -2   6 73.6745 2.12437   1
  -2  -2   6 80.5504 2.72205   2
  -1  -2  -4 232.637 6.86705  -2
   1   2  -6 232.637 6.86705   1
  -1  -2  -4 220.458 6.36409  -2
   1   2  -6 220.458 6.36409   1
  -1  -2  -4 223.624 5.74316  -2
   1   2  -6 223.624 5.74316   1
  -1  -2  -4 241.157 6.55374  -2
   1   2  -6 241.157 6.55374   1
  -1  -2  -4 228.055 5.41374  -2
   1   2  -6 228.055 5.41374   1
  -1  -2  -4 229.971 6.05435  -2
   1   2  -6 229.971 6.05435   1
   1   2   4 226.567 5.98425  -2
  -1  -2   6 226.567 5.98425   1
   1   2   4 239.960 5.56838  -2
  -1  -2   6 239.960 5.56838   1
   0   2  -6 0.46144 0.20134   1
   0   2  -6 0.32478 0.15599   1
   0   2  -6 0.24881 0.16574   1
   0   2  -6 0.22033 0.15498   1
   0   2  -6 0.27167 0.18089   1
   0   2  -6 0.76012 0.26391   2
   0   2  -6 0.29109 0.16118   2
   0   2  -6 0.25616 0.19852   2
   0   2  -6 0.18628 0.16801   2
   0   2  -6 0.46902 0.22822   2
   0   2  -6 0.17458 0.11514   2
   0   2  -6 0.37539 0.20411   2
  -1   2  -6 39.3928 1.39395   1
  -1   2  -6 40.9485 1.52326   1
  -1   2  -6 39.7617 1.39568   1
  -1   2  -6 37.2857 1.33319   1
  -1   2  -6 38.9996 1.60538   1
  -1   2  -6 36.8521 1.52546   1
  -1   2  -6 43.4740 1.55403   2
  -1   2  -6 44.0458 1.72189   2
  -1   2  -6 42.9518 1.66268   2
  -1   2  -6 44.1134 1.52348   2
  -1   2  -6 43.8059 1.70396   2
   1  -2  -5 51.0201 1.91032  -2
  -1   2  -6 51.0201 1.91032   1
   1  -2   6 38.5436 1.21195   1
  -2   2  -6 0.28969 0.19731   1
  -2   2  -6 0.18836 0.18090   1
  -2   2  -6 0.30958 0.26489   1
  -2   2  -6 0.60202 0.24092   1
  -2   2  -6 0.33540 0.21424   1
  -2   2  -6 0.31262 0.17495   1
  -2   2  -6 0.26097 0.24956   2
  -2   2  -6 0.28181 0.19494   2
  -2   2  -6 -0.0411 0.16319   2
  -2   2  -6 0.49621 0.16412   2
  -2   2  -6 -0.0592 0.22480   2
   2  -2   6 -0.0098 0.11655   1
   2  -2   6 0.67264 0.30645   1
   2  -2   6 0.32306 0.14148   2
   2  -2   6 0.11664 0.21294   2
  -3   2  -6 5.92452 0.69729   1
  -3   2  -6 5.19056 0.38082   1
  -3   2  -6 5.07583 0.25036   1
  -3   2  -6 5.00626 0.57670   1
  -3   2  -6 5.31260 0.33050   1
  -3   2  -6 5.33477 0.27214   1
  -3   2  -6 6.70915 0.35697   1
  -3   2  -6 6.15528 0.36574   2
  -3   2  -6 5.72763 0.36681   2
  -3   2  -6 5.66397 0.30244   2
  -3   2  -6 5.79416 0.61815   2
  -3   2  -6 5.40592 0.26305   2
  -3   2  -6 5.47584 0.27320   2
  -3   2  -6 6.14796 0.54873   2
  -3   2  -6 5.60700 0.36469   2
  -3   2  -6 5.96183 0.41148   2
   3  -2   6 4.77930 0.44144   1
   3  -2   6 4.82751 0.56947   1
   3  -2   6 5.82127 0.48185   2
  -4   2  -6 30.1697 0.97041   2
  -4   2  -6 30.1564 0.88240   2
  -4   2  -6 30.1175 1.10098   2
  -4   2  -6 29.1063 1.29182   2
  -4   2  -6 29.0706 0.79612   2
  -4   2  -6 30.2006 0.85382   2
  -4   2  -6 28.3712 1.49120   2
  -4   2  -6 30.2012 0.95129   2
  -4   2  -6 29.6874 0.97002   2
  -4   2  -6 26.8007 0.71176   1
  -4   2  -6 26.6395 0.84244   1
  -4   2  -6 27.3095 0.92138   1
  -4   2  -6 26.9920 0.83489   1
  -4   2  -6 26.2377 0.75370   1
   4  -2   6 25.5871 1.33827   1
   4  -2   6 30.7374 1.18222   2
  -5   2  -6 1.85870 0.17850   1
  -5   2  -6 2.00120 0.23072   1
  -5   2  -6 1.60446 0.23834   1
  -5   2  -6 1.98664 0.18160   1
  -5   2  -6 2.27945 0.24494   1
  -5   2  -6 2.79554 0.34151   2
  -5   2  -6 2.24279 0.25872   2
  -5   2  -6 2.39284 0.26078   2
  -5   2  -6 2.18562 0.24655   2
  -5   2  -6 1.94190 0.22542   2
   5  -2   6 2.02222 0.30469   2
   5  -2   6 2.10027 0.36994   1
  -6   2  -6 8.46627 0.37913   2
  -6   2  -6 7.91302 0.35229   2
  -6   2  -6 7.09126 0.36004   1
  -6   2  -6 7.21249 0.26014   1
  -6   2  -6 7.08310 0.26757   1
   6  -2  -8 16.0153 0.52899  -2
  -6   2  -6 16.0153 0.52899   1
   7   1  -6 25.3251 0.73979   2
   7   1  -6 26.6322 0.70429   2
   7   1  -6 25.9432 0.65751   2
   7   1  -6 26.3321 0.75092   2
   7   1  -6 22.0125 0.77101   1
   7   1  -6 23.0379 0.57664   1
  -7  -1   6 23.2081 0.55287   1
  -7  -1   6 22.6964 0.66275   1
  -7  -1   6 25.2610 0.87327   2
  -7  -1   6 26.7968 0.81886   2
  -6  -1  -2 4.68015 0.28373  -2
   6   1  -6 4.68015 0.28373   1
   6   1   2 5.23414 0.33737  -2
  -6  -1   6 5.23414 0.33737   1
   6   1   2 5.50101 0.32102  -2
  -6  -1   6 5.50101 0.32102   1
   5   1  -6 1.01427 0.18629   2
   5   1  -6 1.47263 0.25649   2
   5   1  -6 1.40674 0.20808   2
   5   1  -6 1.45860 0.19737   2
   5   1  -6 1.24216 0.16079   2
   5   1  -6 1.03534 0.15472   1
   5   1  -6 1.19788 0.37362   1
   5   1  -6 1.55336 0.27337   1
  -5  -1   6 1.24925 0.19055   1
  -5  -1   6 1.69459 0.25908   1
  -5  -1   6 1.68454 0.46781   2
  -4  -1  -3 14.4322 0.71017  -2
   4   1  -6 14.4322 0.71017   1
  -4  -1  -3 13.4539 0.95474  -2
   4   1  -6 13.4539 0.95474   1
  -4  -1  -3 14.7166 0.93655  -2
   4   1  -6 14.7166 0.93655   1
   4   1  -6 5.38096 0.39653   2
   4   1  -6 5.47939 0.26106   2
   4   1  -6 5.32458 0.25249   2
   4   1  -6 4.64218 0.26593   1
  -4  -1   6 5.71517 0.38341   2
  -4  -1   6 5.37540 0.63031   2
  -4  -1   6 5.06584 0.35532   1
   3   1  -6 121.120 3.37684   2
   3   1  -6 121.157 2.90706   2
   3   1  -6 122.409 4.10121   2
   3   1  -6 115.135 3.74604   2
   3   1  -6 110.336 3.06849   1
   3   1  -6 109.541 3.57828   1
   3   1  -6 108.068 2.93092   1
   3   1  -6 107.516 2.81558   1
   3   1  -6 101.173 3.37925   1
   3   1  -6 106.530 3.54003   1
   3   1  -6 110.012 3.37799   1
  -3  -1   6 124.692 3.82493   2
  -3  -1   6 115.432 3.85301   2
  -3  -1   6 107.245 2.98611   1
  -3  -1   6 109.434 2.87320   1
   2   1  -6 4.68903 0.51568   2
   2   1  -6 4.37922 0.42469   2
   2   1  -6 4.90934 0.47825   2
   2   1  -6 4.20999 0.48512   2
   2   1  -6 3.65922 0.37646   1
   2   1  -6 3.58307 0.33743   1
   2   1  -6 3.82403 0.29738   1
   2   1  -6 4.01914 0.38329   1
   2   1  -6 4.05156 0.41815   1
   2   1  -6 3.63226 0.42799   1
  -2  -1   6 3.65534 0.30870   1
  -2  -1   6 3.94525 0.30695   1
  -2  -1   6 4.45564 0.51131   2
   1   1  -6 1.73850 0.36583   2
   1   1  -6 0.85813 0.25112   2
   1   1  -6 1.00291 0.27975   2
   1   1  -6 1.28297 0.29364   2
   1   1  -6 0.89183 0.21212   2
   1   1  -6 1.08826 0.25934   2
   1   1  -6 1.10875 0.24058   2
   1   1  -6 0.59155 0.19760   1
   1   1  -6 1.47481 0.29226   1
   1   1  -6 0.85706 0.21622   1
   1   1  -6 0.93336 0.18163   1
   1   1  -6 0.60549 0.21633   1
   1   1  -6 0.84808 0.22386   1
  -1  -1   6 0.87737 0.17984   1
   0   1  -6 132.201 4.28030   2
   0   1  -6 136.165 3.79104   2
   0   1  -6 137.137 4.12435   2
   0   1  -6 139.758 4.17503   2
   0   1  -6 132.893 3.44109   2
   0   1  -6 119.402 3.09052   1
   0   1  -6 120.453 3.61389   1
   0   1  -6 121.903 3.35213   1
   0   1  -6 116.184 3.61152   1
   0   1  -6 120.515 3.81542   1
   0  -1   6 120.413 2.98034   1
  -1   1  -6 15.8882 0.84633   1
  -1   1  -6 14.9768 0.76047   1
  -1   1  -6 16.8152 0.91377   1
  -1   1  -6 16.5230 0.90208   1
  -1   1  -6 15.8561 0.78832   1
  -1   1  -6 16.4334 0.75545   1
  -1   1  -6 18.5547 0.98326   2
  -1   1  -6 17.4847 0.87197   2
  -1   1  -6 18.6174 0.98233   2
  -1   1  -6 17.3351 0.85776   2
  -1   1  -6 17.7209 1.01532   2
   1  -1   6 16.1838 0.63059   1
   1  -1   6 17.9810 0.62158   2
  -2   1  -6 109.364 3.47515   1
  -2   1  -6 109.304 3.11794   1
  -2   1  -6 108.086 3.48443   1
  -2   1  -6 108.046 3.62298   1
  -2   1  -6 110.094 3.10194   1
  -2   1  -6 122.434 3.90156   2
  -2   1  -6 118.907 3.33078   2
  -2   1  -6 123.797 3.57864   2
  -2   1  -6 119.907 3.92915   2
  -2   1  -6 120.835 3.23118   2
   2  -1   6 111.156 2.83674   1
   2  -1   6 102.515 3.54138   1
   2  -1   6 121.318 3.14126   2
   3  -1  -7 29.1228 0.90907  -2
  -3   1  -6 29.1228 0.90907   1
   3  -1  -7 31.7749 1.58226  -2
  -3   1  -6 31.7749 1.58226   1
   3  -1  -7 30.3295 0.79463  -2
  -3   1  -6 30.3295 0.79463   1
   3  -1  -7 29.9861 0.97196  -2
  -3   1  -6 29.9861 0.97196   1
   3  -1  -7 30.4596 0.75103  -2
  -3   1  -6 30.4596 0.75103   1
   3  -1  -7 31.5477 0.94524  -2
  -3   1  -6 31.5477 0.94524   1
  -4   1  -6 4.46136 0.30084   2
  -4   1  -6 4.14730 0.26835   2
  -4   1  -6 2.70711 0.51251   2
  -4   1  -6 4.03908 0.36332   2
  -4   1  -6 4.41322 0.50679   2
  -4   1  -6 4.68493 0.33941   2
  -4   1  -6 3.97491 0.31878   2
  -4   1  -6 4.08737 0.25664   2
  -4   1  -6 3.86672 0.31368   2
  -4   1  -6 3.86302 0.22272   1
  -4   1  -6 3.84356 0.22397   1
  -4   1  -6 4.23600 0.30775   1
  -4   1  -6 3.59000 0.34011   1
   4  -1   6 3.82807 0.38710   2
   4  -1   6 4.09430 0.61942   1
   5  -1  -8 1.16661 0.22091  -2
  -5   1  -6 1.16661 0.22091   1
   5  -1  -8 1.59176 0.14862  -2
  -5   1  -6 1.59176 0.14862   1
   5  -1  -8 1.06102 0.23818  -2
  -5   1  -6 1.06102 0.23818   1
   5  -1  -8 1.35410 0.15341  -2
  -5   1  -6 1.35410 0.15341   1
  -6   1  -6 0.23551 0.09355   1
  -6   1  -6 0.02661 0.05206   1
  -6   1  -6 0.09753 0.04917   1
  -6   1  -6 0.00695 0.10367   1
  -6   1  -6 -0.0168 0.08597   2
   7   0  -6 4.60700 0.27997   2
   7   0  -6 4.42473 0.24321   2
   7   0  -6 4.56551 0.27840   2
   7   0  -6 4.32319 0.22308   2
   7   0  -6 3.94497 0.31995   1
  -7   0   6 4.09608 0.24762   1
  -7   0   6 3.90053 0.20693   1
  -7   0   6 4.53279 0.31184   2
   6   0  -6 16.1361 0.51258   2
   6   0  -6 16.1523 0.60933   2
   6   0  -6 16.4064 0.63258   2
   6   0  -6 16.9167 0.62947   2
   6   0  -6 16.3520 0.55661   2
   6   0  -6 14.7975 0.91136   1
   6   0  -6 14.1912 0.66140   1
   6   0  -6 14.8599 0.45423   1
  -6   0   6 17.2635 0.79103   2
  -6   0   6 17.5854 0.71375   2
  -6   0   6 14.9739 0.54225   1
  -6   0   6 14.2951 0.53656   1
   5   0  -6 0.95496 0.17866   2
   5   0  -6 1.56567 0.16056   2
   5   0  -6 1.10479 0.17461   2
   5   0  -6 1.12467 0.19193   2
   5   0  -6 1.34107 0.17313   2
   5   0  -6 1.19352 0.24400   1
   5   0  -6 1.16204 0.14397   1
   5   0  -6 1.32035 0.35392   1
  -5   0   6 1.19084 0.18619   1
  -5   0   6 1.12147 0.20999   1
  -5   0   6 1.35082 0.24027   2
  -5   0   6 1.43433 0.42721   2
  -5   0   6 1.32927 0.40905   2
   4   0  -6 2.62063 0.45504   2
   4   0  -6 2.93787 0.26761   2
   4   0  -6 3.14901 0.27639   2
   4   0  -6 2.21973 0.18775   2
   4   0  -6 2.66798 0.52806   2
   4   0  -6 2.54510 0.18087   2
   4   0  -6 2.50457 0.19699   2
   4   0  -6 2.71699 0.17637   2
   4   0  -6 2.18525 0.16595   1
   4   0  -6 3.18161 0.47886   1
   4   0  -6 3.01460 0.32449   1
  -4   0   6 2.80421 0.50355   2
  -4   0   6 2.54413 0.32898   2
  -4   0   6 3.02148 0.29339   1
   3   0  -6 19.1299 0.96320   1
   3   0  -6 18.5038 1.15222   1
   3   0  -6 17.2663 0.97488   1
   3   0  -6 18.2977 0.74341   1
   3   0  -6 18.4833 0.83987   1
   3   0  -6 19.1080 0.96698   1
   3   0  -6 17.5201 0.81689   1
   3   0  -6 20.8998 1.02776   2
   3   0  -6 21.6330 1.21382   2
   3   0  -6 19.6769 0.61702   2
   3   0  -6 19.9661 1.12490   2
  -3   0   6 18.8871 0.78915   1
  -3   0   6 18.4365 0.75105   1
  -3   0   6 19.5876 1.18159   2
  -3   0   6 19.8405 1.08903   2
  -3   0   6 21.1121 0.72806   2
  -2   0  -5 186.418 4.96314  -2
   2   0  -6 186.418 4.96314   1
  -2   0  -5 178.078 4.63441  -2
   2   0  -6 178.078 4.63441   1
  -2   0  -5 176.807 5.30509  -2
   2   0  -6 176.807 5.30509   1
  -2   0  -5 190.357 5.60670  -2
   2   0  -6 190.357 5.60670   1
  -2   0  -5 175.883 5.37614  -2
   2   0  -6 175.883 5.37614   1
  -2   0  -5 190.754 4.51499  -2
   2   0  -6 190.754 4.51499   1
   2   0   5 177.062 4.46961  -2
  -2   0   6 177.062 4.46961   1
   1   0  -6 35.2962 1.57111   2
   1   0  -6 34.9966 1.54982   2
   1   0  -6 35.6379 1.26045   2
   1   0  -6 35.3260 1.25118   2
   1   0  -6 40.2780 1.74512   2
   1   0  -6 37.1224 1.29793   2
   1   0  -6 33.3102 1.47567   2
   1   0  -6 29.8194 1.26439   1
   1   0  -6 28.5630 1.24227   1
   1   0  -6 29.0817 0.95872   1
   1   0  -6 30.5270 1.11329   1
   1   0  -6 30.5153 1.23719   1
   1   0  -6 29.8548 1.10050   1
  -1   0   6 29.7052 0.93747   1
   0   0  -6 10.5087 0.68266  -2
   0   0  -6 10.5087 0.68266   1
   0   0  -6 9.00090 0.66908  -2
   0   0  -6 9.00090 0.66908   1
   0   0  -6 11.2170 0.61068  -2
   0   0  -6 11.2170 0.61068   1
   0   0  -6 11.2285 0.63424  -2
   0   0  -6 11.2285 0.63424   1
   0   0  -6 11.2667 0.75869  -2
   0   0  -6 11.2667 0.75869   1
   0   0   6 10.2639 0.42366  -2
   0   0   6 10.2639 0.42366   1
  -1   0  -6 8.34470 0.50832   1
  -1   0  -6 8.51082 0.62949   1
  -1   0  -6 8.33644 0.59186   1
  -1   0  -6 8.03849 0.53957   1
  -1   0  -6 7.38852 0.61505   1
  -1   0  -6 8.70982 0.68667   2
  -1   0  -6 9.06001 0.63019   2
  -1   0  -6 8.73343 0.44655   2
  -1   0  -6 9.32502 0.75191   2
  -1   0  -6 9.60563 0.71987   2
  -1   0  -6 9.56034 0.61610   2
   1   0   6 9.46826 0.46433   2
   2   0  -7 37.4373 1.77269  -2
  -2   0  -6 37.4373 1.77269   1
   2   0  -7 36.4524 1.64432  -2
  -2   0  -6 36.4524 1.64432   1
   2   0  -7 36.2547 1.46619  -2
  -2   0  -6 36.2547 1.46619   1
  -3   0  -6 1.11506 0.32122   2
  -3   0  -6 0.74316 0.16924   2
  -3   0  -6 1.20765 0.19880   2
  -3   0  -6 1.06650 0.19152   2
  -3   0  -6 0.93192 0.32543   2
  -3   0  -6 0.90379 0.14095   2
  -3   0  -6 0.97649 0.16809   2
  -3   0  -6 0.93872 0.14411   2
  -3   0  -6 0.76653 0.20882   2
  -3   0  -6 0.90867 0.11372   1
  -3   0  -6 0.95766 0.17558   1
  -3   0  -6 0.89722 0.32833   1
  -3   0  -6 0.82428 0.19717   1
   3   0   6 1.06489 0.35012   1
   3   0   6 0.84389 0.22669   2
  -4   0  -6 0.74562 0.15226   2
  -4   0  -6 0.95090 0.19807   2
  -4   0  -6 0.68134 0.31892   2
  -4   0  -6 0.95383 0.18037   2
  -4   0  -6 0.80820 0.18146   2
  -4   0  -6 1.46883 0.21522   2
  -4   0  -6 0.66165 0.18776   1
  -4   0  -6 0.82077 0.11600   1
  -4   0  -6 1.40511 0.12165   1
  -4   0  -6 0.95539 0.17526   1
   4   0   6 0.90447 0.22779   2
   4   0   6 1.09906 0.20952   2
   4   0   6 2.01733 0.44762   1
  -5   0  -6 0.00210 0.10091   1
  -5   0  -6 0.10697 0.06985   1
  -5   0  -6 0.06446 0.12946   1
  -5   0  -6 0.03771 0.04495   1
  -5   0  -6 0.11266 0.11814   2
  -5   0  -6 0.04052 0.10281   2
  -5   0  -6 -0.0989 0.09349   2
  -5   0  -6 -0.0148 0.11640   2
   5   0   6 -0.0040 0.10397   2
  -6   0  -6 1.82104 0.16542   2
  -6   0  -6 1.72883 0.11104   1
  -6   0  -6 1.57102 0.17750   1
  -6   0  -6 1.81457 0.15626   1
   6   0   6 2.35584 0.16833   2
  -7   1  -3 344.839 8.09946  -2
   7  -1  -6 344.839 8.09946   1
   7  -1   3 340.202 7.08804  -2
  -7   1   6 340.202 7.08804   1
   6  -1  -6 17.3365 0.62265   2
   6  -1  -6 16.7479 0.52272   2
   6  -1  -6 17.0591 0.57097   2
   6  -1  -6 16.9144 0.63370   2
   6  -1  -6 15.2848 0.71404   1
   6  -1  -6 16.2106 0.71319   1
  -6   1   6 16.6919 0.76970   2
  -6   1   6 16.4110 0.64191   1
  -5   1  -4 325.277 7.96488  -2
   5  -1  -6 325.277 7.96488   1
  -5   1  -4 306.257 9.08787  -2
   5  -1  -6 306.257 9.08787   1
  -5   1  -4 325.372 6.97940  -2
   5  -1  -6 325.372 6.97940   1
   5  -1   4 307.739 8.20579  -2
  -5   1   6 307.739 8.20579   1
   4  -1  -6 23.1650 0.61209   2
   4  -1  -6 22.8343 0.66844   2
   4  -1  -6 23.0100 0.75712   2
   4  -1  -6 21.9852 0.76719   2
   4  -1  -6 23.0073 0.74735   2
   4  -1  -6 22.7384 1.36568   2
   4  -1  -6 21.5736 1.15466   2
   4  -1  -6 20.5596 0.68498   1
   4  -1  -6 20.0108 1.08551   1
   4  -1  -6 21.6649 0.85603   1
   4  -1  -6 20.2937 0.61320   1
   4  -1  -6 19.8096 0.72153   1
   4  -1  -6 21.9002 0.93657   1
   4  -1  -6 21.2831 0.70625   1
  -4   1   6 19.7398 0.88915   1
  -4   1   6 20.7995 0.84975   1
  -4   1   6 23.5097 1.29777   2
  -4   1   6 23.6058 1.01012   2
  -3   1  -5 11.8284 0.95230  -2
   3  -1  -6 11.8284 0.95230   1
  -3   1  -5 12.1495 0.83631  -2
   3  -1  -6 12.1495 0.83631   1
  -3   1  -5 11.1219 0.57640  -2
   3  -1  -6 11.1219 0.57640   1
   3  -1   5 11.2032 0.63157  -2
  -3   1   6 11.2032 0.63157   1
   3  -1   5 11.2290 0.60140  -2
  -3   1   6 11.2290 0.60140   1
   2  -1  -6 20.6022 1.18301   2
   2  -1  -6 20.8392 0.99775   2
   2  -1  -6 20.5006 1.10956   2
   2  -1  -6 20.7144 1.09854   2
   2  -1  -6 20.5808 0.91188   2
   2  -1  -6 17.2766 0.95511   1
   2  -1  -6 18.3987 0.71968   1
   2  -1  -6 17.9149 0.83332   1
   2  -1  -6 18.3894 0.93006   1
   2  -1  -6 19.0169 0.84585   1
  -2   1   6 19.7131 1.13504   2
  -2   1   6 17.8496 0.70481   1
  -1   1  -6 18.6003 0.72096  -2
   1  -1  -6 18.6003 0.72096   1
   1  -1  -6 0.92626 0.24377   2
   1  -1  -6 1.20150 0.31692   2
   1  -1  -6 0.99238 0.33096   2
   1  -1  -6 1.11160 0.27909   2
   1  -1  -6 1.10528 0.31775   2
   1  -1  -6 0.68523 0.25891   1
   1  -1  -6 0.70172 0.22590   1
   1  -1  -6 1.00735 0.24779   1
   1  -1  -6 0.83570 0.20399   1
   1  -1  -6 1.12301 0.26320   1
  -1   1   6 0.87425 0.15355   1
  -1   1   6 0.81761 0.16807   2
   0  -1  -6 3.36454 0.44819   2
   0  -1  -6 4.64974 0.64178   2
   0  -1  -6 4.36438 0.41779   2
   0  -1  -6 4.18242 0.48592   2
   0  -1  -6 3.87889 0.50226   2
   0  -1  -6 4.01072 0.35741   1
   0  -1  -6 3.68294 0.43700   1
   0  -1  -6 3.77058 0.49938   1
   0  -1  -6 3.20281 0.39078   1
   0  -1  -6 3.79647 0.38594   1
   0   1   6 4.57203 0.33248   2
  -1  -1  -6 0.84107 0.25188   1
  -1  -1  -6 0.63740 0.19948   1
  -1  -1  -6 0.41075 0.21084   1
  -1  -1  -6 0.60491 0.27993   2
  -1  -1  -6 0.92323 0.31260   2
  -1  -1  -6 0.71064 0.23833   2
  -1  -1  -6 0.68005 0.27910   2
   1   1   6 0.90940 0.21723   2
  -2  -1  -6 4.58834 0.32522   2
  -2  -1  -6 4.84917 0.32700   2
  -2  -1  -6 4.83629 0.25471   2
  -2  -1  -6 5.18558 0.70848   2
  -2  -1  -6 4.89786 0.29360   2
  -2  -1  -6 4.44078 0.49722   2
  -2  -1  -6 4.72762 0.26299   2
  -2  -1  -6 4.38467 0.32656   2
  -2  -1  -6 5.40593 0.39320   2
  -2  -1  -6 4.84730 0.59387   2
  -2  -1  -6 4.27499 0.17311   1
  -2  -1  -6 4.22249 0.48578   1
  -2  -1  -6 4.38746 0.29558   1
  -2  -1  -6 4.38195 0.52694   1
  -2  -1  -6 4.33482 0.15284   1
   2   1   6 5.19798 0.45600   2
   2   1   6 5.31350 0.41490   2
  -3  -1  -6 1.04526 0.36386   2
  -3  -1  -6 1.94025 0.21075   2
  -3  -1  -6 2.09577 0.49114   2
  -3  -1  -6 1.53863 0.22311   2
  -3  -1  -6 1.57945 0.21439   2
  -3  -1  -6 1.57842 0.26840   2
  -3  -1  -6 1.94136 0.26200   2
  -3  -1  -6 1.72318 0.23165   2
  -3  -1  -6 2.20990 0.41583   2
  -3  -1  -6 2.07884 0.20691   2
  -3  -1  -6 1.30432 0.37789   1
  -3  -1  -6 1.83899 0.13314   1
  -3  -1  -6 1.82818 0.17016   1
  -3  -1  -6 1.84307 0.10194   1
  -3  -1  -6 1.98090 0.26371   1
  -3  -1  -6 1.44288 0.20364   1
   3   1   6 1.91066 0.45444   1
   3   1   6 1.83734 0.29473   2
   3   1   6 2.03766 0.21586   2
  -4  -1  -6 20.6425 0.53498   1
  -4  -1  -6 20.6323 0.74220   1
  -4  -1  -6 23.5225 0.79531   2
   4   1  -9 80.5977 1.93529  -2
  -4  -1  -6 80.5977 1.93529   1
   4   1   6 23.2167 0.93850   2
  -5  -1  -6 0.66499 0.14319   2
  -5  -1  -6 0.20392 0.10979   2
  -5  -1  -6 0.32305 0.11523   1
  -5  -1  -6 0.16946 0.12569   1
   5   1   6 0.05550 0.11158   2
   7  -2  -6 49.5164 1.40684   1
   7  -2  -6 56.9383 1.32819   2
   7  -2  -6 56.8796 1.34247   2
   7  -2  -6 55.9760 1.37007   2
  -7   2   6 47.9828 1.17550   1
  -6   2  -4 70.1912 1.99289  -2
   6  -2  -6 70.1912 1.99289   1
  -6   2  -4 69.7516 2.04912  -2
   6  -2  -6 69.7516 2.04912   1
   5  -2  -6 8.76942 0.43911   2
   5  -2  -6 8.72420 0.45185   2
   5  -2  -6 8.87066 0.39726   2
   5  -2  -6 8.63756 0.35584   2
   5  -2  -6 8.90005 0.47388   2
   5  -2  -6 8.33790 0.51378   1
   5  -2  -6 7.67234 0.38334   1
   5  -2  -6 7.99213 0.50068   1
   5  -2  -6 7.76701 0.42343   1
   5  -2  -6 7.86408 0.39515   1
   5  -2  -6 7.11218 0.65691   1
  -5   2   6 7.72425 0.78134   2
  -5   2   6 8.57781 0.54106   2
  -5   2   6 7.84939 0.48818   1
   4  -2  -6 0.66631 0.16442   2
   4  -2  -6 0.80901 0.18511   2
   4  -2  -6 0.80494 0.13033   2
   4  -2  -6 0.71978 0.17868   2
   4  -2  -6 0.88044 0.14674   2
   4  -2  -6 1.25288 0.44189   2
   4  -2  -6 0.57949 0.14368   1
   4  -2  -6 0.67324 0.11890   1
   4  -2  -6 0.69131 0.14876   1
   4  -2  -6 0.60040 0.26255   1
   4  -2  -6 0.59460 0.18571   1
   4  -2  -6 0.91416 0.13280   1
   4  -2  -6 0.86535 0.17682   1
   4  -2  -6 0.71249 0.17320   1
   4  -2  -6 0.79425 0.24024   1
  -4   2   6 0.81585 0.34789   2
  -4   2   6 0.69303 0.19199   1
   3  -2  -6 0.02452 0.18909   2
   3  -2  -6 -0.0382 0.22517   2
   3  -2  -6 0.23445 0.08940   2
   3  -2  -6 0.10016 0.17130   2
   3  -2  -6 0.14972 0.12025   2
   3  -2  -6 0.03985 0.11732   1
   3  -2  -6 -0.0139 0.10690   1
   3  -2  -6 0.61348 0.22402   1
   3  -2  -6 0.06605 0.05232   1
   3  -2  -6 -0.0220 0.09368   1
   3  -2  -6 -0.0375 0.04902   1
   3  -2  -6 -0.0099 0.14790   1
   3  -2  -6 0.72101 0.16005   1
  -3   2   6 0.06367 0.12559   1
  -3   2   6 -0.0612 0.22618   2
  -3   2   6 0.19608 0.14626   2
   2  -2  -6 31.0845 1.31234   2
   2  -2  -6 33.2519 1.28703   2
   2  -2  -6 29.5589 1.45463   2
   2  -2  -6 31.6217 1.26970   2
   2  -2  -6 31.4412 1.51145   2
   2  -2  -6 33.2646 1.62480   2
   2  -2  -6 28.5393 1.01362   1
   2  -2  -6 27.5170 1.27795   1
   2  -2  -6 29.8267 1.15508   1
   2  -2  -6 28.7494 1.26913   1
  -2   2   6 28.0268 0.95898   1
  -2   2   6 31.7637 1.10394   2
   1  -2  -6 1.66444 0.28133   1
   1  -2  -6 1.57209 0.32742   1
   1  -2  -6 1.79944 0.38348   1
   1  -2  -6 1.67822 0.32970   1
   1  -2  -6 1.73582 0.31548   2
   1  -2  -6 1.39948 0.41132   2
   1  -2  -6 2.14380 0.47201   2
   1  -2  -6 1.54609 0.37325   2
   1  -2  -6 2.30870 0.41147   2
  -1   2  -7 190.311 4.86815  -2
   1  -2  -6 190.311 4.86815   1
  -1   2   6 1.35062 0.23914   2
   0  -2  -6 42.1772 1.77473   2
   0  -2  -6 40.9771 1.85976   2
   0  -2  -6 42.0731 1.57547   2
   0  -2  -6 36.6477 1.45929   1
   0  -2  -6 36.2357 1.30837   1
   0  -2  -6 33.6261 1.32887   1
   0   2   6 38.9690 1.33007   2
   1   2  -8 155.674 4.81968  -2
  -1  -2  -6 155.674 4.81968   1
  -2  -2  -6 59.2279 2.36260   2
  -2  -2  -6 57.6699 2.47357   2
  -2  -2  -6 57.9948 1.57934   2
  -2  -2  -6 62.2479 2.13476   2
  -2  -2  -6 58.2655 1.46767   2
  -2  -2  -6 58.7518 1.58025   2
  -2  -2  -6 60.1601 1.36175   2
  -2  -2  -6 59.0492 1.55562   2
  -2  -2  -6 60.7206 1.79627   2
  -2  -2  -6 59.9014 1.49835   2
  -2  -2  -6 52.1057 1.33728   1
   2   2   6 63.1024 1.93243   2
   2   2   6 60.3184 1.39296   2
   3   2  -9 13.3545 0.53433  -2
  -3  -2  -6 13.3545 0.53433   1
   3   2  -9 14.0749 0.36547  -2
  -3  -2  -6 14.0749 0.36547   1
   3   2  -9 13.9577 0.57429  -2
  -3  -2  -6 13.9577 0.57429   1
  -4  -2  -6 16.4065 0.41808   1
  -4  -2  -6 16.4025 0.61105   1
  -4  -2  -6 16.4502 0.56429   1
  -4  -2  -6 18.4971 0.65789   2
  -4  -2  -6 17.8170 0.74500   2
   4   2   6 18.5770 0.63155   2
  -5  -2  -6 12.2441 0.30850   1
  -5  -2  -6 13.7787 0.42444   1
  -5  -2  -6 12.8150 0.46277   1
   5   2   6 14.6249 0.47212   2
   7  -3  -6 0.18033 0.08272   2
   7  -3  -6 0.24914 0.09538   2
   7  -3  -6 0.24044 0.12170   1
  -7   3   6 0.21426 0.08742   1
   6  -3  -6 11.1662 0.46102   2
   6  -3  -6 11.6725 0.49474   2
   6  -3  -6 11.5277 0.48394   2
   6  -3  -6 12.0805 0.46393   2
  -6   3  -5 12.1983 0.63940  -2
   6  -3  -6 12.1983 0.63940   1
   6  -3  -6 10.7281 0.54125   1
   6  -3  -6 10.1308 0.41833   1
   5  -3  -6 0.98674 0.17302   2
   5  -3  -6 0.86751 0.18272   2
   5  -3  -6 1.17184 0.20312   2
   5  -3  -6 1.06219 0.15117   2
   5  -3  -6 1.28433 0.20572   2
   5  -3  -6 1.04124 0.23407   1
   5  -3  -6 1.09716 0.17846   1
   5  -3  -6 0.99008 0.17435   1
   5  -3  -6 0.90492 0.16207   1
   5  -3  -6 1.16277 0.19589   1
   5  -3  -6 1.42813 0.37341   1
   5  -3  -6 1.10649 0.23162   1
  -5   3   6 1.14998 0.41602   2
  -5   3   6 1.26182 0.26099   2
  -5   3   6 1.06661 0.22868   1
  -4   3  -6 91.3909 2.28422  -2
   4  -3  -6 91.3909 2.28422   1
  -4   3  -6 88.6109 2.09803  -2
   4  -3  -6 88.6109 2.09803   1
  -4   3  -6 93.6492 2.11843  -2
   4  -3  -6 93.6492 2.11843   1
  -4   3  -6 94.2791 2.90998  -2
   4  -3  -6 94.2791 2.90998   1
  -4   3  -6 90.3472 2.29256  -2
   4  -3  -6 90.3472 2.29256   1
  -4   3  -6 93.7104 2.61551  -2
   4  -3  -6 93.7104 2.61551   1
  -4   3  -6 92.0654 2.24374  -2
   4  -3  -6 92.0654 2.24374   1
  -4   3  -6 88.0279 3.20094  -2
   4  -3  -6 88.0279 3.20094   1
   4  -3   6 90.2618 2.73691  -2
  -4   3   6 90.2618 2.73691   1
   3  -3  -6 2.73950 0.25988   2
   3  -3  -6 2.16960 0.49788   2
   3  -3  -6 2.41768 0.19315   2
   3  -3  -6 2.24598 0.22888   2
   3  -3  -6 2.71061 0.29072   2
   3  -3  -6 2.78463 0.28625   2
   3  -3  -6 2.15685 0.30433   1
   3  -3  -6 2.69387 0.39609   1
   3  -3  -6 2.11386 0.14851   1
   3  -3  -6 2.02462 0.24554   1
   3  -3  -6 2.23526 0.18040   1
   3  -3  -6 2.52467 0.26793   1
   3  -3  -6 2.31891 0.42164   1
   3  -3  -6 2.41187 0.16237   1
   3  -3  -6 2.11969 0.22779   1
  -3   3   6 2.30517 0.31234   2
  -3   3   6 3.55987 0.61123   2
  -2   3  -7 890.498 18.7831  -2
   2  -3  -6 890.498 18.7831   1
  -2   3  -7 927.824 19.1346  -2
   2  -3  -6 927.824 19.1346   1
  -2   3  -7 858.655 18.9749  -2
   2  -3  -6 858.655 18.9749   1
  -2   3  -7 890.659 24.1463  -2
   2  -3  -6 890.659 24.1463   1
  -2   3  -7 859.998 16.7005  -2
   2  -3  -6 859.998 16.7005   1
  -2   3  -7 865.220 18.2899  -2
   2  -3  -6 865.220 18.2899   1
  -2   3  -7 1000.48 21.8059  -2
   2  -3  -6 1000.48 21.8059   1
  -2   3  -7 911.973 22.4442  -2
   2  -3  -6 911.973 22.4442   1
  -2   3  -7 863.587 17.9002  -2
   2  -3  -6 863.587 17.9002   1
   2  -3   7 923.948 20.5561  -2
  -2   3   6 923.948 20.5561   1
   1  -3  -6 11.9488 0.88748   2
   1  -3  -6 10.3408 0.43953   2
   1  -3  -6 11.1245 0.39435   2
   1  -3  -6 11.2057 0.49601   2
   1  -3  -6 11.8685 0.52499   2
   1  -3  -6 11.2546 0.92944   2
   1  -3  -6 11.6913 0.75978   2
   1  -3  -6 10.8847 0.54345   1
   1  -3  -6 10.1342 0.45111   1
   1  -3  -6 10.2246 0.29847   1
   1  -3  -6 10.0776 0.44416   1
   1  -3  -6 10.8231 0.47745   1
   1  -3  -6 10.3235 0.63943   1
   1  -3  -6 10.1016 0.28398   1
   1  -3  -6 10.4897 0.72147   1
  -1   3   6 11.5500 0.59978   2
  -1   3   6 10.9068 0.63909   2
   0   3  -8 2140.52 52.4569  -2
   0  -3  -6 2140.52 52.4569   1
  -1  -3  -6 6.26116 0.74711   2
  -1  -3  -6 6.67141 0.59566   2
  -1  -3  -6 6.02105 0.66882   2
  -1  -3  -6 6.26550 0.38685   2
  -1  -3  -6 6.02783 0.29596   2
  -1  -3  -6 6.19474 0.37997   2
  -1  -3  -6 6.14950 0.37811   2
   1   3   6 6.42460 0.30351   2
   1   3   6 6.12995 0.45387   2
  -2  -3  -6 4.60385 0.32908   2
  -2  -3  -6 3.84923 0.30801   2
   2   3   6 3.30539 0.23458   2
   2   3   6 3.50040 0.36065   2
  -3  -3  -6 28.9690 1.02406   2
  -3  -3  -6 29.9433 0.91662   2
  -3  -3  -6 26.1191 0.63812   1
   3   3   6 28.7267 1.05017   2
   3   3   6 29.7447 0.88157   2
  -4  -3  -6 30.3063 0.60160   1
  -4  -3  -6 29.3974 0.83097   1
  -4  -3  -6 34.1585 0.95365   2
   4   3   6 34.4365 0.91911   2
   7  -4   5 26.6022 0.68035  -2
  -7   4   6 26.6022 0.68035   1
   6  -4  -6 15.0858 0.52546   1
   6  -4  -6 15.8250 0.52781   1
   6  -4  -6 15.1143 0.62961   1
   6  -4  -6 17.2165 0.59346   2
   6  -4  -6 19.1008 0.61173   2
   6  -4  -6 17.2235 0.56858   2
  -5   4  -6 7.10126 0.34997  -2
   5  -4  -6 7.10126 0.34997   1
  -5   4  -6 7.15093 0.40258  -2
   5  -4  -6 7.15093 0.40258   1
  -5   4  -6 7.91437 0.52725  -2
   5  -4  -6 7.91437 0.52725   1
  -5   4  -6 6.74363 0.37727  -2
   5  -4  -6 6.74363 0.37727   1
  -5   4  -6 7.36246 0.42263  -2
   5  -4  -6 7.36246 0.42263   1
  -5   4  -6 6.71216 0.39267  -2
   5  -4  -6 6.71216 0.39267   1
  -5   4  -6 7.04764 0.45347  -2
   5  -4  -6 7.04764 0.45347   1
   5  -4   6 6.66399 0.49812  -2
  -5   4   6 6.66399 0.49812   1
   4  -4  -6 264.609 5.09056   2
   4  -4  -6 259.415 5.52864   2
   4  -4  -6 261.466 5.48730   2
   4  -4  -6 263.485 5.66279   2
   4  -4  -6 258.713 5.81879   2
   4  -4  -6 240.376 5.99497   1
   4  -4  -6 232.088 4.92851   1
   4  -4  -6 235.280 5.78368   1
   4  -4  -6 234.770 4.87569   1
   4  -4  -6 242.515 5.14251   1
   4  -4  -6 209.650 6.73837   1
   4  -4  -6 234.050 6.25739   1
   4  -4  -6 235.254 5.17746   1
   4  -4  -6 239.705 5.24487   1
  -4   4   6 272.296 6.90110   2
  -4   4   6 250.041 7.79054   2
  -4   4   6 234.188 6.23154   1
   3  -4  -6 51.6296 1.37531   1
   3  -4  -6 51.0692 1.21636   1
   3  -4  -6 50.0904 1.79194   1
   3  -4  -6 50.6276 1.41198   1
   3  -4  -6 52.7295 1.12685   1
   3  -4  -6 51.5743 1.37613   1
   3  -4  -6 51.3219 1.22194   1
   3  -4  -6 57.6919 1.30029   2
   3  -4  -6 57.2910 1.42461   2
   3  -4  -6 57.0872 1.44548   2
   3  -4  -6 55.4619 1.49062   2
  -3   4  -7 59.4488 2.30688  -2
   3  -4  -6 59.4488 2.30688   1
  -3   4  -7 64.5681 1.92767  -2
   3  -4  -6 64.5681 1.92767   1
  -3   4   6 54.0387 2.28579   2
   2  -4  -6 486.977 14.7457   2
   2  -4  -6 517.703 9.56717   2
   2  -4  -6 520.231 10.4227   2
   2  -4  -6 505.088 10.2808   2
   2  -4  -6 499.555 10.8594   2
   2  -4  -6 459.754 9.86099   1
   2  -4  -6 469.016 9.51949   1
   2  -4  -6 470.669 11.4593   1
   2  -4  -6 462.612 9.31501   1
   2  -4  -6 456.311 9.93982   1
   2  -4  -6 470.800 11.8692   1
   2  -4  -6 461.143 8.69090   1
  -2   4   6 485.197 14.0519   2
  -2   4   6 506.349 10.4717   2
  -2   4   6 515.485 12.8773   2
   1  -4  -6 2.85081 0.12003   1
   1  -4  -6 2.95893 0.42215   1
   1  -4  -6 2.79221 0.13482   1
   1  -4  -6 3.37534 0.33412   1
   1  -4  -6 2.59215 0.23842   1
   1  -4  -6 2.96081 0.14598   1
   1  -4  -6 2.98806 0.26344   1
   1  -4  -6 2.91956 0.25719   2
   1  -4  -6 2.70454 0.54559   2
   1  -4  -6 2.70233 0.22241   2
   1  -4  -6 2.87015 0.29894   2
   1  -4  -6 3.07062 0.48871   2
   1  -4  -6 3.11596 0.30254   2
  -1   4   6 3.22473 0.33082   2
  -1   4   6 3.11524 0.56003   2
   0  -4  -6 26.4133 0.85615   2
   0  -4  -6 26.1541 0.83197   2
   0  -4  -6 29.1115 1.28622   2
   0  -4  -6 26.7226 0.87365   2
   0  -4  -6 24.4851 0.80829   1
   0   4   6 27.4366 1.04882   2
   0   4   6 26.6706 0.73012   2
  -1  -4  -6 11.6063 0.52014   2
  -1  -4  -6 11.5273 0.51017   2
  -1  -4  -6 12.0556 0.79287   2
   1   4   6 11.1799 0.60425   2
   1   4   6 11.8510 0.41054   2
  -2  -4  -6 59.7792 1.51070   2
  -2  -4  -6 57.1122 2.02106   2
  -2  -4  -6 59.0836 1.52863   2
   2   4   6 57.0954 1.77242   2
  -3  -4  -6 2.44820 0.22566   2
   3   4   6 1.94209 0.20825   2
   6  -5  -6 850.963 17.6375   2
   6  -5  -6 837.798 16.7647   2
   6  -5  -6 750.343 14.9743   1
   6  -5  -6 753.085 17.3662   1
  -6   5   6 826.338 16.2558   2
  -6   5   6 846.547 17.0990   2
  -6   5   6 746.292 15.7774   1
   5  -5  -6 34.0017 0.91203   1
   5  -5  -6 33.7398 0.97228   1
   5  -5  -6 33.8460 0.87722   1
   5  -5  -6 34.7129 0.85852   1
   5  -5  -6 34.9786 0.94419   1
   5  -5  -6 33.9343 1.08223   1
   5  -5  -6 31.6802 1.10686   1
   5  -5  -6 39.1125 1.02561   2
   5  -5  -6 39.6070 1.09875   2
  -5   5   6 38.6803 1.03201   2
   4  -5  -6 686.683 16.0006   1
   4  -5  -6 667.949 16.6263   1
   4  -5  -6 670.511 13.7130   1
   4  -5  -6 667.380 17.1262   1
   4  -5  -6 700.713 14.5010   1
   4  -5  -6 697.416 14.3439   1
   4  -5  -6 694.259 16.0427   1
   4  -5  -6 693.110 14.0054   1
   4  -5  -6 747.078 14.8179   2
   4  -5  -6 767.588 15.6343   2
  -4   5   6 771.714 15.1218   2
  -4   5   6 656.458 18.5699   2
   3  -5  -6 0.31314 0.08115   1
   3  -5  -6 1.27924 0.24502   1
   3  -5  -6 0.32542 0.11166   1
   3  -5  -6 0.28429 0.18945   1
   3  -5  -6 0.41665 0.10158   1
   3  -5  -6 0.36660 0.09047   1
   3  -5  -6 0.27559 0.14686   2
   3  -5  -6 0.90478 0.31565   2
   3  -5  -6 0.38927 0.13149   2
  -3   5  -8 2.68358 0.33075  -2
   3  -5  -6 2.68358 0.33075   1
  -3   5  -8 2.65164 0.42297  -2
   3  -5  -6 2.65164 0.42297   1
  -3   5   6 0.39165 0.16148   2
  -3   5   6 0.57997 0.15660   2
   2  -5  -6 2.37277 0.42010   2
   2  -5  -6 1.86155 0.21575   2
   2  -5  -6 1.96684 0.25189   2
   2  -5  -6 2.15121 0.36850   1
   2  -5  -6 2.59896 0.31229   1
   2  -5  -6 2.27384 0.21140   1
   2  -5  -6 2.10409 0.13348   1
   2  -5  -6 2.47468 0.14867   1
  -2   5   6 2.40842 0.18871   2
  -2   5   6 2.22806 0.22914   2
  -2   5   6 2.49620 0.28932   2
  -1   5  -9 0.41755 0.19451  -2
   1  -5  -6 0.41755 0.19451   1
  -1   5  -9 0.52731 0.28936  -2
   1  -5  -6 0.52731 0.28936   1
  -1   5  -9 0.37293 0.09649  -2
   1  -5  -6 0.37293 0.09649   1
   0  -5  -6 41.1139 1.62237   2
   0  -5  -6 43.3400 1.15252   2
   0  -5  -6 36.1264 1.21568   1
   0   5   6 39.5552 1.35377   2
   0   5   6 41.3048 0.98169   2
  -2  -5  -6 2.57784 0.22426   2
   2   5   6 2.21484 0.21859   2
  -3  -5  -6 11.2447 0.39718   2
   3   5   6 11.7028 0.37730   2
   5  -6  -6 0.47085 0.09604   1
   5  -6  -6 0.39927 0.08076   1
   5  -6  -6 0.26967 0.12437   1
   5  -6  -6 0.32487 0.08180   1
   5  -6  -6 0.44128 0.11562   2
  -5   6   6 0.24901 0.09242   2
  -4   6  -8 15.1727 0.60668  -2
   4  -6  -6 15.1727 0.60668   1
  -4   6  -8 18.0278 0.57460  -2
   4  -6  -6 18.0278 0.57460   1
  -4   6  -8 16.7980 0.55818  -2
   4  -6  -6 16.7980 0.55818   1
  -4   6  -8 17.8649 0.50078  -2
   4  -6  -6 17.8649 0.50078   1
  -4   6  -8 15.1277 0.45121  -2
   4  -6  -6 15.1277 0.45121   1
  -4   6  -8 16.7105 0.56525  -2
   4  -6  -6 16.7105 0.56525   1
   3  -6  -6 0.76211 0.18406   1
   3  -6  -6 0.77639 0.11313   1
   3  -6  -6 0.72768 0.12790   1
   3  -6  -6 0.71849 0.14270   1
   3  -6  -6 0.68334 0.17908   1
   3  -6  -6 0.68161 0.08321   1
   3  -6  -6 0.70069 0.09472   1
   3  -6  -6 0.92658 0.16297   2
  -3   6   6 1.00331 0.11511   2
  -3   6   6 0.72491 0.14387   2
  -2   6  -9 12.3580 0.50026  -2
   2  -6  -6 12.3580 0.50026   1
  -2   6  -9 11.7223 0.36578  -2
   2  -6  -6 11.7223 0.36578   1
  -2   6  -9 12.4322 0.42196  -2
   2  -6  -6 12.4322 0.42196   1
  -2   6  -9 10.9794 0.58134  -2
   2  -6  -6 10.9794 0.58134   1
   1  -6  -6 40.7510 1.30939   1
   1  -6  -6 43.4074 1.11495   1
   1  -6  -6 43.0577 0.96265   1
   1  -6  -6 42.5825 1.09849   1
  -1   6   6 47.3478 1.04708   2
  -1  -6  -6 2.74877 0.20632   2
   1   6   6 3.29218 0.21061   2
  -2  -6  -6 1.05746 0.12345   2
   2   6   6 1.17784 0.11543   2
   4  -7  -6 0.76443 0.10245   1
   4  -7  -6 0.73987 0.08263   1
   4  -7  -6 0.70155 0.11564   2
  -4   7   6 0.68594 0.09757   2
  -4   7   6 0.73499 0.10456   2
   3  -7  -6 18.6230 0.54551   2
   3  -7  -6 16.9071 0.45085   1
   3  -7  -6 17.3484 0.51546   1
  -3   7   6 17.8166 0.51831   2
  -3   7   6 19.1612 0.52539   2
   2  -7  -6 0.04126 0.04338   1
   2  -7  -6 0.08709 0.07174   1
  -2   7   6 0.05940 0.07652   2
   1  -7  -6 50.6857 1.19108   1
   1  -7  -6 50.1565 1.08264   1
  -1   7   6 52.4073 1.21035   2
   0   7   6 3.54229 0.17802   2
   0  10  -7 138.537 2.84936   1
  -1  10  -7 104.607 2.60869   2
  -1  10  -7 100.846 2.26288   2
   1 -10   7 88.4480 1.94532   1
   2   9  -7 131.511 2.90799   1
   2   9  -7 134.358 2.80615   1
   2   9  -7 155.308 3.25089   2
   2   9  -7 153.036 3.74138   2
   2   9  -7 154.344 3.28617   2
  -2  -9   7 129.950 2.82777   1
   1   9  -7 22.7770 0.51096   2
   1   9  -7 23.3480 0.77334   2
   1   9  -7 22.2775 0.64152   2
   1   9  -7 22.3208 0.66285   2
   1   9  -7 23.4241 0.61516   2
   1   9  -7 22.9266 0.69721   2
   1   9  -7 22.3939 0.79633   2
   1   9  -7 20.3364 0.56450   1
   1   9  -7 19.4176 0.61753   1
  -1  -9   7 19.3472 0.61030   1
   0   9  -7 17.2202 0.41854   2
   0   9  -7 17.2629 0.63547   2
   0   9  -7 16.5445 0.56882   2
   0   9  -7 16.4461 0.48941   2
   0   9  -7 15.4592 0.54927   2
   0   9  -7 16.1673 0.64567   2
   0   9  -7 14.0886 0.51039   1
   0   9  -7 14.5226 0.45102   1
   0  -9   7 14.2574 0.51764   1
  -1   9  -7 5.77012 0.34930   2
  -1   9  -7 5.23890 0.27635   2
  -1   9  -7 5.15022 0.29953   2
  -1   9  -7 5.77549 0.20401   2
  -1   9  -7 5.53415 0.25021   2
  -1   9  -7 5.67676 0.33797   2
  -1   9  -7 4.62330 0.26184   1
  -1   9  -7 4.78964 0.22251   1
   1  -9   7 4.69886 0.29633   1
  -2   9  -7 2.12717 0.10972   1
  -2   9  -7 2.41664 0.13140   2
  -2   9  -7 2.23915 0.22187   2
  -2   9  -7 2.36593 0.15728   2
  -2   9  -7 1.82280 0.19661   2
  -2   9  -7 2.04806 0.17441   2
  -2   9  -7 2.21507 0.23030   2
   2  -9   7 1.71999 0.19136   1
  -3   9  -7 4.43688 0.26515   2
  -3   9  -7 4.20128 0.19447   2
  -3   9  -7 4.22450 0.24049   2
  -3   9  -7 4.49250 0.16569   2
   3  -9   7 3.75545 0.23501   1
   4   8  -7 15.4493 0.43577   2
   4   8  -7 15.6457 0.51990   2
   4   8  -7 15.7922 0.45584   2
   4   8  -7 13.1419 0.37254   1
   3   8  -7 0.21823 0.04713   2
   3   8  -7 0.07563 0.09308   2
   3   8  -7 0.67036 0.11549   2
   3   8  -7 0.31908 0.07832   2
   3   8  -7 0.10641 0.08979   2
   3   8  -7 0.32260 0.13179   2
   3   8  -7 0.21068 0.09334   1
   3   8  -7 0.11926 0.09258   1
   2   8  -7 2.32944 0.22298   2
   2   8  -7 2.41705 0.16558   2
   2   8  -7 2.55589 0.26527   2
   2   8  -7 2.19736 0.18386   2
   2   8  -7 2.25491 0.12927   2
   2   8  -7 2.57383 0.26833   2
   2   8  -7 1.97944 0.21912   1
   2   8  -7 2.12436 0.19371   1
  -2  -8   7 2.33570 0.23027   1
  -2  -8   7 2.12671 0.30166   2
  -1  -8  -1 16.1313 0.55765  -2
   1   8  -7 16.1313 0.55765   1
  -1  -8  -1 16.2629 0.62892  -2
   1   8  -7 16.2629 0.62892   1
   1   8   1 16.5131 0.62031  -2
  -1  -8   7 16.5131 0.62031   1
   0   8  -7 0.68628 0.16183   2
   0   8  -7 0.56952 0.12482   2
   0   8  -7 0.53201 0.08473   2
   0   8  -7 0.73232 0.18472   2
   0   8  -7 0.63929 0.17075   2
   0   8  -7 0.60944 0.11261   2
   0   8  -7 0.76612 0.21573   2
   0   8  -7 0.54299 0.11923   1
   0   8  -7 0.42153 0.14630   1
   0  -8   7 0.77921 0.11514   1
   0  -8   7 0.49349 0.15565   1
   1  -8  -2 1.44190 0.17126  -2
  -1   8  -7 1.44190 0.17126   1
   1  -8  -2 1.38900 0.21119  -2
  -1   8  -7 1.38900 0.21119   1
  -1   8   2 1.38995 0.16265  -2
   1  -8   7 1.38995 0.16265   1
  -1   8   2 1.45233 0.23786  -2
   1  -8   7 1.45233 0.23786   1
  -2   8  -7 2.95881 0.30950   2
  -2   8  -7 2.84128 0.19566   2
  -2   8  -7 2.90937 0.21949   2
  -2   8  -7 2.74449 0.17686   2
  -2   8  -7 2.92345 0.28526   2
  -2   8  -7 2.88882 0.26472   2
  -2   8  -7 2.92970 0.29233   2
  -2   8  -7 2.73697 0.17194   1
   2  -8   7 3.00651 0.29210   1
  -3   8   3 69.7680 1.59263  -2
   3  -8   7 69.7680 1.59263   1
  -3   8   3 66.9077 1.66214  -2
   3  -8   7 66.9077 1.66214   1
  -4   8  -7 0.07336 0.06520   2
  -4   8  -7 0.04623 0.08082   2
  -4   8  -7 0.13716 0.06418   2
  -4   8  -7 0.14371 0.09882   2
  -4   8  -7 0.07270 0.07875   1
   4  -8   7 0.04178 0.09748   1
   4  -8   7 0.08575 0.08558   1
   5   7  -7 0.50284 0.09130   2
   5   7  -7 0.45265 0.10273   2
   5   7  -7 0.22026 0.06663   1
  -4  -7   0 17.1801 0.54295  -2
   4   7  -7 17.1801 0.54295   1
  -4  -7   0 16.9309 0.52350  -2
   4   7  -7 16.9309 0.52350   1
   3   7  -7 23.7422 0.76618   2
   3   7  -7 24.8020 0.68157   2
   3   7  -7 25.4088 0.92897   2
   3   7  -7 24.2969 0.88693   2
   3   7  -7 24.3984 0.77614   2
   3   7  -7 21.2834 0.65904   1
   3   7  -7 20.8365 0.70358   1
   3   7  -7 20.6237 0.84644   1
  -2  -7  -1 56.1270 1.50713  -2
   2   7  -7 56.1270 1.50713   1
  -2  -7  -1 56.4074 1.73192  -2
   2   7  -7 56.4074 1.73192   1
  -2  -7  -1 54.8887 1.41376  -2
   2   7  -7 54.8887 1.41376   1
   2   7   1 57.5687 1.30704  -2
  -2  -7   7 57.5687 1.30704   1
   1   7  -7 1.85164 0.26945   2
   1   7  -7 1.89028 0.18011   2
   1   7  -7 2.08944 0.23209   2
   1   7  -7 2.11630 0.14116   2
   1   7  -7 2.57291 0.17594   2
   1   7  -7 1.89503 0.24347   2
   1   7  -7 1.99832 0.27963   2
   1   7  -7 1.84916 0.30174   2
   1   7  -7 1.28459 0.20815   1
   1   7  -7 1.49132 0.18349   1
  -1  -7   7 1.64243 0.23569   1
  -1  -7   7 2.19864 0.20257   1
   0  -7  -2 6.25427 0.42048  -2
   0   7  -7 6.25427 0.42048   1
   0  -7  -2 6.64058 0.68821  -2
   0   7  -7 6.64058 0.68821   1
   0   7  -7 0.45697 0.11307   2
   0   7  -7 0.44071 0.09635   2
   0   7  -7 0.39539 0.15549   2
   0   7  -7 0.26553 0.11051   1
   0   7   2 6.77826 0.43694  -2
   0  -7   7 6.77826 0.43694   1
  -1   7  -7 105.814 2.90896   2
  -1   7  -7 106.764 2.94792   2
  -1   7  -7 104.183 2.79498   2
  -1   7  -7 105.240 2.24766   2
  -1   7  -7 100.866 2.52573   2
  -1   7  -7 104.733 2.33319   2
  -1   7  -7 107.321 2.67070   2
  -1   7  -7 95.2103 3.02868   1
  -1   7  -7 96.3877 2.17591   1
   1  -7   7 98.0019 2.33174   1
   1  -7   7 95.3232 2.26879   1
   1  -7   7 105.041 3.24869   2
  -2   7  -7 0.38840 0.09363   1
  -2   7  -7 0.56204 0.27093   1
  -2   7  -7 0.49748 0.10103   2
  -2   7  -7 0.34410 0.14600   2
  -2   7  -7 0.53224 0.19608   2
  -2   7  -7 0.62835 0.17036   2
  -2   7  -7 0.37694 0.11528   2
  -2   7  -7 0.50838 0.17075   2
  -2   7  -7 0.45141 0.10313   2
   2  -7   7 0.60889 0.25946   2
   2  -7   7 0.60613 0.16982   1
   2  -7   7 0.37271 0.15945   1
  -3   7  -7 221.365 5.43367   2
  -3   7  -7 224.843 4.76387   2
  -3   7  -7 229.739 4.97656   2
  -3   7  -7 224.712 5.49935   2
  -3   7  -7 222.286 5.73665   2
  -3   7  -7 224.743 5.70823   2
  -3   7  -7 226.569 4.63870   2
  -3   7  -7 196.802 4.43391   1
  -3   7  -7 203.147 5.53262   1
   3  -7   7 222.883 6.16336   2
   3  -7   7 201.352 4.39429   1
   3  -7   7 199.750 4.37534   1
  -4   7  -7 11.0771 0.50580   2
  -4   7  -7 11.3965 0.50354   2
  -4   7  -7 11.3042 0.38236   2
  -4   7  -7 11.6111 0.40306   2
  -4   7  -7 10.9167 0.45789   2
  -4   7  -7 11.3637 0.45647   2
  -4   7  -7 10.2454 0.41453   1
   4  -7   7 10.1210 0.44571   1
   4  -7   7 9.93448 0.43387   1
   4  -7   7 11.2391 0.45149   2
  -5   7  -7 90.1503 2.27969   2
  -5   7  -7 90.5267 1.92810   2
  -5   7  -7 90.9208 2.04847   2
  -5   7  -7 81.2847 1.83506   1
   5  -7   7 92.5311 2.08083   2
   5  -7   7 79.3918 1.79046   1
   5  -7   7 78.9894 1.81156   1
   4   6  -7 4.46593 0.29370   1
   4   6  -7 4.46659 0.27451   1
   4   6  -7 4.54887 0.38766   1
   4   6  -7 4.78820 0.32737   2
   4   6  -7 5.47785 0.28749   2
   4   6  -7 5.70463 0.38148   2
   4   6  -7 4.84299 0.24458   2
   4   6  -7 4.84830 0.37825   2
   4   6  -7 5.24852 0.21944   2
   3   6  -7 2.22447 0.29602   2
   3   6  -7 1.11605 0.18632   2
   3   6  -7 1.21286 0.22253   2
   3   6  -7 1.29693 0.16841   2
   3   6  -7 1.24096 0.14484   2
   3   6  -7 1.09108 0.17282   1
   3   6  -7 1.00476 0.24560   1
   3   6  -7 1.01249 0.18971   1
  -3  -6   7 1.11981 0.13133   1
   2   6  -7 0.07748 0.11839   1
   2   6  -7 0.52334 0.13255   1
   2   6  -7 0.19454 0.17610   1
   2   6  -7 0.14033 0.07034   2
   2   6  -7 0.20544 0.11756   2
   2   6  -7 0.20134 0.13847   2
   2   6  -7 0.17919 0.08228   2
   2   6  -7 0.10375 0.15331   2
   2   6  -7 0.41032 0.07677   2
   2   6  -7 0.01568 0.12960   2
  -2  -6   7 0.03944 0.09166   1
   1   6  -7 72.6837 2.14527   2
   1   6  -7 73.3714 1.56761   2
   1   6  -7 71.4677 2.06376   2
   1   6  -7 74.2730 2.14608   2
   1   6  -7 75.8311 1.88331   2
   1   6  -7 71.6388 1.83804   2
   1   6  -7 72.5116 1.64523   2
   1   6  -7 64.7865 1.60313   1
   1   6  -7 68.2019 2.23729   1
  -1  -6   7 65.6967 1.65645   1
   0  -6  -3 50.6306 1.89070  -2
   0   6  -7 50.6306 1.89070   1
   0  -6  -3 48.4790 1.36243  -2
   0   6  -7 48.4790 1.36243   1
   0   6  -7 0.50978 0.15950   2
   0   6  -7 0.45938 0.15090   2
   0   6  -7 0.51542 0.09214   2
   0   6  -7 0.45311 0.07482   2
   0   6  -7 0.54780 0.10695   2
   0   6  -7 0.47735 0.16058   2
   0   6  -7 0.41415 0.11738   1
   0  -6   7 0.52274 0.19055   1
   0  -6   7 0.45117 0.17834   1
   0  -6   7 0.91494 0.11138   1
  -1   6  -7 144.344 3.74087   2
  -1   6  -7 144.202 3.57839   2
  -1   6  -7 146.339 3.14187   2
  -1   6  -7 150.351 3.92828   2
  -1   6  -7 142.914 3.39340   2
  -1   6  -7 147.547 3.88720   2
  -1   6  -7 145.161 3.04659   2
  -1   6  -7 134.992 2.91784   1
  -1   6  -7 135.370 3.98707   1
   1  -6   7 135.297 3.60285   1
   1  -6   7 130.631 3.07841   1
   1  -6   7 134.295 2.76859   1
   1  -6   7 147.635 4.30461   2
   2  -6  -4 8.31336 0.45226  -2
  -2   6  -7 8.31336 0.45226   1
   2  -6  -4 8.81171 0.71082  -2
  -2   6  -7 8.81171 0.71082   1
  -2   6  -7 2.41469 0.14906   1
  -2   6   4 8.29131 0.46915  -2
   2  -6   7 8.29131 0.46915   1
  -2   6   4 8.10685 0.48668  -2
   2  -6   7 8.10685 0.48668   1
  -2   6   4 8.55729 0.33206  -2
   2  -6   7 8.55729 0.33206   1
  -3   6  -7 8.93537 0.41720   2
  -3   6  -7 8.81265 0.45391   2
  -3   6  -7 9.45287 0.50545   2
  -3   6  -7 9.22840 0.54642   2
  -3   6  -7 8.96750 0.36801   2
  -3   6  -7 8.34027 0.45265   2
  -3   6  -7 9.21768 0.36539   2
  -3   6  -7 8.83776 0.49084   2
  -3   6  -7 8.14390 0.65302   1
  -3   6  -7 8.22175 0.41589   1
   3  -6   7 9.07616 0.72364   2
   3  -6   7 8.49527 0.47460   1
   3  -6   7 8.45121 0.31826   1
   3  -6   7 7.55605 0.45630   1
   4  -6  -5 271.419 6.37972  -2
  -4   6  -7 271.419 6.37972   1
  -4   6   5 311.791 6.23689  -2
   4  -6   7 311.791 6.23689   1
  -4   6   5 295.175 5.79577  -2
   4  -6   7 295.175 5.79577   1
  -5   6  -7 6.29981 0.30429   1
  -5   6  -7 6.82314 0.28035   2
  -5   6  -7 6.80096 0.31682   2
  -5   6  -7 7.01466 0.35453   2
  -5   6  -7 6.91003 0.28646   2
   5  -6   7 5.85460 0.32967   1
   6   5  -7 0.29885 0.07694   1
   6   5  -7 0.56272 0.05294   2
   6   5  -7 0.44770 0.08385   2
   6   5  -7 0.78591 0.11601   2
   6   5  -7 0.47050 0.07435   2
   6   5  -7 0.69168 0.13293   2
  -6  -5   7 0.35794 0.08715   1
   5   5  -7 0.35723 0.12448   2
   5   5  -7 0.34606 0.09067   2
   5   5  -7 0.31926 0.10602   2
   5   5  -7 0.40334 0.16891   2
   5   5  -7 0.30595 0.07808   2
   5   5  -7 0.26243 0.14765   2
   5   5  -7 0.37345 0.17142   1
   5   5  -7 0.34671 0.11437   1
  -5  -5   7 0.33127 0.11163   1
   4   5  -7 0.08999 0.07861   2
   4   5  -7 0.13701 0.12753   2
   4   5  -7 0.00294 0.13566   2
   4   5  -7 0.07333 0.06523   2
   4   5  -7 0.04134 0.11015   2
   4   5  -7 0.03639 0.06590   2
   4   5  -7 0.14609 0.10155   1
   4   5  -7 0.05489 0.10843   1
   4   5  -7 0.24222 0.17332   1
  -4  -5   7 0.09348 0.10352   1
  -4  -5   7 0.15408 0.08776   1
  -3  -5  -2 93.8099 2.31008  -2
   3   5  -7 93.8099 2.31008   1
  -3  -5  -2 94.2119 2.18377  -2
   3   5  -7 94.2119 2.18377   1
  -3  -5  -2 94.9287 2.68651  -2
   3   5  -7 94.9287 2.68651   1
   3   5   2 94.9002 2.18238  -2
  -3  -5   7 94.9002 2.18238   1
   3   5   2 90.7884 2.17640  -2
  -3  -5   7 90.7884 2.17640   1
   2   5  -7 0.90055 0.09002   2
   2   5  -7 0.75100 0.18529   2
   2   5  -7 0.83219 0.17180   2
   2   5  -7 0.89978 0.11100   2
   2   5  -7 0.74999 0.20715   2
   2   5  -7 0.88586 0.20212   2
   2   5  -7 0.79890 0.11481   2
   2   5  -7 0.72209 0.17320   1
   2   5  -7 0.57848 0.20080   1
   2   5  -7 0.77800 0.14139   1
   2   5  -7 0.73179 0.31853   1
  -2  -5   7 0.89262 0.17768   1
  -2  -5   7 1.01706 0.18069   1
  -1  -5  -3 35.2484 1.08445  -2
   1   5  -7 35.2484 1.08445   1
  -1  -5  -3 37.6199 1.47930  -2
   1   5  -7 37.6199 1.47930   1
  -1  -5  -3 38.4694 1.74692  -2
   1   5  -7 38.4694 1.74692   1
  -1  -5  -3 35.2703 0.96684  -2
   1   5  -7 35.2703 0.96684   1
   1   5   3 37.5431 0.88651  -2
  -1  -5   7 37.5431 0.88651   1
   1   5   3 37.9130 1.20824  -2
  -1  -5   7 37.9130 1.20824   1
   0   5  -7 -0.0563 0.06205   1
   0   5  -7 0.04035 0.12211   1
   0   5  -7 0.00718 0.21947   1
   0   5  -7 -0.0198 0.17835   1
   0   5  -7 0.10592 0.12064   2
   0   5  -7 0.08407 0.13769   2
   0   5  -7 0.19267 0.12540   2
   0   5  -7 0.07233 0.10735   2
   0   5  -7 0.06725 0.04794   2
   0   5  -7 -0.0224 0.18872   2
   0  -5   7 0.09270 0.12657   1
   0  -5   7 0.05367 0.08667   1
  -1   5  -7 27.3055 0.70542   1
   1  -5  -4 35.6157 1.45461  -2
  -1   5  -7 35.6157 1.45461   1
   1  -5  -4 28.7577 1.51599  -2
  -1   5  -7 28.7577 1.51599   1
   1  -5  -4 31.8846 0.98472  -2
  -1   5  -7 31.8846 0.98472   1
  -1   5   4 32.5228 0.98374  -2
   1  -5   7 32.5228 0.98374   1
  -1   5   4 34.1303 0.85434  -2
   1  -5   7 34.1303 0.85434   1
  -1   5   4 34.3689 1.20099  -2
   1  -5   7 34.3689 1.20099   1
  -2   5  -7 0.11822 0.12747   2
  -2   5  -7 0.29901 0.14754   2
  -2   5  -7 0.02749 0.07357   2
  -2   5  -7 0.06843 0.07311   2
  -2   5  -7 0.22906 0.15058   2
  -2   5  -7 0.33299 0.25326   2
  -2   5  -7 0.57772 0.17284   2
  -2   5  -7 0.10190 0.15980   2
  -2   5  -7 0.32301 0.24335   1
  -2   5  -7 0.23935 0.12642   1
   2  -5   7 0.18603 0.15738   1
   2  -5   7 -0.0046 0.14483   1
  -3   5  -7 11.0380 0.51855   2
  -3   5  -7 10.7862 0.76050   2
  -3   5  -7 10.3682 0.40283   2
  -3   5  -7 10.6662 0.54065   2
  -3   5  -7 9.89810 0.39318   2
  -3   5  -7 10.0448 0.44971   2
   3  -5  -5 10.5056 0.78991  -2
  -3   5  -7 10.5056 0.78991   1
   3  -5  -5 9.64431 0.51206  -2
  -3   5  -7 9.64431 0.51206   1
   3  -5   7 8.26823 0.71470   1
   3  -5   7 8.71329 0.54714   1
  -3   5   5 9.80590 0.55747  -2
   3  -5   7 9.80590 0.55747   1
  -4   5  -7 13.5152 0.59039   2
  -4   5  -7 15.2261 0.68648   2
  -4   5  -7 14.2646 0.49362   2
  -4   5  -7 14.5850 0.62000   2
  -4   5  -7 13.5942 0.85282   2
  -4   5  -7 13.9520 0.56130   2
  -4   5  -7 14.0595 0.58210   2
  -4   5  -7 13.8513 0.49580   2
  -4   5  -7 12.9242 0.50885   1
  -4   5  -7 12.9973 0.53317   1
   4  -5   7 12.5552 0.71333   2
   4  -5   7 13.6474 0.57632   1
   4  -5   7 12.0124 0.63441   1
  -5   5  -7 2.80337 0.20443   2
  -5   5  -7 2.82936 0.25647   2
  -5   5  -7 2.60225 0.24384   2
  -5   5  -7 3.10689 0.23617   2
  -5   5  -7 2.94998 0.20354   2
  -5   5  -7 3.18493 0.24669   2
  -5   5  -7 2.90188 0.23442   1
  -5   5  -7 2.69865 0.21593   1
   5  -5   7 3.89214 0.29013   1
  -6   5  -7 44.7083 1.06534   1
  -6   5  -7 44.8999 1.04005   1
  -6   5  -7 51.8075 1.15025   2
   6  -5   7 52.0483 1.23943   2
   6  -5   7 44.9743 1.07082   1
  -6  -4  -1 10.0542 0.33614  -2
   6   4  -7 10.0542 0.33614   1
   6   4   1 9.53367 0.38920  -2
  -6  -4   7 9.53367 0.38920   1
   5   4  -7 28.4551 1.06386   2
   5   4  -7 28.6157 0.78542   2
   5   4  -7 29.1877 0.90129   2
   5   4  -7 29.2960 0.74045   2
   5   4  -7 28.8069 0.89781   2
   5   4  -7 29.8757 0.85517   2
   5   4  -7 29.0333 1.00958   2
   5   4  -7 25.9417 0.75801   1
   5   4  -7 25.7060 0.98250   1
  -5  -4   7 25.4836 0.77160   1
  -5  -4   7 25.3420 0.68476   1
  -4  -4  -2 46.5202 1.50576  -2
   4   4  -7 46.5202 1.50576   1
  -4  -4  -2 46.4362 1.18730  -2
   4   4  -7 46.4362 1.18730   1
  -4  -4  -2 44.4434 1.26134  -2
   4   4  -7 44.4434 1.26134   1
   4   4   2 44.0213 1.18102  -2
  -4  -4   7 44.0213 1.18102   1
   4   4   2 43.9055 1.21989  -2
  -4  -4   7 43.9055 1.21989   1
   3   4  -7 0.33569 0.08698   2
   3   4  -7 0.27904 0.06947   2
   3   4  -7 0.40640 0.14371   2
   3   4  -7 0.67710 0.19120   2
   3   4  -7 0.41836 0.16245   2
   3   4  -7 0.46709 0.08377   2
   3   4  -7 0.04622 0.23967   1
   3   4  -7 0.23037 0.18088   1
   3   4  -7 0.18226 0.13686   1
   3   4  -7 0.28774 0.11370   1
  -3  -4   7 0.43940 0.14928   1
  -3  -4   7 0.24659 0.12774   1
  -2  -4  -3 5.22387 0.69480  -2
   2   4  -7 5.22387 0.69480   1
  -2  -4  -3 4.89055 0.37545  -2
   2   4  -7 4.89055 0.37545   1
  -2  -4  -3 4.86741 0.44193  -2
   2   4  -7 4.86741 0.44193   1
   2   4  -7 3.35928 0.13074   2
   2   4  -7 2.82833 0.21795   1
   2   4  -7 3.11828 0.25960   1
   2   4  -7 2.96256 0.39790   1
  -2  -4   7 2.97144 0.45423   2
  -2  -4   7 3.12294 0.27609   1
   1   4  -7 23.0576 0.85773   2
   1   4  -7 22.4304 0.83877   2
   1   4  -7 20.7080 1.14076   1
   1   4  -7 19.9753 0.96918   1
  -1  -4   7 20.9147 0.82313   1
   0   4  -7 9.61258 0.65372   2
   0   4  -7 10.6172 0.53382   2
   0   4  -7 9.42443 0.48931   2
   0   4  -7 11.0547 0.78023   1
   0   4  -7 9.30447 0.65074   1
   0  -4   7 7.85415 0.54504   1
   0  -4   7 9.46959 0.53687   1
  -1   4  -7 0.97036 0.29935   1
  -1   4  -7 1.09171 0.30775   1
  -1   4  -7 1.21767 0.33356   1
  -1   4  -7 1.09788 0.31721   1
  -1   4  -7 1.49506 0.24682   2
  -1   4  -7 1.29452 0.32667   2
  -1   4  -7 1.08863 0.30023   2
   1  -4   7 1.04577 0.23948   1
   1  -4   7 0.71652 0.23101   1
  -2   4  -7 6.16769 0.26032   2
  -2   4  -7 6.55752 0.40155   2
  -2   4  -7 6.16432 0.27349   2
  -2   4  -7 6.02213 0.27737   2
  -2   4  -7 6.62664 0.45407   2
  -2   4  -7 6.07807 0.59265   2
  -2   4  -7 6.37185 0.39428   2
  -2   4  -7 6.65060 0.39862   2
  -2   4  -7 5.87902 0.54458   1
  -2   4  -7 5.61429 0.34571   1
  -2   4  -7 6.11266 0.29004   1
  -2   4  -7 5.32986 0.59588   1
  -2   4  -7 5.61451 0.37651   1
  -2   4  -7 5.32580 0.34757   1
  -2   4  -7 5.35753 0.33078   1
   2  -4   7 5.79522 0.61205   1
   2  -4   7 6.12619 0.47937   1
  -3   4  -7 13.1554 0.59322   2
  -3   4  -7 13.2959 0.43671   2
  -3   4  -7 13.1650 0.85021   2
  -3   4  -7 13.0763 0.58207   2
  -3   4  -7 13.4262 0.58093   2
  -3   4  -7 12.6957 0.45679   2
  -3   4  -7 12.9576 0.46404   2
   3  -4  -6 66.9017 1.76491  -2
  -3   4  -7 66.9017 1.76491   1
  -3   4  -7 10.9875 0.46018   1
  -3   4  -7 10.9002 0.41582   1
  -3   4  -7 12.3698 0.55477   1
  -3   4  -7 10.9710 1.19616   1
  -3   4  -7 11.3423 0.47695   1
   3  -4   7 11.2334 0.84769   1
  -4   4  -7 506.063 12.0571   2
  -4   4  -7 500.682 10.4133   2
  -4   4  -7 491.895 9.90363   2
  -4   4  -7 489.383 10.1265   2
  -4   4  -7 482.093 10.5379   2
  -4   4  -7 474.243 12.5642   2
  -4   4  -7 426.380 8.87736   1
  -4   4  -7 422.121 9.07295   1
  -4   4  -7 434.798 8.78341   1
  -4   4  -7 425.366 9.25803   1
  -4   4  -7 441.956 8.18359   1
   4  -4   7 475.321 12.5432   2
   5  -4  -7 113.076 2.67694  -2
  -5   4  -7 113.076 2.67694   1
   5  -4  -7 119.553 2.54204  -2
  -5   4  -7 119.553 2.54204   1
  -6   4  -7 947.746 18.7401   2
  -6   4  -7 865.841 17.0895   1
   6  -4   7 855.696 17.5074   1
   6  -4   7 938.782 19.7309   2
   7   3  -7 3.02325 0.11532   2
   7   3   1 10.5422 0.36247  -2
  -7  -3   7 10.5422 0.36247   1
   6   3  -7 0.98238 0.15331   2
   6   3  -7 1.24943 0.16371   2
   6   3  -7 1.12112 0.12288   2
   6   3  -7 0.95063 0.12480   2
   6   3  -7 1.02461 0.18899   2
   6   3  -7 1.20349 0.17369   2
   6   3  -7 1.18187 0.22453   1
   6   3  -7 1.01848 0.12841   1
  -6  -3   7 0.92563 0.15410   1
  -6  -3   7 0.95959 0.10381   1
  -6  -3   7 1.56022 0.22467   2
   5   3  -7 0.65697 0.15790   2
   5   3  -7 0.60616 0.11355   2
   5   3  -7 0.58881 0.13185   2
   5   3  -7 0.46392 0.09629   2
   5   3  -7 0.45845 0.14858   2
   5   3  -7 0.66147 0.19911   2
   5   3  -7 0.55766 0.18108   2
   5   3  -7 0.68739 0.13548   1
   5   3  -7 0.57382 0.19822   1
  -5  -3   7 0.40235 0.14761   1
  -5  -3   7 0.54890 0.12895   1
   4   3  -7 4.82091 0.32296   2
   4   3  -7 4.35148 0.21883   2
   4   3  -7 4.34202 0.36666   2
   4   3  -7 4.21503 0.36323   2
   4   3  -7 4.27490 0.25174   2
   4   3  -7 4.84153 0.33474   2
   4   3  -7 4.19558 0.21337   2
   4   3  -7 4.05519 0.38531   1
   4   3  -7 3.22789 0.53365   1
   4   3  -7 4.30384 0.26480   1
   4   3  -7 4.91058 0.32443   1
  -4  -3   7 3.81048 0.29147   1
  -4  -3   7 3.73979 0.29185   1
  -4  -3   7 4.29280 0.65915   2
   3   3  -7 0.11775 0.08424   1
   3   3  -7 0.19198 0.12506   1
   3   3  -7 -0.0451 0.12770   1
   3   3  -7 -0.1332 0.18264   1
   3   3  -7 0.04250 0.05574   2
   3   3  -7 0.02269 0.11698   2
   3   3  -7 -0.0284 0.10970   2
   3   3  -7 0.10125 0.05939   2
  -3  -3   7 0.81064 0.35782   2
  -3  -3   7 0.02151 0.09602   1
   2   3  -7 56.7814 2.21882   1
   2   3  -7 58.4956 1.75087   1
   2   3  -7 57.0883 1.88498   1
   2   3  -7 63.2388 1.82012   2
  -2  -3   7 61.0911 2.38244   2
  -2  -3   7 57.0892 1.75776   1
   1   3  -7 4.70780 0.43520   1
   1   3  -7 4.52986 0.51222   1
   1   3  -7 5.15125 0.46860   1
   1   3  -7 5.11813 0.56017   1
   1   3  -7 4.01541 0.54192   1
  -1  -3   7 4.31136 0.37836   1
  -1  -3   7 4.94319 0.36616   1
   0  -3  -5 180.756 5.37662  -2
   0   3  -7 180.756 5.37662   1
   0  -3  -5 179.175 4.95905  -2
   0   3  -7 179.175 4.95905   1
   0  -3  -5 184.129 5.68581  -2
   0   3  -7 184.129 5.68581   1
   0  -3  -5 179.025 5.36633  -2
   0   3  -7 179.025 5.36633   1
   0   3   5 171.777 4.47407  -2
   0  -3   7 171.777 4.47407   1
   0   3   5 172.575 4.75251  -2
   0  -3   7 172.575 4.75251   1
  -1   3  -7 24.3485 1.17002   1
  -1   3  -7 23.4963 1.23983   1
  -1   3  -7 25.5108 1.10586   1
  -1   3  -7 26.9382 1.30005   2
  -1   3  -7 27.2443 0.97186   2
  -1   3  -7 26.0464 1.16834   2
   1  -3   7 24.4912 0.99271   1
   1  -3   7 23.9266 0.94759   1
   2  -3  -6 801.916 18.1334  -2
  -2   3  -7 801.916 18.1334   1
   2  -3  -6 974.451 24.9986  -2
  -2   3  -7 974.451 24.9986   1
   2  -3  -6 897.361 18.6942  -2
  -2   3  -7 897.361 18.6942   1
   2  -3  -6 888.746 17.7098  -2
  -2   3  -7 888.746 17.7098   1
   2  -3  -6 859.747 17.9285  -2
  -2   3  -7 859.747 17.9285   1
   2  -3  -6 975.624 22.1436  -2
  -2   3  -7 975.624 22.1436   1
   2  -3  -6 860.104 16.4911  -2
  -2   3  -7 860.104 16.4911   1
   2  -3  -6 856.428 20.1851  -2
  -2   3  -7 856.428 20.1851   1
  -2   3   6 834.554 22.2104  -2
   2  -3   7 834.554 22.2104   1
  -2   3   6 894.625 23.9144  -2
   2  -3   7 894.625 23.9144   1
  -3   3  -7 256.506 6.91319   2
  -3   3  -7 253.964 7.55768   2
  -3   3  -7 253.977 5.36602   2
  -3   3  -7 252.954 4.90297   2
  -3   3  -7 256.243 5.70294   2
  -3   3  -7 251.567 5.25758   2
  -3   3  -7 251.222 5.66974   2
  -3   3  -7 250.471 6.44915   2
  -3   3  -7 255.132 5.59544   2
  -3   3  -7 224.950 4.71929   1
  -3   3  -7 227.141 4.39901   1
  -3   3  -7 228.722 4.97204   1
  -3   3  -7 227.135 5.03203   1
  -3   3  -7 222.804 6.96932   1
  -3   3  -7 226.199 4.83713   1
   3  -3   7 218.700 6.73274   1
   3  -3   7 227.784 6.10022   1
   4  -3  -7 811.889 17.1341  -2
  -4   3  -7 811.889 17.1341   1
   4  -3  -7 813.340 15.1583  -2
  -4   3  -7 813.340 15.1583   1
   4  -3  -7 811.112 16.4663  -2
  -4   3  -7 811.112 16.4663   1
   4  -3  -7 813.003 16.2316  -2
  -4   3  -7 813.003 16.2316   1
  -4   3   7 800.294 20.4654  -2
   4  -3   7 800.294 20.4654   1
  -5   3  -7 42.2091 1.13868   2
  -5   3  -7 41.3453 1.32703   2
  -5   3  -7 40.9323 1.21566   2
  -5   3  -7 42.0240 1.06536   2
  -5   3  -7 42.2443 1.17014   2
  -5   3  -7 41.8950 1.06381   2
  -5   3  -7 41.3205 1.15978   2
  -5   3  -7 38.1492 0.99388   1
  -5   3  -7 36.9362 1.00583   1
  -5   3  -7 37.4110 0.88269   1
  -5   3  -7 37.4452 1.06694   1
  -5   3  -7 36.9618 0.93365   1
  -6   3  -7 115.778 2.25645   1
  -6   3  -7 115.235 2.47893   1
  -6   3  -7 116.604 2.38329   1
  -6   3  -7 132.401 2.77493   2
   7   2  -7 5.65006 0.26176   2
   7   2  -7 5.66471 0.21626   2
   7   2  -7 6.03023 0.26727   2
   7   2  -7 5.62983 0.20282   2
  -7  -2   7 4.36270 0.22683   1
   6   2  -7 0.69052 0.14899   2
   6   2  -7 0.65424 0.14071   2
   6   2  -7 0.80220 0.11775   2
   6   2  -7 0.69387 0.10783   2
   6   2  -7 0.95740 0.15467   2
   6   2  -7 0.77072 0.19978   1
   6   2  -7 0.69476 0.10908   1
  -6  -2   7 0.55985 0.13809   1
  -6  -2   7 0.64788 0.11859   1
  -6  -2   7 0.84533 0.18874   2
   5   2  -7 0.45487 0.10378   1
  -5  -2  -3 3.67535 0.41008  -2
   5   2  -7 3.67535 0.41008   1
   5   2   3 4.06405 0.37164  -2
  -5  -2   7 4.06405 0.37164   1
   5   2   3 4.20605 0.34049  -2
  -5  -2   7 4.20605 0.34049   1
   4   2  -7 63.6948 1.60206   2
   4   2  -7 63.0146 1.43532   2
   4   2  -7 65.3832 1.66384   2
   4   2  -7 64.9950 1.68989   2
   4   2  -7 64.6808 1.92555   2
   4   2  -7 64.1331 1.48254   2
   4   2  -7 57.1491 1.77151   1
   4   2  -7 56.7597 1.34903   1
   4   2  -7 54.0064 2.24166   1
   4   2  -7 56.3641 1.48470   1
  -4  -2   7 57.1577 1.70488   1
  -4  -2   7 56.8328 1.43430   1
  -4  -2   7 63.8505 2.52179   2
  -3  -2  -4 27.4204 1.04838  -2
   3   2  -7 27.4204 1.04838   1
  -3  -2  -4 30.7310 0.90655  -2
   3   2  -7 30.7310 0.90655   1
  -3  -2  -4 28.8658 0.91136  -2
   3   2  -7 28.8658 0.91136   1
  -3  -2  -4 26.4774 0.74059  -2
   3   2  -7 26.4774 0.74059   1
  -3  -2  -4 31.4094 1.22868  -2
   3   2  -7 31.4094 1.22868   1
  -3  -2  -4 33.2562 1.52461  -2
   3   2  -7 33.2562 1.52461   1
  -3  -2  -4 30.6970 1.35010  -2
   3   2  -7 30.6970 1.35010   1
   3   2   4 30.1476 1.08011  -2
  -3  -2   7 30.1476 1.08011   1
   2   2  -7 63.1242 2.01325   1
   2   2  -7 62.7434 2.19006   1
   2   2  -7 61.9622 1.92103   1
   2   2  -7 62.2808 1.83899   1
   2   2  -7 60.8190 2.33293   1
   2   2  -7 66.5580 2.13647   2
   2   2  -7 67.4890 2.44124   2
   2   2  -7 69.0222 2.61486   2
  -2  -2   7 67.1776 2.50452   2
  -2  -2   7 64.2502 1.90908   1
  -2  -2   7 61.2254 1.85761   1
  -1  -2  -5 53.6806 1.73956  -2
   1   2  -7 53.6806 1.73956   1
  -1  -2  -5 50.2420 1.96002  -2
   1   2  -7 50.2420 1.96002   1
  -1  -2  -5 48.9538 1.85044  -2
   1   2  -7 48.9538 1.85044   1
  -1  -2  -5 49.5288 2.00889  -2
   1   2  -7 49.5288 2.00889   1
  -1  -2  -5 50.5290 1.73446  -2
   1   2  -7 50.5290 1.73446   1
   1   2   5 51.6469 1.58280  -2
  -1  -2   7 51.6469 1.58280   1
   1   2   5 51.4457 1.62821  -2
  -1  -2   7 51.4457 1.62821   1
   0   2  -7 415.827 11.2847   1
   0   2  -7 434.653 11.6316   1
   0   2  -7 422.210 9.55518   1
   0   2  -7 417.058 12.1462   1
   0   2  -7 420.934 10.7660   1
   0   2  -7 477.118 11.9617   2
   0   2  -7 465.303 10.5541   2
   0   2  -7 473.558 12.9563   2
   0   2  -7 457.346 12.5165   2
   0  -2   7 417.482 9.85845   1
  -1   2  -7 192.454 5.74204   2
  -1   2  -7 187.072 5.24728   2
  -1   2  -7 171.442 5.39924   1
  -1   2  -7 172.405 4.73434   1
  -1   2  -7 168.126 5.17326   1
  -1   2  -7 175.798 5.15721   1
   1  -2   7 171.165 4.29448   1
  -2   2  -7 99.5833 2.38643   1
  -2   2  -7 107.773 3.09016   1
  -2   2  -7 105.158 2.28333   1
  -2   2  -7 99.4364 2.47040   1
  -2   2  -7 112.095 3.62438   1
  -2   2  -7 101.491 2.11706   1
  -2   2  -7 106.191 3.45393   1
  -2   2  -7 117.223 3.43082   2
  -2   2  -7 113.080 3.74133   2
  -2   2  -7 110.603 2.70429   2
  -2   2  -7 112.736 2.25770   2
  -2   2  -7 111.939 2.45693   2
  -2   2  -7 115.470 3.06224   2
  -2   2  -7 110.801 2.70841   2
  -2   2  -7 107.942 2.42026   2
  -2   2  -7 110.270 2.66264   2
   2  -2   7 112.651 2.97302   2
   2  -2   7 102.480 2.83123   1
  -3   2  -7 0.35532 0.13594   1
  -3   2  -7 0.27467 0.25985   1
  -3   2  -7 0.28737 0.08842   1
  -3   2  -7 0.10035 0.15138   1
  -3   2  -7 0.22035 0.12002   1
  -3   2  -7 0.47434 0.09968   1
  -3   2  -7 0.36248 0.10307   2
  -3   2  -7 0.18307 0.08362   2
  -3   2  -7 0.32905 0.17041   2
  -3   2  -7 0.17717 0.24648   2
  -3   2  -7 0.30261 0.13556   2
  -3   2  -7 0.20778 0.14015   2
  -3   2  -7 0.10728 0.20268   2
  -3   2  -7 0.31502 0.10558   2
   3  -2   7 0.21585 0.26557   1
  -4   2  -7 3.73937 0.33179   1
  -4   2  -7 4.04504 0.22371   1
  -4   2  -7 3.97269 0.22621   1
  -4   2  -7 3.97424 0.28390   1
  -4   2  -7 3.85567 0.29110   1
  -4   2  -7 4.35830 0.36904   2
  -4   2  -7 4.05375 0.32308   2
  -4   2  -7 4.70701 0.51708   2
  -4   2  -7 4.50815 0.26283   2
  -4   2  -7 3.74770 0.30944   2
  -4   2  -7 4.08076 0.24937   2
  -4   2  -7 4.45890 0.34762   2
  -4   2  -7 4.49370 0.28165   2
   4  -2   7 3.93373 0.40303   2
  -5   2  -7 1.14343 0.15538   2
  -5   2  -7 1.04137 0.20346   2
  -5   2  -7 0.98050 0.16471   2
  -5   2  -7 1.12129 0.18540   2
  -5   2  -7 0.88130 0.16311   2
  -5   2  -7 0.96951 0.16175   1
  -5   2  -7 0.96107 0.11462   1
  -5   2  -7 1.06438 0.12426   1
  -5   2  -7 0.64796 0.15490   1
  -6   2  -7 9.52966 0.27279   1
  -6   2  -7 9.07161 0.34662   1
  -6   2  -7 9.54422 0.31685   1
  -6   2  -7 9.90920 0.32729   2
   7   1  -7 6.49329 0.24426   2
   7   1  -7 6.47898 0.29630   2
   7   1  -7 6.55660 0.29829   2
   7   1  -7 7.06148 0.24624   2
  -7  -1   7 5.87701 0.20265   1
  -7  -1   7 5.74784 0.26700   1
  -6  -1  -3 18.2135 0.78707  -2
   6   1  -7 18.2135 0.78707   1
   6   1   3 19.1624 0.64931  -2
  -6  -1   7 19.1624 0.64931   1
   6   1   3 19.5819 0.63113  -2
  -6  -1   7 19.5819 0.63113   1
   5   1  -7 30.8602 0.79762   2
   5   1  -7 29.9620 0.93079   2
   5   1  -7 30.0924 0.75252   2
   5   1  -7 29.9145 0.91098   2
   5   1  -7 29.9282 0.81525   2
   5   1  -7 29.8866 0.92642   2
   5   1  -7 27.9060 1.03532   1
   5   1  -7 26.4632 0.67997   1
   5   1  -7 26.8202 0.83459   1
  -5  -1   7 27.3294 0.82566   1
   4   1  -7 8.29596 0.32201   2
   4   1  -7 8.42661 0.36272   2
   4   1  -7 8.38057 0.31306   2
   4   1  -7 7.11490 0.39514   1
   4   1  -7 7.64479 0.26256   1
  -4  -1  -4 16.8244 1.10975  -2
   4   1  -7 16.8244 1.10975   1
  -4  -1  -4 16.9845 0.79662  -2
   4   1  -7 16.9845 0.79662   1
  -4  -1  -4 13.3871 0.96327  -2
   4   1  -7 13.3871 0.96327   1
  -4  -1   7 6.99653 0.44510   1
   4   1   4 19.5083 0.66882  -2
  -4  -1   7 19.5083 0.66882   1
  -4  -1   7 7.70781 0.77415   2
   3   1  -7 25.9114 0.98958   1
   3   1  -7 24.9670 1.24803   1
   3   1  -7 25.1412 1.19024   1
   3   1  -7 26.2302 0.97419   1
   3   1  -7 25.7383 0.83248   1
   3   1  -7 24.9097 1.04828   1
   3   1  -7 28.7119 1.53161   2
   3   1  -7 29.3246 0.81113   2
   3   1  -7 27.0074 1.27284   2
  -3  -1   7 29.3869 1.40356   2
  -3  -1   7 26.6384 0.97997   1
  -3  -1   7 25.1617 1.01822   1
   2   1  -7 3.69140 0.58043   2
   2   1  -7 5.08719 0.58069   2
   2   1  -7 4.19368 0.51818   2
   2   1  -7 4.89889 0.54673   2
   2   1  -7 3.89563 0.47814   1
   2   1  -7 4.20324 0.33452   1
   2   1  -7 4.06082 0.44093   1
   2   1  -7 2.74344 0.72624   1
   2   1  -7 3.58612 0.36482   1
   2   1  -7 3.51750 0.43660   1
  -2  -1   7 4.14660 0.34620   1
  -2  -1   7 3.70479 0.34556   1
  -2  -1   7 4.94838 0.69536   2
   1   1  -7 2.90291 0.47064   1
   1   1  -7 3.12186 0.40221   1
   1   1  -7 3.36145 0.47413   1
   1   1  -7 2.48566 0.39775   1
   1   1  -7 2.71561 0.39430   1
   1   1  -7 3.77539 0.57471   2
   1   1  -7 3.35151 0.37148   2
   1   1  -7 3.13437 0.49121   2
   1   1  -7 4.19144 0.51387   2
   1   1  -7 3.76240 0.57406   2
  -1  -1   7 2.89804 0.30576   1
   0   1  -7 28.2916 1.26139   1
   0   1  -7 27.4557 1.30737   1
   0   1  -7 26.9954 1.12027   1
   0   1  -7 27.3742 1.11803   1
   0   1  -7 28.5775 1.33349   1
   0   1  -7 30.8830 1.43401   2
   0   1  -7 30.5287 1.25288   2
   0   1  -7 31.6547 1.48222   2
   0   1  -7 31.8826 1.26795   2
   0   1  -7 29.6180 1.47676   2
   0  -1   7 28.5458 0.96017   1
  -1   1  -7 17.3104 0.82624   1
  -1   1  -7 15.3303 0.89857   1
  -1   1  -7 16.5139 0.98156   1
  -1   1  -7 18.0293 1.07926   2
  -1   1  -7 20.0428 0.97275   2
   1  -1   7 18.6204 0.72735   2
   1  -1   7 16.5830 0.69349   1
  -2   1  -7 2.19773 0.24934   2
  -2   1  -7 2.61960 0.20155   2
  -2   1  -7 2.41985 0.47367   2
  -2   1  -7 4.01766 0.30765   2
  -2   1  -7 2.93460 0.19178   2
  -2   1  -7 2.73100 0.43764   2
  -2   1  -7 2.87926 0.30707   2
  -2   1  -7 2.80000 0.17973   2
  -2   1  -7 2.68303 0.28344   2
  -2   1  -7 2.74859 0.24941   1
  -2   1  -7 2.41981 0.44482   1
  -2   1  -7 1.98619 0.14875   1
  -2   1  -7 2.55046 0.23772   1
  -2   1  -7 2.56589 0.17046   1
  -2   1  -7 2.47332 0.46277   1
   3  -1  -8 1.80852 0.31002  -2
  -3   1  -7 1.80852 0.31002   1
   3  -1  -8 2.20542 0.27957  -2
  -3   1  -7 2.20542 0.27957   1
   3  -1  -8 1.75994 0.17004  -2
  -3   1  -7 1.75994 0.17004   1
   3  -1  -8 1.76497 0.17138  -2
  -3   1  -7 1.76497 0.17138   1
   3  -1  -8 2.13191 0.27256  -2
  -3   1  -7 2.13191 0.27256   1
  -4   1  -7 1.19755 0.12752   1
  -4   1  -7 1.28557 0.14184   1
  -4   1  -7 1.65828 0.29235   1
  -4   1  -7 1.21433 0.21812   1
  -4   1  -7 1.58436 0.21504   1
  -4   1  -7 1.36354 0.16581   2
  -4   1  -7 1.25024 0.20317   2
  -4   1  -7 1.59471 0.35071   2
  -4   1  -7 1.40978 0.17987   2
  -4   1  -7 1.04128 0.18683   2
  -4   1  -7 1.33539 0.21858   2
  -4   1  -7 1.43246 0.19040   2
  -4   1  -7 1.51780 0.26858   2
   4  -1   7 1.43832 0.27636   2
   5  -1  -9 0.76632 0.11211  -2
  -5   1  -7 0.76632 0.11211   1
   5  -1  -9 1.15858 0.18558  -2
  -5   1  -7 1.15858 0.18558   1
   5  -1  -9 0.74839 0.08938  -2
  -5   1  -7 0.74839 0.08938   1
   5  -1  -9 0.75556 0.19817  -2
  -5   1  -7 0.75556 0.19817   1
  -6   1  -7 18.5770 0.50851   1
  -6   1  -7 18.7721 0.42966   1
   7   0  -7 5.25134 0.22126   2
   7   0  -7 5.11340 0.22221   2
   7   0  -7 5.42447 0.27267   2
   7   0  -7 5.41247 0.27426   2
  -7   0   7 4.64248 0.21093   1
   6   0  -7 15.0925 0.56637   2
   6   0  -7 14.8737 0.57813   2
   6   0  -7 15.0711 0.46286   2
   6   0  -7 15.5560 0.49016   2
   6   0  -7 12.2914 0.59545   1
  -6   0   7 12.3637 0.48311   1
  -6   0   7 12.7355 0.47858   1
   5   0  -7 0.16517 0.12817   2
   5   0  -7 0.32561 0.11208   2
   5   0  -7 0.54883 0.15361   2
   5   0  -7 0.28175 0.09471   2
   5   0  -7 0.20060 0.08300   2
   5   0  -7 0.24307 0.12502   1
   5   0  -7 0.26137 0.22762   1
   5   0  -7 0.44567 0.19043   1
   5   0  -7 0.11786 0.11655   1
  -5   0   7 0.25708 0.13536   1
  -5   0   7 0.16460 0.11188   1
   4   0  -7 108.796 2.56024   1
   4   0  -7 109.554 2.88056   1
   4   0  -7 104.466 3.50501   1
   4   0  -7 121.030 2.98528   2
   4   0  -7 118.162 2.76713   2
   4   0  -7 118.722 2.55774   2
   4   0  -7 116.220 4.24004   2
   4   0  -7 120.327 2.73728   2
   4   0  -7 121.927 2.39965   2
  -4   0  -5 125.253 3.42569  -2
   4   0  -7 125.253 3.42569   1
  -4   0   7 118.429 3.99501   2
  -4   0   7 107.970 2.45929   1
  -4   0   7 110.850 3.08216   1
   3   0  -7 26.8145 0.85863   1
   3   0  -7 27.4876 0.75686   1
   3   0  -7 29.0305 1.03570   1
   3   0  -7 27.3478 0.84152   1
   3   0  -7 30.2991 1.01065   1
   3   0  -7 27.7955 1.28401   1
   3   0  -7 28.1557 0.84391   1
   3   0  -7 27.4784 0.70385   1
   3   0  -7 30.2918 1.16413   1
   3   0  -7 29.9846 0.90899   2
   3   0  -7 30.1771 0.76092   2
   3   0  -7 31.1398 1.60621   2
   3   0  -7 30.5840 0.87536   2
   3   0  -7 30.8896 0.96119   2
   3   0  -7 30.8593 0.71350   2
   3   0  -7 29.2821 1.32029   2
  -3   0   7 30.7810 1.01807   2
  -3   0   7 30.0674 1.47387   2
  -3   0   7 28.0860 1.04790   1
  -3   0   7 25.7697 1.04870   1
  -2   0  -6 34.2554 1.33055  -2
   2   0  -7 34.2554 1.33055   1
  -2   0  -6 35.1049 1.53771  -2
   2   0  -7 35.1049 1.53771   1
  -2   0  -6 34.5568 1.16368  -2
   2   0  -7 34.5568 1.16368   1
  -2   0  -6 33.4280 1.47310  -2
   2   0  -7 33.4280 1.47310   1
   2   0   6 33.5438 1.18120  -2
  -2   0   7 33.5438 1.18120   1
   1   0  -7 3.82755 0.30718   1
   1   0  -7 3.77071 0.38849   1
   1   0  -7 3.25601 0.60179   1
   1   0  -7 3.63858 0.45508   1
   1   0  -7 4.05886 0.46757   1
   1   0  -7 3.59389 0.42828   1
   1   0  -7 5.34453 0.59162   2
   1   0  -7 4.13574 0.61104   2
   1   0  -7 4.63968 0.44532   2
   1   0  -7 4.38952 0.52068   2
   1   0  -7 4.33671 0.76517   2
  -1   0   7 3.33603 0.31285   1
   0   0  -7 0.49918 0.22852  -2
   0   0  -7 0.49918 0.22852   1
   0   0  -7 0.40081 0.28489  -2
   0   0  -7 0.40081 0.28489   1
   0   0  -7 0.51172 0.26100  -2
   0   0  -7 0.51172 0.26100   1
   0   0   7 0.59164 0.16741  -2
   0   0   7 0.59164 0.16741   1
  -1   0  -7 2.26501 0.39832   1
  -1   0  -7 3.07135 0.18421   1
  -1   0  -7 2.85696 0.25076   1
  -1   0  -7 2.92192 0.46214   1
  -1   0  -7 2.82204 0.15238   1
  -1   0  -7 4.18803 0.41211   1
  -1   0  -7 2.94249 0.25266   1
  -1   0  -7 3.33126 0.47785   2
  -1   0  -7 3.27021 0.20951   2
  -1   0  -7 3.83571 0.58774   2
  -1   0  -7 3.21301 0.17855   2
  -1   0  -7 3.17910 0.53105   2
  -1   0  -7 3.33907 0.28027   2
   1   0   7 3.41564 0.34529   2
   2   0  -8 17.8674 0.65655  -2
  -2   0  -7 17.8674 0.65655   1
   2   0  -8 16.6842 0.46088  -2
  -2   0  -7 16.6842 0.46088   1
   2   0  -8 17.0468 0.63709  -2
  -2   0  -7 17.0468 0.63709   1
   2   0  -8 18.2135 1.10619  -2
  -2   0  -7 18.2135 1.10619   1
   2   0  -8 16.2659 1.13365  -2
  -2   0  -7 16.2659 1.13365   1
   2   0  -8 17.8277 0.46608  -2
  -2   0  -7 17.8277 0.46608   1
  -3   0  -7 4.74284 0.26347   2
  -3   0  -7 4.64831 0.33834   2
  -3   0  -7 4.49717 0.38282   2
  -3   0  -7 4.63937 0.26837   2
  -3   0  -7 4.69010 0.34029   2
  -3   0  -7 4.87628 0.53661   2
  -3   0  -7 4.71494 0.33189   2
  -3   0  -7 4.55306 0.29228   2
  -3   0  -7 5.01805 0.34370   2
  -3   0  -7 3.94209 0.62520   2
  -3   0  -7 4.19775 0.35584   1
  -3   0  -7 4.33875 0.31053   1
  -3   0  -7 4.36511 0.20334   1
  -3   0  -7 4.23481 0.17578   1
   3   0   7 3.63434 0.58641   1
   3   0   7 4.55250 0.41413   2
  -4   0  -7 73.7871 2.15230   2
  -4   0  -7 74.6873 1.90443   2
  -4   0  -7 75.4476 1.87749   2
  -4   0  -7 77.3455 1.63833   2
  -4   0  -7 74.3845 1.76806   2
  -4   0  -7 75.5223 1.76980   2
  -4   0  -7 75.0188 1.87054   2
  -4   0  -7 67.1222 1.66060   1
  -4   0  -7 68.5244 1.40387   1
  -4   0  -7 69.1183 1.42318   1
  -4   0  -7 67.4913 1.72783   1
   4   0   7 70.4985 2.51835   2
   4   0   7 75.7313 1.77316   2
  -5   0  -7 50.0653 1.28730   2
  -5   0  -7 50.5182 1.20477   2
  -5   0  -7 48.6974 1.24487   2
  -5   0  -7 43.0964 1.13252   1
  -5   0  -7 43.5810 0.92670   1
  -5   0  -7 44.3437 1.09119   1
   7  -1   4 22.5370 0.61767  -2
  -7   1   7 22.5370 0.61767   1
   6  -1  -7 24.1225 0.68026   2
   6  -1  -7 23.8950 0.76846   2
   6  -1  -7 24.2082 0.64003   2
   6  -1  -7 23.2692 0.74647   2
   6  -1  -7 20.2461 0.79975   1
  -5   1  -5 12.9527 0.92882  -2
   5  -1  -7 12.9527 0.92882   1
  -5   1  -5 14.7135 0.56332  -2
   5  -1  -7 14.7135 0.56332   1
  -5   1  -5 13.4742 0.57393  -2
   5  -1  -7 13.4742 0.57393   1
  -5   1  -5 14.4349 0.55463  -2
   5  -1  -7 14.4349 0.55463   1
  -5   1  -5 14.0747 0.67207  -2
   5  -1  -7 14.0747 0.67207   1
   5  -1   5 13.2763 0.66088  -2
  -5   1   7 13.2763 0.66088   1
   4  -1  -7 0.73437 0.12101   2
   4  -1  -7 0.56086 0.10827   2
   4  -1  -7 0.66552 0.37273   2
   4  -1  -7 0.83123 0.18241   2
   4  -1  -7 0.74018 0.17563   2
   4  -1  -7 0.52937 0.15271   1
   4  -1  -7 0.64443 0.13800   1
   4  -1  -7 0.54029 0.18510   1
   4  -1  -7 0.79386 0.23933   1
   4  -1  -7 0.76584 0.28782   1
   4  -1  -7 0.59111 0.15534   1
   4  -1  -7 0.81825 0.12719   1
   4  -1  -7 0.98185 0.16232   1
   4  -1  -7 0.76579 0.11963   1
  -4   1   7 0.43709 0.32061   2
  -4   1   7 0.74959 0.20227   1
  -3   1  -6 33.7405 1.02794  -2
   3  -1  -7 33.7405 1.02794   1
  -3   1  -6 35.0753 1.18834  -2
   3  -1  -7 35.0753 1.18834   1
  -3   1  -6 33.0795 0.83467  -2
   3  -1  -7 33.0795 0.83467   1
  -3   1  -6 31.4041 0.88389  -2
   3  -1  -7 31.4041 0.88389   1
  -3   1  -6 34.0925 1.39160  -2
   3  -1  -7 34.0925 1.39160   1
  -3   1  -6 33.1943 0.92622  -2
   3  -1  -7 33.1943 0.92622   1
  -3   1  -6 34.0184 1.02394  -2
   3  -1  -7 34.0184 1.02394   1
   2  -1  -7 1.60372 0.42130   2
   2  -1  -7 2.11750 0.23759   2
   2  -1  -7 1.82898 0.42546   2
   2  -1  -7 2.21761 0.16334   2
   2  -1  -7 2.16409 0.32972   2
   2  -1  -7 1.69086 0.13936   2
   2  -1  -7 1.87089 0.21319   1
   2  -1  -7 1.61474 0.14760   1
   2  -1  -7 1.90033 0.27180   1
   2  -1  -7 1.79276 0.37518   1
   2  -1  -7 1.58945 0.12980   1
   2  -1  -7 1.49021 0.24245   1
   2  -1  -7 1.54971 0.19852   1
   2  -1  -7 1.57883 0.30948   1
   2  -1  -7 1.77950 0.12891   1
  -2   1   7 1.90907 0.26476   2
  -2   1   7 2.06922 0.29515   1
   1  -1  -7 0.43782 0.24912   2
   1  -1  -7 0.62512 0.31791   2
   1  -1  -7 0.55482 0.22000   2
  -1   1  -7 18.2509 0.76114  -2
   1  -1  -7 18.2509 0.76114   1
   1  -1  -7 0.48044 0.20741   1
   1  -1  -7 0.70659 0.26433   1
  -1   1   7 0.77653 0.19465   2
  -1   1   7 0.52155 0.16987   1
   0  -1  -7 26.9605 1.36369   2
   0  -1  -7 25.5634 1.40469   2
   0  -1  -7 24.0043 0.79941   2
   0  -1  -7 26.1004 0.85047   2
   0  -1  -7 24.9925 0.63995   2
   0  -1  -7 26.2302 0.71093   2
   0  -1  -7 25.6956 1.16719   2
   0  -1  -7 25.4186 0.65272   1
   0  -1  -7 25.1975 1.05164   1
   0  -1  -7 23.0270 1.17604   1
   0  -1  -7 23.2226 0.76074   1
   0  -1  -7 23.1197 1.15570   1
   0  -1  -7 23.5048 0.57721   1
   0   1   7 26.5319 0.96669   2
  -1  -1  -7 2.39238 0.25858   2
  -1  -1  -7 2.20022 0.26202   2
  -1  -1  -7 2.18275 0.48877   2
  -1  -1  -7 2.38859 0.26728   2
  -1  -1  -7 1.90420 0.44654   2
  -1  -1  -7 1.99296 0.16404   2
  -1  -1  -7 2.73683 0.44719   2
  -1  -1  -7 2.46614 0.20194   2
  -1  -1  -7 1.95889 0.40845   1
  -1  -1  -7 1.97355 0.23347   1
  -1  -1  -7 2.13192 0.33530   1
  -1  -1  -7 2.85786 0.47991   1
  -1  -1  -7 2.07774 0.22981   1
  -1  -1  -7 2.23845 0.09923   1
  -1  -1  -7 1.97659 0.11823   1
  -2  -1  -7 15.5357 0.95289   1
  -2  -1  -7 15.2492 0.57770   1
  -2  -1  -7 15.7846 0.40111   1
  -2  -1  -7 22.7291 1.87840   2
  -2  -1  -7 17.3819 0.66511   2
  -2  -1  -7 16.1494 1.08537   2
  -2  -1  -7 16.9579 0.56671   2
  -2  -1  -7 17.2490 0.53050   2
  -2  -1  -7 18.3613 0.99376   2
  -2  -1  -7 17.1109 0.59045   2
  -2  -1  -7 17.6887 0.77059   2
  -2  -1  -7 17.2761 0.65363   2
  -2  -1  -7 17.6839 0.67299   2
   2   1   7 17.2540 0.81086   2
  -3  -1  -7 27.4449 0.81237   2
  -3  -1  -7 26.8998 0.87103   2
  -3  -1  -7 28.3610 1.25398   2
  -3  -1  -7 27.2778 0.99734   2
  -3  -1  -7 25.8876 0.84934   2
  -3  -1  -7 26.8593 0.73821   2
  -3  -1  -7 26.7253 0.86680   2
  -3  -1  -7 26.1394 0.87375   2
  -3  -1  -7 26.3571 0.78398   2
  -3  -1  -7 23.9914 0.56983   1
  -3  -1  -7 24.0443 0.76239   1
   3   1   7 27.4933 1.06677   2
  -4  -1  -7 20.1471 0.67423   2
  -4  -1  -7 19.9838 0.64016   2
  -4  -1  -7 19.2578 0.67948   2
  -4  -1  -7 18.1344 0.63557   1
  -4  -1  -7 17.9153 0.44414   1
  -4  -1  -7 17.8388 0.59198   1
   4   1   7 20.4028 0.64113   2
  -5  -1  -7 19.8589 0.55063   1
  -5  -1  -7 20.2159 0.43116   1
  -5  -1  -7 19.4353 0.57398   1
  -5  -1  -7 23.6121 0.67731   2
  -5  -1  -7 22.8360 0.62622   2
  -5  -1  -7 23.2017 0.64783   2
   5   1   7 23.2308 0.61076   2
   7  -2  -7 0.35351 0.08103   2
   7  -2  -7 0.50732 0.09849   2
   7  -2  -7 0.53167 0.10665   2
  -7   2   7 0.37329 0.09162   1
  -6   2  -5 28.3746 1.02176  -2
   6  -2  -7 28.3746 1.02176   1
   5  -2  -7 1.66582 0.22765   2
   5  -2  -7 1.45101 0.20943   2
   5  -2  -7 1.78299 0.17649   2
   5  -2  -7 1.47006 0.21479   2
   5  -2  -7 1.53760 0.18271   2
   5  -2  -7 1.22753 0.23975   1
   5  -2  -7 1.58657 0.19456   1
   5  -2  -7 1.63333 0.19773   1
   5  -2  -7 1.56343 0.21708   1
   5  -2  -7 1.68126 0.21008   1
  -5   2   7 1.25882 0.23586   1
  -5   2   7 1.83844 0.29009   2
   4  -2  -7 0.25040 0.14376   2
   4  -2  -7 0.34570 0.14739   2
   4  -2  -7 0.33983 0.15418   2
   4  -2  -7 0.29305 0.09625   2
   4  -2  -7 0.72883 0.13764   2
   4  -2  -7 0.32924 0.19606   1
   4  -2  -7 0.30343 0.16779   1
   4  -2  -7 0.24497 0.12660   1
   4  -2  -7 0.44525 0.24399   1
   4  -2  -7 0.34633 0.12170   1
   4  -2  -7 0.23839 0.09893   1
   4  -2  -7 0.51209 0.10061   1
   4  -2  -7 0.19471 0.13357   1
   4  -2  -7 0.21487 0.08223   1
  -4   2   7 0.44250 0.32673   2
  -4   2   7 0.36300 0.17005   1
   3  -2  -7 1.11268 0.18910   1
   3  -2  -7 1.36824 0.26049   1
   3  -2  -7 1.52351 0.30511   1
   3  -2  -7 1.31065 0.33201   1
   3  -2  -7 1.35060 0.12951   1
   3  -2  -7 1.19761 0.15009   1
   3  -2  -7 1.33226 0.21274   1
   3  -2  -7 1.23570 0.12865   1
   3  -2  -7 1.26232 0.17432   1
   3  -2  -7 1.23720 0.15981   2
   3  -2  -7 1.81590 0.24252   2
   3  -2  -7 1.24808 0.14562   2
   3  -2  -7 1.51664 0.21023   2
   3  -2  -7 1.57147 0.48753   2
   3  -2  -7 1.63981 0.23974   2
  -3   2   7 1.30887 0.42455   2
   2  -2  -7 2.13476 0.39293   2
   2  -2  -7 1.62183 0.45541   2
   2  -2  -7 1.82648 0.23787   2
   2  -2  -7 1.81131 0.18477   2
   2  -2  -7 2.25445 0.51235   2
   2  -2  -7 1.87899 0.15746   2
   2  -2  -7 2.00897 0.25160   2
   2  -2  -7 1.76526 0.13466   1
   2  -2  -7 1.63408 0.22156   1
   2  -2  -7 1.79221 0.12864   1
   2  -2  -7 2.05938 0.23375   1
   2  -2  -7 1.26235 0.13176   1
   2  -2  -7 1.61373 0.27200   1
   2  -2  -7 1.65997 0.23245   1
   2  -2  -7 1.78791 0.38626   1
   2  -2  -7 2.08766 0.35856   1
   1  -2  -7 0.70287 0.14654   1
   1  -2  -7 0.67072 0.08434   1
   1  -2  -7 0.77290 0.24712   1
   1  -2  -7 0.77620 0.28499   1
   1  -2  -7 0.58093 0.07862   1
   1  -2  -7 0.75702 0.15755   1
   1  -2  -7 0.62856 0.15126   1
   1  -2  -7 0.72786 0.17516   2
   1  -2  -7 0.82812 0.28061   2
   1  -2  -7 0.78477 0.13119   2
   1  -2  -7 0.67598 0.36852   2
   1  -2  -7 0.83020 0.19276   2
   1  -2  -7 0.69674 0.11299   2
   1  -2  -7 1.11601 0.38308   2
  -1   2  -8 11.1019 0.62096  -2
   1  -2  -7 11.1019 0.62096   1
   0  -2  -7 24.4493 1.15705   2
   0  -2  -7 23.4853 1.29452   2
   0  -2  -7 23.7729 0.70388   2
   0  -2  -7 22.9369 1.37702   2
   0  -2  -7 23.5989 0.63575   2
   0  -2  -7 22.5317 0.80227   2
   0  -2  -7 23.6065 0.77755   2
   0  -2  -7 21.3410 0.48583   1
   0  -2  -7 22.0955 0.71458   1
   0  -2  -7 20.6586 1.09231   1
   1   2  -9 21.1649 1.21305  -2
  -1  -2  -7 21.1649 1.21305   1
  -2  -2  -7 0.39046 0.30981   2
  -2  -2  -7 0.06922 0.07962   2
  -2  -2  -7 0.10014 0.11342   2
  -2  -2  -7 0.22261 0.09517   2
  -2  -2  -7 0.12628 0.21467   2
  -2  -2  -7 0.27728 0.13492   2
  -2  -2  -7 0.22294 0.11183   2
  -2  -2  -7 0.06271 0.10638   1
  -2  -2  -7 0.19792 0.08003   1
   2   2   7 0.01170 0.14056   2
   2   2   7 0.17102 0.10706   2
   3   2 -10 7.40394 0.36325  -2
  -3  -2  -7 7.40394 0.36325   1
   3   2 -10 7.69598 0.21766  -2
  -3  -2  -7 7.69598 0.21766   1
  -4  -2  -7 0.67341 0.13169   2
  -4  -2  -7 0.61771 0.13038   2
  -4  -2  -7 0.67214 0.13460   2
  -4  -2  -7 0.64902 0.12276   1
  -4  -2  -7 0.66774 0.05742   1
   4   2   7 0.87437 0.14708   2
   7  -3  -7 0.30028 0.07104   2
   6  -3  -7 9.56399 0.33473   2
   6  -3  -7 9.70266 0.37587   2
   6  -3  -7 9.58990 0.41309   2
   6  -3  -7 9.98110 0.37194   2
   6  -3  -7 9.00801 0.37452   1
   6  -3  -7 9.25513 0.36338   1
   5  -3  -7 3.63841 0.25251   2
   5  -3  -7 3.38390 0.28424   2
   5  -3  -7 3.28946 0.28116   2
   5  -3  -7 3.16125 0.26657   2
   5  -3  -7 3.71339 0.22303   2
   5  -3  -7 3.14433 0.24664   1
   5  -3  -7 3.14381 0.22857   1
   5  -3  -7 2.84848 0.23677   1
   5  -3  -7 3.13476 0.23662   1
   5  -3  -7 3.37925 0.27204   1
   5  -3  -7 3.03655 0.32478   1
   5  -3  -7 3.07906 0.19978   1
  -4   3  -7 902.595 19.0703  -2
   4  -3  -7 902.595 19.0703   1
  -4   3  -7 904.147 22.5294  -2
   4  -3  -7 904.147 22.5294   1
  -4   3  -7 905.632 18.4160  -2
   4  -3  -7 905.632 18.4160   1
  -4   3  -7 886.019 21.7854  -2
   4  -3  -7 886.019 21.7854   1
  -4   3  -7 914.749 18.0311  -2
   4  -3  -7 914.749 18.0311   1
  -4   3  -7 923.645 18.8443  -2
   4  -3  -7 923.645 18.8443   1
  -4   3  -7 920.433 19.1586  -2
   4  -3  -7 920.433 19.1586   1
   4  -3   7 842.324 22.6306  -2
  -4   3   7 842.324 22.6306   1
   3  -3  -7 0.42717 0.12979   1
   3  -3  -7 0.62829 0.16376   1
   3  -3  -7 0.56641 0.09596   1
   3  -3  -7 0.50550 0.09389   1
   3  -3  -7 0.39808 0.18968   1
   3  -3  -7 0.69365 0.28409   1
   3  -3  -7 0.38323 0.09378   1
   3  -3  -7 0.79173 0.17112   1
   3  -3  -7 0.66972 0.24535   1
   3  -3  -7 0.65555 0.12095   2
   3  -3  -7 0.61637 0.17456   2
   3  -3  -7 0.59753 0.16008   2
   3  -3  -7 0.27436 0.12636   2
   3  -3  -7 0.40639 0.12183   2
  -3   3   7 0.37536 0.19474   2
  -3   3   7 0.40726 0.32873   2
  -2   3  -8 1278.83 25.0924  -2
   2  -3  -7 1278.83 25.0924   1
  -2   3  -8 1294.11 26.7363  -2
   2  -3  -7 1294.11 26.7363   1
  -2   3  -8 1303.44 26.2921  -2
   2  -3  -7 1303.44 26.2921   1
  -2   3  -8 1220.31 26.5587  -2
   2  -3  -7 1220.31 26.5587   1
  -2   3  -8 1274.20 31.3108  -2
   2  -3  -7 1274.20 31.3108   1
  -2   3  -8 1203.16 23.4200  -2
   2  -3  -7 1203.16 23.4200   1
  -2   3  -8 1202.81 25.6504  -2
   2  -3  -7 1202.81 25.6504   1
  -2   3  -8 1356.88 30.4560  -2
   2  -3  -7 1356.88 30.4560   1
  -2   3  -8 1242.69 33.7120  -2
   2  -3  -7 1242.69 33.7120   1
   1  -3  -7 11.0329 0.48041   1
   1  -3  -7 11.5934 0.57546   1
   1  -3  -7 11.5830 0.33832   1
   1  -3  -7 10.6586 0.68410   1
   1  -3  -7 10.2302 0.74468   1
   1  -3  -7 11.3014 0.29167   1
   1  -3  -7 11.2963 0.47505   1
   1  -3  -7 11.3034 0.30931   1
   1  -3  -7 12.5702 0.47477   2
   1  -3  -7 11.5186 0.91982   2
   1  -3  -7 11.9722 1.16491   2
   1  -3  -7 12.2621 0.55932   2
   1  -3  -7 12.3409 0.52985   2
   1  -3  -7 12.1935 0.80620   2
   1  -3  -7 12.4633 0.42807   2
  -1   3   7 12.7941 0.65959   2
   0   3  -9 278.612 6.08232  -2
   0  -3  -7 278.612 6.08232   1
   0   3  -9 272.050 7.35756  -2
   0  -3  -7 272.050 7.35756   1
  -1  -3  -7 82.5613 2.01545   2
  -1  -3  -7 82.2688 1.77476   2
  -1  -3  -7 80.3969 2.04131   2
  -1  -3  -7 81.6702 2.68625   2
  -1  -3  -7 84.4496 1.93000   2
  -1  -3  -7 82.8070 2.03273   2
  -1  -3  -7 81.3993 1.93341   2
   1   3   7 80.3580 2.44443   2
   1   3   7 83.7546 1.81618   2
  -2  -3  -7 15.8476 0.60261   2
  -2  -3  -7 14.9681 0.55061   2
  -2  -3  -7 14.2397 0.85793   2
  -2  -3  -7 14.8590 0.57834   2
   2   3   7 15.4386 0.47584   2
   2   3   7 14.2855 0.68186   2
  -3  -3  -7 0.45019 0.12259   2
  -3  -3  -7 0.51879 0.13035   2
  -3  -3  -7 0.53890 0.13275   2
   3   3   7 0.41106 0.14110   2
  -4  -3  -7 0.41295 0.09714   2
  -4  -3  -7 0.04773 0.06874   2
   4   3   7 0.03643 0.07370   2
   6  -4  -7 1.26022 0.14901   1
   6  -4  -7 1.50847 0.16042   2
   6  -4  -7 1.24374 0.13295   2
  -6   4   7 1.43400 0.15320   2
  -5   4  -7 126.742 2.81789  -2
   5  -4  -7 126.742 2.81789   1
  -5   4  -7 126.388 2.68067  -2
   5  -4  -7 126.388 2.68067   1
  -5   4  -7 120.128 3.09392  -2
   5  -4  -7 120.128 3.09392   1
  -5   4  -7 121.158 2.70566  -2
   5  -4  -7 121.158 2.70566   1
  -5   4  -7 121.996 3.27933  -2
   5  -4  -7 121.996 3.27933   1
   4  -4  -7 1.16239 0.28268   1
   4  -4  -7 0.65901 0.15283   1
   4  -4  -7 0.52161 0.11998   1
   4  -4  -7 0.45459 0.09509   1
   4  -4  -7 0.85124 0.20301   1
   4  -4  -7 0.44766 0.11106   1
   4  -4  -7 0.46584 0.12515   1
   4  -4  -7 0.57356 0.14764   2
   4  -4  -7 0.56689 0.11819   2
   4  -4  -7 0.42569 0.11979   2
   4  -4  -7 0.40046 0.13576   2
   4  -4  -7 0.73782 0.17205   2
  -4   4   7 0.60982 0.27310   2
   3  -4  -7 40.9237 0.91452   1
   3  -4  -7 41.9423 1.13166   1
   3  -4  -7 41.1761 1.35450   1
   3  -4  -7 38.8316 1.48597   1
   3  -4  -7 40.8193 0.97930   1
   3  -4  -7 41.5217 1.14934   1
   3  -4  -7 40.2558 0.98865   1
   3  -4  -7 43.9780 1.20003   2
   3  -4  -7 44.9935 1.06696   2
   3  -4  -7 45.2057 1.28094   2
   3  -4  -7 44.9468 1.15987   2
  -3   4   7 45.7388 1.49620   2
   2  -4  -7 13.5693 0.84328   2
   2  -4  -7 14.0889 0.46985   2
   2  -4  -7 14.4009 0.52477   2
   2  -4  -7 15.0417 0.60141   2
   2  -4  -7 14.1805 0.55760   2
   2  -4  -7 13.4757 0.77023   1
   2  -4  -7 13.8114 0.56070   1
   2  -4  -7 13.6127 0.42166   1
   2  -4  -7 17.0074 0.39772   1
   2  -4  -7 15.5758 0.67988   1
   2  -4  -7 13.8669 0.53922   1
   2  -4  -7 13.5831 0.38819   1
  -2   4   7 13.7655 0.67656   2
   1  -4  -7 53.6528 1.40032   2
   1  -4  -7 53.7441 1.22500   2
   1  -4  -7 53.4076 1.34609   2
   1  -4  -7 54.0787 1.95226   2
   1  -4  -7 51.9294 1.44059   2
   1  -4  -7 48.9602 1.08870   1
   1  -4  -7 46.6317 1.67022   1
   1  -4  -7 48.3468 1.26898   1
   1  -4  -7 48.1167 1.49384   1
   1  -4  -7 48.0093 1.28329   1
   1  -4  -7 49.1194 0.99463   1
  -1   4   7 52.0834 1.70225   2
  -1   4   7 53.2270 1.24119   2
   0  -4  -7 28.7021 0.89993   2
   0  -4  -7 29.1174 0.89421   2
   0  -4  -7 31.9181 0.97424   2
   0  -4  -7 26.3351 1.24602   2
   0  -4  -7 29.0245 0.84595   2
   0   4   7 29.0525 0.75588   2
   0   4   7 27.8672 1.06690   2
  -1  -4  -7 38.7505 1.08788   2
  -1  -4  -7 39.5906 1.06606   2
  -1  -4  -7 40.1523 1.11239   2
   1   4   7 40.0601 0.95486   2
  -2  -4  -7 16.4183 0.55313   2
  -2  -4  -7 16.5695 0.57120   2
   2   4   7 16.3184 0.55541   2
  -3  -4  -7 19.4092 0.57695   2
  -3  -4  -7 20.1621 0.58242   2
  -3  -4  -7 19.7071 0.56063   2
   3   4   7 19.5012 0.55577   2
   3   4   7 20.0282 0.56458   2
   6  -5  -7 45.8860 1.05759   1
  -6   5   7 43.0098 1.09473   1
  -6   5   7 47.4380 1.08468   2
   5  -5  -7 26.9272 0.67837   1
   5  -5  -7 27.3358 0.72318   1
   5  -5  -7 26.2171 0.67101   1
   5  -5  -7 27.4487 0.74090   1
   5  -5  -7 28.9625 0.74845   2
   5  -5  -7 28.6246 0.80721   2
  -5   5   7 28.3946 0.76359   2
  -5   5   7 29.1720 0.65979   2
   4  -5  -7 15.8096 0.46179   1
   4  -5  -7 16.1455 0.45131   1
   4  -5  -7 15.6296 0.52300   1
   4  -5  -7 15.7473 0.53112   1
   4  -5  -7 15.7799 0.53219   1
   4  -5  -7 17.5166 0.60977   2
   4  -5  -7 17.8166 0.56225   2
  -4   5   7 17.3795 0.56608   2
   3  -5  -7 1.93535 0.19889   1
   3  -5  -7 1.73030 0.11855   1
   3  -5  -7 1.90418 0.13350   1
   3  -5  -7 1.91108 0.15400   1
   3  -5  -7 1.91481 0.20717   1
   3  -5  -7 2.14741 0.20246   2
   3  -5  -7 2.41544 0.23820   2
  -3   5   7 2.28398 0.16690   2
  -3   5   7 2.50918 0.22291   2
   2  -5  -7 3.98381 0.26937   2
   2  -5  -7 3.92976 0.27410   2
   2  -5  -7 4.17843 0.30045   2
   2  -5  -7 3.58746 0.23713   1
   2  -5  -7 3.87136 0.25895   1
   2  -5  -7 3.53336 0.16821   1
   2  -5  -7 3.54138 0.19190   1
   2  -5  -7 3.21340 0.31019   1
  -2   5   7 3.85915 0.20938   2
  -1   5 -10 28.1212 0.77567  -2
   1  -5  -7 28.1212 0.77567   1
  -1   5 -10 29.0712 0.84660  -2
   1  -5  -7 29.0712 0.84660   1
  -1   5 -10 29.3809 0.68394  -2
   1  -5  -7 29.3809 0.68394   1
   0  -5  -7 30.6574 0.86277   2
   0  -5  -7 31.3913 0.88372   2
   0   5   7 30.8461 0.74963   2
  -2  -5  -7 0.29238 0.08648   2
   2   5   7 0.31611 0.09844   2
   2   5   7 0.40442 0.09652   2
  -4   6  -9 25.0799 0.69124  -2
   4  -6  -7 25.0799 0.69124   1
  -4   6  -9 27.4008 0.71302  -2
   4  -6  -7 27.4008 0.71302   1
  -4   6  -9 25.7772 0.64162  -2
   4  -6  -7 25.7772 0.64162   1
   3  -6  -7 2.10381 0.13918   1
   3  -6  -7 1.95870 0.16840   1
   3  -6  -7 2.11612 0.15069   1
   3  -6  -7 2.04803 0.12248   1
   3  -6  -7 2.19489 0.18111   2
   3  -6  -7 2.41147 0.19434   2
  -3   6   7 2.05973 0.11322   2
  -3   6   7 2.17063 0.16826   2
  -2   6 -10 3.94683 0.26019  -2
   2  -6  -7 3.94683 0.26019   1
  -2   6 -10 3.60399 0.16569  -2
   2  -6  -7 3.60399 0.16569   1
   2  -6  -7 2.23474 0.13417   1
   1  -6  -7 1.47495 0.16323   2
   1  -6  -7 1.19680 0.13674   1
   1  -6  -7 1.24187 0.07622   1
  -1   6   7 1.23905 0.08841   2
   0  -6  -7 8.32496 0.32338   2
   0   6   7 8.48230 0.32737   2
   2   9  -8 1.68537 0.13512   1
   2   9  -8 2.34884 0.17602   2
   2   9  -8 2.00103 0.11267   2
   1   9  -8 0.28957 0.06246   1
   1   9  -8 0.24663 0.09079   1
   1   9  -8 0.21993 0.06259   2
   1   9  -8 0.31687 0.11027   2
  -1  -9   8 0.35771 0.10533   1
   0   9  -8 7.97436 0.33030   2
   0   9  -8 8.11582 0.27493   2
   0   9  -8 8.13587 0.37619   2
   0   9  -8 7.88216 0.31593   2
   0   9  -8 6.11265 0.18209   1
   0   9  -8 6.70088 0.29083   1
   0  -9   8 7.34550 0.31482   1
  -1   9  -8 2.12817 0.13591   2
  -1   9  -8 2.02272 0.19985   2
  -1   9  -8 1.82500 0.15950   2
  -1   9  -8 1.96013 0.18041   2
   1  -9   8 1.99051 0.19237   1
  -2   9  -8 1.38210 0.16495   2
  -2   9  -8 1.32545 0.15060   2
  -2   9  -8 1.39421 0.11198   2
   2  -9   8 1.20978 0.14181   1
  -3   9  -8 0.33087 0.11692   2
   3  -9   8 0.32408 0.09766   1
   3   8  -8 5.93870 0.21556   2
   3   8  -8 5.80387 0.26390   2
   3   8  -8 5.69422 0.30260   2
   3   8  -8 5.41379 0.21145   1
   3   8  -8 5.53107 0.25695   1
   2   8  -8 0.05984 0.09903   2
   2   8  -8 0.06622 0.05519   2
   2   8  -8 0.05780 0.10672   2
   2   8  -8 0.17627 0.09378   2
   2   8  -8 0.00603 0.05824   2
   2   8  -8 0.11395 0.08631   1
   2   8  -8 0.13842 0.07847   1
   1   8  -8 0.77791 0.11913   1
  -1  -8  -2 1.76663 0.23513  -2
   1   8  -8 1.76663 0.23513   1
   1   8   2 1.85327 0.13449  -2
  -1  -8   8 1.85327 0.13449   1
   0   8  -8 5.06738 0.23080   2
   0   8  -8 5.59614 0.32431   2
   0   8  -8 5.33935 0.35139   2
   0   8  -8 5.07031 0.35900   2
   0   8  -8 4.97592 0.37317   2
   0   8  -8 4.83399 0.25427   2
   0   8  -8 5.02359 0.30370   1
   0   8  -8 4.49547 0.21085   1
   0  -8   8 4.42080 0.22762   1
   0  -8   8 4.57424 0.30333   1
   1  -8  -3 30.7511 0.66304  -2
  -1   8  -8 30.7511 0.66304   1
  -1   8   3 29.7419 0.87106  -2
   1  -8   8 29.7419 0.87106   1
  -2   8  -8 0.29901 0.13208   2
  -2   8  -8 0.40409 0.13032   2
  -2   8  -8 0.55435 0.11375   2
  -2   8  -8 0.39259 0.08744   2
  -2   8  -8 0.43620 0.05472   2
  -2   8  -8 0.41101 0.13023   2
   2  -8   8 0.35277 0.10919   1
   2  -8   8 0.18186 0.12340   1
  -3   8  -8 19.6968 0.43904   2
  -3   8   4 18.9866 0.59814  -2
   3  -8   8 18.9866 0.59814   1
  -4   8  -8 1.87352 0.15897   2
   4  -8   8 1.63228 0.15020   1
  -4  -7  -1 41.6648 0.93619  -2
   4   7  -8 41.6648 0.93619   1
  -4  -7  -1 40.1491 1.01124  -2
   4   7  -8 40.1491 1.01124   1
   3   7  -8 31.7573 1.01437   2
   3   7  -8 31.8271 0.78931   2
   3   7  -8 30.5764 0.88131   2
   3   7  -8 30.9854 0.89795   2
   3   7  -8 32.3753 1.07246   2
   3   7  -8 26.8684 0.71295   1
   3   7  -8 27.1257 0.80493   1
  -2  -7  -2 19.4428 0.69645  -2
   2   7  -8 19.4428 0.69645   1
  -2  -7  -2 18.7233 0.59322  -2
   2   7  -8 18.7233 0.59322   1
   2   7   2 20.3522 0.57553  -2
  -2  -7   8 20.3522 0.57553   1
   1   7  -8 121.999 2.90599   1
   1   7  -8 125.448 2.71802   1
   1   7  -8 139.054 2.96950   2
   1   7  -8 140.409 3.39203   2
   1   7  -8 136.513 3.67694   2
   1   7  -8 139.010 3.54936   2
   1   7  -8 137.946 3.68083   2
  -1  -7   8 126.209 2.76478   1
   0  -7  -3 6.91882 0.41572  -2
   0   7  -8 6.91882 0.41572   1
   0  -7  -3 6.58341 0.66470  -2
   0   7  -8 6.58341 0.66470   1
   0   7  -8 7.69250 0.33677   2
   0   7  -8 7.72047 0.29787   2
   0   7  -8 6.74140 0.27874   1
   0   7   3 7.33719 0.45674  -2
   0  -7   8 7.33719 0.45674   1
  -1   7  -8 130.427 3.58777   2
  -1   7  -8 134.550 3.42567   2
  -1   7  -8 134.799 2.71806   2
  -1   7  -8 137.411 3.30435   2
  -1   7  -8 132.158 3.54820   2
  -1   7  -8 132.693 3.10467   2
  -1   7  -8 134.107 2.88915   2
  -1   7  -8 121.350 2.50619   1
  -1   7  -8 119.442 3.58831   1
   1  -7   8 120.832 2.78535   1
   1  -7   8 121.300 2.75936   1
  -2   7  -8 25.2791 0.78986   2
  -2   7  -8 25.2899 0.91487   2
  -2   7  -8 24.9444 0.82569   2
  -2   7  -8 25.9144 0.69829   2
  -2   7  -8 25.7330 0.61522   2
  -2   7  -8 26.3356 0.89478   2
  -2   7  -8 25.3775 0.96023   2
   2  -7   8 22.3660 0.74756   1
   2  -7   8 22.8991 0.75641   1
  -3   7  -8 33.4694 0.91563   1
  -3   7  -8 37.0407 1.12159   2
  -3   7  -8 35.6606 1.04467   2
  -3   7  -8 36.3590 1.14848   2
  -3   7  -8 35.8096 1.19157   2
  -3   7  -8 37.8465 1.04191   2
  -3   7  -8 36.9883 0.92305   2
  -3   7  -8 37.4043 0.84548   2
   3  -7   8 33.3234 0.95377   1
   3  -7   8 33.0359 0.94235   1
  -4   7  -8 14.4789 0.51807   2
  -4   7  -8 14.4123 0.48188   2
  -4   7  -8 12.6576 0.49065   2
  -4   7  -8 14.4634 0.42758   2
  -4   7  -8 14.1876 0.36739   2
  -4   7  -8 12.9301 0.43618   1
   4  -7   8 12.7334 0.46100   1
   4  -7   8 13.0580 0.45648   1
   4  -7   8 14.1370 0.45987   2
   5   6  -8 49.2635 1.06119   1
   4   6  -8 1.10245 0.16440   1
   4   6  -8 0.74874 0.11594   1
   4   6  -8 1.15957 0.19357   2
   4   6  -8 0.91919 0.18709   2
   4   6  -8 0.82956 0.14820   2
   4   6  -8 1.23341 0.11806   2
   4   6  -8 0.87001 0.12860   2
  -4  -6   8 0.63420 0.18448   1
   3   6  -8 210.002 5.05137   2
   3   6  -8 207.418 5.19186   2
   3   6  -8 214.074 4.42638   2
   3   6  -8 212.357 4.58070   2
   3   6  -8 209.084 5.41376   2
   3   6  -8 183.070 3.88697   1
   3   6  -8 180.982 4.74990   1
   3   6  -8 180.661 4.07865   1
  -3  -6   8 184.292 3.87447   1
   2   6  -8 17.7690 0.78742   1
   2   6  -8 17.4456 0.67212   1
   2   6  -8 18.0859 0.56494   1
   2   6  -8 18.6441 0.76627   2
   2   6  -8 19.7701 0.61901   2
   2   6  -8 19.5153 0.81066   2
   2   6  -8 20.1158 0.68920   2
   2   6  -8 20.0454 0.54490   2
  -2  -6   8 17.4863 0.60646   1
   1   6  -8 170.545 3.98177   1
   1   6  -8 179.543 4.93709   1
   1   6  -8 178.541 3.74490   1
   1   6  -8 193.477 3.99018   2
   1   6  -8 189.034 4.92475   2
   1   6  -8 191.311 4.55550   2
   1   6  -8 187.900 4.93000   2
   1   6  -8 189.238 4.75629   2
  -1  -6   8 173.251 3.89165   1
   0   6  -8 21.7082 0.83119   2
   0   6  -8 20.8630 0.83663   2
   0   6  -8 22.1335 0.66251   2
   0   6  -8 22.1164 0.76117   2
   0   6  -8 21.4446 0.57957   2
   0  -6  -4 59.1759 2.13519  -2
   0   6  -8 59.1759 2.13519   1
   0  -6  -4 60.0972 1.58302  -2
   0   6  -8 60.0972 1.58302   1
   0   6  -8 20.1106 0.55636   1
   0  -6   8 20.2182 0.53451   1
  -1   6  -8 15.6125 0.47755   2
  -1   6  -8 17.7377 0.55897   2
  -1   6  -8 15.7946 0.39812   2
  -1   6  -8 15.8605 0.73226   2
  -1   6  -8 15.3772 0.68512   2
  -1   6  -8 14.8198 0.62405   2
  -1   6  -8 15.5178 0.67077   2
  -1   6  -8 14.0806 0.84494   1
   1  -6   8 15.9709 0.92785   2
   1  -6   8 13.6433 0.42204   1
   1  -6   8 13.5744 0.57150   1
   1  -6   8 12.9849 0.58934   1
   2  -6  -5 20.3851 1.05552  -2
  -2   6  -8 20.3851 1.05552   1
   2  -6  -5 19.7350 0.70020  -2
  -2   6  -8 19.7350 0.70020   1
  -2   6   5 18.2250 0.77420  -2
   2  -6   8 18.2250 0.77420   1
  -2   6   5 20.3523 0.55673  -2
   2  -6   8 20.3523 0.55673   1
  -2   6   5 19.2074 0.69125  -2
   2  -6   8 19.2074 0.69125   1
  -3   6  -8 1.01603 0.18650   2
  -3   6  -8 0.71133 0.16147   2
  -3   6  -8 0.83780 0.14192   2
  -3   6  -8 0.93244 0.17492   2
  -3   6  -8 0.79384 0.12830   2
  -3   6  -8 0.93965 0.21995   2
  -3   6  -8 0.80841 0.10481   2
  -3   6  -8 0.77406 0.15270   1
   3  -6   8 0.68855 0.11685   1
   3  -6   8 1.02659 0.19783   1
   3  -6   8 0.92110 0.33944   2
   4  -6  -6 16.8296 0.58677  -2
  -4   6  -8 16.8296 0.58677   1
  -4   6   6 17.0774 0.44198  -2
   4  -6   8 17.0774 0.44198   1
  -4   6   6 18.7649 0.59142  -2
   4  -6   8 18.7649 0.59142   1
  -5   6  -8 0.39800 0.06229   2
  -5   6  -8 0.32256 0.09947   2
  -5   6  -8 0.34750 0.08217   1
   5  -6   8 0.26575 0.09209   1
   5  -6   8 0.15207 0.08254   2
   6   5  -8 1.05161 0.13195   2
   6   5  -8 0.91163 0.07752   2
   5   5  -8 154.298 3.78386   2
   5   5  -8 153.715 4.02815   2
   5   5  -8 158.654 3.31359   2
   5   5  -8 158.177 3.86039   2
   5   5  -8 156.035 3.40726   2
   5   5  -8 131.176 2.78711   1
  -5  -5   8 133.269 2.84591   1
   4   5  -8 7.36866 0.43039   2
   4   5  -8 7.18331 0.32257   2
   4   5  -8 6.69963 0.37459   2
   4   5  -8 7.07291 0.27656   2
   4   5  -8 6.85746 0.44177   2
   4   5  -8 6.29799 0.28856   1
   4   5  -8 6.01507 0.34498   1
   4   5  -8 5.94904 0.43513   1
  -4  -5   8 6.26803 0.28932   1
  -4  -5   8 6.46100 0.32941   1
  -3  -5  -3 77.3622 1.92480  -2
   3   5  -8 77.3622 1.92480   1
  -3  -5  -3 73.3982 2.21853  -2
   3   5  -8 73.3982 2.21853   1
   3   5  -8 55.7609 1.33397   1
   3   5   3 75.7393 1.82190  -2
  -3  -5   8 75.7393 1.82190   1
   3   5   3 75.6121 1.81151  -2
  -3  -5   8 75.6121 1.81151   1
   2   5  -8 2.21066 0.32709   1
   2   5  -8 2.24812 0.19450   1
   2   5  -8 2.42579 0.28143   1
   2   5  -8 2.52299 0.15989   2
   2   5  -8 2.63360 0.32304   2
   2   5  -8 2.61932 0.26547   2
   2   5  -8 2.88877 0.30006   2
   2   5  -8 2.74688 0.19282   2
  -2  -5   8 2.71699 0.28087   1
  -2  -5   8 2.76275 0.26046   1
  -1  -5  -4 37.9567 1.52393  -2
   1   5  -8 37.9567 1.52393   1
  -1  -5  -4 37.7669 0.92286  -2
   1   5  -8 37.7669 0.92286   1
  -1  -5  -4 36.7060 1.06581  -2
   1   5  -8 36.7060 1.06581   1
  -1  -5  -4 37.8344 1.12437  -2
   1   5  -8 37.8344 1.12437   1
   1   5   4 36.6033 1.24492  -2
  -1  -5   8 36.6033 1.24492   1
   1   5   4 38.7528 0.91866  -2
  -1  -5   8 38.7528 0.91866   1
   0   5  -8 -0.1054 0.11035   1
   0   5  -8 0.12554 0.10777   1
   0   5  -8 0.00374 0.22469   1
   0   5  -8 0.19142 0.06589   1
   0   5  -8 0.42324 0.22395   1
   0   5  -8 0.07565 0.11122   2
   0   5  -8 0.03768 0.14671   2
   0   5  -8 0.00414 0.11129   2
   0   5  -8 -0.0043 0.10727   2
   0  -5   8 0.15524 0.13397   1
   0  -5   8 0.19117 0.09979   1
   1  -5  -5 0.49378 0.36412  -2
  -1   5  -8 0.49378 0.36412   1
   1  -5  -5 0.33538 0.22688  -2
  -1   5  -8 0.33538 0.22688   1
  -1   5   5 0.34723 0.27975  -2
   1  -5   8 0.34723 0.27975   1
  -1   5   5 -0.4616 0.16718  -2
   1  -5   8 -0.4616 0.16718   1
  -1   5   5 0.25212 0.27829  -2
   1  -5   8 0.25212 0.27829   1
  -2   5  -8 20.5926 0.79956   2
  -2   5  -8 19.9329 0.85368   2
  -2   5  -8 19.6274 0.53711   2
  -2   5  -8 19.3822 0.72823   2
  -2   5  -8 20.6794 0.59148   2
  -2   5  -8 19.8970 0.73189   2
  -2   5  -8 21.1181 1.08177   2
  -2   5  -8 17.9615 0.65191   1
  -2   5  -8 18.4051 0.96503   1
   2  -5   8 18.0220 0.56905   1
   2  -5   8 17.7946 0.68238   1
   2  -5   8 17.7295 0.80501   1
  -3   5  -8 2.09445 0.38254   2
  -3   5  -8 1.87356 0.17323   2
  -3   5  -8 2.78530 0.26967   2
  -3   5  -8 2.01491 0.16088   2
  -3   5  -8 2.32972 0.21099   2
  -3   5  -8 1.92426 0.20956   1
  -3   5  -8 1.99098 0.23381   1
  -3   5  -8 2.30493 0.39498   1
   3  -5   8 1.77443 0.29046   1
   3  -5   8 2.36056 0.27552   1
  -4   5  -8 7.07718 0.35432   1
  -4   5  -8 7.21307 0.32271   1
  -4   5  -8 7.72791 0.46333   2
  -4   5  -8 8.39053 0.33418   2
  -4   5  -8 8.39607 0.40659   2
  -4   5  -8 8.25957 0.30794   2
  -4   5  -8 8.01213 0.40881   2
  -4   5  -8 7.89138 0.37884   2
   4  -5   8 6.82509 0.37541   1
  -5   5  -8 -0.0901 0.06503   1
  -5   5  -8 0.15755 0.07308   1
  -5   5  -8 0.19644 0.07313   2
  -5   5  -8 0.12246 0.09094   2
  -5   5  -8 0.07629 0.08503   2
  -5   5  -8 0.01677 0.05470   2
   5  -5   8 0.09871 0.09849   1
   5  -5   8 -0.0151 0.06393   1
   6   4   2 0.08779 0.12123  -2
  -6  -4   8 0.08779 0.12123   1
   5   4  -8 0.16833 0.10853   2
   5   4  -8 0.13874 0.07361   2
   5   4  -8 0.13847 0.07802   2
   5   4  -8 0.18954 0.13432   2
   5   4  -8 0.21203 0.14377   2
   5   4  -8 0.19356 0.08098   1
   5   4  -8 0.13412 0.14774   1
   5   4  -8 0.16196 0.10932   1
  -5  -4   8 0.23474 0.11853   1
  -5  -4   8 0.13788 0.07896   1
  -4  -4  -3 235.781 4.83226  -2
   4   4  -8 235.781 4.83226   1
  -4  -4  -3 230.578 5.09050  -2
   4   4  -8 230.578 5.09050   1
  -4  -4  -3 240.236 5.92512  -2
   4   4  -8 240.236 5.92512   1
   4   4   3 227.568 4.92586  -2
  -4  -4   8 227.568 4.92586   1
   4   4   3 217.591 4.91226  -2
  -4  -4   8 217.591 4.91226   1
   3   4  -8 20.0033 0.61549   2
   3   4  -8 19.8798 0.54418   2
   3   4  -8 25.4806 1.07251   2
   3   4  -8 19.4400 0.71451   2
   3   4  -8 19.0184 0.82344   2
   3   4  -8 17.6447 0.80185   1
   3   4  -8 17.3688 0.66760   1
   3   4  -8 17.5130 0.53941   1
  -3  -4   8 17.3808 0.61512   1
   2   4  -8 17.2000 0.48946   1
   2   4  -8 16.7114 0.64954   1
   2   4  -8 14.0035 0.57981   1
  -2  -4  -4 1788.18 51.5312  -2
   2   4  -8 1788.18 51.5312   1
  -2  -4  -4 1898.25 45.8084  -2
   2   4  -8 1898.25 45.8084   1
  -2  -4  -4 1903.93 44.6296  -2
   2   4  -8 1903.93 44.6296   1
  -2  -4   8 16.7862 0.70537   1
   1   4  -8 3.14029 0.27618   1
   1   4  -8 3.07094 0.53047   1
   1   4  -8 3.32004 0.28867   1
   1   4  -8 3.86235 0.49747   1
   1   4  -8 2.60619 0.13318   1
  -1  -4   8 2.99052 0.21397   1
  -1  -4   8 2.89584 0.31534   1
   0   4  -8 0.35560 0.22855   1
   0   4  -8 0.27630 0.12453   1
   0   4  -8 0.48930 0.27653   1
   0   4  -8 0.25012 0.13801   1
   0   4  -8 0.40769 0.14512   1
   0   4  -8 0.44299 0.26572   2
   0   4  -8 1.24731 0.20472   2
   0  -4   8 0.56259 0.13979   1
   0  -4   8 0.23356 0.16706   1
  -1   4  -8 7.75849 0.39946   1
  -1   4  -8 7.38916 0.39658   1
  -1   4  -8 7.52763 0.32697   1
  -1   4  -8 6.73774 0.35285   1
  -1   4  -8 8.11126 0.73328   1
  -1   4  -8 6.62443 0.60666   1
  -1   4  -8 8.43451 0.25118   2
  -1   4  -8 8.29961 0.43695   2
  -1   4  -8 8.48988 0.44819   2
  -1   4  -8 8.55712 0.27449   2
  -1   4  -8 8.80439 0.53076   2
  -1   4  -8 8.47635 0.29619   2
  -1   4  -8 8.28335 0.67384   2
   1  -4   8 7.38673 0.51505   1
  -2   4  -8 601.923 11.3433   2
  -2   4  -8 605.835 15.4698   2
  -2   4  -8 601.753 12.1098   2
  -2   4  -8 599.744 12.9761   2
  -2   4  -8 614.142 14.8396   2
  -2   4  -8 618.158 12.8466   2
  -2   4  -8 602.592 12.4248   2
  -2   4  -8 538.499 10.1359   1
  -2   4  -8 542.542 11.0426   1
  -2   4  -8 557.547 13.7106   1
  -2   4  -8 530.630 10.8710   1
  -2   4  -8 531.421 11.4841   1
   2  -4   8 512.221 14.8119   1
   2  -4   8 535.972 11.1716   1
   2  -4   8 544.269 13.7289   1
  -3   4  -8 18.0446 0.63875   1
  -3   4  -8 19.5742 0.68650   1
  -3   4  -8 18.5444 0.60071   1
  -3   4  -8 18.5499 0.55071   1
  -3   4  -8 20.4427 1.05827   2
  -3   4  -8 19.9879 0.57168   2
  -3   4  -8 20.4152 0.61807   2
  -3   4  -8 20.3213 0.84276   2
  -3   4  -8 20.3163 0.58322   2
  -3   4  -8 20.9412 0.76338   2
  -3   4  -8 20.9489 0.74525   2
   3  -4   8 18.0325 0.85169   1
  -4   4  -8 751.854 14.0443   1
  -4   4  -8 753.311 15.0477   1
  -4   4  -8 751.573 15.2376   1
  -4   4  -8 749.054 15.8741   1
  -4   4  -8 821.578 17.2380   2
  -4   4  -8 809.749 19.6919   2
  -4   4  -8 828.727 19.0269   2
  -4   4  -8 778.741 16.9829   2
  -4   4  -8 814.994 16.2465   2
  -4   4  -8 829.464 16.6455   2
   5  -4  -8 40.3976 1.05411  -2
  -5   4  -8 40.3976 1.05411   1
   5  -4  -8 41.1161 0.90775  -2
  -5   4  -8 41.1161 0.90775   1
   5  -4  -8 42.2016 0.96576  -2
  -5   4  -8 42.2016 0.96576   1
  -5   4   8 39.8618 1.01205  -2
   5  -4   8 39.8618 1.01205   1
   6   3  -8 3.55667 0.23984   2
   6   3  -8 3.20454 0.22319   2
   6   3  -8 3.16717 0.16387   2
   6   3  -8 3.31218 0.20472   2
   6   3  -8 3.33018 0.32953   1
  -6  -3   8 3.08596 0.15799   1
  -6  -3   8 3.29597 0.22795   1
   5   3  -8 1.59190 0.17021   2
   5   3  -8 1.81070 0.22225   2
   5   3  -8 1.41769 0.23394   2
   5   3  -8 1.72741 0.11275   2
   5   3  -8 2.00163 0.22644   2
   5   3  -8 1.75450 0.14956   2
   5   3  -8 1.64185 0.12459   1
   5   3  -8 1.35302 0.18094   1
   5   3  -8 1.76792 0.27312   1
  -5  -3   8 1.61895 0.18636   1
  -5  -3   8 1.52600 0.20535   1
   4   3  -8 24.4511 0.81914   2
   4   3  -8 24.6315 0.57015   2
   4   3  -8 25.4965 0.67011   2
   4   3  -8 24.2953 0.93971   2
   4   3  -8 24.7611 0.78512   2
   4   3  -8 25.1684 0.76043   2
   4   3  -8 22.5467 0.76653   1
   4   3  -8 22.6015 0.60397   1
   4   3  -8 23.7672 0.94322   1
  -4  -3   8 22.7738 0.74265   1
   3   3  -8 6.67001 0.47557   1
   3   3  -8 6.72525 0.24763   1
   3   3  -8 6.51790 0.68141   1
   3   3  -8 7.49124 0.41506   2
  -3  -3   8 6.64509 0.41641   1
   2   3  -8 187.740 4.80112   1
   2   3  -8 182.964 4.02053   1
   2   3  -8 187.879 5.08558   1
   2   3  -8 179.142 4.15264   1
   2   3  -8 180.747 5.83229   1
  -2  -3   8 186.490 4.96175   1
  -2  -3   8 186.671 3.79479   1
   1   3  -8 49.0754 1.84929   1
   1   3  -8 46.3178 1.09563   1
   1   3  -8 46.0595 1.26905   1
   1   3  -8 47.2911 1.27316   1
   1   3  -8 48.5511 2.02204   1
   1   3  -8 48.2046 1.31513   1
   1   3  -8 46.0299 1.21425   1
   1   3  -8 50.1874 1.73454   1
  -1  -3   8 48.8347 1.58376   1
   0  -3  -6 1901.07 38.4540  -2
   0   3  -8 1901.07 38.4540   1
   0  -3  -6 1901.55 50.4891  -2
   0   3  -8 1901.55 50.4891   1
   0  -3  -6 1872.03 38.0009  -2
   0   3  -8 1872.03 38.0009   1
   0  -3  -6 1922.50 35.4465  -2
   0   3  -8 1922.50 35.4465   1
   0  -3  -6 1850.12 39.9902  -2
   0   3  -8 1850.12 39.9902   1
   0  -3  -6 1959.33 52.7850  -2
   0   3  -8 1959.33 52.7850   1
   0  -3  -6 1913.62 46.9718  -2
   0   3  -8 1913.62 46.9718   1
   0   3   6 1993.09 47.6144  -2
   0  -3   8 1993.09 47.6144   1
  -1   3  -8 118.710 2.76853   1
  -1   3  -8 120.928 2.85457   1
  -1   3  -8 120.354 2.47276   1
  -1   3  -8 123.806 3.92212   1
  -1   3  -8 127.584 3.62273   1
  -1   3  -8 121.608 2.67107   1
  -1   3  -8 119.823 4.10886   1
  -1   3  -8 138.539 4.01260   2
  -1   3  -8 136.218 3.15559   2
  -1   3  -8 134.662 2.87574   2
  -1   3  -8 134.215 2.63455   2
  -1   3  -8 135.000 3.18876   2
  -1   3  -8 135.432 3.20251   2
  -1   3  -8 141.259 3.63149   2
  -1   3  -8 132.897 2.77938   2
  -1   3  -8 132.225 4.35416   2
   1  -3   8 123.611 3.49641   1
   2  -3  -7 1259.00 25.8801  -2
  -2   3  -8 1259.00 25.8801   1
   2  -3  -7 1305.40 30.4850  -2
  -2   3  -8 1305.40 30.4850   1
   2  -3  -7 1225.47 24.5122  -2
  -2   3  -8 1225.47 24.5122   1
   2  -3  -7 1201.92 22.8635  -2
  -2   3  -8 1201.92 22.8635   1
   2  -3  -7 1190.39 24.8428  -2
  -2   3  -8 1190.39 24.8428   1
  -2   3   7 1197.53 32.9252  -2
   2  -3   8 1197.53 32.9252   1
  -3   3  -8 0.42919 0.15205   2
  -3   3  -8 0.43893 0.25082   2
  -3   3  -8 0.27291 0.09480   2
  -3   3  -8 0.37656 0.14762   2
  -3   3  -8 0.31103 0.10087   2
  -3   3  -8 0.33655 0.14722   2
  -3   3  -8 0.78125 0.21720   2
  -3   3  -8 0.27304 0.09246   2
  -3   3  -8 0.19572 0.09337   1
  -3   3  -8 0.33185 0.13976   1
  -3   3  -8 0.34616 0.13022   1
  -3   3  -8 0.21492 0.08967   1
   3  -3   8 0.65953 0.32772   1
   3  -3   8 0.42880 0.24649   1
   4  -3  -8 74.5531 1.85780  -2
  -4   3  -8 74.5531 1.85780   1
   4  -3  -8 75.9899 1.61181  -2
  -4   3  -8 75.9899 1.61181   1
   4  -3  -8 76.6502 1.81015  -2
  -4   3  -8 76.6502 1.81015   1
   4  -3  -8 77.3884 1.71069  -2
  -4   3  -8 77.3884 1.71069   1
  -5   3  -8 19.8763 0.55974   2
  -5   3  -8 20.4359 0.54600   2
  -5   3  -8 19.6316 0.60114   2
  -5   3  -8 19.9369 0.62750   2
  -5   3  -8 18.3612 0.47072   1
  -5   3  -8 18.0835 0.46965   1
  -5   3  -8 18.3288 0.54012   1
  -5   3  -8 18.7895 0.54789   1
  -5   3  -8 17.7775 0.57867   1
   7   2  -8 0.67123 0.10069   2
   7   2  -8 0.54364 0.06961   2
   6   2  -8 3.74611 0.26485   2
   6   2  -8 3.54421 0.17774   2
   6   2  -8 2.65254 0.23022   2
   6   2  -8 2.98843 0.20744   2
   6   2  -8 3.05648 0.14240   2
   6   2  -8 2.53357 0.21577   1
  -6  -2   8 2.63477 0.19227   1
  -6  -2   8 2.80521 0.22935   1
  -5  -2  -4 25.9622 1.01018  -2
   5   2  -8 25.9622 1.01018   1
  -5  -2  -4 29.0858 0.87111  -2
   5   2  -8 29.0858 0.87111   1
   5   2   4 27.4988 0.85000  -2
  -5  -2   8 27.4988 0.85000   1
   5   2   4 26.9746 0.85432  -2
  -5  -2   8 26.9746 0.85432   1
   4   2  -8 489.010 10.4159   1
   4   2  -8 484.715 12.1038   1
   4   2  -8 552.696 12.7391   2
   4   2  -8 548.627 11.3289   2
   4   2  -8 542.087 11.1766   2
   4   2  -8 529.525 10.8197   2
   4   2  -8 545.466 11.1422   2
  -4  -2   8 498.189 10.1064   1
  -4  -2   8 489.741 12.4188   1
  -3  -2  -5 141.629 3.42958  -2
   3   2  -8 141.629 3.42958   1
  -3  -2  -5 159.566 4.71601  -2
   3   2  -8 159.566 4.71601   1
  -3  -2  -5 150.936 3.36219  -2
   3   2  -8 150.936 3.36219   1
  -3  -2  -5 161.323 4.30579  -2
   3   2  -8 161.323 4.30579   1
  -3  -2  -5 142.381 3.97429  -2
   3   2  -8 142.381 3.97429   1
  -3  -2  -5 147.707 4.94435  -2
   3   2  -8 147.707 4.94435   1
   3   2   5 148.930 4.12366  -2
  -3  -2   8 148.930 4.12366   1
   2   2  -8 1513.37 31.3446   1
   2   2  -8 1573.83 37.0433   1
   2   2  -8 1567.66 42.7069   1
   2   2  -8 1513.49 30.7099   1
   2   2  -8 1524.83 31.0811   1
   2   2  -8 1521.10 28.6302   1
   2   2  -8 1557.91 37.9510   1
   2   2  -8 1504.46 32.2980   1
   2   2  -8 1557.40 40.8524   1
   2   2  -8 1788.26 49.0183   2
   2   2  -8 1753.28 35.5788   2
  -2  -2   8 1538.10 30.0036   1
  -2  -2   8 1612.29 38.4638   1
  -1  -2  -6 134.929 2.78458  -2
   1   2  -8 134.929 2.78458   1
  -1  -2  -6 134.616 3.12465  -2
   1   2  -8 134.616 3.12465   1
  -1  -2  -6 132.904 3.20105  -2
   1   2  -8 132.904 3.20105   1
  -1  -2  -6 150.257 4.06132  -2
   1   2  -8 150.257 4.06132   1
  -1  -2  -6 141.754 4.62195  -2
   1   2  -8 141.754 4.62195   1
  -1  -2  -6 136.647 3.01733  -2
   1   2  -8 136.647 3.01733   1
  -1  -2  -6 139.235 3.21057  -2
   1   2  -8 139.235 3.21057   1
  -1  -2  -6 146.917 4.39771  -2
   1   2  -8 146.917 4.39771   1
   1   2   6 145.476 3.92316  -2
  -1  -2   8 145.476 3.92316   1
   0   2  -8 532.368 11.0706   1
   0   2  -8 529.635 10.8528   1
   0   2  -8 526.051 11.4820   1
   0   2  -8 547.529 14.7554   1
   0   2  -8 558.773 13.6976   1
   0   2  -8 537.903 15.4435   1
   0   2  -8 536.083 10.1098   1
   0   2  -8 584.968 11.6148   2
   0   2  -8 589.844 12.5250   2
   0   2  -8 585.476 14.8712   2
   0   2  -8 593.484 16.1225   2
   0   2  -8 576.770 10.8783   2
  -1   2  -8 9.73595 0.31784   2
  -1   2  -8 9.74443 0.30593   2
  -1   2  -8 9.91247 0.47849   2
  -1   2  -8 9.63249 0.46888   2
  -1   2  -8 9.17931 0.46954   2
  -1   2  -8 10.0140 0.70967   2
  -1   2  -8 10.2953 0.83126   2
  -1   2  -8 8.02544 0.66851   1
  -1   2  -8 8.76687 0.42612   1
  -1   2  -8 8.49008 0.41897   1
  -1   2  -8 8.57500 0.34319   1
  -1   2  -8 8.00606 0.72748   1
  -1   2  -8 8.78429 0.31700   1
  -1   2  -8 8.89005 0.62625   1
  -2   2  -8 8.76587 0.46124   2
  -2   2  -8 8.36173 0.33461   2
  -2   2  -8 8.21356 0.44721   2
  -2   2  -8 8.73391 0.31944   2
  -2   2  -8 8.70919 0.33598   2
  -2   2  -8 8.49101 0.45797   2
  -2   2  -8 8.43871 0.50740   2
  -2   2  -8 8.78197 0.79975   2
  -2   2  -8 11.9025 0.76406   2
  -2   2  -8 7.60435 0.58729   1
  -2   2  -8 7.70119 0.39923   1
  -2   2  -8 7.47335 0.30002   1
  -2   2  -8 8.13701 0.32297   1
  -2   2  -8 7.84097 0.40982   1
  -3   2  -8 1.31515 0.20969   2
  -3   2  -8 1.34448 0.24689   2
  -3   2  -8 1.66141 0.17636   2
  -3   2  -8 1.60516 0.17317   2
  -3   2  -8 1.51420 0.22447   2
  -3   2  -8 2.07752 0.26445   2
  -3   2  -8 2.33740 0.43625   2
  -3   2  -8 1.54234 0.16672   2
  -3   2  -8 1.52353 0.21642   1
  -3   2  -8 1.52384 0.15148   1
  -3   2  -8 1.43502 0.14761   1
  -3   2  -8 1.30066 0.21735   1
  -3   2  -8 1.64132 0.21394   1
   3  -2   8 2.14817 0.74108   1
  -4   2  -8 30.9272 0.82289   2
  -4   2  -8 29.3148 1.05301   2
  -4   2  -8 31.1418 0.84150   2
  -4   2  -8 31.2121 0.77543   2
  -4   2  -8 30.9876 0.92582   2
  -4   2  -8 31.2465 0.94722   2
  -4   2  -8 30.8127 0.94669   2
  -4   2  -8 27.2571 0.85287   1
  -4   2  -8 28.2100 0.68596   1
  -4   2  -8 27.8107 0.69128   1
  -4   2  -8 27.7078 0.81673   1
  -4   2  -8 27.8568 0.82271   1
  -5   2  -8 16.7845 0.47891   2
  -5   2  -8 17.2000 0.53993   2
  -5   2  -8 15.8972 0.52472   2
  -5   2  -8 17.1484 0.54868   2
  -5   2  -8 14.1960 0.48471   1
  -5   2  -8 14.6349 0.32520   1
  -5   2  -8 14.5896 0.38463   1
  -5   2  -8 14.4792 0.46590   1
   7   1  -8 9.75650 0.27560   2
   7   1  -8 9.59309 0.32875   2
   7   1  -8 9.36479 0.33131   2
  -7  -1   8 8.43521 0.22261   1
   6   1   4 282.377 5.79640  -2
  -6  -1   8 282.377 5.79640   1
   6   1   4 270.041 5.75017  -2
  -6  -1   8 270.041 5.75017   1
   5   1  -8 122.771 2.48714   2
   5   1  -8 126.931 2.82702   2
   5   1  -8 124.429 2.86793   2
   5   1  -8 125.138 2.61497   2
   5   1  -8 124.662 3.11122   2
   5   1  -8 110.573 2.57869   1
   5   1  -8 110.848 3.06042   1
  -5  -1   8 111.962 2.51349   1
   4   1  -8 294.917 6.43198   1
  -4  -1  -5 298.192 9.17762  -2
   4   1  -8 298.192 9.17762   1
  -4  -1  -5 342.161 8.22617  -2
   4   1  -8 342.161 8.22617   1
   4   1  -8 335.283 7.94108   2
  -4  -1   8 297.894 7.70360   1
   4   1   5 337.368 6.84221  -2
  -4  -1   8 337.368 6.84221   1
   3   1  -8 13.0410 0.92304   1
   3   1  -8 14.4810 0.69289   1
   3   1  -8 14.8561 0.54858   1
   3   1  -8 14.6566 0.58209   1
   3   1  -8 14.0302 0.48562   1
   3   1  -8 14.3874 0.88937   1
   3   1  -8 15.4555 0.46977   1
   3   1  -8 14.6786 0.52717   1
   3   1  -8 14.4784 0.56032   1
   3   1  -8 15.0152 0.79237   1
   3   1  -8 15.9305 1.15934   2
   3   1  -8 16.2985 0.43845   2
   3   1  -8 17.9375 0.54739   2
   3   1  -8 16.9096 0.43754   2
   3   1  -8 18.6284 0.64792   2
   3   1  -8 16.8705 0.62562   2
  -3  -1   8 14.4527 0.48455   1
  -3  -1   8 14.7496 0.70051   1
  -3  -1   8 15.5952 1.04261   2
   2   1  -8 39.0706 1.64121   1
   2   1  -8 37.7181 1.07667   1
   2   1  -8 38.3376 1.28587   1
   2   1  -8 36.0300 1.67427   1
   2   1  -8 43.7273 0.98438   1
   2   1  -8 36.4040 1.06472   1
   2   1  -8 36.4553 1.10043   1
   2   1  -8 41.6131 1.50236   1
   2   1  -8 37.1433 0.99490   1
   2   1  -8 42.3401 1.83487   2
   2   1  -8 39.6557 0.85914   2
   2   1  -8 40.6322 1.12267   2
   2   1  -8 41.9940 0.88226   2
   2   1  -8 39.9614 1.90929   2
  -2  -1   8 38.9571 1.35595   1
   1   1  -8 17.4963 0.90062   2
   1   1  -8 16.7812 1.03221   2
   1   1  -8 17.4838 1.14710   2
   1   1  -8 16.4335 0.41208   2
   1   1  -8 16.6624 0.60304   2
   1   1  -8 17.0053 0.63793   2
   1   1  -8 16.9256 0.41167   2
   1   1  -8 15.1354 0.43949   1
   1   1  -8 14.3429 0.56174   1
   1   1  -8 15.9554 0.82538   1
   1   1  -8 15.7660 0.89820   1
   1   1  -8 14.9951 0.57569   1
   1   1  -8 15.3756 0.49003   1
   1   1  -8 14.9342 0.56496   1
   1   1  -8 14.3919 0.94398   1
  -1  -1   8 15.4740 0.96643   1
   0   1  -8 3.28737 0.49848   1
   0   1  -8 3.42326 0.19660   1
   0   1  -8 3.02866 0.17504   1
   0   1  -8 3.81489 0.41230   1
   0   1  -8 3.54407 0.27734   1
   0   1  -8 2.92893 0.47574   1
   0   1  -8 2.99235 0.26040   1
   0   1  -8 3.38188 0.56447   2
   0   1  -8 4.36239 0.54383   2
   0   1  -8 3.41945 0.28540   2
   0   1  -8 3.54612 0.17088   2
   0   1  -8 3.59795 0.16559   2
   0   1  -8 4.19538 0.31071   2
  -1   1  -8 10.3126 0.48136   2
  -1   1  -8 11.0499 0.74521   2
  -1   1  -8 9.78439 0.32294   2
  -1   1  -8 9.86057 0.48627   2
  -1   1  -8 9.82661 0.34720   2
  -1   1  -8 9.76122 0.48577   2
  -1   1  -8 9.52792 0.80961   2
  -1   1  -8 8.71468 0.69888   1
  -1   1  -8 9.05803 0.74007   1
  -1   1  -8 8.86113 0.30427   1
  -1   1  -8 9.06306 0.43015   1
  -1   1  -8 9.04450 0.61726   1
  -1   1  -8 8.84538 0.43492   1
  -1   1  -8 8.62745 0.31820   1
  -2   1  -8 22.8310 1.32369   2
  -2   1  -8 25.0622 0.93970   2
  -2   1  -8 24.4240 0.85573   2
  -2   1  -8 24.8717 0.69758   2
  -2   1  -8 24.9167 0.65576   2
  -2   1  -8 26.3487 1.20949   2
  -2   1  -8 24.2596 0.70079   2
  -2   1  -8 25.1368 0.83565   2
  -2   1  -8 25.5065 0.85154   2
  -2   1  -8 21.7902 1.19110   1
  -2   1  -8 22.1385 0.74560   1
  -2   1  -8 23.1645 0.75798   1
  -2   1  -8 22.6364 0.59739   1
  -2   1  -8 21.9926 0.57541   1
   3  -1  -9 97.7803 1.94795  -2
  -3   1  -8 97.7803 1.94795   1
   3  -1  -9 93.9090 2.23672  -2
  -3   1  -8 93.9090 2.23672   1
   3  -1  -9 94.6755 2.02809  -2
  -3   1  -8 94.6755 2.02809   1
   3  -1  -9 96.2856 2.32019  -2
  -3   1  -8 96.2856 2.32019   1
  -4   1  -8 5.66158 0.33573   2
  -4   1  -8 5.74755 0.28203   2
  -4   1  -8 6.09968 0.28654   2
  -4   1  -8 5.28060 0.37178   2
  -4   1  -8 5.87997 0.26934   2
  -4   1  -8 5.77333 0.33602   2
  -4   1  -8 6.12645 0.34755   2
  -4   1  -8 5.17358 0.21406   1
  -4   1  -8 5.05198 0.32529   1
  -4   1  -8 5.24814 0.15994   1
  -4   1  -8 5.19995 0.30528   1
   5  -1 -10 65.3264 1.30213  -2
  -5   1  -8 65.3264 1.30213   1
   5  -1 -10 65.2461 1.48223  -2
  -5   1  -8 65.2461 1.48223   1
   7   0  -8 18.2143 0.51846   2
   7   0  -8 18.9454 0.45232   2
   7   0  -8 18.1825 0.52306   2
   7   0  -8 18.7274 0.40122   2
  -7   0   8 15.6186 0.41496   1
   6   0  -8 0.02249 0.05607   2
   6   0  -8 -0.0886 0.08316   2
   6   0  -8 0.03737 0.05964   2
   6   0  -8 0.07270 0.10005   2
  -6   0   8 0.12544 0.09665   1
  -6   0   8 0.02969 0.09546   1
   5   0  -8 5.01579 0.23307   2
   5   0  -8 4.89018 0.34063   2
   5   0  -8 5.10311 0.33038   2
   5   0  -8 5.09187 0.23736   2
   5   0  -8 4.59440 0.29365   1
   5   0  -8 4.11191 0.36150   1
   5   0  -8 4.49934 0.32040   1
  -5   0   8 4.19683 0.28482   1
  -5   0   8 4.39147 0.34304   1
   4   0  -8 3.24615 0.28673   2
   4   0  -8 3.52894 0.31753   2
   4   0  -8 2.98115 0.18460   2
   4   0  -8 4.06218 0.20348   2
   4   0  -8 2.65480 0.43700   1
   4   0  -8 2.77819 0.27378   1
   4   0  -8 2.95881 0.24267   1
   4   0  -8 2.68617 0.22969   1
   4   0  -8 2.52023 0.27304   1
   4   0  -8 2.87264 0.24276   1
  -4   0  -6 3.79724 0.47153  -2
   4   0  -8 3.79724 0.47153   1
  -4   0   8 3.44444 0.60050   2
  -4   0   8 3.10699 0.26758   1
  -4   0   8 2.79656 0.31258   1
   3   0  -8 0.89348 0.18258   1
   3   0  -8 1.36228 0.15754   1
   3   0  -8 0.49619 0.12892   1
   3   0  -8 0.57144 0.12087   1
   3   0  -8 0.89587 0.28611   1
   3   0  -8 0.81853 0.11766   1
   3   0  -8 0.86059 0.17215   1
   3   0  -8 0.69090 0.20430   1
   3   0  -8 0.74169 0.15930   1
   3   0  -8 0.89593 0.26378   1
   3   0  -8 0.76805 0.10323   2
   3   0  -8 0.75181 0.09781   2
   3   0  -8 0.87861 0.19094   2
   3   0  -8 0.75062 0.17949   2
   3   0  -8 1.01056 0.39305   2
  -3   0   8 0.70377 0.20747   1
  -3   0   8 1.01115 0.37482   2
  -2   0  -7 17.3883 0.67314  -2
   2   0  -8 17.3883 0.67314   1
  -2   0  -7 18.6923 0.80228  -2
   2   0  -8 18.6923 0.80228   1
  -2   0  -7 18.4516 0.52899  -2
   2   0  -8 18.4516 0.52899   1
  -2   0  -7 18.5818 0.69048  -2
   2   0  -8 18.5818 0.69048   1
  -2   0  -7 17.6003 0.56129  -2
   2   0  -8 17.6003 0.56129   1
  -2   0  -7 19.0930 1.14833  -2
   2   0  -8 19.0930 1.14833   1
  -2   0  -7 18.1238 0.67102  -2
   2   0  -8 18.1238 0.67102   1
  -2   0  -7 18.8009 0.99496  -2
   2   0  -8 18.8009 0.99496   1
  -2   0  -7 18.1693 0.58733  -2
   2   0  -8 18.1693 0.58733   1
   1   0  -8 6.59777 0.35494   1
   1   0  -8 6.36345 0.35139   1
   1   0  -8 6.02633 0.36517   1
   1   0  -8 5.52743 0.53105   1
   1   0  -8 7.14964 0.54128   1
   1   0  -8 6.79921 0.25209   1
   1   0  -8 6.54016 0.63727   1
   1   0  -8 6.78376 0.36631   1
   1   0  -8 6.81633 0.27754   1
   1   0  -8 7.60412 0.61614   2
   1   0  -8 7.91836 0.71064   2
   1   0  -8 7.75017 0.41822   2
   1   0  -8 7.53306 0.38926   2
   1   0  -8 7.26723 0.26836   2
   1   0  -8 7.25025 0.25730   2
   1   0  -8 6.89193 0.73910   2
   0   0  -8 3.34439 0.27173  -2
   0   0  -8 3.34439 0.27173   1
   0   0  -8 3.15051 0.52536  -2
   0   0  -8 3.15051 0.52536   1
   0   0  -8 3.38215 0.18686  -2
   0   0  -8 3.38215 0.18686   1
   0   0  -8 3.45698 0.28197  -2
   0   0  -8 3.45698 0.28197   1
   0   0  -8 3.32076 0.47722  -2
   0   0  -8 3.32076 0.47722   1
   0   0  -8 3.66563 0.48411  -2
   0   0  -8 3.66563 0.48411   1
   0   0  -8 4.47606 0.19435  -2
   0   0  -8 4.47606 0.19435   1
  -1   0  -8 14.4847 0.43697   2
  -1   0  -8 15.0813 0.58803   2
  -1   0  -8 14.6713 0.59895   2
  -1   0  -8 13.0154 0.96940   2
  -1   0  -8 14.2007 0.60741   2
  -1   0  -8 15.2028 0.59717   2
  -1   0  -8 15.0348 0.47736   2
  -1   0  -8 15.1204 0.89492   2
  -1   0  -8 12.5022 0.91334   1
  -1   0  -8 13.6478 0.54381   1
  -1   0  -8 14.0158 0.38496   1
  -1   0  -8 13.2914 0.54345   1
  -1   0  -8 13.1839 0.86717   1
  -1   0  -8 13.9751 0.75161   1
  -1   0  -8 13.9831 0.38474   1
   2   0  -9 91.3144 1.86548  -2
  -2   0  -8 91.3144 1.86548   1
   2   0  -9 87.8356 1.80835  -2
  -2   0  -8 87.8356 1.80835   1
   2   0  -9 89.6635 2.18701  -2
  -2   0  -8 89.6635 2.18701   1
   2   0  -9 91.4086 2.14222  -2
  -2   0  -8 91.4086 2.14222   1
  -3   0  -8 131.452 3.07340   2
  -3   0  -8 133.794 2.85442   2
  -3   0  -8 133.232 2.66352   2
  -3   0  -8 129.697 3.83252   2
  -3   0  -8 131.803 3.08552   2
  -3   0  -8 129.836 2.89382   2
  -3   0  -8 131.303 3.03871   2
  -3   0  -8 127.996 3.48216   2
  -3   0  -8 120.658 2.71538   1
  -3   0  -8 119.901 2.36017   1
  -4   0  -8 87.3269 2.11386   2
  -4   0  -8 87.7090 1.94616   2
  -4   0  -8 88.5310 2.07147   2
  -4   0  -8 87.9737 2.07036   2
  -4   0  -8 87.3968 1.97281   2
  -4   0  -8 88.0462 1.82026   2
  -4   0  -8 80.7689 1.84187   1
  -4   0  -8 79.4054 1.58721   1
  -5   0  -8 139.331 3.01430   2
  -5   0  -8 141.636 3.08122   2
   7  -1  -8 5.02912 0.14709   2
   7  -1   5 4.51426 0.20662  -2
  -7   1   8 4.51426 0.20662   1
   6  -1  -8 4.61880 0.21433   2
   6  -1  -8 4.48459 0.21003   2
   6  -1  -8 4.58173 0.29623   2
   6  -1  -8 4.76857 0.28572   2
   6  -1  -8 3.97678 0.25124   1
  -5   1  -6 1.56504 0.20339  -2
   5  -1  -8 1.56504 0.20339   1
  -5   1  -6 1.21421 0.18566  -2
   5  -1  -8 1.21421 0.18566   1
  -5   1  -6 1.15344 0.19458  -2
   5  -1  -8 1.15344 0.19458   1
  -5   1  -6 0.91692 0.16910  -2
   5  -1  -8 0.91692 0.16910   1
  -5   1  -6 0.94603 0.23136  -2
   5  -1  -8 0.94603 0.23136   1
   4  -1  -8 0.63012 0.11120   1
   4  -1  -8 0.52336 0.19047   1
   4  -1  -8 0.69800 0.15783   1
   4  -1  -8 0.96492 0.26867   1
   4  -1  -8 1.00107 0.30915   1
   4  -1  -8 0.79665 0.11643   1
   4  -1  -8 0.69994 0.14526   1
   4  -1  -8 0.94607 0.18953   1
   4  -1  -8 0.75052 0.13684   1
   4  -1  -8 0.86054 0.12236   2
   4  -1  -8 0.97120 0.12762   2
   4  -1  -8 0.99521 0.19750   2
   4  -1  -8 0.99329 0.18673   2
  -4   1   8 0.93836 0.37102   2
  -4   1   8 0.91563 0.22069   1
  -3   1  -7 2.08802 0.43065  -2
   3  -1  -8 2.08802 0.43065   1
  -3   1  -7 1.87229 0.18483  -2
   3  -1  -8 1.87229 0.18483   1
  -3   1  -7 2.08460 0.27262  -2
   3  -1  -8 2.08460 0.27262   1
  -3   1  -7 2.04641 0.36378  -2
   3  -1  -8 2.04641 0.36378   1
  -3   1  -7 2.05087 0.19078  -2
   3  -1  -8 2.05087 0.19078   1
  -3   1  -7 1.88338 0.21652  -2
   3  -1  -8 1.88338 0.21652   1
  -3   1  -7 1.95342 0.26644  -2
   3  -1  -8 1.95342 0.26644   1
  -3   1  -7 1.74986 0.45158  -2
   3  -1  -8 1.74986 0.45158   1
   2  -1  -8 63.9165 1.36048   2
   2  -1  -8 65.2974 1.69484   2
   2  -1  -8 61.7255 2.66332   2
   2  -1  -8 64.6644 1.44770   2
   2  -1  -8 64.1822 1.61597   2
   2  -1  -8 63.7151 2.53030   2
   2  -1  -8 57.2929 1.50026   1
   2  -1  -8 58.4061 1.33573   1
   2  -1  -8 57.5965 1.34831   1
   2  -1  -8 58.2177 1.50952   1
   2  -1  -8 57.4173 1.23290   1
   2  -1  -8 59.3855 1.77125   1
   2  -1  -8 59.7823 1.97368   1
   2  -1  -8 57.0571 1.54937   1
   2  -1  -8 55.9234 2.18757   1
   1  -1  -8 42.8920 1.55304   1
   1  -1  -8 42.1430 0.95944   1
   1  -1  -8 40.5553 0.90447   1
   1  -1  -8 40.9609 1.18096   1
   1  -1  -8 39.9544 1.68232   1
   1  -1  -8 41.9219 1.15127   1
   1  -1  -8 41.0724 1.15529   1
   1  -1  -8 45.5158 1.09935   2
   1  -1  -8 46.1351 1.02883   2
   1  -1  -8 46.0691 1.73869   2
   1  -1  -8 45.1318 1.98382   2
   1  -1  -8 45.4896 2.12227   2
   1  -1  -8 46.8434 1.30895   2
   1  -1  -8 46.2620 1.25829   2
   0  -1  -8 111.430 3.63192   1
   0  -1  -8 109.901 2.18886   1
   0  -1  -8 111.159 2.54763   1
   0  -1  -8 113.354 3.29689   1
   0  -1  -8 113.040 2.63979   1
   0  -1  -8 111.941 2.29937   1
   0  -1  -8 117.214 4.24354   2
   0  -1  -8 120.335 2.77433   2
   0  -1  -8 119.424 2.60255   2
   0  -1  -8 119.868 2.42926   2
   0  -1  -8 120.573 4.05700   2
   0  -1  -8 129.105 3.71312   2
   0  -1  -8 120.573 2.89195   2
  -1  -1  -8 164.347 5.37158   2
  -1  -1  -8 172.564 3.63198   2
  -1  -1  -8 175.251 4.92820   2
  -1  -1  -8 172.383 3.38544   2
  -1  -1  -8 170.795 3.87700   2
  -1  -1  -8 171.280 3.94343   2
  -1  -1  -8 172.734 3.79706   2
  -1  -1  -8 157.143 3.46144   1
  -1  -1  -8 160.061 3.57712   1
  -1  -1  -8 156.844 3.00850   1
  -1  -1  -8 154.145 4.82264   1
  -2  -1  -8 87.3146 2.13828   2
  -2  -1  -8 84.5344 2.78236   2
  -2  -1  -8 88.1109 1.85290   2
  -2  -1  -8 88.0843 2.16938   2
  -2  -1  -8 88.5913 2.10402   2
  -2  -1  -8 87.3752 2.16865   2
  -2  -1  -8 87.8308 1.98981   2
  -2  -1  -8 86.0948 2.00859   2
  -2  -1  -8 80.7312 1.91157   1
  -2  -1  -8 80.8831 1.94119   1
  -2  -1  -8 79.0078 1.58465   1
   2   1   8 87.2103 2.59983   2
  -3  -1  -8 132.230 3.05103   2
  -3  -1  -8 136.271 2.69611   2
  -3  -1  -8 133.235 3.06579   2
  -3  -1  -8 133.391 3.09827   2
  -3  -1  -8 133.989 2.92948   2
  -3  -1  -8 128.654 2.87129   2
  -3  -1  -8 120.666 2.66497   1
  -3  -1  -8 119.411 2.30399   1
   3   1   8 137.198 2.94436   2
  -4  -1  -8 27.4783 0.79157   2
  -4  -1  -8 27.7637 0.72174   2
  -4  -1  -8 28.0652 0.77423   2
  -4  -1  -8 25.2523 0.51270   1
  -4  -1  -8 24.9907 0.67875   1
   4   1   8 27.8363 0.72492   2
  -6   2  -6 16.0124 0.53495  -2
   6  -2  -8 16.0124 0.53495   1
   6  -2  -8 8.72713 0.29588   2
   6  -2  -8 8.91121 0.29873   2
   6  -2  -8 8.99647 0.37916   2
   5  -2  -8 1.42913 0.19093   2
   5  -2  -8 1.25746 0.13933   2
   5  -2  -8 1.23849 0.14155   2
   5  -2  -8 0.93868 0.16785   2
   5  -2  -8 1.03403 0.17957   1
   5  -2  -8 1.19719 0.16257   1
   5  -2  -8 1.33757 0.16980   1
   5  -2  -8 0.87222 0.20381   1
   5  -2  -8 1.01991 0.16416   1
   4  -2  -8 38.9873 1.45825   1
   4  -2  -8 40.1821 1.02434   1
   4  -2  -8 41.2679 0.93877   1
   4  -2  -8 40.1675 1.34656   1
   4  -2  -8 40.1377 1.12649   1
   4  -2  -8 41.9079 1.01855   1
   4  -2  -8 40.2956 1.11821   1
   4  -2  -8 41.3147 1.17147   1
   4  -2  -8 44.9097 1.10599   2
   4  -2  -8 44.4590 1.04533   2
   4  -2  -8 45.8614 1.26471   2
   4  -2  -8 47.1268 1.26038   2
   4  -2  -8 46.3321 1.22969   2
  -4   2   8 38.9972 1.38323   1
   3  -2  -8 21.1296 0.72163   1
   3  -2  -8 20.2434 0.58589   1
   3  -2  -8 21.2412 0.85875   1
   3  -2  -8 20.7555 0.59869   1
   3  -2  -8 20.9169 0.54544   1
   3  -2  -8 20.8672 0.98494   1
   3  -2  -8 20.4717 0.69939   1
   3  -2  -8 19.8068 1.09335   1
   3  -2  -8 20.9236 0.74047   1
   3  -2  -8 23.6102 0.76246   2
   3  -2  -8 23.0346 0.61144   2
   3  -2  -8 22.9893 0.64395   2
   3  -2  -8 22.9254 0.75968   2
   3  -2  -8 22.1412 0.78174   2
  -3   2   8 20.1801 1.25658   2
   2  -2  -8 29.3208 0.69194   1
   2  -2  -8 30.1335 1.07358   1
   2  -2  -8 29.0361 0.93198   1
   2  -2  -8 29.5375 0.73502   1
   2  -2  -8 29.0640 0.90126   1
   2  -2  -8 30.0702 0.90210   1
   2  -2  -8 29.6177 1.22632   1
   2  -2  -8 30.0429 0.75973   1
   2  -2  -8 27.0028 1.34890   1
   2  -2  -8 33.3724 0.80725   2
   2  -2  -8 33.1871 0.98364   2
   2  -2  -8 32.2344 1.02674   2
   2  -2  -8 32.5905 0.85818   2
   1  -2  -8 81.4605 1.62426   1
   1  -2  -8 81.2996 2.01847   1
   1  -2  -8 82.3972 2.55136   1
   1  -2  -8 81.9254 1.77880   1
   1  -2  -8 81.2111 1.98998   1
   1  -2  -8 81.1059 1.98064   1
   1  -2  -8 77.4752 2.78633   1
   1  -2  -8 82.1160 1.69743   1
   1  -2  -8 90.2652 2.16176   2
   1  -2  -8 90.7387 2.88950   2
   1  -2  -8 91.7264 2.02610   2
   1  -2  -8 89.9067 2.24954   2
   1  -2  -8 87.3973 3.25072   2
   1  -2  -8 92.1654 1.88654   2
   0  -2  -8 53.4364 1.41220   2
   0  -2  -8 52.4999 1.45111   2
   0  -2  -8 52.4755 1.93546   2
   0  -2  -8 53.3590 1.19084   2
   0  -2  -8 52.9410 1.28430   2
   0  -2  -8 51.7611 2.17547   2
   0  -2  -8 48.2612 0.97761   1
   0  -2  -8 48.1190 1.67128   1
   0  -2  -8 45.7459 1.86557   1
   0  -2  -8 47.8988 1.27077   1
   1   2 -10 16.2484 0.59727  -2
  -1  -2  -8 16.2484 0.59727   1
   1   2 -10 17.2572 0.38856  -2
  -1  -2  -8 17.2572 0.38856   1
  -2  -2  -8 9.66207 0.45291   2
  -2  -2  -8 9.57066 0.44139   2
  -2  -2  -8 9.49398 0.44661   2
  -2  -2  -8 9.52064 0.36584   2
  -2  -2  -8 10.3271 0.45001   2
  -2  -2  -8 9.64699 0.40200   2
  -2  -2  -8 10.2935 0.39287   2
   2   2   8 10.2332 0.36769   2
  -4  -2  -8 8.21166 0.29899   2
  -4  -2  -8 8.12728 0.29396   2
   6  -3  -8 0.83474 0.11056   2
   6  -3  -8 0.54118 0.08330   2
   6  -3  -8 0.45725 0.09949   2
   6  -3  -8 0.65426 0.08310   2
   6  -3  -8 0.71247 0.11331   1
   5  -3  -8 1.29552 0.14759   1
   5  -3  -8 0.89559 0.13488   1
   5  -3  -8 1.00797 0.19669   1
   5  -3  -8 1.02375 0.12553   1
   5  -3  -8 0.79855 0.14140   1
   5  -3  -8 1.17315 0.16867   2
   5  -3  -8 1.13643 0.13306   2
   5  -3  -8 1.15192 0.17213   2
   5  -3  -8 1.16191 0.16392   2
   5  -3  -8 1.29099 0.13347   2
  -4   3  -8 89.6559 2.12577  -2
   4  -3  -8 89.6559 2.12577   1
  -4   3  -8 85.3053 2.11665  -2
   4  -3  -8 85.3053 2.11665   1
  -4   3  -8 84.2622 1.94693  -2
   4  -3  -8 84.2622 1.94693   1
  -4   3  -8 84.6299 1.89999  -2
   4  -3  -8 84.6299 1.89999   1
  -4   3  -8 86.9433 2.08865  -2
   4  -3  -8 86.9433 2.08865   1
  -4   3  -8 81.0171 2.39373  -2
   4  -3  -8 81.0171 2.39373   1
   3  -3  -8 1.01757 0.12502   1
   3  -3  -8 0.81038 0.14746   1
   3  -3  -8 0.92869 0.16703   1
   3  -3  -8 1.23820 0.12834   1
   3  -3  -8 0.98960 0.22386   1
   3  -3  -8 1.41746 0.13187   1
   3  -3  -8 1.63696 0.30980   1
   3  -3  -8 0.83356 0.16730   1
   3  -3  -8 1.53734 0.22347   2
   3  -3  -8 1.05657 0.14694   2
   3  -3  -8 1.12729 0.14445   2
   3  -3  -8 1.07460 0.18809   2
  -3   3   8 1.22476 0.24679   2
  -2   3  -9 17.3966 0.63477  -2
   2  -3  -8 17.3966 0.63477   1
  -2   3  -9 15.9595 0.88003  -2
   2  -3  -8 15.9595 0.88003   1
  -2   3  -9 16.9835 0.45528  -2
   2  -3  -8 16.9835 0.45528   1
  -2   3  -9 16.5898 0.43876  -2
   2  -3  -8 16.5898 0.43876   1
  -2   3  -9 16.5919 0.72794  -2
   2  -3  -8 16.5919 0.72794   1
  -2   3  -9 17.6922 0.63916  -2
   2  -3  -8 17.6922 0.63916   1
  -2   3  -9 16.8365 0.49333  -2
   2  -3  -8 16.8365 0.49333   1
   1  -3  -8 11.7345 0.44511   2
   1  -3  -8 12.1593 0.41164   2
   1  -3  -8 12.1011 0.51908   2
   1  -3  -8 12.2020 0.78479   2
   1  -3  -8 12.0712 0.53230   2
   1  -3  -8 10.8403 0.33001   1
   1  -3  -8 12.0553 0.46313   1
   1  -3  -8 11.4761 0.47335   1
   1  -3  -8 11.0491 0.30059   1
   1  -3  -8 10.4140 0.66285   1
  -1   3   8 11.5850 0.62469   2
   0   3 -10 68.5929 1.74522  -2
   0  -3  -8 68.5929 1.74522   1
   0   3 -10 69.1331 1.35646  -2
   0  -3  -8 69.1331 1.35646   1
  -1  -3  -8 2.22840 0.17904   2
  -1  -3  -8 2.27337 0.25403   2
  -1  -3  -8 3.21260 0.21199   2
  -1  -3  -8 2.22967 0.23203   2
  -1  -3  -8 1.93442 0.20008   2
  -1  -3  -8 2.19572 0.23834   2
  -2  -3  -8 3.16632 0.23384   2
  -2  -3  -8 3.40617 0.23296   2
  -2  -3  -8 3.48461 0.22256   2
  -3  -3  -8 1.42006 0.13980   2
  -3  -3  -8 1.48554 0.13831   2
  -3  -3  -8 1.43297 0.14881   2
   3   3   8 1.51385 0.14948   2
  -5   4  -8 37.8091 0.87175  -2
   5  -4  -8 37.8091 0.87175   1
  -5   4  -8 37.0141 0.88327  -2
   5  -4  -8 37.0141 0.88327   1
  -5   4  -8 36.9830 0.93933  -2
   5  -4  -8 36.9830 0.93933   1
   4  -4  -8 3.36591 0.23069   2
   4  -4  -8 2.94386 0.25132   2
   4  -4  -8 3.07411 0.18925   2
   4  -4  -8 2.84567 0.19327   2
   4  -4  -8 2.80118 0.20873   1
   4  -4  -8 2.71915 0.18505   1
   4  -4  -8 2.80814 0.16018   1
   4  -4  -8 2.98278 0.22233   1
   4  -4  -8 2.86075 0.16275   1
  -4   4   8 3.56245 0.25422   2
   3  -4  -8 12.4854 0.40136   2
   3  -4  -8 12.6685 0.47756   2
   3  -4  -8 12.0526 0.50830   2
   3  -4  -8 12.1867 0.43355   2
   3  -4  -8 10.8025 0.30593   1
   3  -4  -8 10.7831 0.44691   1
   3  -4  -8 11.4693 0.43656   1
   3  -4  -8 11.1472 0.35184   1
  -3   4  -9 14.8783 0.69627  -2
   3  -4  -8 14.8783 0.69627   1
  -3   4   8 12.2620 0.45234   2
   2  -4  -8 13.5975 0.50467   1
   2  -4  -8 13.1495 0.48673   1
   2  -4  -8 13.6173 0.38477   1
   2  -4  -8 13.1417 0.58568   1
   2  -4  -8 15.1859 0.46825   2
   2  -4  -8 15.7551 0.58892   2
   2  -4  -8 15.1209 0.55789   2
   2  -4  -8 15.3233 0.51134   2
  -2   4   8 15.5321 0.46819   2
   1  -4  -8 53.5971 1.32800   1
   1  -4  -8 54.0389 1.16768   1
   1  -4  -8 52.1683 1.32336   1
   1  -4  -8 58.8555 1.47854   2
   1  -4  -8 59.4629 1.40906   2
   1  -4  -8 60.0023 1.53188   2
   1  -4  -8 59.3052 1.30824   2
  -1   4   8 59.3878 1.32888   2
   0  -4  -8 5.54097 0.26078   2
   0  -4  -8 5.95461 0.32195   2
   0  -4  -8 5.98123 0.33263   2
   0  -4  -8 5.94598 0.29478   2
   0  -4  -8 6.09440 0.30485   2
   0   4   8 5.88619 0.25181   2
  -1  -4  -8 0.53232 0.12303   2
  -1  -4  -8 0.04223 0.07704   2
   1   4   8 -0.0223 0.06595   2
  -2  -4  -8 8.52093 0.30492   2
  -2  -4  -8 8.47901 0.30780   2
   2   4   8 8.38695 0.31187   2
   4  -5  -8 0.50194 0.09446   1
   4  -5  -8 0.53774 0.07456   1
   4  -5  -8 0.52604 0.09492   1
   4  -5  -8 0.60887 0.11418   2
   4  -5  -8 0.57376 0.09278   2
  -4   5   8 0.75634 0.11430   2
  -4   5   8 0.62533 0.08403   2
   3  -5  -8 68.5580 1.53629   2
   3  -5  -8 68.8384 1.64991   2
   3  -5  -8 59.6783 1.52685   1
   3  -5  -8 61.2966 1.33750   1
   3  -5  -8 61.3351 1.44620   1
   3  -5  -8 61.0558 1.43599   1
  -3   5   8 68.1045 1.44317   2
   2  -5  -8 18.6191 0.58714   2
   2  -5  -8 17.8046 0.52864   2
   2  -5  -8 17.6331 0.54356   2
   2  -5  -8 15.8693 0.40583   1
   2  -5  -8 15.8340 0.50289   1
   2  -5  -8 16.0694 0.47890   1
   2  -5  -8 15.6293 0.46485   1
  -2   5   8 18.0559 0.47019   2
   1  -5  -8 9.44255 0.23912   1
   0  -5  -8 0.68967 0.11080   2
   0  -5  -8 0.78542 0.12235   2
   0   9  -9 1.23419 0.08613   2
   0   9  -9 1.44994 0.15744   2
  -1   9  -9 12.1323 0.41762   2
  -1   9  -9 11.9108 0.32044   2
   2   8  -9 2.13304 0.19354   2
   2   8  -9 1.97850 0.11224   2
   2   8  -9 1.87862 0.16394   1
   1   8  -9 2.31425 0.14510   2
  -1  -8  -3 5.45009 0.29721  -2
   1   8  -9 5.45009 0.29721   1
   1   8   3 5.66286 0.18878  -2
  -1  -8   9 5.66286 0.18878   1
   0   8  -9 7.28403 0.39030   2
   0   8  -9 7.36769 0.29152   2
   0   8  -9 7.78814 0.25922   2
   0   8  -9 7.64697 0.37959   2
   0   8  -9 7.90548 0.33898   2
   0   8  -9 6.87160 0.31322   1
   0  -8   9 6.78659 0.26250   1
  -1   8   4 12.3407 0.43150  -2
   1  -8   9 12.3407 0.43150   1
  -2   8  -9 13.9592 0.49934   2
  -2   8  -9 13.2924 0.46001   2
  -2   8  -9 13.1549 0.38211   2
   2  -8   9 11.8049 0.38682   1
   2  -8   9 12.0387 0.42237   1
   3   7  -9 7.72032 0.28666   2
   3   7  -9 7.97242 0.24890   2
   3   7  -9 7.46721 0.32055   2
   3   7  -9 8.01304 0.37440   2
   3   7  -9 6.65076 0.30313   1
  -2  -7  -3 9.98417 0.45069  -2
   2   7  -9 9.98417 0.45069   1
   2   7   3 12.0882 0.38931  -2
  -2  -7   9 12.0882 0.38931   1
   1   7  -9 0.51981 0.14359   2
   1   7  -9 0.42779 0.08393   2
   1   7  -9 0.41567 0.25368   2
   1   7  -9 0.38138 0.13998   2
   1   7  -9 0.44189 0.07609   2
   1   7  -9 2.57533 0.23574   1
   0   7  -9 0.01824 0.10300   2
   0   7  -9 0.09390 0.11602   2
   0   7  -9 0.02555 0.09545   2
   0   7  -9 0.13013 0.05724   2
   0   7  -9 0.10290 0.06361   2
   0   7  -9 0.12008 0.10672   1
  -1   7  -9 0.15897 0.06400   2
  -1   7  -9 0.31604 0.12846   2
  -1   7  -9 0.24022 0.15065   2
  -1   7  -9 0.14735 0.10454   2
  -1   7  -9 0.25117 0.13070   2
  -1   7  -9 0.21738 0.07943   2
   1  -7   9 0.25575 0.12685   1
   1  -7   9 0.27668 0.13433   1
  -2   7  -9 -0.0379 0.05701   2
  -2   7  -9 -0.0080 0.09577   2
  -2   7  -9 0.00685 0.10295   2
  -2   7  -9 0.03038 0.05472   2
   2  -7   9 0.08113 0.11644   1
   2  -7   9 -0.0177 0.10951   1
  -3   7  -9 1.63735 0.14328   2
  -3   7  -9 1.64692 0.17453   2
  -3   7  -9 1.47743 0.12018   2
  -3   7  -9 1.75843 0.18508   2
  -3   7  -9 1.64887 0.15299   1
   3  -7   9 1.56618 0.18220   1
   3  -7   9 1.87141 0.19498   1
   4   6  -9 15.9155 0.42210   2
   4   6  -9 15.8063 0.50562   2
   4   6  -9 15.0244 0.48037   2
   4   6  -9 16.1070 0.57206   2
   4   6  -9 13.6130 0.45292   1
  -4  -6   9 13.1874 0.41507   1
   3   6  -9 45.1134 1.30236   2
   3   6  -9 43.9370 1.14355   2
   3   6  -9 43.1904 1.15254   2
   3   6  -9 43.8672 1.35992   2
   3   6  -9 44.4198 1.01174   2
   3   6  -9 39.0633 1.06464   1
  -3  -6   9 37.9830 0.95601   1
  -3  -6   9 38.4281 0.97552   1
   2   6  -9 12.7451 0.40274   2
   2   6  -9 11.6033 0.54858   2
   2   6  -9 11.8585 0.34910   2
   2   6  -9 11.2024 0.55704   2
   2   6  -9 10.3213 0.46796   1
  -2  -6   9 10.5390 0.43827   1
   1   6  -9 1.78315 0.36043   1
   1   6  -9 1.44567 0.20483   1
   1   6  -9 1.40741 0.21661   2
   1   6  -9 1.39252 0.22682   2
   1   6  -9 1.63205 0.13236   2
   1   6  -9 1.75598 0.11471   2
  -1  -6   9 1.51998 0.21618   1
   0   6  -9 5.89020 0.35208   2
   0   6  -9 6.32363 0.38880   2
   0   6  -9 6.31768 0.23212   2
   0   6  -9 5.97989 0.26223   2
   0   6  -9 5.43401 0.51036   1
   0   6  -9 5.31861 0.33293   1
   0  -6   9 5.42568 0.22099   1
  -1   6  -9 0.01300 0.05301   2
  -1   6  -9 -0.0765 0.10275   2
  -1   6  -9 -0.0440 0.09513   2
  -1   6  -9 0.10421 0.07330   2
  -1   6  -9 -0.0326 0.13230   2
  -1   6  -9 0.07424 0.18817   1
   1  -6   9 0.08486 0.07557   1
   2  -6  -6 13.3539 0.53095  -2
  -2   6  -9 13.3539 0.53095   1
  -2   6   6 13.2723 0.49777  -2
   2  -6   9 13.2723 0.49777   1
  -2   6   6 12.7465 0.39221  -2
   2  -6   9 12.7465 0.39221   1
  -3   6  -9 1.84983 0.18320   1
  -3   6  -9 1.91365 0.18527   1
  -3   6  -9 1.96935 0.16708   2
  -3   6  -9 2.20372 0.15213   2
  -3   6  -9 2.30915 0.23508   2
  -3   6  -9 2.12783 0.20611   2
   3  -6   9 2.11862 0.22061   1
   3  -6   9 1.92367 0.13331   1
   4  -6  -7 27.5823 0.67237  -2
  -4   6  -9 27.5823 0.67237   1
   4  -6  -7 29.3637 0.72761  -2
  -4   6  -9 29.3637 0.72761   1
  -4   6   7 23.3505 0.57937  -2
   4  -6   9 23.3505 0.57937   1
  -4   6   7 22.9026 0.66385  -2
   4  -6   9 22.9026 0.66385   1
   5   5  -9 38.4074 0.96993   2
   5   5  -9 39.8728 0.80673   2
   5   5  -9 38.9836 0.89298   2
   5   5  -9 34.3034 0.84941   1
  -5  -5   9 34.8093 0.84851   1
   4   5  -9 8.45146 0.38035   2
   4   5  -9 8.54350 0.28334   2
   4   5  -9 8.44305 0.41651   2
   4   5  -9 8.47069 0.32517   2
   4   5  -9 8.04248 0.43846   2
   4   5  -9 7.17609 0.34575   1
  -4  -5   9 7.30266 0.30280   1
  -4  -5   9 7.23160 0.32999   1
  -3  -5  -4 2.91537 0.36840  -2
   3   5  -9 2.91537 0.36840   1
  -3  -5  -4 3.28942 0.31476  -2
   3   5  -9 3.28942 0.31476   1
   3   5   4 3.63626 0.30462  -2
  -3  -5   9 3.63626 0.30462   1
   3   5   4 3.48180 0.31096  -2
  -3  -5   9 3.48180 0.31096   1
   2   5  -9 1.07499 0.18905   1
  -2  -5   9 1.54182 0.20134   1
  -1  -5  -5 8.73932 0.42479  -2
   1   5  -9 8.73932 0.42479   1
  -1  -5  -5 8.71656 0.44253  -2
   1   5  -9 8.71656 0.44253   1
  -1  -5  -5 8.27464 0.64317  -2
   1   5  -9 8.27464 0.64317   1
   1   5   5 8.75831 0.48127  -2
  -1  -5   9 8.75831 0.48127   1
   0   5  -9 27.6053 0.87608   2
   0   5  -9 27.4258 1.01016   2
   0   5  -9 25.1546 0.77646   1
   0   5  -9 24.8428 1.13930   1
   0   5  -9 24.5564 0.79317   1
   0  -5   9 25.0704 0.66981   1
   0  -5   9 23.6930 0.92985   1
   1  -5  -6 -0.0791 0.22610  -2
  -1   5  -9 -0.0791 0.22610   1
   1  -5  -6 -0.1836 0.19468  -2
  -1   5  -9 -0.1836 0.19468   1
   1  -5  -6 0.29130 0.35135  -2
  -1   5  -9 0.29130 0.35135   1
  -1   5   6 0.21595 0.15837  -2
   1  -5   9 0.21595 0.15837   1
  -1   5   6 0.24763 0.26539  -2
   1  -5   9 0.24763 0.26539   1
  -2   5  -9 43.8979 1.23122   2
  -2   5  -9 44.6274 1.23295   2
  -2   5  -9 44.5045 1.06675   2
  -2   5  -9 45.3916 1.21758   2
  -2   5  -9 42.5516 1.66473   2
  -2   5  -9 44.0927 1.42511   2
  -2   5  -9 40.6559 1.10733   1
  -2   5  -9 39.9774 1.04224   1
  -2   5  -9 39.9521 1.06165   1
  -2   5  -9 38.9765 1.49461   1
   2  -5   9 37.4192 1.33866   1
   2  -5   9 40.6623 0.98060   1
   2  -5   9 39.9619 1.10129   1
  -3   5  -9 9.21955 0.37848   2
  -3   5  -9 8.16390 0.47413   2
  -3   5  -9 8.61474 0.32493   2
  -3   5  -9 8.74093 0.41107   2
  -3   5  -9 8.74554 0.41261   2
  -3   5  -9 8.71657 0.24249   2
  -3   5  -9 7.83078 0.36898   1
  -3   5  -9 7.97006 0.33709   1
   3  -5   9 8.17786 0.31111   1
   3  -5   9 7.76159 0.39435   1
  -4   5  -9 9.29527 0.23087   2
  -4   5  -9 9.13683 0.36038   2
  -4   5  -9 9.36212 0.38554   2
  -4   5  -9 9.30170 0.32002   2
  -4   5  -9 9.11641 0.37284   2
  -4   5  -9 8.44279 0.30373   1
  -4   5  -9 8.36321 0.33785   1
   4  -5   9 8.60283 0.36183   1
   4  -5   9 8.27656 0.27651   1
   5   4  -9 1.37135 0.10143   2
   5   4  -9 1.42721 0.11430   2
   5   4  -9 1.29081 0.16051   2
   5   4  -9 1.40249 0.12977   2
   5   4  -9 1.50488 0.16564   1
  -5  -4   9 1.33325 0.13488   1
  -5  -4   9 1.41143 0.16881   1
  -4  -4  -4 694.102 14.4106  -2
   4   4  -9 694.102 14.4106   1
  -4  -4  -4 677.424 16.6647  -2
   4   4  -9 677.424 16.6647   1
   4   4   4 701.179 14.0705  -2
  -4  -4   9 701.179 14.0705   1
   4   4   4 673.047 13.9733  -2
  -4  -4   9 673.047 13.9733   1
   3   4  -9 2.50781 0.26871   1
   3   4  -9 2.51205 0.33442   1
   3   4  -9 2.75417 0.14159   2
   3   4  -9 2.76938 0.26351   2
  -3  -4   9 2.48339 0.25695   1
   2   4  -9 8.40370 0.61413   1
   2   4   5 564.841 14.3039  -2
  -2  -4   9 564.841 14.3039   1
   1   4  -9 4.52773 0.30550   1
   1   4  -9 4.43045 0.31677   1
   1   4  -9 5.00311 0.49255   1
  -1  -4   9 4.61346 0.25129   1
  -1  -4   9 4.04349 0.36205   1
   0   4  -9 51.1983 1.30121   1
   0   4  -9 52.5150 1.36073   1
   0   4  -9 52.3350 1.37030   1
   0   4  -9 51.7929 1.85736   1
   0  -4   9 50.7421 1.67920   1
   0  -4   9 51.3346 1.23407   1
  -1   4  -9 2.71482 0.43276   1
  -1   4  -9 2.72555 0.25792   1
  -1   4  -9 2.35205 0.21691   1
  -1   4  -9 2.92900 0.20346   1
  -1   4  -9 2.54232 0.24654   1
  -1   4  -9 2.97198 0.15264   2
  -1   4  -9 2.91789 0.16799   2
  -1   4  -9 3.09672 0.28219   2
  -1   4  -9 2.73222 0.26267   2
  -1   4  -9 2.76870 0.45703   2
  -1   4  -9 2.40498 0.30925   2
   1  -4   9 2.52279 0.22024   1
   1  -4   9 2.53279 0.51559   1
   1  -4   9 2.64842 0.34710   1
  -2   4  -9 39.1875 1.02424   1
  -2   4  -9 39.4975 0.94582   1
  -2   4  -9 38.5088 1.48968   1
  -2   4  -9 40.8256 1.09818   1
  -2   4  -9 40.1841 1.12068   1
  -2   4  -9 45.9232 1.46414   2
  -2   4  -9 44.0450 1.09012   2
  -2   4  -9 44.8599 0.99908   2
  -2   4  -9 46.2011 0.97064   2
  -2   4  -9 46.3553 1.29084   2
  -2   4  -9 43.6880 1.71535   2
   2  -4   9 39.4052 1.39482   1
  -3   4  -9 3.80100 0.26813   1
  -3   4  -9 3.88175 0.27349   1
  -3   4  -9 3.77594 0.22648   1
  -3   4  -9 3.63575 0.20423   1
  -3   4  -9 3.76640 0.28259   2
  -3   4  -9 3.86950 0.21426   2
  -3   4  -9 3.96141 0.17427   2
  -3   4  -9 3.99822 0.29994   2
   3  -4   9 3.62675 0.28819   1
  -4   4  -9 24.3814 0.74677   2
  -4   4  -9 23.7928 0.74444   2
  -4   4  -9 25.0638 0.58134   2
  -4   4  -9 25.0531 0.65887   2
  -4   4  -9 25.2301 0.73442   2
  -4   4  -9 22.5711 0.56336   1
  -4   4  -9 22.6061 0.63682   1
  -4   4  -9 23.0223 0.59217   1
  -4   4  -9 22.7513 0.66971   1
   6   3  -9 2.92568 0.17788   2
   6   3  -9 2.65070 0.12812   2
   6   3  -9 2.85480 0.20073   2
   6   3  -9 2.10288 0.22962   1
  -6  -3   9 2.90001 0.18614   1
  -6  -3   9 3.04424 0.12515   1
   5   3  -9 1.11126 0.13523   2
   5   3  -9 1.00100 0.15077   2
   5   3  -9 1.02923 0.15806   2
   5   3  -9 1.28091 0.10760   2
   5   3  -9 1.17349 0.31022   1
   5   3  -9 1.14866 0.15967   1
  -5  -3   9 1.12456 0.15465   1
  -5  -3   9 1.08705 0.15851   1
   4   3  -9 129.618 2.94010   1
   4   3  -9 124.514 3.41784   1
   4   3  -9 142.750 2.79368   2
   4   3  -9 143.349 3.17402   2
   4   3  -9 146.231 3.24513   2
   4   3  -9 145.114 3.51064   2
   4   3  -9 147.027 3.07425   2
  -4  -3   9 127.205 2.83631   1
   3   3  -9 0.87522 0.22795   1
   3   3  -9 0.56109 0.15681   1
   3   3  -9 0.52098 0.15538   2
  -3  -3   9 0.81299 0.18856   1
   2   3  -9 792.288 16.0291   1
   2   3  -9 781.883 16.5060   1
   2   3  -9 776.679 19.6621   1
  -2  -3   9 789.087 15.4079   1
  -2  -3   9 795.437 19.8198   1
   1   3  -9 5.22242 0.25964   1
   1   3  -9 5.05358 0.29572   1
   1   3  -9 5.92295 0.35369   1
   1   3  -9 4.75809 0.48550   1
   1   3  -9 4.67218 0.53580   1
   1   3  -9 5.76488 0.33013   1
   1   3  -9 5.01564 0.33516   1
  -1  -3   9 5.15380 0.42208   1
  -1  -3   9 4.95719 0.27901   1
   0  -3  -7 245.941 7.31090  -2
   0   3  -9 245.941 7.31090   1
   0  -3  -7 247.564 5.54582  -2
   0   3  -9 247.564 5.54582   1
   0  -3  -7 256.453 4.87121  -2
   0   3  -9 256.453 4.87121   1
   0  -3  -7 256.379 6.80454  -2
   0   3  -9 256.379 6.80454   1
   0  -3  -7 246.055 5.22860  -2
   0   3  -9 246.055 5.22860   1
   0  -3  -7 245.127 5.36302  -2
   0   3  -9 245.127 5.36302   1
   0   3   7 262.916 6.72425  -2
   0  -3   9 262.916 6.72425   1
  -1   3  -9 0.80297 0.31945   1
  -1   3  -9 1.08972 0.29296   1
  -1   3  -9 0.69502 0.16196   1
  -1   3  -9 0.78686 0.12043   1
  -1   3  -9 0.54074 0.14405   1
  -1   3  -9 0.70575 0.12703   1
  -1   3  -9 1.12983 0.50144   2
  -1   3  -9 1.16389 0.19962   2
  -1   3  -9 1.31240 0.20755   2
  -1   3  -9 0.72003 0.28926   2
  -1   3  -9 0.93124 0.11166   2
  -1   3  -9 0.80705 0.09877   2
   1  -3   9 1.01681 0.25935   1
   2  -3  -8 16.8630 0.61611  -2
  -2   3  -9 16.8630 0.61611   1
   2  -3  -8 16.8464 0.63910  -2
  -2   3  -9 16.8464 0.63910   1
   2  -3  -8 15.9227 0.87848  -2
  -2   3  -9 15.9227 0.87848   1
   2  -3  -8 17.2737 0.54157  -2
  -2   3  -9 17.2737 0.54157   1
   2  -3  -8 16.4864 0.50172  -2
  -2   3  -9 16.4864 0.50172   1
  -2   3   8 17.4829 0.80460  -2
   2  -3   9 17.4829 0.80460   1
  -3   3  -9 10.6087 0.36513   1
  -3   3  -9 10.1169 0.44405   1
  -3   3  -9 10.3458 0.44177   1
  -3   3  -9 10.4743 0.35313   1
  -3   3  -9 10.9461 0.36041   2
  -3   3  -9 10.8039 0.55285   2
  -3   3  -9 11.2477 0.34828   2
  -3   3  -9 11.1936 0.39701   2
  -3   3  -9 11.2283 0.50203   2
  -3   3  -9 11.2911 0.49149   2
   4  -3  -9 26.4566 0.67164  -2
  -4   3  -9 26.4566 0.67164   1
   4  -3  -9 27.9880 0.67304  -2
  -4   3  -9 27.9880 0.67304   1
   4  -3  -9 28.0408 0.78543  -2
  -4   3  -9 28.0408 0.78543   1
   4  -3  -9 28.6178 0.80762  -2
  -4   3  -9 28.6178 0.80762   1
   6   2  -9 663.441 13.2552   2
   6   2  -9 654.502 12.1850   2
   6   2  -9 650.689 13.4155   2
   6   2  -9 563.596 11.7331   1
  -6  -2   9 549.532 11.2805   1
  -6  -2   9 551.004 11.2261   1
  -5  -2  -5 31.1202 1.09564  -2
   5   2  -9 31.1202 1.09564   1
  -5  -2  -5 33.7301 0.92098  -2
   5   2  -9 33.7301 0.92098   1
   5   2   5 31.9381 0.89897  -2
  -5  -2   9 31.9381 0.89897   1
   5   2   5 30.5915 0.89756  -2
  -5  -2   9 30.5915 0.89756   1
   4   2  -9 1156.62 28.0480   1
   4   2  -9 1190.07 24.2048   1
   4   2  -9 1352.61 26.7959   2
   4   2  -9 1326.54 30.8209   2
   4   2  -9 1330.93 24.5968   2
   4   2  -9 1307.60 27.0842   2
  -4  -2   9 1187.01 23.5022   1
  -4  -2   9 1123.46 28.9762   1
  -3  -2  -6 14.6063 0.57274  -2
   3   2  -9 14.6063 0.57274   1
  -3  -2  -6 12.6162 0.55089  -2
   3   2  -9 12.6162 0.55089   1
  -3  -2  -6 14.5914 0.55119  -2
   3   2  -9 14.5914 0.55119   1
  -3  -2  -6 13.5660 0.65827  -2
   3   2  -9 13.5660 0.65827   1
  -3  -2  -6 13.0422 0.77579  -2
   3   2  -9 13.0422 0.77579   1
   3   2   6 12.9726 0.66174  -2
  -3  -2   9 12.9726 0.66174   1
   2   2  -9 214.684 6.34455   1
   2   2  -9 218.898 4.54084   1
   2   2  -9 217.310 4.79203   1
   2   2  -9 214.480 4.19362   1
   2   2  -9 224.120 5.88763   1
   2   2  -9 208.326 4.57463   1
   2   2  -9 213.742 4.64369   1
   2   2  -9 213.877 4.77490   1
   2   2  -9 228.922 4.88170   2
  -2  -2   9 216.536 4.41574   1
  -2  -2   9 212.769 5.76090   1
  -1  -2  -7 20.5277 0.72243  -2
   1   2  -9 20.5277 0.72243   1
  -1  -2  -7 19.5103 0.71171  -2
   1   2  -9 19.5103 0.71171   1
  -1  -2  -7 20.6150 0.64126  -2
   1   2  -9 20.6150 0.64126   1
  -1  -2  -7 19.6684 0.57273  -2
   1   2  -9 19.6684 0.57273   1
  -1  -2  -7 21.4502 1.04584  -2
   1   2  -9 21.4502 1.04584   1
  -1  -2  -7 21.0942 1.16777  -2
   1   2  -9 21.0942 1.16777   1
  -1  -2  -7 21.5160 0.73207  -2
   1   2  -9 21.5160 0.73207   1
   1   2   7 19.6901 0.90893  -2
  -1  -2   9 19.6901 0.90893   1
   0   2  -9 2.46923 0.49656   2
   0   2  -9 2.60396 0.12942   2
   0   2  -9 2.85627 0.29502   2
   0   2  -9 2.84830 0.45231   2
   0   2  -9 2.61459 0.26885   1
   0   2  -9 2.45636 0.19235   1
   0   2  -9 2.92821 0.25716   1
   0   2  -9 2.67666 0.47486   1
   0   2  -9 2.22267 0.16951   1
  -1   2  -9 0.24670 0.12572   2
  -1   2  -9 0.03622 0.25078   2
  -1   2  -9 0.27061 0.22529   2
  -1   2  -9 0.13616 0.05954   2
  -1   2  -9 0.18299 0.07081   2
  -1   2  -9 0.20712 0.12606   2
  -1   2  -9 0.38806 0.14808   2
  -1   2  -9 0.20921 0.10939   1
  -1   2  -9 0.15668 0.07179   1
  -1   2  -9 0.09363 0.17681   1
  -1   2  -9 -0.0090 0.19438   1
  -1   2  -9 0.70593 0.11370   1
  -1   2  -9 0.16110 0.11807   1
  -2   2  -9 9.43754 0.35576   2
  -2   2  -9 9.68719 0.46284   2
  -2   2  -9 9.34620 0.32963   2
  -2   2  -9 9.44288 0.46043   2
  -2   2  -9 9.39735 0.31745   2
  -2   2  -9 9.73928 0.53781   2
  -2   2  -9 9.34568 0.69764   2
  -2   2  -9 9.33285 0.47524   2
  -2   2  -9 8.77980 0.42852   1
  -2   2  -9 9.04158 0.32873   1
  -2   2  -9 9.06447 0.32246   1
  -2   2  -9 8.72702 0.42601   1
  -3   2  -9 22.8403 0.75583   2
  -3   2  -9 21.8807 0.85369   2
  -3   2  -9 23.1678 0.76698   2
  -3   2  -9 23.7143 0.78198   2
  -3   2  -9 23.4659 0.66459   2
  -3   2  -9 23.0620 0.61122   2
  -3   2  -9 23.8371 0.60932   2
  -3   2  -9 21.4639 0.68629   1
  -3   2  -9 20.5399 0.55066   1
  -3   2  -9 21.8572 0.69559   1
  -3   2  -9 21.8478 0.55162   1
  -4   2  -9 0.65214 0.12917   2
  -4   2  -9 0.67426 0.10812   2
  -4   2  -9 0.52618 0.12682   2
  -4   2  -9 0.65284 0.13088   2
  -4   2  -9 0.54212 0.08683   2
  -4   2  -9 0.52364 0.11346   1
  -4   2  -9 0.78905 0.11946   1
  -4   2  -9 0.60628 0.08212   1
  -6  -1  -5 574.405 11.6996  -2
   6   1  -9 574.405 11.6996   1
   6   1   5 556.155 11.2669  -2
  -6  -1   9 556.155 11.2669   1
   6   1   5 524.833 11.1554  -2
  -6  -1   9 524.833 11.1554   1
   5   1  -9 0.20123 0.14870   1
   5   1  -9 0.21502 0.11321   1
   5   1  -9 0.22534 0.11065   1
   5   1  -9 0.21271 0.11433   2
   5   1  -9 0.23570 0.12097   2
   5   1  -9 0.26702 0.07510   2
  -5  -1   9 0.38669 0.12419   1
   4   1  -9 60.1868 1.25373   2
   4   1  -9 59.2764 1.53453   2
  -4  -1  -6 77.4015 2.27189  -2
   4   1  -9 77.4015 2.27189   1
  -4  -1  -6 76.0422 1.82873  -2
   4   1  -9 76.0422 1.82873   1
   4   1  -9 53.5612 1.43269   1
   4   1  -9 53.2756 1.39059   1
  -4  -1   9 50.7787 1.64571   1
   4   1   6 79.6828 1.87391  -2
  -4  -1   9 79.6828 1.87391   1
   3   1  -9 8.60106 0.41399   1
   3   1  -9 8.70825 0.51900   1
   3   1  -9 8.58750 0.33054   1
   3   1  -9 8.39967 0.34335   1
   3   1  -9 8.38369 0.59222   1
   3   1  -9 8.27709 0.36448   1
   3   1  -9 8.93492 0.43273   1
   3   1  -9 7.47730 0.65479   1
   3   1  -9 8.46438 0.39683   1
   3   1  -9 8.89181 0.42453   2
   3   1  -9 9.09247 0.28275   2
   3   1  -9 8.92705 0.52376   2
  -3  -1   9 8.64447 0.52124   1
   2   1  -9 9.94421 0.63718   1
   2   1  -9 8.88056 0.44703   1
   2   1  -9 8.67472 0.43460   1
   2   1  -9 9.01409 0.42765   1
   2   1  -9 8.78728 0.41396   1
   2   1  -9 8.88839 0.36449   1
   2   1  -9 8.96327 0.32604   1
   2   1  -9 8.31272 0.66892   1
   2   1  -9 9.12592 0.35206   1
   2   1  -9 9.57060 0.27657   2
   2   1  -9 9.12261 0.82657   2
   2   1  -9 8.86517 0.43086   2
  -2  -1   9 9.74415 0.56918   1
   1   1  -9 31.2401 0.81219   1
   1   1  -9 31.8131 1.29883   1
   1   1  -9 30.7557 0.74738   1
   1   1  -9 30.9126 0.92633   1
   1   1  -9 29.9835 1.42155   1
   1   1  -9 30.5299 0.92787   1
   1   1  -9 30.1751 0.92110   1
   1   1  -9 34.1450 1.63205   2
   1   1  -9 34.7407 0.75998   2
   1   1  -9 34.2277 0.99718   2
   1   1  -9 34.7185 1.03948   2
   0   1  -9 23.1052 0.78131   1
   0   1  -9 25.4027 1.12647   1
   0   1  -9 24.6611 0.79929   1
   0   1  -9 25.5164 0.63007   1
   0   1  -9 24.0271 0.65710   1
   0   1  -9 24.5352 1.24651   1
   0   1  -9 26.4619 1.41774   2
   0   1  -9 27.1483 0.63851   2
   0   1  -9 27.7605 1.25536   2
   0   1  -9 26.5551 0.83590   2
   0   1  -9 26.8641 0.63040   2
   0   1  -9 27.8956 0.90057   2
  -1   1  -9 15.4234 0.47969   2
  -1   1  -9 15.8348 0.61012   2
  -1   1  -9 13.4010 0.98933   2
  -1   1  -9 15.6162 0.90373   2
  -1   1  -9 15.4187 0.44061   2
  -1   1  -9 15.9181 0.62955   2
  -1   1  -9 15.4373 0.43914   2
  -1   1  -9 14.6662 0.41960   1
  -1   1  -9 15.0695 0.57077   1
  -1   1  -9 12.3497 0.87421   1
  -1   1  -9 13.1986 0.76521   1
  -1   1  -9 14.3532 0.42197   1
  -1   1  -9 14.8366 0.56402   1
  -2   1  -9 0.16948 0.19472   2
  -2   1  -9 0.11136 0.11423   2
  -2   1  -9 -0.0577 0.10547   2
  -2   1  -9 0.06906 0.06805   2
  -2   1  -9 0.07702 0.07001   2
  -2   1  -9 0.02670 0.10487   2
  -2   1  -9 0.06381 0.06772   2
  -2   1  -9 0.12694 0.05378   1
  -2   1  -9 0.04041 0.05800   1
  -2   1  -9 0.05999 0.10406   1
  -2   1  -9 0.23429 0.11752   1
   3  -1 -10 50.7786 1.29948  -2
  -3   1  -9 50.7786 1.29948   1
   3  -1 -10 50.5013 1.27938  -2
  -3   1  -9 50.5013 1.27938   1
   3  -1 -10 49.1963 1.06694  -2
  -3   1  -9 49.1963 1.06694   1
  -4   1  -9 2.59954 0.19801   2
  -4   1  -9 2.60032 0.19523   2
  -4   1  -9 2.64192 0.16380   2
  -4   1  -9 2.63946 0.19760   2
  -4   1  -9 2.74289 0.15964   2
  -4   1  -9 3.03999 0.14972   2
  -4   1  -9 2.56650 0.18524   1
  -4   1  -9 2.10212 0.11188   1
   6   0  -9 0.40620 0.07358   2
   6   0  -9 0.52962 0.11213   2
   6   0  -9 0.14188 0.10799   2
   6   0  -9 0.29962 0.09995   1
  -6   0   9 0.40670 0.10205   1
   5   0  -9 0.74793 0.15301   2
   5   0  -9 0.83728 0.07813   2
   5   0  -9 0.81548 0.15759   2
   5   0  -9 1.40121 0.13014   2
   5   0  -9 0.74735 0.13051   1
   5   0  -9 0.53726 0.17535   1
   5   0  -9 0.70775 0.14293   1
   5   0  -9 0.81190 0.14589   1
  -5   0   9 0.74273 0.14605   1
   4   0  -9 19.5973 0.67862   2
   4   0  -9 19.7989 0.67239   2
   4   0  -9 20.3920 0.52663   2
   4   0  -9 19.6579 0.47874   2
   4   0  -9 17.9577 0.56375   1
   4   0  -9 17.0275 0.53377   1
   4   0  -9 16.6402 0.74258   1
   4   0  -9 17.3110 0.62175   1
   4   0  -9 18.4724 0.60130   1
   4   0  -9 17.6389 0.50388   1
   4   0  -9 17.7807 0.65603   1
  -4   0   9 16.3702 0.74901   1
  -4   0   9 17.6624 0.59227   1
   3   0  -9 21.3778 0.72277   1
   3   0  -9 19.1447 1.13104   1
   3   0  -9 22.1260 0.76078   1
   3   0  -9 21.4175 0.63010   1
   3   0  -9 21.3568 0.57220   1
   3   0  -9 21.8806 0.69721   1
   3   0  -9 20.4613 0.60982   1
   3   0  -9 22.0682 0.98897   1
   3   0  -9 21.6777 0.86663   1
   3   0  -9 21.1971 0.68745   1
   3   0  -9 24.6276 0.78818   2
   3   0  -9 24.6973 0.60333   2
   3   0  -9 25.0307 0.57843   2
   3   0  -9 23.4374 0.98526   2
  -3   0   9 25.3335 1.75766   2
  -3   0   9 20.3083 0.88350   1
  -2   0  -8 97.8887 2.36827  -2
   2   0  -9 97.8887 2.36827   1
  -2   0  -8 98.6369 2.02981  -2
   2   0  -9 98.6369 2.02981   1
  -2   0  -8 91.2443 3.38128  -2
   2   0  -9 91.2443 3.38128   1
  -2   0  -8 96.2320 2.19979  -2
   2   0  -9 96.2320 2.19979   1
  -2   0  -8 103.181 3.11697  -2
   2   0  -9 103.181 3.11697   1
  -2   0  -8 95.9445 2.29598  -2
   2   0  -9 95.9445 2.29598   1
  -2   0  -8 99.7722 2.40869  -2
   2   0  -9 99.7722 2.40869   1
  -2   0  -8 97.5177 2.17485  -2
   2   0  -9 97.5177 2.17485   1
   1   0  -9 8.72399 0.41277   1
   1   0  -9 8.14008 0.40249   1
   1   0  -9 8.40628 0.61133   1
   1   0  -9 7.53236 0.66773   1
   1   0  -9 8.59853 0.40896   1
   1   0  -9 8.14809 0.28799   1
   1   0  -9 8.13161 0.30378   1
   1   0  -9 9.57965 0.29726   2
   1   0  -9 9.43081 0.44741   2
   1   0  -9 9.34591 0.46480   2
   1   0  -9 9.61967 0.31079   2
   1   0  -9 9.52972 0.69450   2
   1   0  -9 9.21786 0.80576   2
   0   0  -9 54.0137 1.13902  -2
   0   0  -9 54.0137 1.13902   1
   0   0  -9 48.4876 2.06691  -2
   0   0  -9 48.4876 2.06691   1
   0   0  -9 51.1354 1.86349  -2
   0   0  -9 51.1354 1.86349   1
   0   0  -9 55.4581 1.39206  -2
   0   0  -9 55.4581 1.39206   1
   0   0  -9 53.5174 1.18561  -2
   0   0  -9 53.5174 1.18561   1
   0   0  -9 53.1013 1.42869  -2
   0   0  -9 53.1013 1.42869   1
  -1   0  -9 85.7814 2.13526   2
  -1   0  -9 86.3243 2.04494   2
  -1   0  -9 84.6852 1.76990   2
  -1   0  -9 84.5412 1.93324   2
  -1   0  -9 84.4662 1.86803   2
  -1   0  -9 86.1276 2.08565   2
  -1   0  -9 86.2080 2.77115   2
  -1   0  -9 80.2713 1.63904   1
  -1   0  -9 79.5912 1.91596   1
  -1   0  -9 80.5839 1.61797   1
  -1   0  -9 78.7801 1.96094   1
   2   0 -10 11.7726 0.33687  -2
  -2   0  -9 11.7726 0.33687   1
   2   0 -10 12.0372 0.49477  -2
  -2   0  -9 12.0372 0.49477   1
   2   0 -10 11.3767 0.48867  -2
  -2   0  -9 11.3767 0.48867   1
  -3   0  -9 47.1931 1.24660   2
  -3   0  -9 47.2244 1.23288   2
  -3   0  -9 47.1601 1.06147   2
  -3   0  -9 48.8014 1.15561   2
  -3   0  -9 46.7034 1.10692   2
  -3   0  -9 48.6874 1.24922   2
  -3   0  -9 42.6544 0.88729   1
  -3   0  -9 43.5010 1.09359   1
   3   0   9 48.0398 1.15807   2
  -4   0  -9 0.37008 0.09007   2
  -4   0  -9 0.38159 0.06386   2
  -4   0  -9 0.29419 0.08619   2
  -4   0  -9 0.42450 0.08935   1
  -4   0  -9 0.39430 0.05019   1
   6  -1  -9 1.66286 0.15969   2
   6  -1  -9 1.58236 0.10946   2
   6  -1  -9 1.40643 0.15361   2
   6  -1  -9 1.37847 0.13728   1
   6  -1  -9 1.24873 0.13813   1
  -5   1  -7 0.92352 0.15070  -2
   5  -1  -9 0.92352 0.15070   1
  -5   1  -7 1.35087 0.17393  -2
   5  -1  -9 1.35087 0.17393   1
  -5   1  -7 0.99787 0.17118  -2
   5  -1  -9 0.99787 0.17118   1
  -5   1  -7 0.79939 0.16211  -2
   5  -1  -9 0.79939 0.16211   1
   4  -1  -9 31.3934 0.88715   1
   4  -1  -9 29.6457 1.07159   1
   4  -1  -9 30.7029 0.81700   1
   4  -1  -9 30.1610 0.90389   1
   4  -1  -9 31.2898 0.94614   1
   4  -1  -9 31.4625 0.80872   1
   4  -1  -9 30.6939 0.74781   1
   4  -1  -9 34.3180 0.96427   2
   4  -1  -9 33.9410 0.79145   2
   4  -1  -9 33.3577 0.97428   2
   4  -1  -9 33.8945 0.79266   2
  -3   1  -8 84.5663 2.08357  -2
   3  -1  -9 84.5663 2.08357   1
  -3   1  -8 86.6683 2.67088  -2
   3  -1  -9 86.6683 2.67088   1
  -3   1  -8 86.8994 2.10069  -2
   3  -1  -9 86.8994 2.10069   1
  -3   1  -8 85.7588 1.91018  -2
   3  -1  -9 85.7588 1.91018   1
  -3   1  -8 88.6976 2.45831  -2
   3  -1  -9 88.6976 2.45831   1
  -3   1  -8 83.9060 1.92892  -2
   3  -1  -9 83.9060 1.92892   1
  -3   1  -8 84.0007 1.77241  -2
   3  -1  -9 84.0007 1.77241   1
  -3   1  -8 89.1399 2.16683  -2
   3  -1  -9 89.1399 2.16683   1
   2  -1  -9 75.7559 2.40393   1
   2  -1  -9 76.3994 1.56071   1
   2  -1  -9 76.6886 1.87380   1
   2  -1  -9 74.8577 1.90736   1
   2  -1  -9 74.9167 1.70283   1
   2  -1  -9 75.7614 1.65628   1
   2  -1  -9 73.8533 1.86469   1
   2  -1  -9 82.4506 1.71880   2
   2  -1  -9 84.5217 2.01422   2
   2  -1  -9 82.7961 2.08623   2
   2  -1  -9 83.9355 1.80054   2
   1  -1  -9 176.711 3.72145   1
   1  -1  -9 174.939 4.86266   1
   1  -1  -9 179.779 3.40052   1
   1  -1  -9 165.593 6.14311   1
   1  -1  -9 179.084 3.93582   1
   1  -1  -9 179.383 3.97543   1
   1  -1  -9 178.305 3.59989   1
   1  -1  -9 197.903 5.53038   2
   1  -1  -9 192.117 6.63401   2
   1  -1  -9 201.614 3.86468   2
   1  -1  -9 202.604 4.33815   2
   1  -1  -9 198.784 4.10080   2
   1  -1  -9 202.185 4.51821   2
   0  -1  -9 25.0227 1.19510   2
   0  -1  -9 27.1500 0.69838   2
   0  -1  -9 26.6744 0.87001   2
   0  -1  -9 26.0806 0.83958   2
   0  -1  -9 26.6584 0.66927   2
   0  -1  -9 23.5548 1.04849   1
   0  -1  -9 24.5213 0.56900   1
   0  -1  -9 24.5332 0.74912   1
   0  -1  -9 25.0474 0.78128   1
  -1  -1  -9 72.7468 1.69575   2
  -1  -1  -9 74.3619 1.85895   2
  -1  -1  -9 73.7007 1.55609   2
  -1  -1  -9 74.2723 1.79732   2
  -1  -1  -9 74.3586 1.64761   2
  -1  -1  -9 72.4917 1.79739   2
  -1  -1  -9 70.9986 2.40185   2
  -1  -1  -9 68.5603 1.36277   1
  -1  -1  -9 68.8012 1.64628   1
  -1  -1  -9 68.0255 1.68610   1
  -2  -1  -9 5.21921 0.23928   2
  -2  -1  -9 5.40392 0.31936   2
  -2  -1  -9 5.27636 0.25499   2
  -2  -1  -9 4.98127 0.30097   2
  -2  -1  -9 5.35359 0.30919   2
  -2  -1  -9 4.79274 0.24142   2
  -2  -1  -9 5.26615 0.30488   2
  -2  -1  -9 4.78025 0.15154   1
  -2  -1  -9 4.66825 0.27564   1
  -3  -1  -9 12.0770 0.36006   2
  -3  -1  -9 12.2596 0.43008   2
  -3  -1  -9 11.9889 0.42013   2
  -3  -1  -9 11.8777 0.36703   2
  -3  -1  -9 11.9184 0.42555   2
  -3  -1  -9 11.7197 0.38525   2
  -3  -1  -9 11.0114 0.37474   1
   3   1   9 12.0845 0.40219   2
   6  -2  -9 81.6819 1.75862   2
   6  -2  -9 80.9531 1.79072   2
   6  -2  -9 71.8791 1.57532   1
   5  -2  -9 113.158 2.59690   1
   5  -2  -9 114.818 2.54664   1
   5  -2  -9 112.575 2.41442   1
   5  -2  -9 113.667 2.53401   1
   5  -2  -9 126.959 2.49562   2
   5  -2  -9 126.998 2.80119   2
   5  -2  -9 127.739 2.76348   2
   5  -2  -9 127.250 2.60936   2
   4  -2  -9 78.1430 1.62900   2
   4  -2  -9 79.8673 1.69916   2
   4  -2  -9 78.5512 1.90636   2
   4  -2  -9 79.3291 1.86448   2
   4  -2  -9 78.3895 1.85049   2
   4  -2  -9 68.7945 1.55030   1
   4  -2  -9 70.3675 1.43409   1
   4  -2  -9 69.2718 1.71704   1
   4  -2  -9 68.0837 1.53111   1
   4  -2  -9 68.6244 1.67020   1
   4  -2  -9 65.5095 1.95941   1
   4  -2  -9 69.5303 1.66835   1
   3  -2  -9 217.487 4.48707   2
   3  -2  -9 220.851 4.87823   2
   3  -2  -9 218.677 4.69583   2
   3  -2  -9 219.878 4.23378   2
   3  -2  -9 191.563 4.32965   1
   3  -2  -9 194.941 4.27262   1
   3  -2  -9 190.506 5.52954   1
   3  -2  -9 193.792 3.70453   1
   3  -2  -9 192.498 4.24981   1
   3  -2  -9 194.632 4.05444   1
   3  -2  -9 193.201 3.95374   1
   3  -2  -9 186.442 4.92443   1
   2  -2  -9 38.1598 1.09556   1
   2  -2  -9 38.6629 0.85199   1
   2  -2  -9 39.4609 0.87316   1
   2  -2  -9 40.3644 1.08348   1
   2  -2  -9 38.4987 1.44320   1
   2  -2  -9 38.7944 0.93160   1
   2  -2  -9 37.7500 1.06104   1
   2  -2  -9 44.8758 1.25828   2
   2  -2  -9 44.1851 1.06018   2
   2  -2  -9 45.3834 1.21572   2
   2  -2  -9 45.3765 1.02042   2
   1  -2  -9 23.6189 0.61584   2
   1  -2  -9 25.1451 0.65099   2
   1  -2  -9 22.0109 1.09721   2
   1  -2  -9 23.0152 0.78822   2
   1  -2  -9 23.9999 0.77124   2
   1  -2  -9 20.8537 0.68986   1
   1  -2  -9 21.5307 0.68297   1
   1  -2  -9 21.6198 0.56081   1
   1  -2  -9 21.8334 0.50994   1
   1  -2  -9 21.5388 0.96934   1
   0  -2  -9 2.11166 0.20647   1
   0  -2  -9 2.05435 0.10428   1
   0  -2  -9 2.08357 0.11982   1
   0  -2  -9 2.57291 0.26585   2
   0  -2  -9 2.30303 0.17683   2
   0  -2  -9 2.47949 0.17206   2
   0  -2  -9 2.72081 0.27420   2
   1   2 -11 27.6358 0.62784  -2
  -1  -2  -9 27.6358 0.62784   1
  -2  -2  -9 13.8583 0.42145   2
  -2  -2  -9 13.6667 0.47089   2
  -2  -2  -9 14.7506 0.44766   2
  -2  -2  -9 13.7831 0.47907   2
  -2  -2  -9 13.6939 0.41044   2
   5  -3  -9 57.4925 1.28094   1
   5  -3  -9 58.5311 1.26128   1
   5  -3  -9 57.4271 1.34291   1
   5  -3  -9 58.3365 1.35804   1
   5  -3  -9 63.6596 1.32701   2
   5  -3  -9 65.8191 1.46795   2
   5  -3  -9 64.8538 1.50519   2
   5  -3  -9 65.9696 1.36474   2
  -5   3   9 65.2230 1.46646   2
  -4   3  -9 25.7315 0.74804  -2
   4  -3  -9 25.7315 0.74804   1
  -4   3  -9 25.6079 0.74194  -2
   4  -3  -9 25.6079 0.74194   1
  -4   3  -9 26.3375 0.63102  -2
   4  -3  -9 26.3375 0.63102   1
  -4   3  -9 24.2996 0.74360  -2
   4  -3  -9 24.2996 0.74360   1
  -4   3  -9 25.4280 0.65631  -2
   4  -3  -9 25.4280 0.65631   1
  -4   3   9 23.8547 0.66304   2
   3  -3  -9 0.29490 0.11643   2
   3  -3  -9 0.57476 0.13854   2
   3  -3  -9 0.45180 0.09134   2
   3  -3  -9 0.37091 0.08593   2
   3  -3  -9 0.31868 0.06529   1
   3  -3  -9 0.19337 0.10146   1
   3  -3  -9 0.41260 0.07547   1
   3  -3  -9 0.42895 0.10847   1
   3  -3  -9 0.39923 0.06379   1
  -2   3 -10 14.2500 0.51959  -2
   2  -3  -9 14.2500 0.51959   1
  -2   3 -10 14.1551 0.37673  -2
   2  -3  -9 14.1551 0.37673   1
  -2   3 -10 13.9362 0.41281  -2
   2  -3  -9 13.9362 0.41281   1
  -2   3 -10 14.3318 0.52831  -2
   2  -3  -9 14.3318 0.52831   1
   1  -3  -9 5.59030 0.24423   2
   1  -3  -9 5.80368 0.32889   2
   1  -3  -9 5.62893 0.32687   2
   1  -3  -9 5.39254 0.25258   2
   1  -3  -9 4.97827 0.27268   1
   1  -3  -9 5.26782 0.27648   1
   1  -3  -9 5.02703 0.18390   1
   1  -3  -9 5.12710 0.16373   1
  -1   3   9 5.78272 0.25546   2
  -1  -3  -9 4.69893 0.21920   2
  -1  -3  -9 4.60406 0.21061   2
  -1  -3  -9 4.65626 0.26849   2
  -1  -3  -9 4.88444 0.26026   2
  -1  -3  -9 4.56459 0.22157   2
   1   3   9 4.56781 0.20345   2
  -2  -3  -9 22.8892 0.55769   2
   2   3   9 22.7098 0.59852   2
   4  -4  -9 16.3051 0.41200   2
   4  -4  -9 15.4096 0.47697   2
   4  -4  -9 16.2045 0.49875   2
   4  -4  -9 16.0399 0.41024   2
   4  -4  -9 14.5479 0.43947   1
   4  -4  -9 14.4260 0.38778   1
   4  -4  -9 14.6118 0.43989   1
  -4   4   9 16.0356 0.40907   2
   3  -4  -9 3.87285 0.18609   1
   3  -4  -9 3.98670 0.21255   1
   3  -4  -9 4.06045 0.22134   1
   3  -4  -9 3.93782 0.16210   1
   3  -4  -9 4.30276 0.25239   2
   3  -4  -9 4.79529 0.19602   2
   3  -4  -9 4.46659 0.19415   2
   3  -4  -9 4.28673 0.23799   2
  -3   4   9 4.63988 0.19410   2
   2  -4  -9 3.84192 0.20849   1
   2  -4  -9 3.94644 0.15085   1
   2  -4  -9 3.82919 0.21175   1
   2  -4  -9 3.98767 0.17580   1
   2  -4  -9 3.99750 0.24036   2
   2  -4  -9 4.09737 0.19546   2
   2  -4  -9 4.17587 0.19350   2
   2  -4  -9 4.36838 0.25493   2
  -2   4   9 4.29838 0.19144   2
   1  -4  -9 46.2958 0.98194   1
   1  -4  -9 51.4475 1.16898   2
   1  -4  -9 51.9131 1.24406   2
   1  -4  -9 51.0849 1.27692   2
   1  -4  -9 51.4435 1.19831   2
   1  -4  -9 52.2851 1.10593   2
  -1   4   9 51.5555 1.12534   2
   0  -4  -9 34.7910 0.86890   2
   0  -4  -9 33.7059 0.77759   2
   0  -4  -9 33.8645 0.86194   2
   0  -4  -9 34.0741 0.80463   2
   0   4   9 33.8915 0.76328   2
   0   8 -10 4.34941 0.31993   2
   0   8 -10 5.37199 0.15750   2
   0  -8  10 5.12347 0.18212   1
  -1   8   5 221.772 4.55180  -2
   1  -8  10 221.772 4.55180   1
   3   7 -10 11.3195 0.36425   1
  -2  -7  -4 37.6664 0.99887  -2
   2   7 -10 37.6664 0.99887   1
   2   7   4 40.0943 0.90353  -2
  -2  -7  10 40.0943 0.90353   1
   1   7 -10 5.39495 0.27170   1
   1   7 -10 5.53202 0.30730   2
   1   7 -10 5.88114 0.17439   2
  -1  -7  10 5.43576 0.25966   1
   0   7 -10 13.1048 0.40606   2
   0   7 -10 13.7659 0.35224   2
   0   7 -10 14.9229 0.67687   2
   0  -7  10 12.5019 0.43926   1
  -1   7 -10 1.62527 0.12387   2
  -1   7 -10 2.21167 0.18930   2
  -1   7 -10 1.80601 0.10741   2
   1  -7  10 1.72397 0.18277   1
  -2   7 -10 0.81394 0.08283   2
  -2   7 -10 0.77201 0.12202   2
   2  -7  10 0.91879 0.13502   1
   4   6 -10 2.89652 0.16290   1
   3   6 -10 1.41130 0.16076   1
   3   6 -10 1.54326 0.08111   2
  -3  -6  10 1.66948 0.15445   1
  -3  -6  10 1.55785 0.14007   1
   2   6 -10 0.00132 0.08386   1
  -2  -6  10 -0.0317 0.08682   1
  -2  -6  10 0.10134 0.09897   1
   1   6 -10 0.05273 0.09133   1
  -1  -6  10 0.07683 0.10401   1
   0   6 -10 6.37165 0.20413   2
   0  -6  10 5.47089 0.19669   1
  -1   6 -10 2.94634 0.23726   2
  -1   6 -10 3.31064 0.15071   2
  -1   6 -10 3.22483 0.17124   2
   1  -6  10 2.95743 0.15301   1
  -2   6 -10 1.95327 0.13904   2
   2  -6  -7 4.03791 0.25675  -2
  -2   6 -10 4.03791 0.25675   1
  -2   6   7 3.62674 0.16954  -2
   2  -6  10 3.62674 0.16954   1
  -3   6 -10 6.11314 0.27393   2
  -3   6 -10 6.55558 0.22004   2
  -3   6 -10 5.93395 0.24183   1
  -3   6 -10 5.59434 0.22532   1
   3  -6  10 5.22617 0.17898   1
   4   5 -10 1.61749 0.15557   1
   4   5 -10 1.68056 0.15370   2
  -4  -5  10 1.86531 0.14440   1
  -4  -5  10 1.68755 0.15361   1
  -3  -5  -5 10.0516 0.44178  -2
   3   5 -10 10.0516 0.44178   1
   3   5   5 9.79332 0.41476  -2
  -3  -5  10 9.79332 0.41476   1
   3   5   5 9.44348 0.40757  -2
  -3  -5  10 9.44348 0.40757   1
   2   5 -10 6.45248 0.34716   1
  -2  -5  10 6.21294 0.32131   1
  -1  -5  -6 3.52507 0.27786  -2
   1   5 -10 3.52507 0.27786   1
   0   5 -10 38.0949 1.01217   1
   0   5 -10 37.3508 0.99808   1
   0  -5  10 37.2812 0.89872   1
   1  -5  -7 31.4171 0.87658  -2
  -1   5 -10 31.4171 0.87658   1
   1  -5  -7 31.0396 0.92371  -2
  -1   5 -10 31.0396 0.92371   1
   1  -5  -7 31.1872 0.90248  -2
  -1   5 -10 31.1872 0.90248   1
  -1   5   7 32.2246 0.78731  -2
   1  -5  10 32.2246 0.78731   1
  -2   5 -10 7.97086 0.33980   1
  -2   5 -10 7.88612 0.35438   1
  -2   5 -10 8.06061 0.32473   1
  -2   5 -10 8.40081 0.37859   2
  -2   5 -10 8.99105 0.33741   2
  -2   5 -10 8.77926 0.29449   2
  -2   5 -10 8.79489 0.39390   2
   2  -5  10 8.00005 0.29261   1
  -3   5 -10 9.45020 0.35786   1
  -3   5 -10 9.37185 0.31620   1
  -3   5 -10 10.0632 0.36261   2
  -3   5 -10 10.2076 0.31669   2
  -3   5 -10 10.7794 0.39688   2
  -3   5 -10 9.91609 0.38128   2
   3  -5  10 9.78632 0.29694   1
   5   4 -10 2.19170 0.16050   1
   5   4 -10 1.94786 0.14166   1
   5   4 -10 2.08149 0.16097   2
   5   4 -10 2.00964 0.08554   2
  -5  -4  10 1.76286 0.15025   1
  -5  -4  10 1.83571 0.12519   1
  -4  -4  -5 57.4998 1.42809  -2
   4   4 -10 57.4998 1.42809   1
   4   4   5 56.8301 1.37503  -2
  -4  -4  10 56.8301 1.37503   1
   4   4   5 58.6559 1.38796  -2
  -4  -4  10 58.6559 1.38796   1
   3   4 -10 4.23090 0.28869   1
  -3  -4  10 4.15166 0.27830   1
   2   4 -10 35.9321 0.99483   1
   2   4 -10 35.5361 1.03173   1
   1   4 -10 0.85523 0.24771   1
   1   4 -10 0.69108 0.15542   1
   1   4 -10 0.66311 0.12999   1
   1   4 -10 0.71381 0.14830   1
  -1  -4  10 0.48710 0.17825   1
  -1  -4  10 0.69396 0.12856   1
   0   4 -10 38.4744 1.06016   1
   0   4 -10 38.5345 1.00701   1
   0   4 -10 39.2104 0.92469   1
   0   4 -10 38.0320 0.98136   1
   0   4 -10 38.4354 1.06032   1
   0   4 -10 39.4639 1.48598   1
   0  -4  10 36.1743 1.30286   1
   0  -4  10 38.7895 0.95205   1
  -1   4 -10 53.7069 1.28062   1
  -1   4 -10 53.2951 1.17902   1
  -1   4 -10 53.7925 1.35187   1
  -1   4 -10 52.4211 1.37883   1
  -1   4 -10 57.7431 1.30411   2
  -1   4 -10 58.5299 1.49367   2
  -1   4 -10 58.7007 1.51385   2
   1  -4  10 52.8739 1.24024   1
  -2   4 -10 74.6389 1.56521   1
  -2   4 -10 74.7932 1.81435   1
  -2   4 -10 75.0219 1.74962   1
  -2   4 -10 76.3221 1.67614   1
  -2   4 -10 80.5959 1.77155   2
  -2   4 -10 79.9876 1.96119   2
  -2   4 -10 80.6985 1.93763   2
   2  -4  10 73.5110 1.63594   1
  -3   4 -10 1.28910 0.12057   1
  -3   4 -10 1.39846 0.11803   1
  -3   4 -10 1.63301 0.16350   1
  -3   4 -10 1.32718 0.14904   1
  -3   4 -10 1.17661 0.15866   2
  -3   4 -10 1.59705 0.12676   2
  -3   4 -10 1.33240 0.13814   2
  -3   4 -10 1.42302 0.17213   2
   3  -4  10 1.55529 0.15336   1
  -4   4 -10 0.33349 0.11059   2
   5   3 -10 8.39475 0.21519   2
   5   3 -10 8.52148 0.33302   2
   5   3 -10 7.33762 0.32068   1
   5   3 -10 7.81120 0.30043   1
  -5  -3  10 7.54143 0.29694   1
  -5  -3  10 7.80161 0.31585   1
   4   3 -10 15.5738 0.53396   2
   4   3 -10 15.3257 0.35444   2
   4   3 -10 13.7981 0.50528   1
  -4  -3  10 14.0785 0.49658   1
   3   3 -10 12.8754 0.50924   1
  -3  -3  10 12.2496 0.48549   1
   2   3 -10 23.4412 0.75626   1
   2   3 -10 23.7508 0.73529   1
   2   3 -10 22.9240 0.68907   1
   2   3 -10 22.3244 1.02133   1
  -2  -3  10 21.2250 0.87929   1
  -2  -3  10 22.7924 0.62986   1
   1   3 -10 20.5949 0.67491   1
   1   3 -10 19.2560 0.59397   1
   1   3 -10 21.0400 0.69313   1
   1   3 -10 20.9936 0.57106   1
   1   3 -10 20.4518 0.98422   1
   1   3 -10 21.1609 0.63225   1
   1   3 -10 20.4235 0.68795   1
  -1  -3  10 20.2919 0.60173   1
   0  -3  -8 64.0147 1.58064  -2
   0   3 -10 64.0147 1.58064   1
   0  -3  -8 60.2415 2.08526  -2
   0   3 -10 60.2415 2.08526   1
   0  -3  -8 62.6887 1.47655  -2
   0   3 -10 62.6887 1.47655   1
   0  -3  -8 63.4444 1.36396  -2
   0   3 -10 63.4444 1.36396   1
   0  -3  -8 63.1845 1.60509  -2
   0   3 -10 63.1845 1.60509   1
   0   3   8 59.9478 1.95359  -2
   0  -3  10 59.9478 1.95359   1
   0   3   8 63.3615 1.44720  -2
   0  -3  10 63.3615 1.44720   1
  -1   3 -10 6.31698 0.34827   1
  -1   3 -10 6.61981 0.29252   1
  -1   3 -10 6.65882 0.27325   1
  -1   3 -10 6.53483 0.35014   1
  -1   3 -10 6.63968 0.62140   1
  -1   3 -10 7.03378 0.38451   2
  -1   3 -10 6.90822 0.23247   2
  -1   3 -10 6.21999 0.35067   2
  -1   3 -10 7.72303 0.79095   2
  -1   3 -10 6.91685 0.25707   2
   1  -3  10 7.62894 0.48325   1
   2  -3  -9 14.6824 0.44251  -2
  -2   3 -10 14.6824 0.44251   1
   2  -3  -9 14.0406 0.52705  -2
  -2   3 -10 14.0406 0.52705   1
   2  -3  -9 15.1705 0.43656  -2
  -2   3 -10 15.1705 0.43656   1
   2  -3  -9 15.5221 0.55845  -2
  -2   3 -10 15.5221 0.55845   1
  -3   3 -10 7.69658 0.23652   1
  -3   3 -10 7.83599 0.32763   1
  -3   3 -10 7.44565 0.25594   1
  -3   3 -10 8.04770 0.33400   1
  -3   3 -10 7.67959 0.34347   2
  -3   3 -10 7.99779 0.36377   2
  -3   3 -10 8.12147 0.28509   2
   3  -3  10 7.51865 0.28655   1
  -4   3 -10 16.8741 0.62094   2
  -4   3 -10 17.0367 0.60205   2
   5   2 -10 10.0612 0.36035   2
   5   2 -10 8.63137 0.24201   2
   5   2 -10 8.69881 0.33602   2
  -5  -2  -6 20.9363 0.62088  -2
   5   2 -10 20.9363 0.62088   1
  -5  -2  10 8.53575 0.33709   1
   5   2   6 20.7392 0.61464  -2
  -5  -2  10 20.7392 0.61464   1
   4   2 -10 0.99973 0.08569   2
   4   2 -10 1.06173 0.15275   2
   4   2 -10 0.95056 0.15506   2
   4   2 -10 0.78419 0.14959   1
   4   2 -10 1.01759 0.23898   1
   4   2 -10 1.08813 0.15876   1
   4   2 -10 0.89091 0.15006   1
  -4  -2  10 1.27839 0.17454   1
  -3  -2  -7 8.21935 0.40595  -2
   3   2 -10 8.21935 0.40595   1
  -3  -2  -7 8.61194 0.38407  -2
   3   2 -10 8.61194 0.38407   1
   2   2 -10 6.77239 0.31385   1
   2   2 -10 6.43404 0.51865   1
   2   2 -10 6.37328 0.35763   1
   2   2 -10 6.61010 0.33249   1
   2   2 -10 6.54873 0.36876   1
   2   2 -10 6.72346 0.27489   1
   2   2 -10 6.19851 0.34719   1
   2   2 -10 6.58385 0.29026   1
   2   2 -10 8.21667 0.24980   2
  -2  -2  10 6.61948 0.30373   1
  -2  -2  10 6.34745 0.45209   1
  -1  -2  -8 19.0658 0.59258  -2
   1   2 -10 19.0658 0.59258   1
  -1  -2  -8 17.3815 0.98799  -2
   1   2 -10 17.3815 0.98799   1
  -1  -2  -8 17.6470 0.58579  -2
   1   2 -10 17.6470 0.58579   1
  -1  -2  -8 18.0103 0.68257  -2
   1   2 -10 18.0103 0.68257   1
  -1  -2  -8 19.0678 0.68724  -2
   1   2 -10 19.0678 0.68724   1
  -1  -2  -8 17.9702 0.65786  -2
   1   2 -10 17.9702 0.65786   1
  -1  -2  -8 18.8231 0.55062  -2
   1   2 -10 18.8231 0.55062   1
   1   2   8 17.4438 0.83567  -2
  -1  -2  10 17.4438 0.83567   1
   0   2 -10 12.5354 0.37195   2
   0   2 -10 12.5691 0.33725   2
   0   2 -10 13.1134 0.54680   2
   0   2 -10 12.3315 0.78534   2
   0   2 -10 11.7338 0.48985   1
   0   2 -10 11.8177 0.39205   1
   0   2 -10 11.6077 0.71453   1
   0   2 -10 11.0285 0.48388   1
   0   2 -10 11.8162 0.37545   1
  -1   2 -10 0.34627 0.12058   1
  -1   2 -10 0.22390 0.07554   1
  -1   2 -10 0.24989 0.07482   1
  -1   2 -10 0.16299 0.09668   1
  -1   2 -10 0.42140 0.08276   2
  -1   2 -10 0.34861 0.13179   2
  -1   2 -10 0.36449 0.07483   2
  -1   2 -10 0.23288 0.12689   2
  -2   2 -10 1.87468 0.20700   1
  -2   2 -10 2.25784 0.12676   1
  -2   2 -10 2.17921 0.14199   1
  -2   2 -10 2.12992 0.21420   1
  -2   2 -10 2.16404 0.15454   2
  -2   2 -10 2.08055 0.14029   2
  -2   2 -10 2.04920 0.22418   2
  -2   2 -10 2.41869 0.24061   2
  -3   2 -10 0.06042 0.04870   1
  -3   2 -10 0.11297 0.08779   1
  -3   2 -10 0.12731 0.07897   1
  -3   2 -10 0.08615 0.09288   2
  -3   2 -10 0.13169 0.06399   2
  -3   2 -10 0.07834 0.05368   2
  -3   2 -10 0.08102 0.08841   2
   5   1 -10 0.44391 0.10872   2
   5   1 -10 0.44913 0.06257   2
   5   1 -10 0.63288 0.12049   2
   5   1 -10 0.51494 0.10089   1
   5   1 -10 0.41500 0.10284   1
   5   1 -10 0.38796 0.10475   1
  -5  -1  10 0.70257 0.12149   1
   4   1 -10 0.82408 0.14593   1
   4   1 -10 0.84812 0.12751   1
   4   1 -10 0.53401 0.13542   1
   4   1 -10 0.87365 0.15087   2
   4   1 -10 1.11431 0.09342   2
   4   1 -10 0.85793 0.14784   2
   3   1 -10 14.6809 0.48000   1
   3   1 -10 15.2571 0.46841   1
   3   1 -10 14.6306 0.51448   1
   3   1 -10 14.4648 0.55271   1
   3   1 -10 14.5112 0.57109   1
   3   1 -10 14.6501 0.43544   1
   3   1 -10 15.3008 0.85756   1
   3   1 -10 15.9902 0.39252   2
   3   1 -10 15.4453 0.55510   2
   2   1 -10 0.15463 0.11351   2
   2   1 -10 0.23208 0.05761   2
   2   1 -10 0.26207 0.13773   2
   2   1 -10 0.18479 0.07253   1
   2   1 -10 0.18039 0.09571   1
   2   1 -10 0.17989 0.07443   1
   2   1 -10 0.40896 0.20326   1
   2   1 -10 0.31286 0.11951   1
   2   1 -10 0.21953 0.11516   1
   2   1 -10 0.22493 0.08228   1
   2   1 -10 0.23536 0.11771   1
  -2  -1  10 0.55172 0.20237   1
   1   1 -10 1.74325 0.14345   1
   1   1 -10 2.25618 0.23877   1
   1   1 -10 1.66963 0.31248   1
   1   1 -10 1.74215 0.15023   1
   1   1 -10 1.87564 0.21406   1
   1   1 -10 1.99889 0.14920   1
   1   1 -10 2.01169 0.21709   1
   1   1 -10 2.04150 0.11875   2
   1   1 -10 1.95959 0.21944   2
   1   1 -10 2.10206 0.24383   2
   0   1 -10 0.19625 0.06352   1
   0   1 -10 0.24441 0.19582   1
   0   1 -10 0.07091 0.10638   1
   0   1 -10 0.17627 0.06476   1
   0   1 -10 0.07992 0.09220   1
   0   1 -10 0.42177 0.07585   2
   0   1 -10 0.24685 0.22807   2
   0   1 -10 0.13552 0.11267   2
   0   1 -10 0.18063 0.11402   2
  -1   1 -10 0.89078 0.17116   2
  -1   1 -10 0.79307 0.11159   2
  -1   1 -10 0.82873 0.10328   2
  -1   1 -10 1.10316 0.17452   2
  -1   1 -10 1.02065 0.10939   1
  -1   1 -10 0.82315 0.07832   1
  -1   1 -10 0.85887 0.15117   1
  -1   1 -10 0.81180 0.15250   1
  -2   1 -10 0.47847 0.08493   2
  -2   1 -10 0.64839 0.05841   2
  -2   1 -10 0.53222 0.13247   2
  -2   1 -10 0.47766 0.09343   2
  -2   1 -10 0.48508 0.13154   2
  -2   1 -10 0.52374 0.13347   2
  -2   1 -10 0.37727 0.06801   1
  -2   1 -10 0.43561 0.12008   1
  -2   1 -10 0.50809 0.11355   1
  -3   1 -10 5.44146 0.22612   1
  -3   1 -10 5.58979 0.17105   1
  -3   1 -10 5.44536 0.26332   2
  -3   1 -10 6.11546 0.23366   2
   3  -1 -11 8.09858 0.33214  -2
  -3   1 -10 8.09858 0.33214   1
   5   0 -10 20.7755 0.48134   2
   5   0 -10 20.8401 0.60136   2
   5   0 -10 20.9520 0.60204   2
   5   0 -10 18.6801 0.54787   1
   5   0 -10 19.1227 0.57922   1
   5   0 -10 17.9821 0.51539   1
   4   0 -10 3.50930 0.22209   1
   4   0 -10 3.27237 0.20252   1
   4   0 -10 3.26845 0.18774   1
   4   0 -10 3.39756 0.25684   1
   4   0 -10 3.30018 0.18108   1
   4   0 -10 3.69208 0.24884   1
   4   0 -10 3.31152 0.15608   2
   4   0 -10 3.71570 0.25332   2
   4   0 -10 3.91888 0.25882   2
  -4   0  10 3.57544 0.23629   1
   3   0 -10 1.88241 0.22136   1
   3   0 -10 2.18769 0.14917   1
   3   0 -10 2.40351 0.20642   1
   3   0 -10 1.94250 0.21223   1
   3   0 -10 2.18079 0.15431   1
   3   0 -10 2.19422 0.16583   1
   3   0 -10 2.50824 0.13891   2
   3   0 -10 2.46743 0.23511   2
  -3   0  10 2.34369 0.21457   1
  -2   0  -9 12.8619 0.41587  -2
   2   0 -10 12.8619 0.41587   1
  -2   0  -9 11.9665 0.52999  -2
   2   0 -10 11.9665 0.52999   1
  -2   0  -9 12.9659 0.44450  -2
   2   0 -10 12.9659 0.44450   1
  -2   0  -9 12.7920 0.54192  -2
   2   0 -10 12.7920 0.54192   1
  -2   0  -9 13.8229 0.54449  -2
   2   0 -10 13.8229 0.54449   1
  -2   0  -9 12.4072 0.42126  -2
   2   0 -10 12.4072 0.42126   1
   1   0 -10 6.48834 0.22727   1
   1   0 -10 5.89900 0.32324   1
   1   0 -10 6.01833 0.32473   1
   1   0 -10 6.25333 0.25194   1
   1   0 -10 5.92671 0.22917   1
   1   0 -10 5.46190 0.47650   1
   1   0 -10 6.21396 0.32732   1
   1   0 -10 6.29783 0.34933   2
   1   0 -10 6.51966 0.23211   2
   1   0 -10 6.49289 0.37089   2
   0   0 -10 0.68189 0.09253  -2
   0   0 -10 0.68189 0.09253   1
   0   0 -10 0.32872 0.16115  -2
   0   0 -10 0.32872 0.16115   1
   0   0 -10 0.38844 0.12776  -2
   0   0 -10 0.38844 0.12776   1
  -1   0 -10 1.05754 0.12857   2
  -1   0 -10 0.94391 0.11007   2
  -1   0 -10 0.98391 0.16525   2
  -1   0 -10 1.03860 0.08825   2
  -1   0 -10 0.97383 0.16918   2
  -1   0 -10 0.99623 0.15175   1
  -1   0 -10 0.93434 0.14843   1
  -1   0 -10 0.78159 0.08251   1
  -2   0 -10 0.01118 0.06126   2
  -2   0 -10 0.03478 0.04450   2
  -2   0 -10 0.03927 0.08674   2
  -2   0 -10 0.04941 0.05760   2
  -2   0 -10 0.07055 0.08667   2
  -2   0 -10 0.00813 0.03317   1
  -2   0 -10 0.08041 0.08214   1
  -2   0 -10 0.04490 0.07055   1
   2   0  10 0.10529 0.10433   2
  -3   0 -10 6.55503 0.22059   2
  -3   0 -10 6.03708 0.25220   2
  -5   1  -8 63.9986 1.46957  -2
   5  -1 -10 63.9986 1.46957   1
  -5   1  -8 64.5374 1.39147  -2
   5  -1 -10 64.5374 1.39147   1
  -5   1  -8 61.1094 1.49706  -2
   5  -1 -10 61.1094 1.49706   1
   4  -1 -10 7.65721 0.26192   1
   4  -1 -10 7.89222 0.27968   1
   4  -1 -10 8.03845 0.32398   1
   4  -1 -10 7.41255 0.33444   1
   4  -1 -10 7.81470 0.27508   1
   4  -1 -10 7.05367 0.34565   1
   4  -1 -10 8.50703 0.36156   2
   4  -1 -10 8.20023 0.26274   2
  -3   1  -9 43.9299 0.99177  -2
   3  -1 -10 43.9299 0.99177   1
  -3   1  -9 45.6664 1.22951  -2
   3  -1 -10 45.6664 1.22951   1
  -3   1  -9 45.0064 1.04538  -2
   3  -1 -10 45.0064 1.04538   1
  -3   1  -9 44.5330 1.19391  -2
   3  -1 -10 44.5330 1.19391   1
  -3   1  -9 46.3303 1.20024  -2
   3  -1 -10 46.3303 1.20024   1
  -3   1  -9 47.3509 1.09107  -2
   3  -1 -10 47.3509 1.09107   1
   2  -1 -10 0.44627 0.11065   1
   2  -1 -10 0.54112 0.13333   1
   2  -1 -10 0.54311 0.12882   1
   2  -1 -10 0.45199 0.07026   1
   2  -1 -10 0.41699 0.07947   1
   2  -1 -10 0.48994 0.07642   1
   2  -1 -10 0.45556 0.13689   2
   2  -1 -10 0.85541 0.10343   2
   2  -1 -10 0.48740 0.13358   2
   1  -1 -10 0.23998 0.06302   1
   1  -1 -10 0.41087 0.12619   1
   1  -1 -10 0.22373 0.05669   1
   1  -1 -10 0.17725 0.09356   1
   1  -1 -10 0.14051 0.06029   2
   1  -1 -10 0.25523 0.12141   2
   1  -1 -10 0.12099 0.10830   2
   0  -1 -10 3.47825 0.26030   2
   0  -1 -10 3.47146 0.19271   2
   0  -1 -10 3.64451 0.18206   2
   0  -1 -10 3.49253 0.27012   2
   0  -1 -10 3.58444 0.15214   2
   0  -1 -10 3.15900 0.13083   1
   0  -1 -10 3.00736 0.22189   1
   0  -1 -10 3.30618 0.15191   1
  -1  -1 -10 24.9645 0.73026   2
  -1  -1 -10 24.6818 0.66513   2
  -1  -1 -10 25.1020 0.58985   2
  -1  -1 -10 25.9443 0.76639   2
  -1  -1 -10 25.6994 0.61613   2
  -1  -1 -10 22.9247 0.47337   1
  -1  -1 -10 22.6789 0.64675   1
  -1  -1 -10 22.5109 0.53438   1
  -2  -1 -10 0.93268 0.12210   2
  -2  -1 -10 0.98717 0.10460   2
  -2  -1 -10 1.06725 0.13645   2
  -2  -1 -10 1.03236 0.06986   2
  -2  -1 -10 1.05344 0.11597   2
   2   1  10 1.17177 0.13768   2
   5  -2 -10 73.8034 1.65518   2
   5  -2 -10 65.8772 1.37486   1
   4  -2 -10 8.99391 0.27241   2
   4  -2 -10 9.29734 0.35384   2
   4  -2 -10 9.16186 0.34080   2
   4  -2 -10 7.96136 0.31694   1
   4  -2 -10 8.23174 0.24482   1
   4  -2 -10 8.39370 0.31350   1
   4  -2 -10 8.07966 0.26675   1
   3  -2 -10 0.65567 0.11998   1
   3  -2 -10 0.61791 0.06105   1
   3  -2 -10 0.51115 0.10678   1
   3  -2 -10 0.56770 0.07712   1
   3  -2 -10 0.52638 0.08147   1
   3  -2 -10 0.60235 0.12627   2
   3  -2 -10 0.68860 0.09021   2
   3  -2 -10 0.68493 0.13120   2
   2  -2 -10 2.16494 0.11459   1
   2  -2 -10 2.03888 0.12367   1
   2  -2 -10 1.99643 0.18561   1
   2  -2 -10 2.24472 0.18618   1
   2  -2 -10 2.10973 0.10451   2
   2  -2 -10 2.18240 0.13835   2
   2  -2 -10 2.38273 0.21507   2
   2  -2 -10 1.81015 0.19482   2
   1  -2 -10 31.8469 0.85810   1
   1  -2 -10 32.0099 0.73928   1
   1  -2 -10 32.0453 0.66897   1
   1  -2 -10 35.4059 0.78480   2
   1  -2 -10 35.9363 0.98427   2
   1  -2 -10 33.8796 0.79006   2
   1  -2 -10 36.1766 0.95707   2
   0  -2 -10 8.87089 0.32842   1
   0  -2 -10 8.90711 0.23740   1
   0  -2 -10 8.90819 0.19659   1
   0  -2 -10 9.81913 0.30498   2
   0  -2 -10 9.77144 0.33305   2
   0  -2 -10 9.71756 0.27650   2
   0  -2 -10 9.21397 0.38703   2
   0  -2 -10 9.71282 0.39236   2
   0   2  10 9.80724 0.32227   2
   4  -3 -10 1.72013 0.10640   2
   4  -3 -10 1.61123 0.12768   1
   4  -3 -10 2.07327 0.12872   1
   3  -3 -10 9.48183 0.33399   1
   3  -3 -10 9.66165 0.27545   1
   3  -3 -10 9.66322 0.33025   1
   3  -3 -10 10.5730 0.37669   2
   3  -3 -10 11.1590 0.37656   2
   3  -3 -10 10.7671 0.30037   2
  -3   3  10 10.7362 0.31268   2
  -2   3 -11 7.68463 0.30165  -2
   2  -3 -10 7.68463 0.30165   1
  -2   3 -11 7.03287 0.27924  -2
   2  -3 -10 7.03287 0.27924   1
  -2   3 -11 6.99554 0.22416  -2
   2  -3 -10 6.99554 0.22416   1
   1  -3 -10 6.30593 0.23598   2
   1  -3 -10 6.07614 0.28090   2
   1  -3 -10 6.03674 0.17706   2
   1  -3 -10 6.11886 0.27810   2
   1  -3 -10 5.91445 0.21506   2
   1  -3 -10 5.19627 0.14754   1
   1  -3 -10 5.01118 0.21657   1
  -1   3  10 5.87855 0.21951   2
   0  -3 -10 11.3739 0.32341   2
   0  -3 -10 11.0137 0.37498   2
   0  -3 -10 12.3080 0.29794   2
   0  -3 -10 10.6813 0.36806   2
   0   3  10 10.8235 0.30966   2
  -1  -7  11 0.47290 0.07871   1
   0  -7  11 0.12310 0.07510   1
   3   6 -11 0.02391 0.05525   1
  -3  -6  11 0.05104 0.04966   1
   2   6 -11 18.2027 0.53192   1
  -2  -6  11 18.3091 0.50862   1
   1   6 -11 0.03927 0.07381   1
  -1  -6  11 0.00846 0.08597   1
  -1   6 -11 46.8556 1.07052   1
   3   5   6 12.0423 0.39449  -2
  -3  -5  11 12.0423 0.39449   1
   2   5 -11 17.6543 0.54340   1
  -2  -5  11 16.0116 0.50609   1
  -2  -5  11 17.1473 0.54382   1
  -1  -5  -7 37.4884 0.93100  -2
   1   5 -11 37.4884 0.93100   1
  -1  -5  -7 34.1552 0.93002  -2
   1   5 -11 34.1552 0.93002   1
   0   5 -11 67.3900 1.50419   1
   0   5 -11 66.3015 1.52592   1
   0  -5  11 65.5345 1.40349   1
   1  -5  -8 15.2584 0.46941  -2
  -1   5 -11 15.2584 0.46941   1
   1  -5  -8 14.5351 0.48701  -2
  -1   5 -11 14.5351 0.48701   1
  -1   5   8 14.5784 0.40428  -2
   1  -5  11 14.5784 0.40428   1
  -2   5 -11 16.0566 0.43365   1
  -2   5 -11 16.4336 0.48019   1
  -2   5 -11 17.0043 0.50201   2
  -2   5 -11 17.3429 0.41335   2
   2  -5  11 16.6535 0.40548   1
  -4  -4  -6 2.75559 0.18801  -2
   4   4 -11 2.75559 0.18801   1
   4   4   6 2.51688 0.17618  -2
  -4  -4  11 2.51688 0.17618   1
   4   4   6 2.20509 0.17745  -2
  -4  -4  11 2.20509 0.17745   1
   3   4 -11 0.19154 0.08945   1
   3   4 -11 0.25419 0.09613   1
  -3  -4  11 0.28648 0.10194   1
   2   4 -11 0.06554 0.08898   1
   2   4 -11 0.05210 0.08743   1
   2   4 -11 0.01310 0.07175   1
  -2  -4  11 0.08035 0.09733   1
   1   4 -11 25.4938 0.71952   1
   1   4 -11 24.9100 0.72328   1
   1   4 -11 24.7087 0.68594   1
  -1  -4  11 24.6618 0.62559   1
   0   4 -11 8.20553 0.28998   1
   0   4 -11 8.81898 0.35187   1
   0   4 -11 8.14840 0.31972   1
   0   4 -11 8.38679 0.35811   1
   0  -4  11 8.66931 0.30370   1
  -1   4 -11 1.67789 0.13604   1
  -1   4 -11 1.79118 0.12840   1
  -1   4 -11 1.92984 0.18155   1
  -1   4 -11 1.68483 0.13248   1
  -1   4 -11 1.86214 0.17447   1
  -1   4 -11 1.69305 0.10022   2
  -1   4 -11 1.61293 0.11826   2
   1  -4  11 1.65689 0.13857   1
  -2   4 -11 0.28311 0.05700   2
  -2   4 -11 0.29595 0.09223   2
  -2   4 -11 0.25027 0.08925   2
  -2   4 -11 0.10554 0.07676   1
  -2   4 -11 0.27200 0.08573   1
  -2   4 -11 0.27161 0.05545   1
  -2   4 -11 0.16689 0.05759   1
   2  -4  11 0.38146 0.08666   1
   4   3 -11 37.0927 0.96345   1
   4   3 -11 37.4697 0.93443   1
  -4  -3  11 37.0168 0.90800   1
  -4  -3  11 36.3460 0.91947   1
   3   3 -11 24.2437 0.71718   1
   3   3 -11 24.3518 0.66185   1
   3   3 -11 25.1119 0.74164   1
  -3  -3  11 24.8537 0.70202   1
   2   3 -11 19.4807 0.62122   1
   2   3 -11 19.6367 0.56997   1
   2   3 -11 19.9217 0.63201   1
   2   3 -11 19.1738 0.61208   1
   1   3 -11 25.3005 0.73575   1
   1   3 -11 24.4922 0.72155   1
   1   3 -11 24.8715 0.66780   1
   1   3 -11 25.3049 0.61854   1
   1   3 -11 25.4666 0.67333   1
   1   3 -11 24.3787 0.72196   1
  -1  -3  11 25.2600 0.65174   1
   0   3 -11 17.8720 0.50221   1
   0  -3  -9 24.0276 0.73204  -2
   0   3 -11 24.0276 0.73204   1
   0  -3  -9 24.1835 0.73524  -2
   0   3 -11 24.1835 0.73524   1
   0  -3  -9 24.9490 0.65129  -2
   0   3 -11 24.9490 0.65129   1
   0  -3  -9 23.6534 0.60523  -2
   0   3 -11 23.6534 0.60523   1
   0   3 -11 21.4120 0.51147   2
   0   3   9 23.6639 0.63942  -2
   0  -3  11 23.6639 0.63942   1
  -1   3 -11 9.36756 0.29679   1
  -1   3 -11 9.80885 0.38552   1
  -1   3 -11 9.57106 0.38049   1
  -1   3 -11 9.62569 0.29984   1
  -1   3 -11 10.1641 0.41474   2
  -1   3 -11 10.7521 0.30589   2
   1  -3  11 9.54219 0.32960   1
   2  -3 -10 7.02186 0.23066  -2
  -2   3 -11 7.02186 0.23066   1
   2  -3 -10 7.69005 0.30696  -2
  -2   3 -11 7.69005 0.30696   1
   2  -3 -10 7.05337 0.30176  -2
  -2   3 -11 7.05337 0.30176   1
   2  -3 -10 7.44535 0.18628  -2
  -2   3 -11 7.44535 0.18628   1
  -2   3  10 7.01630 0.24971  -2
   2  -3  11 7.01630 0.24971   1
   4   2 -11 0.18059 0.07743   1
   4   2 -11 0.24831 0.09347   1
   4   2 -11 0.26129 0.07820   1
   4   2 -11 0.18061 0.09687   2
  -4  -2  11 0.06920 0.09042   1
  -3  -2  -8 29.8804 0.76459  -2
   3   2 -11 29.8804 0.76459   1
  -3  -2  -8 28.4384 0.82180  -2
   3   2 -11 28.4384 0.82180   1
   3   2   8 29.3752 0.80749  -2
  -3  -2  11 29.3752 0.80749   1
   2   2 -11 27.5975 0.79505   1
   2   2 -11 27.0067 0.78481   1
   2   2 -11 27.6725 0.77642   1
   2   2 -11 27.0249 0.76427   1
   2   2 -11 27.1049 0.65849   1
   2   2 -11 27.1251 0.70933   1
   2   2 -11 27.7688 0.70709   1
  -1  -2  -9 30.3591 0.78491  -2
   1   2 -11 30.3591 0.78491   1
  -1  -2  -9 29.6128 0.80201  -2
   1   2 -11 29.6128 0.80201   1
  -1  -2  -9 31.3382 0.75069  -2
   1   2 -11 31.3382 0.75069   1
  -1  -2  -9 30.5099 0.89629  -2
   1   2 -11 30.5099 0.89629   1
   0   2 -11 -0.0090 0.04915   1
   0   2 -11 0.06087 0.05482   1
   0   2 -11 0.05523 0.09056   1
   0   2 -11 0.01462 0.07991   1
   0   2 -11 0.14505 0.06241   1
   0   2 -11 0.07075 0.09938   2
   0   2 -11 0.15572 0.04653   2
   0   2 -11 0.04827 0.04591   2
  -1   2 -11 14.0251 0.38952   2
  -1   2 -11 14.0384 0.34597   2
  -1   2 -11 14.1651 0.50161   2
  -1   2 -11 13.3742 0.35550   1
  -1   2 -11 13.1893 0.45828   1
  -1   2 -11 12.9172 0.45617   1
  -1   2 -11 12.8891 0.30570   1
  -2   2 -11 2.03010 0.16199   1
  -2   2 -11 2.04388 0.10580   1
  -2   2 -11 1.97679 0.15388   1
  -2   2 -11 1.81077 0.15284   2
  -2   2 -11 2.10199 0.10641   2
  -2   2 -11 1.96198 0.17122   2
  -2   2 -11 2.01595 0.11850   2
   4   1 -11 4.05930 0.21878   2
   4   1 -11 4.08427 0.11132   2
   4   1 -11 3.49537 0.21419   1
   4   1 -11 3.47267 0.17647   1
   4   1 -11 3.51456 0.20683   1
  -4  -1  11 3.46286 0.19256   1
   3   1 -11 0.78023 0.10564   1
   3   1 -11 0.55801 0.11947   1
   3   1 -11 0.57752 0.12505   1
   3   1 -11 0.66220 0.11539   1
   3   1 -11 0.65556 0.09112   1
   3   1 -11 0.56470 0.08932   1
   3   1 -11 0.69029 0.05724   2
   3   1 -11 0.63959 0.12584   2
  -3  -1  11 0.65367 0.13636   1
   2   1 -11 1.98097 0.13093   1
   2   1 -11 2.02080 0.19194   1
   2   1 -11 1.85023 0.13176   1
   2   1 -11 1.86519 0.13667   1
   2   1 -11 1.78149 0.18189   1
   2   1 -11 2.08417 0.18347   1
   2   1 -11 1.86601 0.18401   1
   2   1 -11 2.44306 0.20637   2
   2   1 -11 2.19283 0.09508   2
   1   1 -11 5.25614 0.19510   1
   1   1 -11 5.66683 0.28501   1
   1   1 -11 5.42885 0.20736   1
   1   1 -11 5.18070 0.22311   1
   1   1 -11 5.43244 0.28190   1
   1   1 -11 6.12301 0.30120   2
   1   1 -11 5.98463 0.31754   2
   1   1 -11 5.86996 0.18216   2
   1   1 -11 5.83515 0.21134   2
   0   1 -11 0.28422 0.06346   1
   0   1 -11 0.50026 0.11272   1
   0   1 -11 0.31038 0.10047   1
   0   1 -11 0.35404 0.07128   1
   0   1 -11 0.30641 0.05755   2
   0   1 -11 0.50094 0.12215   2
   0   1 -11 0.43094 0.07306   2
  -1   1 -11 25.3714 0.56357   2
  -1   1 -11 25.2294 0.73452   2
  -1   1 -11 24.7816 0.62158   2
  -1   1 -11 22.8944 0.57237   1
  -1   1 -11 23.4575 0.65092   1
  -1   1 -11 23.4707 0.52229   1
  -1   1 -11 23.1484 0.65976   1
  -2   1 -11 0.13493 0.04228   2
  -2   1 -11 0.21932 0.05464   2
  -2   1 -11 0.12163 0.07504   2
  -2   1 -11 0.25232 0.08953   1
  -2   1 -11 0.16306 0.04155   1
  -2   1 -11 0.31726 0.08535   1
  -2   1 -11 0.17670 0.03464   1
   4   0 -11 0.58843 0.10997   1
   4   0 -11 0.76719 0.08051   1
   4   0 -11 0.59513 0.08665   1
   4   0 -11 0.54234 0.09671   1
   4   0 -11 0.59706 0.05530   2
   4   0 -11 0.66024 0.11102   2
   3   0 -11 4.61207 0.23434   1
   3   0 -11 4.92667 0.18606   1
   3   0 -11 4.85882 0.24930   1
   3   0 -11 4.97184 0.25752   1
   3   0 -11 4.96851 0.20319   1
   3   0 -11 4.81388 0.18583   1
   3   0 -11 5.30383 0.16526   2
   3   0 -11 5.39196 0.26329   2
   2   0 -11 0.11888 0.04623   1
   2   0 -11 0.09277 0.04909   1
   2   0 -11 0.04758 0.07092   1
   2   0 -11 0.01543 0.07417   1
   2   0 -11 0.06250 0.05347   1
   2   0 -11 0.06323 0.09105   2
   2   0 -11 0.10372 0.04320   2
   2   0 -11 0.23396 0.09998   2
   1   0 -11 7.73305 0.24076   1
   1   0 -11 8.27095 0.33737   1
   1   0 -11 7.96736 0.26715   1
   1   0 -11 7.66801 0.30864   1
   1   0 -11 8.90171 0.37506   2
   1   0 -11 8.80613 0.25099   2
   1   0 -11 8.67252 0.28146   2
   1   0 -11 8.39212 0.35053   2
   0   0 -11 0.96106 0.09219  -2
   0   0 -11 0.96106 0.09219   1
   0   0 -11 0.92641 0.13583  -2
   0   0 -11 0.92641 0.13583   1
   0   0 -11 1.22923 0.14963  -2
   0   0 -11 1.22923 0.14963   1
   0   0 -11 1.15858 0.08655  -2
   0   0 -11 1.15858 0.08655   1
  -1   0 -11 1.50684 0.15788   2
  -1   0 -11 1.55732 0.11035   2
  -1   0 -11 1.54670 0.09988   2
  -1   0 -11 1.58964 0.08681   1
  -1   0 -11 1.45655 0.06888   1
  -1   0 -11 1.58344 0.13575   1
  -1   0 -11 1.49965 0.12884   1
   4  -1 -11 0.11985 0.06258   1
   4  -1 -11 0.15595 0.04326   2
   4  -1 -11 0.13146 0.07212   2
   3  -1 -11 3.99808 0.20659   1
   3  -1 -11 3.80967 0.16128   1
  -3   1 -10 8.22870 0.33488  -2
   3  -1 -11 8.22870 0.33488   1
   3  -1 -11 4.32957 0.14773   2
   2  -1 -11 3.31822 0.19319   1
   2  -1 -11 3.66936 0.13955   1
   2  -1 -11 3.85988 0.20464   1
   2  -1 -11 3.38249 0.15088   1
   2  -1 -11 3.80852 0.22838   2
   2  -1 -11 4.16076 0.15002   2
   2  -1 -11 3.81220 0.22807   2
   1  -1 -11 0.81418 0.12706   2
   1  -1 -11 0.83929 0.08261   2
   1  -1 -11 0.79265 0.09153   2
   1  -1 -11 0.87402 0.13082   2
   1  -1 -11 0.80630 0.07341   1
   1  -1 -11 0.81803 0.06560   1
   1  -1 -11 0.72837 0.10779   1
   0  -1 -11 4.02446 0.22189   2
   0  -1 -11 3.95105 0.15261   2
   0  -1 -11 3.71165 0.20856   2
   0  -1 -11 4.07408 0.16913   2
   0  -1 -11 3.41000 0.09440   1
   0  -1 -11 3.51352 0.11922   1
   0  -1 -11 3.39021 0.17351   1
   2  -2 -11 18.6330 0.41819   2
   2  -2 -11 18.7746 0.46200   2
   2  -2 -11 18.3391 0.50868   2
   2  -2 -11 18.3595 0.51888   2
   2  -2 -11 17.1887 0.46941   1
   2  -2 -11 17.0367 0.40599   1
   1  -2 -11 27.8151 0.61344   2
   1  -2 -11 27.1964 0.78668   2
   1  -2 -11 29.0041 0.68940   2
   1  -2 -11 27.2990 0.73232   2
   2   4 -12 0.32051 0.06636   1
  -2  -4  12 0.10466 0.07370   1
   1   4 -12 3.06102 0.14826   1
  -1  -4  12 2.94708 0.17024   1
   0   4 -12 1.48457 0.13049   1
   0   4 -12 1.56901 0.10148   1
   0  -4  12 1.58014 0.10149   1
   3   3 -12 18.3165 0.62155   1
  -3  -3  12 17.3282 0.47533   1
   2   3 -12 3.29832 0.15149   1
   2   3 -12 3.15751 0.17899   1
  -2  -3  12 3.30393 0.18907   1
   1   3 -12 7.71675 0.24113   1
   1   3 -12 9.72368 0.33454   1
   1   3 -12 7.88217 0.29866   1
   1   3 -12 7.79015 0.24427   1
   1   3 -12 7.31120 0.27176   1
   0   3 -12 1.22142 0.07345   1
   0  -3  12 1.52896 0.10834   1
  -3  -2  -9 18.5350 0.45439  -2
   3   2 -12 18.5350 0.45439   1
   2   2 -12 1.26149 0.08615   1
   2   2 -12 1.31321 0.09286   1
  -2  -2  12 1.24137 0.13461   1
   1   2 -12 126.718 2.42694   1
   1   2 -12 125.194 2.65143   1
   1   2 -12 126.017 2.52672   1
   1   2 -12 125.402 2.76145   1
   1   2 -12 128.596 2.67999   1
   0   2 -12 0.70617 0.09737   1
   0   2 -12 0.63194 0.06743   1
   0   2 -12 0.74613 0.08099   1
   0   2 -12 0.70781 0.09781   1
   2   1 -12 1.68950 0.09578   1
   2   1 -12 1.80783 0.10836   1
   2   1 -12 1.73925 0.15221   1
   1   1 -12 39.7126 0.89504   1
   1   1 -12 40.1448 0.96059   1
   1   1 -12 40.9137 0.81853   1
   0   0   0    0.00    0.00   0
;
_shelx_hkl_checksum              11838
_olex2_submission_special_instructions 'No special instructions were received'
loop_
_space_group_symop_operation_xyz
'x, y, z'
'-x, -y, -z'
loop_
_atom_site_label
_atom_site_type_symbol
_atom_site_fract_x
_atom_site_fract_y
_atom_site_fract_z
_atom_site_U_iso_or_equiv
_atom_site_adp_type
_atom_site_occupancy
_atom_site_site_symmetry_order
_atom_site_calc_flag
_atom_site_refinement_flags_posn
N1 N 0.88211(12) 0.90912(10) 0.77369(8) 0.0215(2) Uani 1 1 d .
C1 C 0.83579(14) 0.73729(12) 0.71158(10) 0.0183(2) Uani 1 1 d .
C2 C 0.83334(14) 0.63722(12) 0.80049(10) 0.0201(3) Uani 1 1 d .
H2 H 0.862914 0.685264 0.900775 0.024 Uiso 1 1 calc R
C3 C 0.78755(14) 0.46725(12) 0.74202(10) 0.0195(2) Uani 1 1 d .
H3 H 0.785870 0.398877 0.802827 0.023 Uiso 1 1 calc R
C4 C 0.74367(13) 0.39454(12) 0.59454(10) 0.0177(3) Uani 1 1 d .
C5 C 0.69531(14) 0.21851(12) 0.53092(10) 0.0198(2) Uani 1 1 d .
H5 H 0.689578 0.148571 0.590335 0.024 Uiso 1 1 calc R
C6 C 0.65777(14) 0.15017(11) 0.38829(11) 0.0202(3) Uani 1 1 d .
H6 H 0.625893 0.033221 0.349564 0.024 Uiso 1 1 calc R
C7 C 0.66505(14) 0.25064(12) 0.29401(10) 0.0188(2) Uani 1 1 d .
C8 C 0.63216(15) 0.18301(12) 0.14665(11) 0.0225(3) Uani 1 1 d .
H8 H 0.603677 0.066326 0.105982 0.027 Uiso 1 1 calc R
C9 C 0.64042(15) 0.28358(13) 0.05871(10) 0.0237(3) Uani 1 1 d .
H9 H 0.616554 0.235204 -0.041438 0.028 Uiso 1 1 calc R
C10 C 0.68327(15) 0.45433(13) 0.11573(10) 0.0219(3) Uani 1 1 d .
H10 H 0.688733 0.521838 0.054267 0.026 Uiso 1 1 calc R
C11 C 0.71851(14) 0.52803(12) 0.26295(10) 0.0185(2) Uani 1 1 d .
C12 C 0.76603(14) 0.70399(12) 0.32625(10) 0.0199(2) Uani 1 1 d .
H12 H 0.771821 0.773578 0.266546 0.024 Uiso 1 1 calc R
C13 C 0.80273(14) 0.77313(11) 0.46869(10) 0.0193(2) Uani 1 1 d .
H13 H 0.833544 0.890114 0.507147 0.023 Uiso 1 1 calc R
C14 C 0.79593(13) 0.67269(12) 0.56289(10) 0.0171(3) Uani 1 1 d .
C15 C 0.74886(14) 0.49760(12) 0.50400(10) 0.0161(2) Uani 1 1 d .
C16 C 0.70973(14) 0.42574(12) 0.35371(10) 0.0165(3) Uani 1 1 d .
C17 C 0.92107(17) 1.05092(13) 0.82756(11) 0.0302(3) Uani 1 1 d .
loop_
_atom_site_aniso_label
_atom_site_aniso_U_11
_atom_site_aniso_U_22
_atom_site_aniso_U_33
_atom_site_aniso_U_23
_atom_site_aniso_U_13
_atom_site_aniso_U_12
N1 0.0221(5) 0.0205(5) 0.0199(4) 0.0027(4) 0.0055(3) 0.0037(3)
C1 0.0144(5) 0.0172(5) 0.0216(5) 0.0022(4) 0.0046(4) 0.0035(4)
C2 0.0167(5) 0.0257(5) 0.0171(5) 0.0048(4) 0.0039(4) 0.0047(4)
C3 0.0179(5) 0.0236(5) 0.0197(5) 0.0095(4) 0.0050(4) 0.0054(4)
C4 0.0124(5) 0.0205(5) 0.0220(5) 0.0076(4) 0.0045(4) 0.0049(4)
C5 0.0178(5) 0.0194(5) 0.0246(5) 0.0099(4) 0.0045(4) 0.0046(4)
C6 0.0173(5) 0.0150(5) 0.0269(5) 0.0042(4) 0.0029(4) 0.0035(4)
C7 0.0124(5) 0.0203(5) 0.0218(5) 0.0037(4) 0.0020(4) 0.0037(4)
C8 0.0192(5) 0.0214(5) 0.0221(5) 0.0009(4) 0.0009(4) 0.0033(4)
C9 0.0208(5) 0.0304(6) 0.0164(5) 0.0020(4) 0.0013(4) 0.0053(4)
C10 0.0183(5) 0.0298(6) 0.0204(5) 0.0109(4) 0.0041(4) 0.0065(4)
C11 0.0126(5) 0.0234(5) 0.0207(5) 0.0073(4) 0.0037(4) 0.0056(4)
C12 0.0173(5) 0.0218(5) 0.0248(5) 0.0119(4) 0.0059(4) 0.0060(4)
C13 0.0169(5) 0.0159(5) 0.0257(5) 0.0062(4) 0.0053(4) 0.0042(4)
C14 0.0110(5) 0.0197(5) 0.0214(5) 0.0061(4) 0.0043(4) 0.0042(4)
C15 0.0102(5) 0.0190(5) 0.0198(5) 0.0058(4) 0.0033(4) 0.0044(4)
C16 0.0104(5) 0.0193(5) 0.0206(5) 0.0061(4) 0.0032(4) 0.0045(4)
C17 0.0380(6) 0.0247(6) 0.0261(5) 0.0039(4) 0.0104(4) 0.0037(5)
loop_
_atom_type_symbol
_atom_type_description
_atom_type_scat_dispersion_real
_atom_type_scat_dispersion_imag
_atom_type_scat_source
C C 0.0181 0.0091 'International Tables Vol C Tables 4.2.6.8 and 6.1.1.4'
H H 0.0000 0.0000 'International Tables Vol C Tables 4.2.6.8 and 6.1.1.4'
N N 0.0311 0.0180 'International Tables Vol C Tables 4.2.6.8 and 6.1.1.4'
loop_
_geom_angle_atom_site_label_1
_geom_angle_atom_site_label_2
_geom_angle_atom_site_label_3
_geom_angle
C17 N1 C1 178.73(9)
N1 C1 C14 119.14(9)
C2 C1 N1 118.36(8)
C2 C1 C14 122.50(9)
C1 C2 H2 120.2
C3 C2 C1 119.56(9)
C3 C2 H2 120.2
C2 C3 H3 119.5
C2 C3 C4 120.93(9)
C4 C3 H3 119.5
C3 C4 C5 122.12(9)
C3 C4 C15 119.28(9)
C15 C4 C5 118.60(9)
C4 C5 H5 119.3
C6 C5 C4 121.40(9)
C6 C5 H5 119.3
C5 C6 H6 119.3
C5 C6 C7 121.39(9)
C7 C6 H6 119.3
C8 C7 C6 122.44(9)
C8 C7 C16 118.97(9)
C16 C7 C6 118.59(9)
C7 C8 H8 119.5
C9 C8 C7 120.96(9)
C9 C8 H8 119.5
C8 C9 H9 119.7
C8 C9 C10 120.55(9)
C10 C9 H9 119.7
C9 C10 H10 119.7
C9 C10 C11 120.61(9)
C11 C10 H10 119.7
C10 C11 C12 122.36(9)
C10 C11 C16 119.15(9)
C16 C11 C12 118.48(9)
C11 C12 H12 119.2
C13 C12 C11 121.61(9)
C13 C12 H12 119.2
C12 C13 H13 119.5
C12 C13 C14 121.06(9)
C14 C13 H13 119.5
C1 C14 C13 123.65(9)
C1 C14 C15 117.40(9)
C15 C14 C13 118.95(9)
C4 C15 C16 120.05(9)
C14 C15 C4 120.32(9)
C14 C15 C16 119.62(9)
C7 C16 C15 119.96(9)
C11 C16 C7 119.76(9)
C11 C16 C15 120.27(9)
loop_
_geom_bond_atom_site_label_1
_geom_bond_atom_site_label_2
_geom_bond_distance
N1 C1 1.4014(12)
N1 C17 1.1600(13)
C1 C2 1.3898(14)
C1 C14 1.4032(14)
C2 H2 0.9500
C2 C3 1.3828(13)
C3 H3 0.9500
C3 C4 1.3993(13)
C4 C5 1.4357(13)
C4 C15 1.4233(14)
C5 H5 0.9500
C5 C6 1.3516(14)
C6 H6 0.9500
C6 C7 1.4365(14)
C7 C8 1.3950(14)
C7 C16 1.4240(14)
C8 H8 0.9500
C8 C9 1.3861(15)
C9 H9 0.9500
C9 C10 1.3875(14)
C10 H10 0.9500
C10 C11 1.3994(14)
C11 C12 1.4346(14)
C11 C16 1.4205(14)
C12 H12 0.9500
C12 C13 1.3509(14)
C13 H13 0.9500
C13 C14 1.4355(14)
C14 C15 1.4231(14)
C15 C16 1.4240(15)
loop_
_geom_torsion_atom_site_label_1
_geom_torsion_atom_site_label_2
_geom_torsion_atom_site_label_3
_geom_torsion_atom_site_label_4
_geom_torsion
N1 C1 C2 C3 179.82(8)
N1 C1 C14 C13 1.02(15)
N1 C1 C14 C15 -179.80(7)
C1 C2 C3 C4 0.01(15)
C1 C14 C15 C4 -0.11(15)
C1 C14 C15 C16 -179.20(8)
C2 C1 C14 C13 -178.27(8)
C2 C1 C14 C15 0.92(15)
C2 C3 C4 C5 -179.89(8)
C2 C3 C4 C15 0.77(15)
C3 C4 C5 C6 -178.47(8)
C3 C4 C15 C14 -0.71(15)
C3 C4 C15 C16 178.37(8)
C4 C5 C6 C7 0.15(16)
C4 C15 C16 C7 0.11(16)
C4 C15 C16 C11 -178.79(7)
C5 C4 C15 C14 179.92(7)
C5 C4 C15 C16 -0.99(15)
C5 C6 C7 C8 178.25(8)
C5 C6 C7 C16 -1.04(15)
C6 C7 C8 C9 -179.96(8)
C6 C7 C16 C11 179.80(7)
C6 C7 C16 C15 0.90(15)
C7 C8 C9 C10 0.49(16)
C8 C7 C16 C11 0.49(15)
C8 C7 C16 C15 -178.42(8)
C8 C9 C10 C11 -0.12(16)
C9 C10 C11 C12 179.11(8)
C9 C10 C11 C16 -0.06(16)
C10 C11 C12 C13 -178.94(8)
C10 C11 C16 C7 -0.13(16)
C10 C11 C16 C15 178.77(8)
C11 C12 C13 C14 0.11(16)
C12 C11 C16 C7 -179.33(7)
C12 C11 C16 C15 -0.43(16)
C12 C13 C14 C1 178.94(8)
C12 C13 C14 C15 -0.24(15)
C13 C14 C15 C4 179.12(8)
C13 C14 C15 C16 0.03(15)
C14 C1 C2 C3 -0.89(15)
C14 C15 C16 C7 179.20(7)
C14 C15 C16 C11 0.30(16)
C15 C4 C5 C6 0.88(15)
C16 C7 C8 C9 -0.67(16)
C16 C11 C12 C13 0.23(16)
loop_
_twin_individual_id
_twin_individual_mass_fraction_refined
1 0.4708(14)
2 0.5292(14)
