#------------------------------------------------------------------------------
#$Date: 2019-11-25 20:07:23 +0200 (Mon, 25 Nov 2019) $
#$Revision: 241697 $
#$URL: file:///home/coder/svn-repositories/cod/cif/4/13/15/4131506.cif $
#------------------------------------------------------------------------------
#
# This file is available in the Crystallography Open Database (COD),
# http://www.crystallography.net/
#
# All data on this site have been placed in the public domain by the
# contributors.
#
data_4131506
loop_
_publ_author_name
'Zhang, Wan-Ying'
'Tang, Yuan-Yuan'
'Li, Peng-Fei'
'Shi, Ping-Ping'
'Liao, Wei-Qiang'
'Fu, Da-Wei'
'Ye, Heng-Yun'
'Zhang, Yi'
'Xiong, Ren-Gen'
_publ_section_title
;
 Precise Molecular Design of High-T<sub>c</sub> 3D Organic-Inorganic
 Perovskite Ferroelectric: [MeHdabco]RbI<sub>3</sub> (MeHdabco =
 N-Methyl-1,4-diazoniabicyclo[2.2.2]octane).
;
_journal_issue                   31
_journal_name_full               'Journal of the American Chemical Society'
_journal_page_first              10897
_journal_page_last               10902
_journal_paper_doi               10.1021/jacs.7b06013
_journal_volume                  139
_journal_year                    2017
_chemical_formula_sum            'C6 H14 Br3 N2 Rb'
_chemical_formula_weight         439.39
_space_group_crystal_system      cubic
_space_group_IT_number           221
_space_group_name_Hall           '-P 4 2 3'
_space_group_name_H-M_alt        'P m -3 m'
_audit_creation_method           SHELXL-2014/7
_cell_angle_alpha                90
_cell_angle_beta                 90
_cell_angle_gamma                90
_cell_formula_units_Z            1
_cell_length_a                   6.798(2)
_cell_length_b                   6.798(2)
_cell_length_c                   6.798(2)
_cell_measurement_reflns_used    799
_cell_measurement_temperature    353(2)
_cell_measurement_theta_max      27.3124
_cell_measurement_theta_min      2.9956
_cell_volume                     314.15(16)
_computing_structure_refinement  'SHELXL-2014/7 (Sheldrick, 2014)'
_diffrn_ambient_temperature      353(2)
_diffrn_measured_fraction_theta_full 0.988
_diffrn_measured_fraction_theta_max 0.990
_diffrn_measurement_device_type  'Rigaku saturn 724'
_diffrn_radiation_type           MoK\a
_diffrn_radiation_wavelength     0.71073
_diffrn_reflns_av_R_equivalents  0.0333
_diffrn_reflns_av_unetI/netI     0.0124
_diffrn_reflns_Laue_measured_fraction_full 0.988
_diffrn_reflns_Laue_measured_fraction_max 0.990
_diffrn_reflns_limit_h_max       8
_diffrn_reflns_limit_h_min       -8
_diffrn_reflns_limit_k_max       8
_diffrn_reflns_limit_k_min       -4
_diffrn_reflns_limit_l_max       6
_diffrn_reflns_limit_l_min       -8
_diffrn_reflns_number            1153
_diffrn_reflns_point_group_measured_fraction_full 0.988
_diffrn_reflns_point_group_measured_fraction_max 0.990
_diffrn_reflns_theta_full        25.242
_diffrn_reflns_theta_max         27.304
_diffrn_reflns_theta_min         2.996
_exptl_absorpt_coefficient_mu    13.438
_exptl_absorpt_correction_T_max  1.0000
_exptl_absorpt_correction_T_min  0.7025
_exptl_absorpt_correction_type   multi-scan
_exptl_crystal_colour            colorless
_exptl_crystal_density_diffrn    2.322
_exptl_crystal_description       block
_exptl_crystal_F_000             206
_exptl_crystal_size_max          0.20
_exptl_crystal_size_mid          0.15
_exptl_crystal_size_min          0.12
_refine_diff_density_max         1.256
_refine_diff_density_min         -1.649
_refine_diff_density_rms         0.155
_refine_ls_extinction_coef       0.05(2)
_refine_ls_extinction_expression Fc^*^=kFc[1+0.001xFc^2^\l^3^/sin(2\q)]^-1/4^
_refine_ls_extinction_method     'SHELXL-2014/7 (Sheldrick 2014'
_refine_ls_goodness_of_fit_ref   1.033
_refine_ls_hydrogen_treatment    undef
_refine_ls_matrix_type           full
_refine_ls_number_parameters     9
_refine_ls_number_reflns         102
_refine_ls_number_restraints     0
_refine_ls_restrained_S_all      1.033
_refine_ls_R_factor_all          0.0702
_refine_ls_R_factor_gt           0.0670
_refine_ls_shift/su_max          0.000
_refine_ls_shift/su_mean         0.000
_refine_ls_structure_factor_coef Fsqd
_refine_ls_weighting_details
'w=1/[\s^2^(Fo^2^)+(0.0436P)^2^+3.9549P] where P=(Fo^2^+2Fc^2^)/3'
_refine_ls_weighting_scheme      calc
_refine_ls_wR_factor_gt          0.1401
_refine_ls_wR_factor_ref         0.1426
_reflns_Friedel_coverage         0.000
_reflns_number_gt                97
_reflns_number_total             102
_reflns_threshold_expression     'I > 2\s(I)'
_cod_data_source_file            ja7b06013_si_005.cif
_cod_data_source_block           shelxl
_cod_depositor_comments
;
The following automatic conversions were performed:

data item '_exptl_absorpt_correction_type' value 'Multi-scan' was
changed to 'multi-scan' in accordance with the
/home/saulius/struct/COD-crude-data/automatic-downloads/DataCite-retrospective/ACS/depositions/lib/dictionaries/cif_core.dic
dictionary named 'cif_core.dic' version 2.4.2 last updated on
2011-04-26.

Automatic conversion script
Id: cif_fix_values 6909 2019-04-08 15:41:33Z antanas 
;
_cod_original_cell_volume        314.2(3)
_cod_database_code               4131506
_shelx_shelxl_version_number     2014/7
_shelx_space_group_comment
;
The symmetry employed for this shelxl refinement is uniquely defined
by the following loop, which should always be used as a source of
symmetry information in preference to the above space-group names.
They are only intended as comments.
;
_shelx_res_file
;

    shelxl.res created by SHELXL-2014/7


TITL shelxl in P432                   New: Pm-3m
CELL  0.71073    6.7980    6.7980    6.7980    90.000    90.000    90.000
ZERR        1    0.0020    0.0020    0.0020     0.000     0.000     0.000
LATT   1
SYMM             - Y ,              X ,              Z
SYMM             - X ,            - Y ,              Z
SYMM               Y ,            - X ,              Z
SYMM               X ,            - Y ,            - Z
SYMM               Y ,              X ,            - Z
SYMM             - X ,              Y ,            - Z
SYMM             - Y ,            - X ,            - Z
SYMM               Z ,              X ,              Y
SYMM             - X ,              Z ,              Y
SYMM             - Z ,            - X ,              Y
SYMM               X ,            - Z ,              Y
SYMM               Z ,            - X ,            - Y
SYMM               X ,              Z ,            - Y
SYMM             - Z ,              X ,            - Y
SYMM             - X ,            - Z ,            - Y
SYMM               Y ,              Z ,              X
SYMM             - Z ,            - Y ,            - X
SYMM             - Z ,              Y ,              X
SYMM               Z ,              Y ,            - X
SYMM               Z ,            - Y ,              X
SYMM               Y ,            - Z ,            - X
SYMM             - Y ,            - Z ,              X
SYMM             - Y ,              Z ,            - X
SFAC  C  H Br  N Rb
UNIT    6    14   3   2   1
TEMP    80
L.S. 5
FMAP 2
PLAN -20
ACTA
BOND $H
CONF

WGHT    0.043600    3.954900
EXTI    0.045176
FVAR      14.55390
RESI 0
RB1   5    0.000000    0.000000    0.000000    10.02083    0.04741    0.04741 =
         0.04741    0.00000    0.00000    0.00000
BR1   3    0.500000    0.000000    0.000000    10.06250    0.04642    0.16333 =
         0.16333    0.00000    0.00000    0.00000
C1    1    0.500000    0.348454    0.348454    10.22222    0.24150    0.30187 =
         0.30187   -0.19956    0.00000    0.00000
HKLF 4 1  1.0000  0.0000  0.0000  0.0000 -1.0000  0.0000  0.0000  0.0000 -1.0000

REM  shelxl in P432                   New: Pm-3m
REM R1 =  0.0670 for      97 Fo > 4sig(Fo)  and  0.0702 for all     102 data
REM      9 parameters refined using      0 restraints

END

WGHT      0.0000      3.1682

REM Highest difference peak  1.256,  deepest hole -1.649,  1-sigma level  0.155
Q1    1  -0.5000  0.1004  0.0000  10.25000  0.05    1.26
Q2    1  -0.5000  0.5000  0.5000  10.02083  0.05    0.72
Q3    1  -0.5000  0.4289  0.0000  10.25000  0.05    0.49
Q4    1  -0.5000  0.2331  0.1109  10.50000  0.05    0.39
Q5    1  -0.5000  0.2688  0.0000  10.25000  0.05    0.38
Q6    1  -0.5000  0.3184  0.0000  10.25000  0.05    0.37
Q7    1  -0.5593  0.5000  0.1009  10.50000  0.05    0.36
Q8    1  -0.5000  0.5000  0.1110  10.12500  0.05    0.34
Q9    1  -0.5619  0.4381  0.0000  10.25000  0.05    0.32
Q10   1  -0.5936  0.4064  0.4064  10.16667  0.05    0.31
Q11   1   0.0000  0.3392  0.0000  10.12500  0.05    0.30
Q12   1   0.0000  0.1894  0.0000  10.12500  0.05    0.20
Q13   1  -0.5000  0.3356  0.1315  10.50000  0.05    0.18
Q14   1   0.2471  0.2471  0.4204  10.50000  0.05    0.17
Q15   1   0.1105  0.4133  0.1616  11.00000  0.05    0.15
Q16   1   0.1912  0.3611  0.3611  10.50000  0.05    0.15
Q17   1   0.5000  0.1854  0.2615  10.50000  0.05    0.15
Q18   1   0.1320  0.1904  0.1904  10.50000  0.05    0.15
Q19   1   0.1292  0.1292  0.2319  10.50000  0.05    0.14
Q20   1   0.1331  0.3896  0.1331  10.50000  0.05    0.14
;
_shelx_res_checksum              50686
_shelx_hkl_file
;
  -1   0   0142281.7 1930.44   1-0.05225-0.05225-0.85091 0.85091 0.52269-0.52269
   1   0   0141253.6 1916.88   1 0.05225 0.05225-0.86079 0.86079 0.50626-0.50626
   0   0   1141467.8 2056.85   1 0.90970-0.90970-0.41194 0.41194 0.05229 0.05229
   0   0  -1140855.9 1845.40   1 0.96491-0.96491-0.25730 0.25730-0.05229-0.05229
   0  -1   0139865.3 1884.60   1 0.98243-0.98243-0.05228-0.05228-0.17910 0.17910
   0   1   0145063.8 1960.99   1 0.96959-0.96959 0.05228 0.05228-0.23907 0.23907
  -1   0   177184.10 1208.85   1 0.32922-0.43374-0.83873 0.83873 0.43374-0.32922
   1   0  -176839.35 1202.23   1 0.47854-0.37397-0.79444 0.79444 0.37397-0.47854
  -1  -1   076917.34 1212.78   1 0.61984-0.72441-0.72441 0.61984 0.30167-0.30167
   1   1   077665.53 1202.88   1 0.73969-0.63512-0.63512 0.73969 0.22242-0.22242
   0  -1   176601.08 1240.51   1 0.97630-0.97630-0.19610 0.09153-0.09153 0.19610
   0   1  -174741.89 1226.87   1 0.98306-0.98306-0.06627 0.17084-0.17084 0.06627
   0  -1  -174865.69 1009.75   1 0.91419-0.91419 0.22948-0.33404-0.33404 0.22948
   1  -1   079373.36 1310.78   1 0.66941-0.56485 0.56485-0.66941-0.48251 0.48251
   0   1   176547.00 1039.12   1 0.62935-0.62935 0.59931-0.49471-0.49471 0.59931
   1   0   178682.78 1183.97   1 0.60557-0.50096 0.61831-0.61831-0.50096 0.60557
  -1   1   075395.93 1240.54   1 0.55250-0.65710 0.65710-0.55250-0.51277 0.51277
  -1   0  -176973.00 1167.76   1 0.42616-0.53076 0.73257-0.73257-0.53076 0.42616
  -1  -1   1626437.8 8332.27   1 0.72480-0.82937-0.64819 0.54362 0.23345-0.12888
   1   1  -1593438.6 7696.51   1 0.83326-0.72867-0.53431 0.63889 0.14207-0.24665
   1  -1   1625086.8 8154.79   1 0.86479-0.76024 0.32642-0.43097-0.38154 0.48609
  -1   1  -1602429.3 7825.54   1 0.76073-0.86528 0.47143-0.36688-0.44612 0.34157
   1  -1  -1619730.5 8018.53   1 0.37834-0.27373 0.75583-0.86043-0.53439 0.42979
  -1   1   1633234.5 8134.79   1 0.14608-0.25068 0.83441-0.72981-0.53142 0.63602
  -2   0   1494811.6 6590.93   1 0.11603-0.32507-0.86204 0.86204 0.49337-0.38885
  -1  -2   0495908.2 6477.40   1 0.82591-0.93049-0.54368 0.33451 0.14926-0.14926
   1   2   0507426.9 6595.57   1 0.94058-0.83599-0.33956 0.54872 0.00226-0.00226
   0  -1   2502289.1 6784.93   1 0.95233-0.95233-0.30428 0.19970-0.02141 0.23058
  -2  -1   0497836.1 6571.03   1 0.29233-0.50136-0.84595 0.74143 0.44597-0.44597
  -1   0   2494810.0 6464.27   1 0.48274-0.58731-0.79279 0.79279 0.37208-0.16294
   0  -2  -1502175.7 6501.68   1 0.98142-0.98142-0.03654-0.17258-0.18832 0.08375
   1   0   2501502.9 6496.77   1 0.91872-0.81417 0.21890-0.21890-0.32867 0.53777
   0   2   1517114.2 6673.40   1 0.86857-0.86857 0.31992-0.11081-0.37845 0.48301
  -1   0  -2497208.1 6434.86   1 0.68974-0.79429 0.54597-0.54597-0.47556 0.26645
   2  -1   0504759.3 6766.01   1 0.48176-0.27256 0.70203-0.80663-0.52444 0.52444
  -1   1   2 3867.50  403.28   1-0.10016-0.00435-0.84314 0.94766 0.52826-0.31923
  -2  -1  -1 4738.86 1247.74   1 0.01616-0.22520-0.85847 0.75395 0.51259-0.61711
   1   1   2 4734.66  317.07   1 0.24653-0.14201-0.85300 0.95751 0.46001-0.25097
   1  -1  -2 4952.57  924.66   1 0.33811-0.23359-0.83678 0.73226 0.43066-0.63970
   2   1   1 4184.31  842.90   1 0.36202-0.15289-0.83156 0.93613 0.42121-0.31664
  -2  -1   1 4340.12  967.78   1 0.44200-0.65114-0.80786 0.70329 0.38985-0.28528
  -1  -2  -1 4128.31  920.24   1 0.73695-0.84152-0.63757 0.42843 0.22448-0.32905
  -1  -1   2 4108.81  955.74   1 0.74742-0.85199-0.62806 0.52349 0.21653-0.00739
  -1  -2   1 5620.95 1268.74   1 0.84683-0.95141-0.51615 0.30699 0.12827-0.02368
   1   2   1 4908.32  511.06   1 0.95072-0.84614-0.30952 0.51868-0.01793 0.12251
   1  -1   2 5574.14  762.76   1 0.95734-0.85277 0.10614-0.21071-0.26874 0.47788
   1  -2   1 4305.04  984.00   1 0.94001-0.83545 0.16345-0.37258-0.29941 0.40397
   1  -2  -1 5014.75  768.20   1 0.77797-0.67341 0.45091-0.66002-0.43753 0.33297
   2  -1   1 4760.46  689.26   1 0.67625-0.46714 0.55861-0.66316-0.48024 0.58479
  -1   2   1 4391.17  463.96   1 0.52228-0.62688 0.67719-0.46798-0.51829 0.62290
   2  -1  -1 4016.47  840.19   1 0.28526-0.07606 0.79382-0.89842-0.53709 0.43249
  -2   0   2989987.831263.92   1 0.24996-0.45900-0.85254 0.85254 0.45900-0.24996
   0  -2   2983796.712846.63   1 0.96432-0.96432-0.25982 0.05065-0.05065 0.25982
   2  -2   0975259.412730.08   1 0.72249-0.51338 0.51338-0.72249-0.46306 0.46306
   2   0   2999998.231416.53   1 0.68599-0.47688 0.54953-0.54953-0.47688 0.68599
  -2   0  -2985280.812677.68   1 0.32735-0.53655 0.77778-0.77778-0.53655 0.32735
  -2   1   2437523.4 5824.95   1-0.12386-0.08517-0.83854 0.94305 0.53057-0.32153
   2   1   2449817.8 5893.94   1 0.18867 0.02036-0.85897 0.96349 0.47598-0.26694
  -1  -2  -2435521.1 5624.07   1 0.34648-0.45105-0.83533 0.62619 0.42681-0.63595
  -2  -2  -1461162.8 6218.45   1 0.38399-0.59313-0.82579 0.61665 0.41304-0.51761
  -2  -1   2445424.8 6278.09   1 0.51289-0.72203-0.78020 0.67563 0.35807-0.14893
  -2  -2   1437332.6 6015.38   1 0.63034-0.83948-0.71787 0.50873 0.29550-0.19093
   2   2   1457155.6 6025.56   1 0.75237-0.54323-0.62344 0.83258 0.21270-0.10813
  -1  -2   2454010.7 6188.06   1 0.84190-0.94648-0.52289 0.31372 0.13336 0.07579
   1   2   2452617.7 5774.30   1 0.98323-0.87866-0.11419 0.32333-0.14214 0.35127
   1  -2   2463172.1 6370.99   1 0.97403-0.86946 0.02692-0.23606-0.22481 0.43394
   2  -2   1445084.1 6315.60   1 0.82645-0.61734 0.38653-0.59564-0.40934 0.51390
   2  -1   2443717.9 6059.52   1 0.83122-0.62211 0.37956-0.48412-0.40619 0.61530
   1  -2  -2455140.1 6037.16   1 0.65341-0.54886 0.57905-0.78815-0.48758 0.27848
  -2  -2  -2657599.8 8759.22   1 0.03749-0.24652-0.85998 0.65094 0.50893-0.71797
  -2  -2   2657659.7 8975.58   1 0.66078-0.86992-0.69765 0.48851 0.27684-0.06770
   2   2   2676823.0 8741.17   1 0.72802-0.51888-0.64542 0.85456 0.23110-0.02196
   2  -2   2662266.0 8933.61   1 0.90566-0.69656 0.24843-0.45754-0.34357 0.55267
   2  -2  -2657328.4 8733.94   1 0.48839-0.27919 0.69812-0.90733-0.52353 0.31433
   0   0   3213950.9 2914.69   1 0.81793-0.81793-0.55351 0.55351 0.15687 0.15687
   0   0  -3208927.7 2860.00   1 0.98353-0.98353-0.08977 0.08977-0.15685-0.15685
   3   0   0217484.4 3374.98   1 0.15690 0.15690 0.83191-0.83191-0.53225 0.53225
  -3   0   1  924.84  674.46   1-0.00234-0.31121-0.85684 0.85684 0.51557-0.41105
  -1  -3   0 1595.77  435.79   1 0.87924-0.98382-0.46738 0.15363 0.09207-0.09207
   0  -1   3  570.61  513.78   1 0.91678-0.91678-0.39716 0.29258 0.04191 0.27183
   0  -1  -3  912.67  217.75   1 0.98230-0.98230-0.13570 0.03113-0.12904-0.18465
   1  -3   0 1041.69  919.80   1 0.94720-0.84263 0.14145-0.45515-0.28775 0.28775
   3   0   1 -139.48  974.04   1 0.35289-0.03909 0.76713-0.76713-0.53568 0.64028
  -3   0   2187799.3 3063.95   1 0.10416-0.41772-0.86208 0.86208 0.49593-0.28689
  -2  -3   0178680.5 2876.04   1 0.68280-0.89194-0.68177 0.36806 0.26260-0.26260
   2  -3   0176830.3 2950.99   1 0.85468-0.64557 0.34325-0.65691-0.38946 0.38946
   3   0   2182441.9 2893.62   1 0.56658-0.25277 0.64727-0.64727-0.50991 0.71912
  -3  -1   0 3249.43  906.64   1 0.11315-0.42671-0.86206 0.75754 0.49399-0.49399
  -1   0   3  776.57  327.36   1 0.52858-0.63315-0.77315 0.77315 0.35047-0.03676
   0  -3   1   10.60 1024.16   1 0.97524-0.97524-0.20328-0.11042-0.08700 0.19156
   0  -3  -1  798.78  565.11   1 0.98261-0.98261-0.13012-0.18357-0.13245 0.02788
   1   0   3 1389.23  534.56   1 0.98353-0.87896-0.09525 0.09525-0.15356 0.46726
  -1   0  -3  614.86  356.63   1 0.78258-0.88713 0.44524-0.44524-0.43511 0.12145
   3  -1   0 1510.50 1172.78   1 0.41964-0.10583 0.73590-0.84051-0.53135 0.53135
  -3  -1  -188890.68 1778.36   1-0.08524-0.22831-0.84578 0.74126 0.52666-0.63118
  -1   1   387088.27 1362.39   1 0.07144-0.17596-0.86155 0.96607 0.50261-0.18905
  -3  -1   184215.81 1691.02   1 0.24611-0.55966-0.85305 0.74853 0.46013-0.35561
   1  -1  -381839.84 1333.35   1 0.68207-0.57750-0.68231 0.57774 0.26308-0.57679
  -1  -1   384579.50 1552.06   1 0.73669-0.84126-0.63780 0.53323 0.22467 0.08903
  -1  -3  -184432.45 1730.64   1 0.84638-0.95096-0.51677 0.20302 0.12873-0.23332
  -1  -3   186531.25 1904.38   1 0.88474-0.98932-0.45818 0.14444 0.08537 0.01920
   1   1   386779.87 1204.74   1 0.95598-0.85140-0.29190 0.39648-0.02962 0.34337
   1  -1   385398.83 1616.70   1 0.98342-0.87885-0.07992-0.02464-0.16274 0.47644
   1  -3   183529.00 2074.59   1 0.96966-0.86509 0.05189-0.36560-0.23885 0.34342
   1  -3  -185419.83 1758.32   1 0.91645-0.81189 0.22426-0.53792-0.33139 0.22684
   3  -1  -181156.57 1657.88   1 0.27819 0.03561 0.79633-0.90094-0.53708 0.43247
  -1  -1  -382880.76 1155.31   1 0.21485-0.31945 0.81667-0.92127-0.53561 0.22180
  -3  -1   2 2593.05  651.20   1 0.32586-0.63942-0.83945 0.73493 0.43489-0.22585
   1  -2  -3 3633.96  781.40   1 0.34351-0.23894-0.83602 0.62688 0.42785-0.74156
  -2  -3  -1 2687.48  651.71   1 0.58844-0.79758-0.74276 0.42905 0.31941-0.42398
  -2  -3   1 7562.46 1804.76   1 0.72413-0.93327-0.64876 0.33505 0.23394-0.12937
  -1  -2   3 2051.22  678.64   1 0.82232-0.92690-0.54814 0.33897 0.15270 0.16103
   1  -2   3 2793.09  781.65   1 0.98350-0.87893-0.10016-0.10897-0.15061 0.46432
   2  -3   1 4966.05 1873.97   1 0.90665-0.69754 0.24630-0.55996-0.34250 0.44706
   2  -3  -1 1174.60 1609.35   1 0.79538-0.58628 0.42901-0.74267-0.42813 0.32358
   3  -1   2 3394.02  927.82   1 0.72330-0.40963 0.51255-0.61710-0.46273 0.67184
   1  -2  -3 2495.74  380.48   1 0.52758-0.42298 0.67376-0.88297-0.51738 0.20358
   3   1   2 2283.52  651.87   1 0.34451-0.03070 0.77071-0.66610-0.53601 0.74522
  -2   0   3181248.4 3399.82   1 0.31710-0.52613-0.84126 0.84126 0.43785-0.12430
   0  -3   2172938.4 2791.88   1 0.96423-0.96423-0.26020-0.05354-0.05041 0.25957
   0  -3  -2180310.8 2533.71   1 0.98179-0.98179-0.14387-0.16982-0.12403-0.08510
   2   0   3183364.7 2748.27   1 0.88542-0.67631 0.28934-0.28934-0.36374 0.67740
   0   3   2177490.5 2469.40   1 0.69308-0.69308 0.54277-0.22911-0.47436 0.68347
   3  -2   0173403.3 3236.47   1 0.62726-0.31360 0.60110-0.81020-0.49518 0.49518
  -2   1   3 2460.36 1121.32   1-0.01682-0.19220-0.85535 0.95987 0.51777-0.20421
   2   1   3 2422.40  630.84   1 0.03027 0.17876-0.85952 0.96403 0.51020-0.19664
  -3  -2  -1 2224.54 1211.10   1 0.16933-0.48289-0.86026 0.65123 0.48089-0.58541
  -3  -2   1 2401.97 1016.26   1 0.42918-0.74289-0.81217 0.60303 0.39519-0.29062
  -2  -1   3 2016.04  934.21   1 0.53754-0.74668-0.76896 0.66439 0.34604-0.03233
  -1  -3  -2 2512.82  669.05   1 0.73456-0.83913-0.63969 0.32598 0.22626-0.43540
  -1  -3   2 2323.84 1007.25   1 0.87622-0.98080-0.47231 0.15856 0.09567 0.11348
   1  -3   2 2713.50  799.29   1 0.98172-0.87715-0.04068-0.27301-0.18590 0.39504
   1   3   2 2549.39  298.14   1 0.95833-0.85377 0.10232 0.21137-0.26667 0.47581
   2  -1   3 2654.58  971.05   1 0.93056-0.72142 0.18972-0.29429-0.31314 0.62684
   1  -3  -2 3211.13  688.25   1 0.88272-0.77817 0.29442-0.60808-0.36621 0.15710
   2   1   3 3155.95  517.63   1 0.79392-0.58481 0.43090-0.32634-0.42895 0.74262
   3  -2   1 4283.11 1723.88   1 0.73231-0.41865 0.50304-0.71215-0.45897 0.56352
   3  -2  -1 1579.31 1743.56   1 0.52263-0.20882 0.67696-0.88616-0.51823 0.41363
  -3  -2  -2124191.6 2063.37   1-0.08295-0.23059-0.84617 0.63713 0.52640-0.73544
  -3  -2   2123087.7 2849.24   1 0.48118-0.79489-0.79340 0.58426 0.37278-0.16364
  -2  -2   3121714.9 2500.16   1 0.66369-0.87283-0.69561 0.48647 0.27500 0.03870
  -2  -3   2126368.9 2419.10   1 0.73678-0.94592-0.63772 0.32401 0.22461-0.01547
   2   2   3124929.7 1816.55   1 0.74776-0.53862-0.62775 0.83689 0.21627 0.09743
   2   3   2120425.8 1954.30   1 0.94388-0.73471-0.33025 0.64399-0.00403 0.21319
   2  -2   3120450.5 2424.44   1 0.95687-0.74774 0.10790-0.31704-0.26970 0.58340
   2  -3   2117786.5 2686.26   1 0.94682-0.73768 0.14266-0.45637-0.28840 0.49753
   3  -2   2119114.1 2420.22   1 0.82660-0.51294 0.38631-0.59541-0.40924 0.61835
   2  -3  -2115337.6 2460.87   1 0.73581-0.52670 0.49929-0.81295-0.45747 0.24836
   3  -2  -2124745.9 2468.37   1 0.42987-0.11606 0.73066-0.93986-0.53041 0.32121
   2  -2  -3121716.7 2159.84   1 0.39326-0.18406 0.74885-0.95806-0.53343 0.21962
  -3   0   3  720.49  530.21   1 0.16773-0.48129-0.86035 0.86035 0.48129-0.16773
  -3  -3   0 1353.41  911.42   1 0.48011-0.79382-0.79382 0.48011 0.37326-0.37326
   0  -3   3  408.23  892.95   1 0.94642-0.94642-0.32279 0.00904-0.00904 0.32279
   0  -3  -3  373.39  162.81   1 0.96205-0.96205-0.26920-0.04454-0.04454-0.26920
   3  -3   0  390.11 1500.23   1 0.77191-0.45825 0.45825-0.77191-0.44062 0.44062
   3   0   3 1419.79 1002.48   1 0.76009-0.44643 0.47217-0.47217-0.44643 0.76009
  -3   1   319913.64 1145.76   1-0.08609-0.22745-0.84564 0.95016 0.52675-0.21320
   1  -3  -319437.00  592.01   1-0.01850 0.12302-0.85516 0.54161 0.51802-0.83157
  -1  -3  -318784.29  330.20   1 0.10797-0.21249-0.86208 0.54853 0.49512-0.80867
  -3  -1   322185.16 1814.26   1 0.36564-0.67935-0.83065 0.72608 0.41989-0.10618
  -3  -3  -118042.92  877.36   1 0.36025-0.67396-0.83201 0.51830 0.42186-0.52643
  -3  -3   118791.54 4074.49   1 0.54701-0.86072-0.76439 0.45068 0.34127-0.23670
  -1  -3   320694.88 4219.24   1 0.85782-0.96240-0.50055 0.18681 0.11656 0.19718
   1  -3   318513.68 1538.48   1 0.98241-0.87784-0.13384-0.17986-0.13018 0.44388
   1  -3  -321007.87  885.93   1 0.85467-0.75011 0.34328-0.65694-0.38947 0.07581
   3  -1   319505.98  990.49   1 0.84601-0.53235 0.35709-0.46164-0.39589 0.70956
   3  -3   117548.50 1452.49   1 0.83668-0.52302 0.37143-0.68509-0.40249 0.50704
   3  -3  -119342.19 1759.98   1 0.70531-0.39165 0.53083-0.84449-0.46983 0.36527
   3   1   319268.73  754.58   1 0.62618-0.31238 0.60190-0.49730-0.49558 0.80938
   1   3   319687.32  338.77   1 0.53449-0.42989 0.66924-0.35543-0.51616 0.82997
  -2  -3  -3 6731.38  444.64   1-0.10433-0.10469-0.84237 0.52881 0.52869-0.84225
  -3  -3  -2 6052.58 1531.78   1 0.15480-0.46836-0.86101 0.54745 0.48445-0.69349
  -3  -2   3 7647.50 2049.12   1 0.50260-0.81631-0.78464 0.57550 0.36293-0.04922
  -3  -3   2 7596.39 2171.36   1 0.57999-0.89370-0.74740 0.43369 0.32401-0.11487
  -2  -3   3 8847.87 1662.68   1 0.73143-0.94057-0.64245 0.32874 0.22859 0.08511
   2   3   3 6745.76  365.47   1 0.98124-0.77210-0.15126 0.46496-0.11948 0.43318
   2  -3   3 5668.99 1072.83   1 0.97264-0.76350 0.03540-0.34911-0.22960 0.54330
   3  -2   3 6317.85 1051.85   1 0.90190-0.58824 0.25645-0.46556-0.34756 0.66123
   3  -3   2 6843.42 1367.99   1 0.89374-0.58007 0.27315-0.58681-0.35582 0.56493
   2  -3  -3 6131.30  909.34   1 0.68494-0.47583 0.55052-0.86418-0.47725 0.16359
   3  -3  -2 8255.30 1591.07   1 0.64374-0.33007 0.58737-0.90103-0.49049 0.28139
   3   2   3 7170.37  624.07   1 0.42584-0.11203 0.73274-0.52353-0.53079 0.84460
   3  -2  -3 6639.51  855.06   1 0.35802-0.04422 0.76491-0.97412-0.53545 0.22165
  -3  -3   3 4955.62 1134.51   1 0.58995-0.90366-0.74192 0.42821 0.31859-0.00488
   3  -3   3 6293.55 1639.22   1 0.93880-0.62510 0.16698-0.48068-0.30126 0.61497
   3  -3  -3 4718.58 1090.56   1 0.59406-0.28026 0.62713-0.94093-0.50377 0.18996
   3   3   3 4919.41  606.35   1 0.17752 0.13627 0.82685-0.51304-0.53366 0.84747
   0   0   4531261.1 7223.23   1 0.75692-0.75692-0.61913 0.61913 0.20913 0.20913
   4   0   0536233.2 7555.87   1 0.20920 0.20920 0.81829-0.81829-0.53537 0.53537
  -4   0   1223643.8 3756.01   1-0.09029-0.32777-0.84491 0.84491 0.52722-0.42270
   0  -1   4230435.1 3607.34   1 0.87080-0.87080-0.48092 0.37634 0.10200 0.31632
  -1  -4   0229811.1 3577.60   1 0.89215-0.99674-0.44527 0.02694 0.07604-0.07604
   1  -4   0220751.9 3924.74   1 0.97486-0.87029 0.02151-0.43978-0.22174 0.22174
   0  -1  -4222963.9 3024.19   1 0.97183-0.97183 0.04006-0.14463-0.23222-0.18604
   4   0   1217832.8 3529.31   1 0.35616 0.06224 0.76572-0.76572-0.53554 0.64014
  -4   0   2335451.7 6050.23   1-0.00342-0.41464-0.85673 0.85673 0.51574-0.30670
   0  -2   4329153.9 5488.98   1 0.90839-0.90839-0.41458 0.20542 0.05416 0.36416
   2  -4   0332861.1 5241.14   1 0.92598-0.71684 0.20157-0.61984-0.31926 0.31926
   4   0   2334013.0 4936.34   1 0.52078-0.10237 0.67815-0.67815-0.51855 0.72775
  -4   0   374195.06 2126.56   1 0.05297-0.47105-0.86082 0.86082 0.50613-0.19257
  -3  -4   072807.72 2032.48   1 0.56879-0.88250-0.75337 0.33509 0.32999-0.32999
   0  -3   471850.93 1889.88   1 0.92088-0.92088-0.38820 0.07446 0.03566 0.38266
   3  -4   072588.68 2597.20   1 0.86664-0.55298 0.32325-0.74146-0.38004 0.38004
   4   0   378850.06 2037.19   1 0.68473-0.26651 0.55072-0.55072-0.47733 0.79099
  -4  -1   0228462.2 3834.45   1-0.00803-0.41004-0.85627 0.75176 0.51645-0.51645
  -1   0   4222134.9 3240.61   1 0.52332-0.62789-0.77555 0.77555 0.35304 0.06523
   1   0   4228189.1 3430.63   1 0.94938-0.84480-0.31374 0.31374-0.01510 0.43343
   0  -4   1234272.4 3777.30   1 0.96902-0.96902-0.23837-0.17995-0.06453 0.16911
   0  -4  -1220384.4 3441.66   1 0.97574-0.97574-0.19992-0.21834-0.08912-0.01544
  -1   0  -4222342.1 3162.29   1 0.80403-0.90859 0.41765-0.41765-0.42318 0.00497
   4  -1   0225244.3 3636.80   1 0.40774 0.01066 0.74185-0.84645-0.53235 0.53235
  -4  -1   156651.16 4330.78   1 0.10433-0.52240-0.86208 0.75757 0.49590-0.39138
  -1   1   449870.25 1045.13   1 0.14504-0.24955-0.86140 0.96591 0.48677-0.06870
  -1  -1   452094.18 1403.87   1 0.70688-0.81145-0.66308 0.55851 0.24623 0.17204
   1   1   449710.98  931.18   1 0.78361-0.67903-0.59228 0.69686 0.18747 0.23085
  -1  -4  -147514.25 1166.65   1 0.87238-0.97696-0.47845 0.06012 0.10018-0.20476
  -1  -4   149474.69 1489.24   1 0.89466-0.99924-0.44077 0.02244 0.07280 0.03177
   1  -1   449415.10 1379.94   1 0.96950-0.86492-0.23598 0.13140-0.06606 0.48439
   1  -4   152805.05 1986.71   1 0.98145-0.87688-0.03693-0.38133-0.18809 0.29266
   1  -4  -150527.94 1757.15   1 0.96635-0.86178 0.06830-0.48657-0.24798 0.14341
   4  -1   148791.96 1885.45   1 0.53219-0.11378 0.67076-0.77536-0.51657 0.62118
  -1  -1  -450618.52  844.71   1 0.45222-0.55682 0.71875-0.82335-0.52809 0.10968
   4  -1  -151220.50 1523.14   1 0.29835 0.12005 0.78902-0.89363-0.53704 0.43244
   4   1   148958.12 1368.63   1 0.16073 0.25767 0.83100-0.72640-0.53253 0.63714
  -4  -1   2156176.1 2850.94   1 0.17969-0.59776-0.85962 0.75510 0.47829-0.26925
  -2  -4  -1162024.4 2713.46   1 0.68301-0.89215-0.68161 0.26333 0.26246-0.36703
   1  -2  -4156137.4 2268.77   1 0.72962-0.62505-0.64403 0.43489 0.22992-0.64820
  -2  -4   1162668.3 3327.71   1 0.76791-0.97708-0.60836 0.19003 0.20048-0.09590
  -1  -2   4155518.8 2999.31   1 0.79164-0.89622-0.58368 0.37451 0.18059 0.23773
   1  -2   4159868.6 2956.41   1 0.97286-0.86829-0.21794 0.00880-0.07769 0.49596
   2  -4   1166311.9 3350.29   1 0.95057-0.74143 0.13034-0.54861-0.28181 0.38638
   2  -4  -1165566.0 3192.55   1 0.89891-0.68980 0.26266-0.68088-0.35065 0.24609
   4  -1   2159208.9 3111.31   1 0.66039-0.24217 0.57292-0.67748-0.48541 0.69452
   1  -2  -4164139.0 2403.02   1 0.43476-0.33016 0.72810-0.93731-0.52994 0.11153
   4   1   2164705.0 2815.74   1 0.35042 0.06798 0.76820-0.66359-0.53578 0.74499
   4  -1  -2161041.5 2994.68   1 0.21127 0.20713 0.81770-0.92230-0.53546 0.32625
  -4  -1   332035.99 3995.12   1 0.22407-0.64214-0.85570 0.75118 0.46644-0.15288
   1  -3  -429108.10  682.23   1 0.47449-0.36992-0.79601 0.48230 0.37578-0.79406
  -3  -4  -131787.52 1792.70   1 0.48066-0.79437-0.79360 0.37532 0.37301-0.47758
  -3  -4   133118.08 5364.50   1 0.61659-0.93030-0.72640 0.30812 0.30356-0.19899
  -1  -3   428948.07 1393.14   1 0.83081-0.93539-0.53747 0.22372 0.14449 0.27383
   1  -3   433439.78 1723.68   1 0.97141-0.86684-0.22603-0.08766-0.07253 0.49080
   3  -4   136418.56 2239.53   1 0.90404-0.59038 0.25190-0.67012-0.34530 0.44985
   1  -3  -431812.92  836.00   1 0.84632-0.74177 0.35660-0.67027-0.39567-0.02254
   3  -4  -131925.58 1719.66   1 0.82849-0.51483 0.38357-0.80178-0.40800 0.30345
   4  -1   330982.34 1341.10   1 0.77956-0.36135 0.44896-0.55351-0.43670 0.75036
   4   1   331375.79 1346.61   1 0.56045-0.14203 0.65159-0.54699-0.51118 0.82499
   4  -1  -326715.24 1342.82   1 0.14958 0.26882 0.83361-0.93822-0.53170 0.21789
  -4  -2   0351588.3 5246.16   1 0.16885-0.58692-0.86029 0.65125 0.48101-0.48101
  -2   0   4360927.3 5314.94   1 0.33848-0.54752-0.83669 0.83669 0.43053-0.01246
   0  -4   2350165.9 5769.90   1 0.95923-0.95923-0.28014-0.13818-0.03737 0.24654
   0  -4  -2361158.4 5076.70   1 0.97165-0.97165-0.22473-0.19353-0.07336-0.13577
   2   0   4355391.5 4928.87   1 0.97383-0.76470 0.02814-0.02814-0.22549 0.64377
   4  -2   0346775.1 5474.10   1 0.58022-0.16181 0.63743-0.84664-0.50696 0.50696
   2   1   4165873.2 2316.38   1-0.08012 0.28916-0.84664 0.95116 0.52608-0.10801
  -4  -2  -1157628.2 3115.00   1 0.02764-0.44571-0.85934 0.65030 0.51065-0.61517
  -2   1   4162979.7 2599.11   1 0.03869-0.24773-0.86005 0.96457 0.50872-0.09064
  -4  -2   1163562.7 3570.62   1 0.26453-0.68261-0.85048 0.64144 0.45464-0.35012
  -2  -1   4159441.9 2725.09   1 0.53307-0.74221-0.77106 0.66649 0.34826 0.07001
  -1  -4  -2164280.4 2568.89   1 0.81393-0.91851-0.55831 0.13998 0.16060-0.36977
  -1  -4   2165716.0 3265.02   1 0.88674-0.99132-0.45476 0.03643 0.08289 0.12626
   1  -4   2172696.5 3661.43   1 0.98347-0.87890-0.10305-0.31521-0.14887 0.35800
   2  -1   4165471.5 2898.72   1 0.97710-0.76797 0.00558-0.11014-0.21266 0.63094
   1  -4  -2165555.7 2787.96   1 0.95959-0.85502 0.09740-0.51567-0.26398 0.05485
   4  -2   1161103.5 3495.17   1 0.67467-0.25646 0.56006-0.76916-0.48077 0.58532
   4  -2  -1174451.3 3420.52   1 0.49185-0.07344 0.69606-0.90526-0.52304 0.41844
  -2  -4  -2238014.1 3790.73   1 0.55586-0.76499-0.76001 0.34173 0.33674-0.54588
  -2  -2   4243922.8 4004.56   1 0.64820-0.85734-0.70623 0.49709 0.28469 0.13358
  -2  -4   2247193.7 4153.34   1 0.77361-0.98277-0.60263 0.18430 0.19583 0.01333
   2  -2   4245273.2 3791.43   1 0.98093-0.77180-0.03034-0.17878-0.19193 0.61021
   2  -4  -2230923.3 3774.56   1 0.87404-0.66493 0.31028-0.72850-0.37385 0.16475
   4  -2   2234855.7 4186.30   1 0.76713-0.34892 0.46394-0.67304-0.44301 0.65211
   2  -2  -4238612.4 3542.25   1 0.33100-0.12179 0.77630-0.98550-0.53645 0.11804
   4   2   2240048.6 3730.86   1 0.16528 0.25312 0.82990-0.62069-0.53285 0.74206
  -3  -4  -246684.38 2855.80   1 0.32425-0.63780-0.83979 0.42171 0.43544-0.64447
  -4  -2   350992.53 3329.40   1 0.35529-0.77357-0.83323 0.62409 0.42366-0.10995
  -3  -4   243756.15 1750.30   1 0.63850-0.95221-0.71263 0.29435 0.29061-0.08147
  -2  -3   446752.16 1575.90   1 0.71296-0.92210-0.65812 0.34441 0.24195 0.17632
   2  -3   444873.06 2378.23   1 0.98326-0.77412-0.07265-0.24104-0.16706 0.58533
   3  -4   248552.48 2625.07   1 0.93710-0.62339 0.17185-0.59012-0.30382 0.51295
   4  -2   347096.26 2100.21   1 0.84963-0.43142 0.35138-0.56048-0.39325 0.70691
   3  -4  -244703.04 1951.98   1 0.79391-0.48025 0.43091-0.84912-0.42896 0.21985
   2  -3  -447571.61 1348.53   1 0.65223-0.44312 0.58008-0.89374-0.48795 0.06973
   4   2   346016.72 1250.04   1 0.40747 0.01093 0.74198-0.53277-0.53237 0.84618
   4  -2  -345987.67 1668.25   1 0.35973 0.05867 0.76417-0.97337-0.53538 0.22157
  -3   0   477663.71 2056.05   1 0.19644-0.50999-0.85835 0.85835 0.47395-0.05587
  -4  -3   080558.67 4352.38   1 0.30596-0.72404-0.84345 0.52989 0.44155-0.44155
   0  -4   373367.67 1988.41   1 0.94397-0.94397-0.32997-0.08834-0.00421 0.31796
   0  -4  -376597.52 1814.05   1 0.94826-0.94826-0.31723-0.10109-0.01277-0.30097
   3   0   472404.38 1650.81   1 0.90071-0.58705 0.25894-0.25894-0.34880 0.76702
   4  -3   080169.35 3228.98   1 0.71644-0.29823 0.51962-0.83328-0.46550 0.46550
   0   4   373290.27 1233.93   1 0.44307-0.44307 0.72370-0.30529-0.52909 0.84290
  -3   1   434607.22 1361.45   1-0.04192-0.27163-0.85232 0.95684 0.52132-0.10325
  -4  -3  -133246.90 3883.92   1 0.18552-0.60359-0.85921 0.54565 0.47679-0.58131
  -3  -1   432532.85 1358.99   1 0.37700-0.69071-0.82769 0.72312 0.41568 0.00259
  -4  -3   137104.04 5693.96   1 0.38304-0.80132-0.82605 0.51234 0.41340-0.30883
  -1  -4  -331476.22  753.51   1 0.62761-0.73218-0.71959 0.30131 0.29712-0.61083
  -1  -4   329761.74 1490.90   1 0.87074-0.97532-0.48102 0.06269 0.10207 0.21167
   1  -4   330233.69 1533.58   1 0.97908-0.87451-0.17407-0.24419-0.10533 0.41904
   1  -4  -334672.63 1324.40   1 0.95934-0.85477 0.09838-0.51665-0.26452-0.04917
   3  -1   428175.83 1443.31   1 0.93145-0.61775 0.18735-0.29191-0.31190 0.73018
   3   1   433813.59 1133.84   1 0.85688-0.54322 0.33965-0.23510-0.38778 0.80599
   4  -3   131212.46 2420.01   1 0.78254-0.36433 0.44528-0.75894-0.43513 0.53968
   1   4   333009.24  695.10   1 0.73648-0.63193 0.49856-0.08035-0.45718 0.77084
   4  -3  -131008.51 2295.76   1 0.65264-0.23442 0.57972-0.89339-0.48782 0.38327
  -4  -3  -251826.84 1782.37   1 0.00741-0.42548-0.85774 0.54418 0.51402-0.72306
  -2  -4  -346849.51 1048.07   1 0.26060-0.46964-0.85105 0.43298 0.45583-0.76938
  -4  -3   246817.52 2234.65   1 0.42813-0.84641-0.81251 0.49880 0.39562-0.18648
  -3  -2   445012.12 1502.89   1 0.50207-0.81578-0.78486 0.57572 0.36318 0.05509
  -2  -4   349409.03 3970.22   1 0.76584-0.97501-0.61041 0.19208 0.20215 0.11158
   2  -4   347454.49 2128.83   1 0.98105-0.77192-0.03183-0.38643-0.19107 0.50477
   3  -2   451369.95 1861.76   1 0.95359-0.63989 0.11989-0.32902-0.27619 0.69446
   2  -4  -348424.87 2321.82   1 0.85649-0.64738 0.34030-0.75851-0.38808 0.07442
   4  -3   245351.66 2271.50   1 0.84552-0.42731 0.35785-0.67152-0.39625 0.60536
   4  -3  -245005.37 1714.51   1 0.59653-0.17812 0.62525-0.93906-0.50318 0.29397
   3  -2  -448943.96 1444.59   1 0.31224 0.00156 0.78375-0.99295-0.53687 0.11846
  -3  -4  -329244.20 1329.63   1 0.04816-0.36171-0.86058 0.44251 0.50701-0.82057
  -4  -3   329145.38 6415.70   1 0.44951-0.86779-0.80524 0.49153 0.38667-0.07296
  -3  -3   425899.86 5590.12   1 0.58302-0.89673-0.74575 0.43204 0.32237 0.09590
  -3  -4   327411.68 1770.63   1 0.64243-0.95614-0.71007 0.29179 0.28823 0.02547
   3  -3   427996.52 2326.23   1 0.96899-0.65529 0.05537-0.36908-0.24079 0.65906
   3  -4   331131.83 2490.44   1 0.96266-0.64896 0.08477-0.50305-0.25707 0.57077
   4  -3   327976.36 1849.21   1 0.90054-0.48233 0.25928-0.57294-0.34897 0.66263
   3  -4  -325253.30 1875.38   1 0.76757-0.45391 0.46342-0.88163-0.44279 0.12913
   3  -3  -428838.12 1602.54   1 0.56206-0.24826 0.65046-0.96427-0.51085 0.09244
   4  -3  -327223.27 1970.68   1 0.55272-0.13431 0.65695-0.97076-0.51273 0.19892
   4   3   326703.20 1407.12   1 0.24015 0.17825 0.80901-0.49521-0.53648 0.85028
  -4   0   4101339.1 2806.38   1 0.08237-0.50044-0.86183 0.86183 0.50044-0.08237
  -4  -4   0112961.3 2674.63   1 0.40228-0.82056-0.82056 0.40228 0.40599-0.40599
   0  -4   4107924.1 2545.22   1 0.92233-0.92233-0.38493-0.03338 0.03338 0.38493
   4   0   4108139.5 2299.18   1 0.82712-0.40890 0.38556-0.38556-0.40890 0.82712
   4  -4   0108513.0 3694.07   1 0.81749-0.39927 0.39927-0.81749-0.41506 0.41506
  -4   1   470766.67 2204.88   1-0.11192-0.30615-0.84092 0.94544 0.52944-0.11137
  -4  -1   473472.32 4091.99   1 0.24320-0.66127-0.85343 0.74891 0.46098-0.04290
  -4  -4  -174344.21 2053.28   1 0.30231-0.72038-0.84414 0.42606 0.44275-0.54727
  -4  -4   180254.92 4935.29   1 0.46382-0.88210-0.80005 0.38177 0.38049-0.27592
  -1  -4   466888.10 2082.10   1 0.84732-0.95190-0.51547 0.09714 0.12775 0.29057
   1  -4   471633.54 3005.19   1 0.96700-0.86242-0.24798-0.17034-0.05833 0.47666
   1  -4  -471789.06 1482.71   1 0.97042-0.86586 0.04786-0.46613-0.23659-0.18167
   4  -1   471877.13 1979.25   1 0.87778-0.45956 0.30353-0.40809-0.37061 0.78883
   4  -4   176126.47 2971.74   1 0.86074-0.44252 0.33326-0.75148-0.38477 0.48933
   4  -4  -175466.41 3503.79   1 0.77550-0.35728 0.45392-0.87213-0.43880 0.33424
   4   1   475970.49 2987.45   1 0.75974-0.34152 0.47258-0.36803-0.44660 0.86481
  -4  -4  -280046.41 3061.36   1 0.14791-0.56598-0.86129 0.44322 0.48609-0.69513
  -4  -2   483224.52 3972.05   1 0.36498-0.78326-0.83082 0.62168 0.42013-0.00185
  -4  -4   278274.50 3052.23   1 0.49833-0.91661-0.78643 0.36815 0.36492-0.15578
  -2  -4   477821.17 3203.06   1 0.74757-0.95671-0.62792 0.20965 0.21642 0.20185
   2  -4   477605.37 3584.08   1 0.98310-0.77396-0.11852-0.29974-0.13951 0.55779
   4  -2   482946.42 3482.63   1 0.91572-0.49750 0.22595-0.43506-0.33225 0.75046
   4  -4   275093.52 3346.64   1 0.90157-0.48336 0.25713-0.67534-0.34790 0.55701
   2  -4  -477546.93 2824.26   1 0.85244-0.64333 0.34689-0.76510-0.39116-0.02705
   4  -4  -277784.55 3645.77   1 0.73862-0.32040 0.49625-0.91447-0.45625 0.24714
   4   2   482294.58 2870.81   1 0.67074-0.25252 0.56364-0.35454-0.48207 0.90029
   4  -2  -480282.97 3142.30   1 0.32368 0.09472 0.77925-0.98845-0.53664 0.11823
  -4  -4  -323342.27 1232.32   1-0.08474-0.33333-0.84587 0.42779 0.52660-0.84016
  -4  -3   421449.15 4995.55   1 0.45256-0.87084-0.80415 0.49044 0.38536 0.03290
  -4  -4   321822.60 4840.76   1 0.51286-0.93114-0.78022 0.36194 0.35808-0.04437
  -3  -4   422741.40 5029.92   1 0.63271-0.94642-0.71636 0.29808 0.29409 0.12418
   3  -4   426453.05 2404.37   1 0.97866-0.66496-0.00722-0.41104-0.20531 0.62359
   4  -3   425186.66 2232.30   1 0.94372-0.52545 0.15235-0.46605-0.29354 0.71181
   4  -4   320178.96 1762.91   1 0.93680-0.51853 0.17269-0.59096-0.30426 0.61796
   3  -4  -422693.93 1474.79   1 0.75413-0.44047 0.47901-0.89722-0.44925 0.03103
   4  -4  -324495.18 2146.14   1 0.71056-0.29235 0.52558-0.94380-0.46781 0.15415
   4  -3  -424076.08 1524.29   1 0.52487-0.10646 0.67552-0.98933-0.51785 0.09944
  -4  -4   415898.31 4112.13   1 0.51183-0.93011-0.78067 0.36239 0.35857 0.05970
   4  -4   418996.76 1648.74   1 0.96352-0.54525 0.08107-0.49934-0.25503 0.67331
   4  -4  -421941.67 1672.23   1 0.69474-0.27652 0.54118-0.95939-0.47376 0.05554
   0   0   516485.76  789.77   1 0.68458-0.68458-0.68044 0.68044 0.26142 0.26142
   0  -5   016270.06 3196.11   1 0.96394-0.96394-0.26145-0.26145-0.04959 0.04959
   5   0   017156.69 1325.79   1 0.26150 0.26150 0.80207-0.80207-0.53692 0.53692
   0  -1   5  911.39  753.86   1 0.81424-0.81424-0.55795 0.45336 0.16032 0.36258
  -1  -5   0  402.67  434.79   1 0.88958-0.99416-0.44983-0.07308 0.07932-0.07932
   1  -5   0 -272.52 1357.58   1 0.98333-0.87876-0.07521-0.44762-0.16554 0.16554
   0  -1  -5  362.96  231.22   1 0.93440-0.93440 0.17935-0.28392-0.30774-0.21509
   5   0   1 1204.73 1386.92   1 0.37883 0.14417 0.75560-0.75560-0.53436 0.63896
   5   0  -1 -198.19 1425.42   1 0.16539 0.35761 0.82987-0.82987-0.53286 0.42826
  -5   0   212713.14 1543.09   1-0.09213-0.43045-0.84459 0.84459 0.52742-0.31838
  -2  -5   014194.73 2560.69   1 0.76641-0.97558-0.60985 0.08694 0.20170-0.20170
   0  -2   512909.15 2453.77   1 0.86573-0.86573-0.48875 0.27959 0.10778 0.41512
   2  -5   016875.65 2159.51   1 0.96329-0.75416 0.08207-0.60491-0.25558 0.25558
   5   0   214858.19 1293.87   1 0.51138 0.01162 0.68410-0.68410-0.52008 0.72929
  -5   0   3  542.17  910.85   1-0.04251-0.48007-0.85224 0.85224 0.52140-0.20785
  -3  -5   0 1105.86  722.51   1 0.61734-0.93105-0.72594 0.20309 0.30313-0.30313
   0  -3   5  250.05  850.06   1 0.88682-0.88682-0.45463 0.14088 0.08280 0.44010
   3  -5   0 -458.46 1732.86   1 0.92646-0.61275 0.20034-0.72318-0.31863 0.31863
   5   0   3-1038.70 1033.97   1 0.64886-0.12609 0.58299-0.58299-0.48897 0.80263
  -5   0   410027.56 2427.28   1-0.01457-0.50801-0.85559 0.85559 0.51743-0.09936
  -4  -5   010217.60 1985.62   1 0.46404-0.88232-0.79997 0.27712 0.38039-0.38039
   0  -4   5 8892.76 1761.36   1 0.89343-0.89343-0.44298 0.02465 0.07439 0.44851
   4  -5   010498.23 1727.00   1 0.88898-0.47076 0.28251-0.80528-0.36041 0.36041
   5   0   413113.60 1524.05   1 0.77848-0.25571 0.45029-0.45029-0.43726 0.85548
  -5  -1   0  489.68 1509.35   1-0.10323-0.41936-0.84258 0.73806 0.52858-0.52858
  -1   0   5 -410.20  671.32   1 0.48832-0.59289-0.79055 0.79055 0.36954 0.15330
   1   0   5  316.92  350.53   1 0.87521-0.77062-0.47394 0.47394 0.09687 0.42603
   0  -5   1 1504.26  667.18   1 0.95940-0.95940-0.27947-0.24343-0.03781 0.14239
   0  -5  -1 -960.52 1098.00   1 0.96379-0.96379-0.26207-0.26083-0.04919-0.05538
   5  -1   0 1205.41 1394.04   1 0.41919 0.10381 0.73613-0.84073-0.53139 0.53139
  -5  -1   1 6198.52 1281.20   1-0.00765-0.51493-0.85631 0.75179 0.51639-0.41187
  -1   1   5 7452.97 1819.90   1 0.15269-0.25721-0.86110 0.96562 0.48495 0.03763
   1   1   5 6980.60 1107.00   1 0.61372-0.50915-0.72813 0.83270 0.30522 0.21762
  -1  -1   5 5325.74 1286.98   1 0.66272-0.76728-0.69630 0.59173 0.27562 0.24722
  -1  -5  -1 7419.89 1479.59   1 0.87339-0.97797-0.47685-0.04605 0.09900-0.20358
  -1  -5   1 8995.64 2398.91   1 0.89201-0.99659-0.44552-0.07738 0.07622 0.02835
   1  -1   5 6739.58 1327.94   1 0.92896-0.82438-0.36946 0.26488 0.02268 0.50022
   1  -5   1 5074.90 1163.72   1 0.98323-0.87867-0.11412-0.40871-0.14218 0.24675
   1  -5  -1 7330.17 1332.62   1 0.98229-0.87773-0.04975-0.47308-0.18059 0.07602
   5  -1   1 9011.55 1676.75   1 0.52163 0.00138 0.67761-0.78221-0.51840 0.62300
   5  -1  -1 8872.77 1439.93   1 0.33043 0.19257 0.77653-0.88113-0.53647 0.43187
   5   1   1 5930.50 1077.50   1 0.22702 0.29598 0.81306-0.70846-0.53607 0.64068
  -5  -1   2 3067.69 1805.67   1 0.06056-0.58315-0.86116 0.75664 0.50470-0.29567
  -2  -5  -1 3513.68  796.08   1 0.72288-0.93202-0.64983 0.12698 0.23485-0.33942
  -1  -2   5 3657.07  718.83   1 0.75082-0.85539-0.62490 0.41576 0.21391 0.30893
  -2  -5   1 3029.93 1389.02   1 0.78520-0.99436-0.59060 0.06769 0.18612-0.08154
   1  -2   5 3271.59 1096.77   1 0.94494-0.84036-0.32716 0.11800-0.00610 0.52901
   2  -5   1 4394.41 1319.84   1 0.97348-0.76434 0.03034-0.55318-0.22674 0.33131
   2  -5  -1 3545.77 1367.27   1 0.95272-0.74358 0.12295-0.64579-0.27784 0.17327
   5  -1   2 2068.64 1405.28   1 0.63094-0.10817 0.59808-0.70263-0.49416 0.70327
   1  -2  -5 3216.17  426.33   1 0.39721-0.29261 0.74697-0.95617-0.53315 0.01014
   5   1   2 2563.33  833.55   1 0.37625 0.14675 0.75678-0.65218-0.53451 0.74372
   5  -1  -2 3035.19 1467.12   1 0.25959 0.26341 0.80271-0.90732-0.53689 0.32768
  -5  -1   3   41.93 1019.68   1 0.10416-0.62675-0.86208 0.75756 0.49593-0.18238
  -3  -5  -1  -72.68 1047.06   1 0.54897-0.86268-0.76343 0.24058 0.34027-0.44484
  -3  -5   1  962.56  800.53   1 0.65410-0.96781-0.70225 0.17940 0.28103-0.17646
  -1  -3   5 -129.66 1110.88   1 0.79536-0.89995-0.57959 0.26585 0.17735 0.34555
   1  -3   5 1041.73  679.41   1 0.94857-0.84399-0.31625 0.00250-0.01343 0.53634
   3  -5   1 1088.74 1832.99   1 0.94639-0.63269 0.14402-0.66686-0.28912 0.39369
   3  -5  -1 -608.06 1531.65   1 0.90655-0.59289 0.24651-0.76928-0.34261 0.23805
   5  -1   3 -856.40 1553.62   1 0.73883-0.21606 0.49601-0.60057-0.45616 0.76982
   5   1   3 -203.90  962.84   1 0.54213-0.01912 0.66415-0.55955-0.51476 0.82857
   5  -1  -3  647.74 1520.30   1 0.20859 0.31441 0.81847-0.92307-0.53534 0.22153
  -5  -1   411318.72 2507.24   1 0.12627-0.64887-0.86190 0.75738 0.49109-0.07301
  -4  -5  -110465.66 3118.16   1 0.38078-0.79906-0.82667 0.30382 0.41426-0.51883
  -4  -5   110282.42 2332.63   1 0.51462-0.93290-0.77944 0.25659 0.35724-0.25267
  -1  -4   510767.05 2638.08   1 0.81643-0.92101-0.55532 0.13699 0.15827 0.36463
   1  -4   511461.42 3047.48   1 0.94624-0.84165-0.32334-0.09498-0.00867 0.53158
   4  -5   1 8274.71 1819.50   1 0.91541-0.49719 0.22667-0.74944-0.33262 0.43717
   4  -5  -110918.18 1773.33   1 0.86368-0.44547 0.32830-0.85107-0.38243 0.27788
   5  -1   411860.52 1516.94   1 0.83599-0.31322 0.37247-0.47702-0.40296 0.82118
   5   1   410390.06 1067.33   1 0.70848-0.18571 0.52767-0.42312-0.46861 0.88683
   5  -1  -411618.37 1414.03   1 0.17774 0.34526 0.82679-0.93139-0.53368 0.11527
  -5  -2   017169.82 3480.97   1 0.04097-0.56356-0.86019 0.65115 0.50831-0.50831
  -2   0   512542.29 1226.50   1 0.32781-0.53684-0.83903 0.83903 0.43422 0.08836
   0  -5   214291.03 3460.95   1 0.95049-0.95049-0.31026-0.21264-0.01743 0.22660
   0  -5  -214057.93 2560.00   1 0.95616-0.95616-0.29126-0.23164-0.03004-0.17911
   2   0   513715.40  810.96   1 0.97520-0.76607-0.20354 0.20354-0.08683 0.60967
   5  -2   014410.62 2028.25   1 0.56321-0.04019 0.64965-0.85886-0.51062 0.51062
  -5  -2  -1 5209.05 1407.44   1-0.08011-0.44248-0.84665 0.63761 0.52608-0.63060
  -2   1   5 3228.53  887.21   1 0.05166-0.26070-0.86076 0.96528 0.50637 0.01621
  -5  -2   1 2958.78 1659.56   1 0.12926-0.65185-0.86184 0.65280 0.49041-0.38590
  -2  -1   5 1495.03  695.32   1 0.50795-0.71709-0.78235 0.67778 0.36041 0.16243
  -1  -5  -2 2265.83  667.67   1 0.83059-0.93517-0.53774 0.01483 0.14469-0.35386
  -1  -5   2 2460.38 1271.95   1 0.88543-0.99001-0.45701-0.06589 0.08453 0.12463
   2  -1   5 1986.79  845.13   1 0.98006-0.77093-0.16458 0.06001-0.11124 0.63408
   1  -5   2 1105.05 1449.00   1 0.98025-0.87568-0.16263-0.36020-0.11245 0.32158
   1  -5  -2 2709.95  723.74   1 0.98192-0.87735-0.04364-0.47919-0.18417-0.02496
   5  -2   1 2751.18 2210.69   1 0.64586-0.12309 0.58556-0.79467-0.48987 0.59442
   5  -2  -1 2689.53 1510.43   1 0.48835 0.03465 0.69814-0.90735-0.52354 0.41893
  -5  -2   210699.06 3118.94   1 0.18902-0.71161-0.85895 0.64991 0.47589-0.26685
  -2  -2   512194.14 2666.03   1 0.61856-0.82770-0.72520 0.51606 0.30242 0.22042
  -2  -5  -2 8963.45 2297.42   1 0.63341-0.84255-0.71591 0.19306 0.29367-0.50281
  -2  -5   211389.80 2235.56   1 0.78843-0.99760-0.58714 0.06423 0.18336 0.02579
   2  -2   5 8610.32 1242.54   1 0.98022-0.77108-0.16301-0.04612-0.11221 0.63505
   2  -5   210099.96 2003.75   1 0.98087-0.77174-0.02965-0.49318-0.19234 0.40147
   2  -5  -2 9087.22 1555.15   1 0.94461-0.73548 0.14960-0.67244-0.29209 0.08295
   5  -2   210919.04 2026.33   1 0.73076-0.20799 0.50470-0.71381-0.45963 0.66874
   5  -2  -212136.07 1433.02   1 0.42594 0.09706 0.73268-0.94189-0.53078 0.32158
   2  -2  -5 9685.20  824.14   1 0.30651-0.09731 0.78595-0.99515-0.53696 0.01394
   5   2   213085.56 1211.08   1 0.23554 0.28746 0.81046-0.60125-0.53635 0.74555
  -5  -2   3 4829.19 1268.03   1 0.22481-0.74740-0.85561 0.64658 0.46623-0.15267
  -3  -5  -2 4512.70  891.03   1 0.42816-0.74187-0.81250 0.28965 0.39560-0.60474
  -3  -5   2 3142.73 1161.11   1 0.67010-0.98381-0.69106 0.16821 0.27090-0.06176
  -2  -3   5 2405.86  868.18   1 0.68358-0.89272-0.68119 0.36748 0.26208 0.26076
   2  -3   5 5672.54 1687.39   1 0.97843-0.76930-0.17969-0.13401-0.10183 0.62467
   3  -5   2 4893.01 1703.96   1 0.96391-0.65021 0.07935-0.60219-0.25409 0.46322
   3  -5  -2 2934.64 1535.10   1 0.89002-0.57636 0.28047-0.80324-0.35942 0.15031
   5  -2   3 3541.23 1298.15   1 0.81154-0.28877 0.40751-0.61662-0.41872 0.73238
   5   2   3 3163.25 1122.42   1 0.42234 0.10066 0.73453-0.52532-0.53111 0.84492
   5  -2  -3 3418.50 1322.52   1 0.37907 0.14393 0.75549-0.96469-0.53434 0.22054
  -4  -5  -2 5247.43 1551.82   1 0.24829-0.66637-0.85276 0.33017 0.45949-0.66853
  -5  -2   4 8296.70 1960.46   1 0.24057-0.76316-0.85376 0.64472 0.46174-0.04367
  -4  -5   2 7781.20 1697.33   1 0.54212-0.96040-0.76677 0.24392 0.34374-0.13460
  -2  -4   5 7726.18 1931.83   1 0.72010-0.92924-0.65218 0.23390 0.23685 0.28599
   2  -4   5 7806.89 1748.07   1 0.97470-0.76556-0.20680-0.21146-0.08477 0.60760
   4  -5   2 3731.37 1825.77   1 0.94042-0.52215 0.16226-0.68510-0.29878 0.50792
   5  -2   410442.79 2012.55   1 0.88212-0.35935 0.29555-0.50465-0.36675 0.78497
   4  -5  -2 3664.80 1548.55   1 0.84234-0.42413 0.36279-0.88556-0.39853 0.18942
   5   2   4 6034.09  691.88   1 0.62644-0.10342 0.60169-0.39249-0.49551 0.91392
   5  -2  -4 9992.14 1765.98   1 0.34949 0.17352 0.76860-0.97780-0.53582 0.11741
  -5  -3   0 1070.61  733.64   1 0.16106-0.68365-0.86071 0.54715 0.48293-0.48293
  -3   0   5  337.05  634.95   1 0.19727-0.51083-0.85828 0.85828 0.47373 0.04886
   0  -5  -3  924.31  395.25   1 0.92916-0.92916-0.36899-0.15391 0.02236-0.33611
   0  -5   3 1001.72  974.18   1 0.93671-0.93671-0.34997-0.17293 0.00933 0.30440
   3   0   5  764.48  762.18   1 0.97303-0.65932 0.03307-0.03307-0.22828 0.75112
   5  -3   0 2035.27 1672.66   1 0.68548-0.16271 0.55000-0.86367-0.47706 0.47706
  -3   1   5  678.29  963.05   1-0.02856-0.28499-0.85400 0.95852 0.51947 0.00311
  -5  -3  -1 -418.31 1164.33   1 0.04920-0.57179-0.86064 0.54708 0.50682-0.61134
  -5  -3   1 1035.93  804.52   1 0.23900-0.76159-0.85396 0.54040 0.46220-0.35768
  -3  -1   5 1363.53  930.23   1 0.36627-0.67998-0.83049 0.72592 0.41966 0.10318
  -1  -5  -3  444.50  328.97   1 0.72019-0.82476-0.65211 0.12926 0.23679-0.55050
  -1  -5   3  584.92  913.46   1 0.87159-0.97617-0.47969-0.04321 0.10109 0.21264
   1  -5   3-2273.63 1666.90   1 0.97285-0.86828-0.21800-0.30482-0.07765 0.39135
   1  -5  -3  235.12  674.70   1 0.98309-0.87852-0.06718-0.45565-0.17031-0.14339
   3   1   5  574.07  391.18   1 0.97436-0.66066 0.02476 0.07980-0.22358 0.74642
   3  -1   5 -311.84 1094.48   1 0.97607-0.66237 0.01320-0.11776-0.21701 0.73985
   5  -3   1-1528.33 1978.91   1 0.74794-0.22517 0.48598-0.79964-0.45210 0.55665
   5  -3  -1-1588.13 1642.07   1 0.62747-0.10470 0.60093-0.91459-0.49513 0.39057
  -5  -3  -2 3029.69 1444.74   1-0.10302-0.41956-0.84261 0.52906 0.52856-0.73760
  -5  -3   2 3410.23  873.70   1 0.28946-0.81205-0.84646 0.53290 0.44689-0.23785
  -3  -2   5 4694.05 1157.93   1 0.48454-0.79825-0.79207 0.58293 0.37126 0.15158
  -2  -5   3 4224.08 1285.57   1 0.78050-0.98966-0.59554 0.07263 0.19010 0.12364
   2  -5   3 4735.92 2381.79   1 0.98353-0.77439-0.09586-0.42697-0.15320 0.46690
   3  -2   5 4364.54 1124.75   1 0.97994-0.66623-0.01932-0.18981-0.19833 0.72117
   2  -5  -3 3237.18 1116.88   1 0.94214-0.73300 0.15715-0.67999-0.29608-0.01761
   5  -3   2 2318.48 1677.38   1 0.81045-0.28768 0.40900-0.72266-0.41937 0.62848
   5  -3  -2 3069.01 2065.07   1 0.57795-0.05494 0.63909-0.95290-0.50746 0.29826
   3  -2  -5 3369.93  697.65   1 0.29436 0.01944 0.79050-0.99971-0.53707 0.01405
  -5  -3   3 1271.17  895.42   1 0.31781-0.84040-0.84112 0.52756 0.43761-0.12406
  -3  -3   5 2260.99 1041.41   1 0.56259-0.87630-0.75659 0.44288 0.33325 0.18959
  -3  -5   3  -11.38 1467.13   1 0.67121-0.98492-0.69026 0.16741 0.27018 0.04352
   3  -3   5 3452.16 1205.92   1 0.98276-0.66905-0.05877-0.25492-0.17528 0.69812
   3  -5   3  147.83 1783.06   1 0.97678-0.66308 0.00800-0.53084-0.21405 0.52775
   3  -5  -3  206.19 1133.71   1 0.87993-0.56626 0.29960-0.82237-0.36872 0.05505
   5  -3   3 2124.57 1517.37   1 0.86858-0.34581 0.31989-0.63355-0.37844 0.69210
   3  -3  -5 1000.84  744.73   1 0.55223-0.23842 0.65730-0.97110-0.51283-0.01017
   5  -3  -3  328.67 1396.69   1 0.54003-0.01702 0.66556-0.97937-0.51515 0.20134
   5   3   3  872.74  758.22   1 0.29867 0.22434 0.78891-0.47510-0.53704 0.85085
  -5  -3   4 7674.75 1878.57   1 0.32809-0.85069-0.83897 0.52542 0.43413-0.01605
  -4  -5   3 9078.10 2310.82   1 0.55245-0.97073-0.76171 0.23886 0.33849-0.02478
  -3  -4   5 6201.71 1639.92   1 0.61169-0.92540-0.72935 0.31107 0.30638 0.21646
   3  -4   5 7891.84 1772.96   1 0.98347-0.66977-0.10247-0.31579-0.14922 0.67206
   4  -5   3 9590.56 2714.58   1 0.96136-0.54309 0.09021-0.61305-0.26006 0.57376
   5  -3   4 7281.48 1805.57   1 0.91823-0.39546 0.22007-0.53373-0.32926 0.74748
   4  -5  -3 7423.40 1095.19   1 0.82781-0.40960 0.38455-0.90732-0.40845 0.09479
   5  -3  -4 9093.21 1215.75   1 0.51620 0.00680 0.68106-0.99487-0.51930 0.10089
  -4   0   510368.87 2999.80   1 0.08838-0.50645-0.86195 0.86195 0.49923 0.02336
  -5  -4   012612.35 2026.52   1 0.25316-0.77575-0.85211 0.43403 0.45805-0.45805
   0  -5   4 7187.01 2198.88   1 0.91735-0.91735-0.39594-0.12696 0.04105 0.37727
   4   0   5 9556.72  966.99   1 0.92936-0.51109 0.19286-0.19286-0.31476 0.83760
   5  -4   0 9530.25 1761.80   1 0.78372-0.26095 0.44381-0.86203-0.43450 0.43450
  -4   1   5 9791.03 1170.74   1-0.09932-0.31875-0.84330 0.94782 0.52818-0.00558
  -5  -4  -110657.73 2796.95   1 0.15291-0.67550-0.86109 0.44301 0.48490-0.58942
  -4  -1   511421.18 3002.91   1 0.24152-0.65960-0.85364 0.74912 0.46147 0.06112
  -5  -4   111467.37 2597.16   1 0.32076-0.84335-0.84051 0.42244 0.43662-0.33210
  -1  -5   411078.75 2413.85   1 0.85100-0.95558-0.51033-0.01257 0.12388 0.29444
   1  -5   411034.36 2490.21   1 0.95974-0.85516-0.27821-0.24469-0.03864 0.45697
   4  -1   5 9409.05 1306.08   1 0.94639-0.52812 0.14402-0.24859-0.28912 0.81196
   5  -4   111954.89 1747.56   1 0.82809-0.30532 0.38414-0.80236-0.40826 0.51282
   5  -4  -111652.77 2162.76   1 0.74212-0.21935 0.49242-0.91064-0.45471 0.35016
  -5  -4  -2 5581.80 1334.22   1 0.01068-0.53328-0.85802 0.43995 0.51349-0.72253
  -5  -4   2 7782.73 1543.75   1 0.36288-0.88573-0.83135 0.41307 0.42090-0.21176
  -4  -2   5 7084.69 1720.80   1 0.35700-0.77528-0.83281 0.62367 0.42304 0.09980
  -2  -5   4 6358.28 2369.52   1 0.76347-0.97263-0.61275 0.08984 0.20406 0.21425
   2  -5   4 5664.89 1977.96   1 0.97987-0.77073-0.16660-0.35623-0.10999 0.52826
   4  -2   5 5396.35 1171.56   1 0.96085-0.54258 0.09231-0.30144-0.26120 0.78404
   5  -4   2 4111.48 2002.87   1 0.87195-0.34918 0.31400-0.73222-0.37563 0.58474
   5  -4  -2 8426.21 2080.42   1 0.70648-0.18371 0.52967-0.94789-0.46938 0.26028
   4  -2  -5 6751.01  930.24   1 0.30962 0.10878 0.78476-0.99396-0.53691 0.01390
  -5  -4   3 8493.63 1859.14   1 0.38511-0.90796-0.82548 0.40720 0.41262-0.09891
  -4  -3   5 7591.60 1611.85   1 0.44068-0.85896-0.80831 0.49460 0.39040 0.13243
  -3  -5   4 7831.39 2048.37   1 0.66067-0.97438-0.69772 0.17487 0.27691 0.14136
   3  -5   4 8213.27 1479.85   1 0.98314-0.66943-0.06855-0.45428-0.16949 0.58777
   4  -3   5 8840.83 1876.77   1 0.97205-0.55378 0.03881-0.35251-0.23151 0.75435
   5  -4   3 8500.35 2044.68   1 0.91208-0.38931 0.23429-0.65250-0.33646 0.65013
   5  -4  -3 7854.52 1694.88   1 0.67967-0.15690 0.55544-0.97366-0.47907 0.16541
   4  -3  -5 8534.77 1012.97   1 0.51559-0.09718 0.68145-0.99525-0.51940-0.00360
   5   4   310142.98 1199.28   1 0.18308 0.33993 0.82541-0.40700-0.53400 0.84781
  -5  -4   4 4984.92 1401.60   1 0.39121-0.91405-0.82378 0.40550 0.41029 0.00798
  -4  -4   5 6475.44 1661.64   1 0.49793-0.91621-0.78660 0.36832 0.36511 0.15773
  -4  -5   4 4646.49 1586.07   1 0.54922-0.96750-0.76331 0.24046 0.34014 0.07813
   4  -4   5 9297.55 1701.66   1 0.97959-0.56132-0.01586-0.40240-0.20033 0.72317
   4  -5   4 8182.36 2338.66   1 0.97625-0.55798 0.01193-0.53477-0.21629 0.63456
   5  -4   4 9716.99 2067.91   1 0.94560-0.42276 0.14651-0.56478-0.29044 0.70872
   4  -5  -4 7868.88 1454.92   1 0.82287-0.40466 0.39167-0.91444-0.41165-0.00655
   5  -4  -4 6209.37 1522.77   1 0.66422-0.14145 0.56952-0.98774-0.48419 0.06598
  -5   0   5 1748.93 1366.34   1-0.00639-0.51619-0.85644 0.85644 0.51619 0.00639
  -5  -5   0 1298.98  799.38   1 0.31840-0.84100-0.84100 0.31840 0.43741-0.43741
   0  -5   5 1537.01 1212.93   1 0.89163-0.89163-0.44619-0.07671 0.07671 0.44619
   5   0   5  967.91  774.13   1 0.88598-0.36321 0.28826-0.28826-0.36321 0.88598
   5  -5   0  189.51 1647.15   1 0.85897-0.33620 0.33620-0.85897-0.38616 0.38616
  -5  -1   5 3264.27 1898.10   1 0.12965-0.65224-0.86183 0.75731 0.49033 0.03226
  -5  -5  -1 2673.38 1137.08   1 0.22908-0.75168-0.85514 0.33254 0.46503-0.56954
  -5  -5   1 3364.42 1606.31   1 0.37739-0.90023-0.82758 0.30473 0.41553-0.31096
  -1  -5   5 4660.52 1303.17   1 0.82358-0.92816-0.54658 0.02367 0.15150 0.37140
   1  -5   5 3930.45 1518.81   1 0.93980-0.83522-0.34169-0.18121 0.00370 0.51920
   5  -1   5 2980.66  945.23   1 0.91380-0.39103 0.23038-0.33494-0.33449 0.85726
   5  -5   1 5126.07 1818.51   1 0.88861-0.36583 0.28323-0.80600-0.36076 0.46532
   5  -5  -1 2303.84 1716.17   1 0.83136-0.30859 0.37935-0.90213-0.40610 0.30154
   5  -1  -5 3218.60 1287.41   1 0.16645 0.35655 0.82961-0.93422-0.53294 0.00992
  -5  -5  -2 1628.93  961.17   1 0.09884-0.62143-0.86206 0.33947 0.49706-0.70609
  -5  -2   5 1086.04  846.76   1 0.23928-0.76188-0.85392 0.64488 0.46211 0.06047
  -5  -5   2 2505.01 1240.89   1 0.41323-0.93608-0.81725 0.29440 0.40165-0.19251
  -2  -5   5 1263.56  896.41   1 0.73822-0.94736-0.63643 0.11358 0.22352 0.29932
   2  -5   5 1007.47 1410.92   1 0.96859-0.75943-0.24047-0.28243-0.06317 0.58608
   5  -2   5 1893.42 1071.69   1 0.93713-0.41429 0.17175-0.38088-0.30376 0.82660
   5  -5   2 3937.82 2217.10   1 0.91774-0.39497 0.22121-0.74398-0.32984 0.53895
   5  -5  -2 -118.63 1482.89   1 0.80827-0.28550 0.41195-0.93473-0.42068 0.21157
   5  -2  -5 4444.26 1791.53   1 0.33798 0.18502 0.77343-0.98264-0.53624 0.01323
  -5  -3   5 4403.25 1001.38   1 0.32316-0.84575-0.84001 0.52646 0.43581 0.08678
  -5  -5   3 5318.98 1548.00   1 0.43117-0.95402-0.81151 0.28866 0.39436-0.08065
  -3  -5   5 3832.50 1194.25   1 0.64022-0.95393-0.71152 0.18867 0.28957 0.23327
   3  -5   5 7389.83 1632.08   1 0.98142-0.66771-0.14898-0.37385-0.12088 0.64372
   5  -3   5 8017.90 2012.63   1 0.95583-0.43299 0.11178-0.42549-0.27181 0.79465
   5  -5   3 8362.75 1830.03   1 0.94406-0.42122 0.15131-0.67415-0.29299 0.60670
   5  -5  -3 5731.83 1158.69   1 0.79211-0.26934 0.43322-0.95599-0.42996 0.11629
   5  -3  -5 5254.60 1321.76   1 0.50821 0.01480 0.68607-0.99988-0.52059-0.00242
  -5  -4   5 2251.78  695.33   1 0.38370-0.90654-0.82587 0.40759 0.41315 0.10968
  -5  -5   4 2198.84 1200.55   1 0.43458-0.95743-0.81038 0.28753 0.39295 0.02532
  -4  -5   5 2709.82 1457.90   1 0.53460-0.95288-0.77034 0.24749 0.34750 0.17534
   4  -5   5  868.84 1405.62   1 0.98322-0.56495-0.07138-0.45145-0.16781 0.69065
   5  -4   5 5501.76 2022.98   1 0.96977-0.44693 0.05134-0.46961-0.23854 0.76138
   5  -5   4 3229.27 1543.52   1 0.96511-0.44227 0.07403-0.59687-0.25115 0.66942
   5  -5  -4 1886.41 1489.88   1 0.78512-0.26235 0.44207-0.96484-0.43376 0.01554
  -5  -5   5 6106.63 2179.05   1 0.42567-0.94852-0.81331 0.29046 0.39662 0.12622
   5  -5   5 7300.77 1481.65   1 0.97891-0.45607-0.00941-0.51342-0.20406 0.72690
   0   0   6110505.3 1957.52   1 0.59875-0.59875-0.73693 0.73693 0.31370 0.31370
   0  -6   0113347.5 2386.80   1 0.94938-0.94938-0.31374-0.31374-0.01511 0.01511
   6   0   098819.60 3857.62   1 0.31380 0.31380 0.78314-0.78314-0.53685 0.53685
   0  -1   673270.57 2773.28   1 0.74611-0.74611-0.62927 0.52470 0.21754 0.40987
  -1  -6   071964.56 3586.88   1 0.87835-0.98293-0.46885-0.15863 0.09314-0.09314
   1  -6   062070.87 3064.51   1 0.98059-0.87602-0.15898-0.46842-0.11471 0.11471
   6   0   164887.79 2736.34   1 0.41120 0.21641 0.74014-0.74014-0.53207 0.63667
   6   0  -168237.46 2899.60   1 0.23314 0.39447 0.81120-0.81120-0.53627 0.43167
  -2  -6   066817.51 2758.81   1 0.77075-0.97992-0.60552-0.02196 0.19817-0.19817
   0  -2   664130.04 2496.07   1 0.81250-0.81250-0.56001 0.35085 0.16193 0.46555
   2  -6   064617.04 3415.14   1 0.98018-0.77104-0.02183-0.60557-0.19688 0.19688
   6   0   267116.96 3025.62   1 0.52148 0.10612 0.67770-0.67770-0.51843 0.72763
   6   0  -270022.11 3316.20   1 0.17092 0.45668 0.82851-0.82851-0.53324 0.32403
  -6   0   329640.49 2212.48   1-0.12653-0.50057-0.83798 0.83798 0.53081-0.21725
  -3  -6   026484.30 5814.53   1 0.63959-0.95330-0.71193 0.08451 0.28995-0.28995
   0  -3   629267.81 1810.72   1 0.84344-0.84344-0.52079 0.20705 0.13178 0.49570
   3  -6   033691.57 2595.07   1 0.96172-0.64802 0.08873-0.71614-0.25924 0.25924
   6   0   330265.23 1758.32   1 0.63814-0.01081 0.59210-0.59210-0.49212 0.80579
  -6   0   418169.23 2057.68   1-0.10069-0.52641-0.84304 0.84304 0.52832-0.11025
  -4  -6   014887.36 3551.57   1 0.49933-0.91761-0.78602 0.15860 0.36446-0.36446
   0  -4   615841.07 4655.99   1 0.85639-0.85639-0.50262 0.08429 0.11810 0.50938
   4  -6   015754.36 1733.28   1 0.93717-0.51889 0.17165-0.79906-0.30371 0.30371
   6   0   417621.85 1615.26   1 0.75293-0.12561 0.48036-0.48036-0.44980 0.86802
  -6   0   5 7014.72 1870.32   1-0.09181-0.53529-0.84465 0.84465 0.52738-0.00479
  -5  -6   0 4564.34 1308.81   1 0.36047-0.88332-0.83195 0.20453 0.42178-0.42178
   0  -5   6 5429.05 1126.84   1 0.85871-0.85871-0.49924-0.02366 0.11558 0.51190
   5  -6   0 4913.21 1740.59   1 0.91391-0.39114 0.23011-0.85744-0.33436 0.33436
   6   0   5 7300.09 1699.52   1 0.85551-0.22818 0.34191-0.34191-0.38883 0.91160
  -1   0   668725.31 2533.05   1 0.43131-0.53588-0.81147 0.81147 0.39431 0.23310
   1   0   675033.65 2737.11   1 0.77710-0.67251-0.59907 0.59907 0.19294 0.43454
   0  -6   179000.70 5292.35   1 0.94607-0.94607-0.32385-0.30364-0.00833 0.11292
   0  -6  -174256.32 3049.78   1 0.94711-0.94711-0.32072-0.30677-0.01044-0.09414
   6  -1   077656.17 3738.04   1 0.44313 0.18447 0.72366-0.82827-0.52908 0.52908
   6   1   072773.83 3394.20   1 0.18503 0.44257 0.82490-0.72030-0.53412 0.53412
  -6  -1   149484.15 2662.02   1-0.10243-0.52467-0.84272 0.73820 0.52850-0.42398
  -1   1   650359.76 2306.24   1 0.11442-0.21894-0.86205 0.96657 0.49372 0.13338
  -1  -1   650000.89 2202.30   1 0.60553-0.71010-0.73300 0.62843 0.30989 0.31752
   1  -1   651042.82 2159.49   1 0.86766-0.76308-0.48579 0.38121 0.10559 0.52189
  -1  -6  -148446.85 2505.02   1 0.86259-0.96718-0.49349-0.13399 0.11130-0.21588
  -1  -6   147234.62 2320.97   1 0.88172-0.98630-0.46328-0.16420 0.08908 0.01549
   1  -6   152561.30 2961.25   1 0.97783-0.87326-0.18461-0.44279-0.09874 0.20331
   1  -6  -148388.19 2521.41   1 0.98155-0.87698-0.14720-0.48019-0.12198 0.01741
   6  -1   145352.53 2366.91   1 0.52950 0.09811 0.67251-0.77712-0.51705 0.62165
   6  -1  -153042.67 2987.52   1 0.36878 0.25883 0.76016-0.86476-0.53492 0.43032
   6   1   150817.22 2659.78   1 0.28865 0.33895 0.79259-0.68799-0.53709 0.64169
  -6  -1   247597.21 2342.17   1-0.04129-0.58582-0.85241 0.74789 0.52124-0.31220
  -1  -2   653896.70 2963.03   1 0.69992-0.80449-0.66863 0.45949 0.25105 0.37636
  -2  -6  -156852.49 2875.42   1 0.73443-0.94357-0.63981 0.01239 0.22637-0.33094
  -2  -6   157526.13 4747.53   1 0.78687-0.99603-0.58882-0.03866 0.18470-0.08012
   1  -2   653481.47 3578.28   1 0.90113-0.79655-0.42875 0.21959 0.06421 0.56327
   2  -6   154066.91 3168.01   1 0.98276-0.77363-0.05888-0.56852-0.17521 0.27978
   2  -6  -152654.68 3019.13   1 0.97734-0.76820 0.00377-0.63118-0.21163 0.10707
   6  -1   251375.56 2465.95   1 0.62350 0.00410 0.60408-0.70868-0.49630 0.70551
   6   1   256958.41 2756.76   1 0.41140 0.21621 0.74004-0.63543-0.53205 0.74126
   6  -1  -253884.72 2602.03   1 0.30923 0.31837 0.78491-0.88951-0.53692 0.32771
  -6  -1   327062.95 5744.78   1-0.00019-0.62691-0.85704 0.75252 0.51523-0.20168
  -3  -6  -125802.41 5130.31   1 0.58267-0.89638-0.74595 0.11853 0.32256-0.42713
  -3  -6   127436.27 5260.02   1 0.67034-0.98405-0.69089 0.06347 0.27074-0.16617
  -1  -3   624069.53 4804.15   1 0.75108-0.85565-0.62465 0.31094 0.21370 0.41371
   1  -3   626348.28 5122.26   1 0.91359-0.80901-0.40394 0.09019 0.04666 0.58083
   3  -6   125835.63 2839.12   1 0.97088-0.65717 0.04539-0.67280-0.23521 0.33978
   3  -6  -125006.92 2024.79   1 0.95303-0.63932 0.12188-0.74929-0.27726 0.17269
   6  -1   330082.80 2301.08   1 0.71914-0.09182 0.51685-0.62141-0.46442 0.77808
   6   1   331147.33 1904.80   1 0.54776 0.07984 0.66035-0.55574-0.51369 0.82750
   6  -1  -324843.66 1858.58   1 0.26591 0.36169 0.80058-0.90518-0.53698 0.22317
  -6  -1   425363.96 5353.29   1 0.02255-0.64966-0.85897 0.75445 0.51152-0.09345
  -4  -6  -121767.65 4799.08   1 0.42738-0.84566-0.81276 0.18534 0.39592-0.50049
  -4  -6   122121.38 4407.38   1 0.54277-0.96105-0.76646 0.13904 0.34342-0.23885
  -1  -4   621112.53 4498.28   1 0.77763-0.88221-0.59851 0.18019 0.19249 0.43499
   1  -4   622841.96 5468.97   1 0.91591-0.81133-0.39904-0.01928 0.04322 0.58426
   4  -6   125291.34 2311.91   1 0.95181-0.53354 0.12611-0.75351-0.27954 0.38410
   4  -6  -121096.00 2381.67   1 0.92357-0.50529 0.20759-0.83500-0.32236 0.21779
   6  -1   424166.45 1610.87   1 0.80988-0.18256 0.40977-0.51432-0.41972 0.83793
   6   1   425514.64 1875.48   1 0.68796-0.06064 0.54766-0.44311-0.47619 0.89441
   6  -1  -426366.90 2223.56   1 0.23924 0.38837 0.80930-0.91390-0.53645 0.11804
  -6  -1   511331.28 2805.70   1 0.02862-0.65573-0.85940 0.75488 0.51048 0.01210
  -5  -6  -1 8807.35 2538.34   1 0.27971-0.80231-0.84810 0.22099 0.44996-0.55448
  -5  -6   1 9224.27 2298.88   1 0.41287-0.93571-0.81736 0.18994 0.40180-0.29723
  -1  -5   6 8501.11 2297.22   1 0.78890-0.89349-0.58664 0.06373 0.18295 0.44453
   1  -5   611210.73 2826.45   1 0.91200-0.80742-0.40723-0.11567 0.04897 0.57851
   5  -6   1 9196.87 1752.67   1 0.93236-0.40952 0.18492-0.81233-0.31064 0.41521
   5  -6  -110067.92 2027.58   1 0.89719-0.37442 0.26619-0.89352-0.35239 0.24784
   6  -1   511737.22 1495.01   1 0.88833-0.26101 0.28375-0.38830-0.36102 0.88379
   6  -1  -511390.01 1479.37   1 0.22906 0.39854 0.81245-0.91705-0.53614 0.01313
  -6  -2   067117.26 3123.33   1-0.06539-0.56171-0.84899 0.63995 0.52434-0.52434
  -2   0   666128.00 2509.82   1 0.29254-0.50158-0.84592 0.84592 0.44591 0.18120
   2   0   669900.05 3185.66   1 0.91584-0.70668-0.39918 0.39918 0.04332 0.58416
   0  -6   264080.64 2819.79   1 0.93809-0.93809-0.34632-0.28116 0.00685 0.20231
   0  -6  -271580.81 2807.35   1 0.93584-0.93584-0.35223-0.27526 0.01087-0.22003
   6  -2   064497.71 3178.56   1 0.56484 0.06277 0.64850-0.85771-0.51028 0.51028
  -6  -2   157661.87 3777.07   1 0.01448-0.64159-0.85834 0.64930 0.51287-0.40835
  -2   1   653577.45 2948.67   1 0.02979-0.23883-0.85948 0.96400 0.51028 0.11682
  -2  -1   656209.91 2311.58   1 0.46616-0.67530-0.79918 0.69461 0.37947 0.24794
  -1  -6  -260092.30 2404.27   1 0.82495-0.92953-0.54487-0.08261 0.15018-0.35934
  -1  -6   263493.88 5247.56   1 0.87661-0.98119-0.47168-0.15580 0.09521 0.11394
   2  -1   652825.64 2878.23   1 0.94774-0.73858-0.31880 0.21421-0.01172 0.63922
   1  -6   259227.90 3348.15   1 0.97240-0.86783-0.22055-0.40685-0.07603 0.28517
   1  -6  -255682.45 2470.46   1 0.98097-0.87640-0.15464-0.47276-0.11739-0.09173
   6  -2   156043.66 2655.22   1 0.63699-0.00966 0.59306-0.80217-0.49246 0.59701
   6  -2  -153112.48 2643.52   1 0.50067 0.12693 0.69072-0.89993-0.52174 0.41714
   6   2   157776.93 2915.62   1 0.17000 0.45760 0.82874-0.61953-0.53318 0.63778
  -6  -2   245186.18 4269.32   1 0.07148-0.69859-0.86155 0.65251 0.50260-0.29357
  -2  -2   642238.36 3926.28   1 0.57656-0.78570-0.74925 0.54011 0.32585 0.30156
  -2  -6  -247903.81 2989.11   1 0.66283-0.87197-0.69621 0.06879 0.27554-0.48468
  -2  -6   244868.65 7765.79   1 0.78961-0.99877-0.58588-0.04160 0.18235 0.02680
   2  -2   641143.92 1783.96   1 0.95688-0.74772-0.28871 0.07954-0.03173 0.65922
   2  -6   245988.96 3252.11   1 0.98344-0.77430-0.10486-0.52254-0.14778 0.35692
   2  -6  -240780.01 2118.22   1 0.97590-0.76676 0.01446-0.64187-0.21773 0.00860
   6  -2   238875.21 2346.33   1 0.71324-0.08592 0.52288-0.73198-0.46676 0.67587
   6  -2  -245895.95 2946.87   1 0.44774 0.17987 0.72119-0.93039-0.52859 0.31938
   6   2   239411.25 2025.13   1 0.29971 0.32790 0.78852-0.57931-0.53703 0.74623
  -6  -2   321863.18 5472.23   1 0.10812-0.73523-0.86208 0.65305 0.49508-0.18153
  -3  -6  -218202.70 4873.40   1 0.48327-0.79698-0.79257 0.16515 0.37184-0.58098
  -2  -3   618644.57 4267.91   1 0.64410-0.85324-0.70896 0.39525 0.28721 0.34020
  -3  -6   222703.46 4195.42   1 0.68342-0.99713-0.68130 0.05389 0.26219-0.05305
   2  -3   616294.81 3448.97   1 0.95806-0.74890-0.28445-0.02929-0.03454 0.66203
   3  -6   222661.31 2708.36   1 0.97856-0.66486-0.00631-0.62108-0.20584 0.41497
   3  -6  -219745.31 2043.20   1 0.94685-0.63315 0.14255-0.76996-0.28834 0.07920
   6  -2   320822.00 1834.40   1 0.78870-0.16137 0.43757-0.64667-0.43183 0.74549
   6   2   320404.27 1344.25   1 0.45150 0.17611 0.71914-0.50994-0.52818 0.84198
   6  -2  -322325.34 1900.25   1 0.40817 0.21943 0.74163-0.95084-0.53231 0.21851
  -6  -2   412484.12 3057.45   1 0.12685-0.75396-0.86189 0.65285 0.49096-0.07289
  -4  -6   212219.20 3268.61   1 0.56599-0.98427-0.75483 0.12741 0.33146-0.12232
  -2  -4   611420.31 2843.34   1 0.68382-0.89296-0.68101 0.26273 0.26192 0.36549
   2  -4   612004.26 3468.92   1 0.95495-0.74579-0.29548-0.12284-0.02725 0.65475
   4  -6   214923.47 2822.49   1 0.96549-0.54722 0.07228-0.69969-0.25018 0.45932
   4  -6  -210003.07 1277.75   1 0.91286-0.49465 0.23251-0.85984-0.33557 0.12646
   6  -2   411832.50 1996.72   1 0.85823-0.23090 0.33744-0.54655-0.38674 0.80496
   6  -2  -412727.50 1945.27   1 0.38326 0.24434 0.75355-0.96276-0.53409 0.11568
  -6  -2   5 3346.36 1664.87   1 0.12973-0.75684-0.86183 0.65279 0.49031 0.03227
  -5  -6   2 3341.03 1185.30   1 0.44432-0.96717-0.80706 0.17964 0.38887-0.17973
  -2  -5   6 2546.27 1177.63   1 0.70497-0.91411-0.66462 0.14177 0.24756 0.37985
   2  -5   6 2962.73 1432.96   1 0.94853-0.73937-0.31638-0.20652-0.01334 0.64083
   5  -6   2 4691.94 1938.03   1 0.95027-0.42743 0.13136-0.75877-0.28236 0.49149
   6  -2   5 3744.86 1509.07   1 0.91674-0.28941 0.22358-0.43269-0.33105 0.85382
   5  -6  -2 2901.79 1840.21   1 0.88400-0.36123 0.29201-0.91934-0.36504 0.15593
   6  -2  -5 4955.17 1295.56   1 0.37369 0.25391 0.75795-0.96715-0.53466 0.01164
  -6  -3   027138.28 6581.25   1 0.03806-0.66517-0.86002 0.54646 0.50883-0.50883
  -3   0   630783.16 1665.97   1 0.17504-0.48860-0.85992 0.85992 0.47946 0.14764
   0  -6   333706.01 7332.07   1 0.92539-0.92539-0.37792-0.24957 0.02852 0.28522
   6  -3   028856.97 2753.81   1 0.67291-0.04559 0.56167-0.87533-0.48135 0.48135
  -6  -3  -124239.63 5300.37   1-0.06335-0.56375-0.84930 0.53574 0.52409-0.62861
  -3   1   625680.25 1834.61   1-0.04256-0.27099-0.85224 0.95676 0.52141 0.10569
  -6  -3   125077.45 6299.98   1 0.11272-0.73984-0.86206 0.54851 0.49409-0.38957
  -3  -1   628851.59 1660.96   1 0.33858-0.65214-0.83667 0.73215 0.43050 0.19660
  -1  -6   326249.24 6245.67   1 0.86460-0.96918-0.49047-0.13702 0.10905 0.20468
   1  -6   324989.05 5619.87   1 0.96327-0.85868-0.26424-0.36324-0.04778 0.36152
   3  -1   628478.10 1726.79   1 0.98074-0.66703-0.15731 0.05274-0.11574 0.74315
   6  -3   129544.77 3084.39   1 0.73012-0.10280 0.50537-0.81903-0.45989 0.56445
   6  -3  -124407.60 1954.99   1 0.62114 0.00646 0.60598-0.91979-0.49694 0.39234
  -6  -3   220171.42 4685.83   1 0.16421-0.79132-0.86055 0.54699 0.48216-0.27312
  -3  -2   618938.78 4307.90   1 0.45270-0.76641-0.80410 0.59496 0.38531 0.24210
  -2  -6   319447.21 4026.71   1 0.78238-0.99154-0.59357-0.03391 0.18851 0.12522
   3  -2   620985.82 1558.01   1 0.98074-0.66704-0.15723-0.05190-0.11579 0.74320
   2  -6   324687.68 2323.63   1 0.98069-0.77156-0.15780-0.46960-0.11544 0.42914
   2  -6  -325289.04 2108.16   1 0.97719-0.76806 0.00488-0.63228-0.21226-0.10143
   6  -3   221060.41 1804.47   1 0.78922-0.16190 0.43690-0.75056-0.43154 0.64065
   6  -3  -221089.64 2163.41   1 0.57761 0.04999 0.63934-0.95314-0.50754 0.29833
   6   3   220230.69 1413.15   1 0.19408 0.43352 0.82249-0.50868-0.53462 0.74383
  -6  -3   316246.29 3600.07   1 0.19591-0.82302-0.85840 0.54484 0.47409-0.16053
  -3  -3   612547.13 2885.82   1 0.53037-0.84408-0.77232 0.45861 0.34959 0.27782
  -3  -6   317329.43 4901.14   1 0.68350-0.99721-0.68124 0.05382 0.26213 0.05157
   3  -3   617071.71 1578.63   1 0.97915-0.66544-0.17343-0.14026-0.10573 0.73314
   3  -6   315681.04 2129.23   1 0.98301-0.66931-0.06488-0.56252-0.17167 0.48537
   3  -6  -315344.49 1511.12   1 0.94526-0.63156 0.14758-0.77499-0.29101-0.02268
   6  -3   315151.62 1661.99   1 0.84647-0.21914 0.35638-0.67004-0.39557 0.70923
   6  -3  -316247.00 1558.44   1 0.54476 0.08284 0.66238-0.97619-0.51427 0.20046
   6   3   315607.31 1445.13   1 0.35548 0.27212 0.76602-0.45221-0.53557 0.84938
  -6  -3   411261.89 2582.68   1 0.21066-0.83777-0.85708 0.54352 0.47013-0.05206
  -4  -6   310782.88 2574.01   1 0.57400-0.99228-0.75062 0.12320 0.32722-0.01351
  -3  -4   6 9810.28 2864.39   1 0.58051-0.89422-0.74712 0.32884 0.32373 0.30368
   3  -4   610998.25 2028.60   1 0.97580-0.66210-0.19953-0.21874-0.08937 0.71677
   4  -6   310987.19 2311.49   1 0.97633-0.55806 0.01135-0.63876-0.21596 0.52966
   4  -6  -3 9955.52 1151.73   1 0.90756-0.48935 0.24431-0.87164-0.34150 0.02784
   6  -3   411472.18 2088.53   1 0.89805-0.27072 0.26443-0.57809-0.35152 0.76974
   6  -3  -4 9499.73 1296.01   1 0.52436 0.10325 0.67585-0.98966-0.51794 0.09953
  -6  -3   5 7091.40 2080.67   1 0.21063-0.83775-0.85708 0.54352 0.47014 0.05244
  -5  -6   3 4885.20 1520.62   1 0.45945-0.98230-0.80166 0.17424 0.38240-0.06869
  -3  -5   6 5442.73 1829.99   1 0.61063-0.92434-0.72998 0.20713 0.30699 0.32042
   3  -5   6 6393.50 1339.82   1 0.97026-0.65651-0.23215-0.29075-0.06852 0.69602
   5  -6   3 6841.12 2334.34   1 0.96590-0.44306 0.07037-0.69778-0.24913 0.56283
   6  -3   5 5399.60 1692.68   1 0.94033-0.31293 0.16251-0.47622-0.29891 0.82175
   5  -6  -3 6430.60 1404.64   1 0.87626-0.35349 0.30629-0.93361-0.37194 0.05827
   6  -3  -5 8129.13 1314.51   1 0.51769 0.10992 0.68012-0.99393-0.51906-0.00394
  -4   0   615292.31 3771.98   1 0.07384-0.49192-0.86162 0.86162 0.50214 0.12496
  -6  -4   018348.06 5993.65   1 0.12173-0.74885-0.86197 0.44390 0.49211-0.49211
   0  -6   415867.67 3523.47   1 0.90754-0.90754-0.41628-0.21120 0.05535 0.36296
   6  -4   019667.69 2507.42   1 0.76446-0.13713 0.46709-0.88530-0.44432 0.44432
  -4   1   625131.41 1843.09   1-0.10905-0.30902-0.84147 0.94599 0.52916 0.09794
  -6  -4  -121680.14 5717.76   1 0.02603-0.65315-0.85922 0.44115 0.51093-0.61545
  -6  -4   127105.46 2483.95   1 0.19021-0.81732-0.85885 0.44078 0.47558-0.37106
  -4  -1   623361.57 5936.57   1 0.22205-0.64012-0.85592 0.75140 0.46700 0.16010
  -1  -6   422213.84 5869.52   1 0.84622-0.95080-0.51700-0.11049 0.12890 0.28941
   1  -6   424009.39 5453.48   1 0.94938-0.84480-0.31374-0.31374-0.01511 0.43343
   4  -1   628578.07 1945.44   1 0.98037-0.56209-0.02385-0.08071-0.19571 0.82312
   6  -4   131018.92 2751.58   1 0.80740-0.18008 0.41313-0.83135-0.42120 0.52575
   6  -4  -129251.43 2272.72   1 0.72518-0.09785 0.51059-0.92880-0.46196 0.35740
  -6  -4  -212845.51 1413.96   1-0.10204-0.52507-0.84280 0.42472 0.52846-0.73750
  -6  -4   2 9386.11 3743.11   1 0.23612-0.86324-0.85431 0.43623 0.46302-0.25398
  -4  -2   611210.98 3312.71   1 0.33483-0.75291-0.83751 0.62847 0.43180 0.19530
  -2  -6   4 9572.45 1995.84   1 0.76684-0.97601-0.60942-0.01806 0.20135 0.21697
   2  -6   410234.98 1554.44   1 0.97317-0.76403-0.21615-0.41125-0.07883 0.49710
   4  -2   614471.45 1426.51   1 0.98212-0.56384-0.04675-0.16237-0.18235 0.80975
   6  -4   215661.05 2538.35   1 0.85120-0.22387 0.34888-0.76709-0.39208 0.60119
   6  -4  -213150.89 1471.64   1 0.69214-0.06481 0.54368-0.96190-0.47470 0.26559
  -6  -4   3 6612.97 2086.61   1 0.26331-0.89042-0.85066 0.43258 0.45501-0.14145
  -4  -3   611577.32 3308.26   1 0.41587-0.83415-0.81643 0.50272 0.40059 0.22682
  -3  -6   411975.36 3052.53   1 0.67316-0.98687-0.68886 0.06144 0.26892 0.14935
   3  -6   410951.56 1940.76   1 0.98266-0.66896-0.12898-0.49842-0.13314 0.55142
   4  -3   6 8759.51 1682.55   1 0.98340-0.56513-0.07876-0.23494-0.16343 0.79083
   6  -4   3 8015.39 1550.71   1 0.89294-0.26562 0.27473-0.69295-0.35660 0.67026
   6  -4  -314924.27 2329.54   1 0.66759-0.04027 0.56649-0.98471-0.48310 0.16944
  -6  -4   4  384.41  717.12   1 0.27469-0.90180-0.84891 0.43084 0.45153-0.03345
  -4  -4   6 1490.55  882.72   1 0.47271-0.89099-0.79669 0.37841 0.37657 0.25084
  -4  -6   4 1904.56  899.13   1 0.56983-0.98811-0.75282 0.12540 0.32944 0.08883
   4  -4   6 4011.42 1176.11   1 0.98316-0.56489-0.11664-0.30162-0.14065 0.76806
   4  -6   4 3188.75 1691.61   1 0.98261-0.56433-0.05558-0.57182-0.17716 0.59543
   6  -4   4 2523.22 2058.04   1 0.92980-0.30240 0.19171-0.60998-0.31417 0.73244
   6  -4  -4 3426.63 1398.40   1 0.65344-0.02611 0.57903-0.99724-0.48758 0.06936
  -6  -4   5 1479.90 1083.72   1 0.27239-0.89950-0.84928 0.43120 0.45224 0.07035
  -5  -6   4  395.65  710.83   1 0.46128-0.98413-0.80099 0.17357 0.38160 0.03667
  -4  -5   6  875.43  607.71   1 0.50979-0.92806-0.78156 0.25871 0.35954 0.26787
   4  -5   6 1747.05 1269.48   1 0.98062-0.56235-0.15860-0.36423-0.11494 0.74235
   5  -6   4  212.66 1473.38   1 0.97746-0.45462 0.00283-0.63024-0.21110 0.62937
   6  -4   5 1841.99 1269.99   1 0.95891-0.33150 0.10008-0.51835-0.26545 0.78829
  -5   0   6 3629.02 1620.96   1-0.01632-0.50626-0.85540 0.85540 0.51769 0.10941
  -6  -5   0 5282.11 1020.84   1 0.18475-0.81186-0.85926 0.33667 0.47699-0.47699
   0  -6   5 4334.86 1541.00   1 0.88390-0.88390-0.45961-0.16787 0.08641 0.43649
   6  -5   0 7175.51 1880.77   1 0.83859-0.21127 0.36853-0.89130-0.40116 0.40116
  -6  -5  -1 7247.97 1742.33   1 0.09538-0.72250-0.86203 0.33944 0.49778-0.60230
  -5  -1   610561.03 3087.20   1 0.11635-0.63894-0.86204 0.75752 0.49330 0.13381
  -6  -5   1 7565.43 1673.25   1 0.24735-0.87447-0.85289 0.33029 0.45976-0.35525
  -1  -6   5 8471.48 2144.93   1 0.82141-0.92599-0.54926-0.07822 0.15357 0.36933
   1  -6   5 8039.03 1799.83   1 0.92975-0.82516-0.36756-0.25992 0.02137 0.50153
   6  -5   110388.12 2809.87   1 0.86907-0.24175 0.31904-0.84181-0.37804 0.48259
   6  -5  -110728.53 1868.15   1 0.81078-0.18346 0.40854-0.93131-0.41917 0.31462
   5  -1  -611263.96 1794.29   1 0.17395 0.34905 0.82775-0.93235-0.53344-0.09417
  -5  -2   6 1885.11  679.48   1 0.22303-0.74562-0.85581 0.64677 0.46673 0.16038
  -6  -5   2 3292.22 1128.47   1 0.28845-0.91557-0.84663 0.32404 0.44721-0.23817
  -2  -6   5 6004.51 2115.30   1 0.74369-0.95283-0.63149 0.00407 0.21939 0.30345
   2  -6   5 2386.61 1109.25   1 0.95964-0.75047-0.27859-0.34889-0.03839 0.56130
   5  -2   6 3119.00  923.76   1 0.97219-0.44935 0.03802-0.24716-0.23107 0.85848
   6  -5  -2 5488.54 1599.38   1 0.78781-0.16048 0.43869-0.96146-0.43231 0.22320
   5  -2  -6 3774.31 1048.56   1 0.34492 0.17808 0.77053-0.97974-0.53600-0.09161
  -5  -3   6 2926.53 1168.01   1 0.30486-0.82746-0.84366 0.53010 0.44191 0.18519
  -6  -5   3 5572.44 1413.50   1 0.31199-0.93910-0.84228 0.31969 0.43956-0.12600
  -3  -6   5 4393.38 2042.57   1 0.65375-0.96746-0.70249 0.07507 0.28125 0.24159
   3  -6   5 7232.57 1852.66   1 0.97610-0.66240-0.19748-0.42992-0.09066 0.61350
   5  -3   6 6217.60 1465.30   1 0.97828-0.45544-0.00392-0.30978-0.20722 0.83462
   6  -5   3  553.00 1705.68   1 0.92903-0.30162 0.19373-0.71657-0.31521 0.62892
   6  -5  -3 4985.45 1209.40   1 0.77165-0.14433 0.45856-0.98133-0.44075 0.12709
  -6  -5   4  516.31  911.22   1 0.32082-0.94793-0.84050 0.31791 0.43660-0.01852
  -5  -4   6 3516.64  971.34   1 0.36416-0.88701-0.83103 0.41275 0.42043 0.20697
  -4  -6   5 2089.72  875.93   1 0.55528-0.97355-0.76030 0.13288 0.33704 0.18580
   4  -6   5 2250.32 1401.48   1 0.98273-0.56446-0.12752-0.49988-0.13404 0.65688
   5  -4   6 3082.30 1648.04   1 0.98229-0.45945-0.04961-0.36865-0.18067 0.80808
   6  -5   4  592.89 1478.37   1 0.95386-0.32645 0.11892-0.64176-0.27567 0.69394
   6  -5  -4 4216.59 1617.25   1 0.76413-0.13680 0.46747-0.99024-0.44448 0.02626
  -6   0   6 1953.21  996.68   1-0.09896-0.52814-0.84336 0.84336 0.52814 0.09896
  -6  -6   0 2258.96 1023.43   1 0.22813-0.85524-0.85524 0.22813 0.46529-0.46529
   0  -6   6 2162.06 1150.00   1 0.85371-0.85371-0.50649-0.12100 0.12100 0.50649
   6  -6   0 3537.95 1545.06   1 0.89598-0.26865 0.26865-0.89598-0.35361 0.35361
  -6  -1   6 6822.24 2521.85   1 0.01936-0.64647-0.85873 0.75421 0.51206 0.11504
  -6  -6  -1 7263.68 2479.07   1 0.14444-0.77155-0.86142 0.23430 0.48691-0.59143
  -6  -6   1 5479.31 1893.75   1 0.28591-0.91303-0.84707 0.21995 0.44801-0.34350
  -1  -6   6 6773.02 2074.31   1 0.78981-0.89439-0.58566-0.04182 0.18217 0.44531
   1  -6   6 5308.97 1512.75   1 0.90337-0.79878-0.42447-0.20301 0.06116 0.56632
   6  -6   1 7965.04 1742.56   1 0.91619-0.28886 0.22487-0.85219-0.33170 0.43625
   6  -6  -1 8981.99 1484.79   1 0.87779-0.25046 0.30352-0.93084-0.37060 0.26605
   6  -1  -6 6633.19 1395.58   1 0.23509 0.39252 0.81060-0.91520-0.53633-0.09127
  -6  -2   6 2880.83 1381.57   1 0.11826-0.74538-0.86202 0.65298 0.49287 0.13423
  -6  -6   2 3234.70 1221.20   1 0.32329-0.95040-0.83999 0.21287 0.43576-0.22673
  -2  -6   6 1127.84 1036.89   1 0.71304-0.92218-0.65806 0.03064 0.24189 0.38552
   2  -6   6 1684.18  996.82   1 0.93893-0.72976-0.34406-0.28343 0.00531 0.62217
   6  -2   6 1351.99 1373.31   1 0.95939-0.33199 0.09817-0.30731-0.26441 0.89181
   6  -6   2 4375.99 2477.11   1 0.93670-0.30929 0.17297-0.80037-0.30440 0.51354
   6  -6  -2 -276.01 1549.30   1 0.86340-0.23608 0.32878-0.95610-0.38266 0.17355
   6  -2  -6  507.49 1117.56   1 0.37988 0.24772 0.75512-0.96432-0.53430-0.09331
   0  -7   0 1886.56 1034.39   1 0.93037-0.93037-0.36603-0.36603 0.02032-0.02032
   7   0   0 3363.48 1484.50   1 0.36610 0.36610 0.76135-0.76135-0.53506 0.53506
   0  -1   7  -44.91  763.98   1 0.66493-0.66493-0.69474 0.59017 0.27421 0.45777
  -1  -7   0  925.69  674.51   1 0.86061-0.96519-0.49645-0.23562 0.11350-0.11350
   1  -7   0  240.44 1359.25   1 0.96970-0.86512-0.23497-0.49709-0.06671 0.06671
   7   0   1  -76.99 1469.79   1 0.44907 0.28314 0.72046-0.72046-0.52844 0.63305
   7   0  -1  828.94 1581.68   1 0.29685 0.43535 0.78958-0.78958-0.53705 0.43245
   0  -2   7 1097.14  548.64   1 0.74753-0.74753-0.62796 0.41882 0.21645 0.51553
  -2  -7   0 1196.35  895.02   1 0.76244-0.97160-0.61375-0.11831 0.20489-0.20489
   2  -7   0 3702.23 1609.11   1 0.98321-0.77407-0.11494-0.61702-0.14168 0.14168
   7   0   2 -137.95 1289.22   1 0.54302 0.18919 0.66356-0.66356-0.51459 0.72380
   7   0  -2 -392.54 1573.65   1 0.24269 0.48952 0.80821-0.80821-0.53654 0.32734
  -3  -7   0 1187.90  907.07   1 0.64383-0.95754-0.70914-0.02284 0.28737-0.28737
   0  -3   7   21.00  557.62   1 0.78974-0.78974-0.58573 0.27199 0.18223 0.54983
   3  -7   0 -553.95 1385.09   1 0.97935-0.66564-0.01348-0.71848-0.20171 0.20171
   7   0   3 1857.03 1399.41   1 0.64340 0.08847 0.58765-0.58765-0.49059 0.80425
   7   0  -3 1368.95 2039.26   1 0.20401 0.52820 0.81976-0.81976-0.53513 0.22132
  -4  -7   0 1710.98 1046.43   1 0.51449-0.93277-0.77950 0.04751 0.35730-0.35730
   0  -4   7 1082.71  589.74   1 0.81023-0.81023-0.56268 0.14436 0.16402 0.56805
   4  -7   0 4964.12 2436.87   1 0.96665-0.54838 0.06688-0.79885-0.24719 0.24719
   7   0   4 1041.95 1055.04   1 0.74462-0.01275 0.48966-0.48966-0.45359 0.87181
   7   0  -4 2303.75 1502.09   1 0.18059 0.55162 0.82606-0.82606-0.53385 0.11544
  -5  -7   0  710.68  499.02   1 0.38276-0.90561-0.82613 0.09414 0.41351-0.41351
   0  -5   7 -504.91 1119.16   1 0.81762-0.81762-0.55388 0.03097 0.15715 0.57491
   5  -7   0 -404.44 1533.97   1 0.95156-0.42872 0.12697-0.85894-0.28000 0.28000
   7   0  -5 -726.73 1294.85   1 0.17196 0.56025 0.82825-0.82825-0.53331 0.01029
   0  -7  -1 1070.16  679.44   1 0.92555-0.92556-0.37754-0.35452 0.02826-0.13284
   0  -7   1  480.53  993.62   1 0.92866-0.92866-0.37019-0.36187 0.02318 0.08139
   7  -1   0 1004.19 1735.94   1 0.47447 0.25774 0.70626-0.81086-0.52541 0.52541
   7   1   0 -592.18 1328.67   1 0.25887 0.47334 0.80295-0.69835-0.53688 0.53688
  -1  -1   7  300.63  480.79   1 0.53495-0.63952-0.77018 0.66561 0.34732 0.38465
  -1  -7  -1 1417.48  561.66   1 0.84381-0.94839-0.52029-0.21178 0.13139-0.23598
  -1  -7   1  727.32  849.09   1 0.86546-0.97004-0.48917-0.24290 0.10809-0.00351
   1  -7   1 -516.69 1622.83   1 0.96634-0.86176-0.25098-0.48109-0.05639 0.16097
   1  -7  -1  803.37 1257.87   1 0.97016-0.86558-0.23263-0.49943-0.06821-0.03636
   7  -1   1 2976.62 1498.29   1 0.54866 0.18355 0.65974-0.76434-0.51352 0.61812
   7  -1  -1   14.86 1522.77   1 0.41079 0.32141 0.74034-0.84494-0.53210 0.42750
   7   1   1  447.51 1444.77   1 0.34770 0.38451 0.76936-0.66476-0.53589 0.64049
   7   1  -1-1148.29 1561.49   1 0.18696 0.54525 0.82440-0.71980-0.53423 0.42963
  -1  -2   7  593.59  511.81   1 0.63815-0.74272-0.71286 0.50372 0.29082 0.44116
  -2  -7  -1 1406.56  865.31   1 0.72903-0.93817-0.64454-0.08744 0.23036-0.33493
  -2  -7   1 1214.02  766.02   1 0.77794-0.98711-0.59819-0.13387 0.19223-0.08765
   1  -2   7 1224.33  553.47   1 0.84162-0.73704-0.52326 0.31410 0.13365 0.59842
   2  -7   1  864.38 1519.72   1 0.98200-0.77286-0.14075-0.59122-0.12594 0.23051
   2  -7  -1  523.08 1326.04   1 0.98349-0.77436-0.10087-0.63109-0.15018 0.04561
   7  -1   2  216.02 1447.28   1 0.63008 0.10179 0.59879-0.70334-0.49441 0.70351
   7   1   2  111.83 1353.88   1 0.45164 0.28057 0.71906-0.61446-0.52816 0.73736
   7  -1  -2  898.30 1577.21   1 0.35967 0.37254 0.76419-0.86880-0.53538 0.32617
  -7  -1   3 2544.98 1489.41   1-0.09374-0.63788-0.84430 0.73978 0.52759-0.21403
  -3  -7  -1 1666.54  610.68   1 0.59312-0.90683-0.74014 0.00815 0.31684-0.42141
  -3  -7   1 1645.75 1506.94   1 0.67163-0.98534-0.68996-0.04201 0.26991-0.16534
  -1  -3   7 -483.82 1140.35   1 0.69729-0.80186-0.67070 0.35699 0.25285 0.47913
   1  -3   7 1652.26 1077.28   1 0.86585-0.76127-0.48857 0.17483 0.10765 0.62441
   3  -7   1 3055.33 1739.62   1 0.98206-0.66836-0.04591-0.68606-0.18284 0.28741
   3  -7  -1 2144.50 1351.69   1 0.97671-0.66301 0.00853-0.74051-0.21435 0.10979
   7  -1   3 1596.34 1274.71   1 0.71485 0.01702 0.52124-0.62580-0.46613 0.77979
   7   1   3 2178.73 1690.36   1 0.56689 0.16532 0.64705-0.54244-0.50985 0.82366
   7  -1  -3  883.27 1599.86   1 0.32222 0.40999 0.77983-0.88443-0.53668 0.22287
  -7  -1   4 1258.70  919.64   1-0.07153-0.66009-0.84803 0.74352 0.52508-0.10700
  -4  -7  -1 1061.80  627.67   1 0.44970-0.86798-0.80517 0.07318 0.38659-0.49116
  -4  -7   1 1133.73 1382.29   1 0.55369-0.97197-0.76110 0.02911 0.33786-0.23329
  -1  -4   7 2042.90 1177.25   1 0.73016-0.83473-0.64356 0.22528 0.22953 0.50245
   1  -4   7 2698.68  876.03   1 0.87505-0.77047-0.47419 0.05586 0.09705 0.63501
   4  -7   1 3083.38 1609.99   1 0.97340-0.55513 0.03083-0.76281-0.22702 0.33158
   4  -7  -1 2641.96 1406.69   1 0.96060-0.54233 0.09334-0.82532-0.26177 0.15720
   7  -1   4 1789.02 1070.95   1 0.79767-0.06579 0.42604-0.53059-0.42685 0.84506
   7   1   4   62.75  912.36   1 0.68684 0.04503 0.54872-0.44417-0.47659 0.89480
   7  -1  -4 3725.73 1489.79   1 0.29893 0.43328 0.78881-0.89341-0.53704 0.11863
  -7  -1   5 1215.58  569.77   1-0.06418-0.66744-0.84917 0.74465 0.52419-0.00160
  -5  -7   1 3159.81 1429.51   1 0.43088-0.95373-0.81161 0.07962 0.39448-0.28991
  -1  -5   7 2563.34  827.19   1 0.74626-0.85083-0.62913 0.10628 0.21742 0.51456
   1  -5   7 2760.48 1035.01   1 0.87528-0.77070-0.47381-0.04909 0.09677 0.63529
   5  -7   1 2091.00 1753.58   1 0.96153-0.43869 0.08952-0.82150-0.25968 0.36424
   5  -7  -1 2095.51 1589.56   1 0.94273-0.41989 0.15536-0.88733-0.29514 0.19057
   7  -1   5 2807.88  989.03   1 0.87266-0.14078 0.31273-0.41729-0.37503 0.89780
   7  -1  -5 4250.43 2158.51   1 0.28989 0.44231 0.79214-0.89674-0.53709 0.01407
   0  -7  -2   -2.33  841.88   1 0.91037-0.91037-0.41058-0.32148 0.05133-0.26049
   0  -7   2 -242.86 1388.50   1 0.92180-0.92180-0.38613-0.34593 0.03422 0.17494
   7  -2   0 1691.93 1318.06   1 0.57848 0.15373 0.63870-0.84791-0.50735 0.50735
   7   2   0 1629.64 1314.87   1 0.15840 0.57381 0.83155-0.62235-0.53236 0.53236
  -7  -2   1  316.59 1537.06   1-0.08628-0.64534-0.84561 0.63657 0.52678-0.42226
  -2  -1   7 1177.55  793.50   1 0.40911-0.61825-0.81852 0.71395 0.40329 0.32869
  -1  -7   2  441.96  610.89   1 0.86192-0.96650-0.49450-0.23756 0.11205 0.09711
   1  -7   2 -224.76 1637.48   1 0.95994-0.85536-0.27743-0.45463-0.03915 0.24831
   1  -7  -2  652.70  953.96   1 0.96684-0.86225-0.24874-0.48333-0.05784-0.15132
   7  -2   1 1623.53 1612.82   1 0.64174 0.09013 0.58907-0.79817-0.49108 0.59563
   7  -2  -1  258.52 1668.10   1 0.52282 0.20939 0.67684-0.88605-0.51820 0.41360
   7   2   1 1503.51 1295.36   1 0.24987 0.48233 0.80591-0.59670-0.53671 0.64131
  -7  -2   2 -718.40 1655.56   1-0.03309-0.69853-0.85345 0.64441 0.52011-0.31107
  -2  -2   7 1213.10  920.59   1 0.52261-0.73175-0.77587 0.56673 0.35338 0.37860
  -2  -7   2 -574.15 1427.71   1 0.78118-0.99034-0.59484-0.13723 0.18953 0.01963
   2  -2   7 1146.90  440.03   1 0.91206-0.70290-0.40711 0.19794 0.04888 0.68318
   2  -7   2 1490.00 1702.96   1 0.97888-0.76974-0.17584-0.55613-0.10423 0.31337
   2  -7  -2  681.04 1068.18   1 0.98348-0.77434-0.10203-0.62994-0.14949-0.05964
   7  -2   2  589.65 1667.47   1 0.70981 0.02206 0.52634-0.73545-0.46810 0.67721
   7  -2  -2  193.01 1629.40   1 0.47720 0.25501 0.70469-0.91389-0.52505 0.31585
   7   2   2 1339.23 1269.13   1 0.36061 0.37160 0.76378-0.55458-0.53533 0.74454
  -7  -2   3 2466.26  875.37   1 0.00269-0.73433-0.85731 0.64828 0.51477-0.20122
  -2  -3   7  465.15  786.00   1 0.59449-0.80363-0.73936 0.42565 0.31608 0.41590
  -3  -7   2 1782.42  857.82   1 0.68359-0.99730-0.68118-0.05080 0.26208-0.05294
   2  -3   7 1076.70  584.93   1 0.92177-0.71261-0.38620 0.07245 0.03426 0.69780
   3  -7   2 2281.47 1705.29   1 0.98351-0.66981-0.08688-0.64508-0.15858 0.36771
   3  -7  -2 1745.32 1173.28   1 0.97543-0.66173 0.01769-0.74966-0.21957 0.01043
   7  -2   3 -672.29 1489.21   1 0.77886-0.04698 0.44982-0.65893-0.43706 0.75073
   7   2   3 1610.50 1027.79   1 0.48811 0.24409 0.69829-0.48908-0.52357 0.83738
   7  -2  -3  891.38 1563.04   1 0.44323 0.28897 0.72361-0.93281-0.52907 0.21526
  -7  -2   4 1815.74 1327.98   1 0.02259-0.75422-0.85897 0.64993 0.51151-0.09344
  -4  -7   2 -377.73 1369.24   1 0.57459-0.99287-0.75031 0.01832 0.32691-0.11777
  -2  -4   7  668.98  822.93   1 0.63852-0.84766-0.71262 0.29434 0.29060 0.44138
   2  -4   7  761.91  570.93   1 0.92289-0.71373-0.38367-0.03465 0.03251 0.69956
   4  -7   2  909.56 1565.97   1 0.97934-0.56107-0.01339-0.71858-0.20176 0.41090
   4  -7  -2 2639.74 1230.90   1 0.95672-0.53845 0.10847-0.84045-0.27001 0.06088
   7  -2   4 -134.73 1137.10   1 0.84469-0.11281 0.35916-0.56827-0.39685 0.81507
   7  -2  -4 -652.83 1336.81   1 0.42195 0.31026 0.73473-0.94394-0.53115 0.11274
  -7  -3   0-1640.54 1375.48   1-0.06941-0.66221-0.84837 0.53481 0.52483-0.52483
  -3   0   7  804.25  626.44   1 0.13233-0.44589-0.86177 0.86177 0.48972 0.24190
   0  -7   3 1078.80 1051.21   1 0.91011-0.91011-0.41110-0.32096 0.05170 0.26204
   7  -3   0  293.38 1728.54   1 0.67360 0.05827 0.56104-0.87470-0.48113 0.48113
  -7  -3   1 2400.20 1361.17   1 0.00045-0.73208-0.85710 0.54355 0.51513-0.41061
  -3  -1   7  316.93  588.25   1 0.29371-0.60727-0.84571 0.74119 0.44553 0.28609
  -1  -7   3 4169.91 2012.58   1 0.85156-0.95614-0.50954-0.22252 0.12329 0.19045
   1  -7   3 3969.91 1388.46   1 0.94994-0.84535-0.31200-0.42006-0.01627 0.33001
   7  -3   1 1029.60 1574.94   1 0.72535 0.00652 0.51041-0.82407-0.46189 0.56644
   7  -3  -1  599.50 1659.09   1 0.62744 0.10443 0.60096-0.91462-0.49514 0.39058
   7   3   1 1393.02 1530.49   1 0.16075 0.57145 0.83099-0.51719-0.53253 0.63714
  -7  -3   2 1803.72  884.81   1 0.05073-0.78236-0.86071 0.54716 0.50654-0.29750
  -3  -2   7  451.66  497.01   1 0.40772-0.72143-0.81894 0.60980 0.40385 0.32813
  -2  -7   3 -919.81 1479.20   1 0.77505-0.98421-0.60117-0.13090 0.19464 0.11910
   2  -7   3 1083.41 1858.29   1 0.97279-0.76365-0.21833-0.51363-0.07744 0.39115
   7  -3   2 -931.13 1528.91   1 0.77995-0.04807 0.44849-0.76215-0.43650 0.64560
   7  -3  -2 2463.18 1463.91   1 0.58929 0.14292 0.63072-0.94453-0.50489 0.29569
   7   3   2 -170.17 1194.68   1 0.27490 0.45731 0.79749-0.48368-0.53706 0.74626
  -7  -3   3 3884.40 1739.80   1 0.08354-0.81518-0.86186 0.54830 0.50021-0.18665
  -3  -3   7 2604.47  848.35   1 0.48702-0.80073-0.79107 0.47736 0.37013 0.36185
  -3  -7   3 2506.41 1611.62   1 0.68365-0.99736-0.68113-0.05085 0.26203 0.05167
   3  -3   7 2509.86  943.83   1 0.95734-0.64360-0.28706-0.02668-0.03282 0.76489
   3  -7   3 2587.02 1648.99   1 0.98235-0.66864-0.13493-0.59704-0.12951 0.44322
   7  -3   3-1066.35 1465.15   1 0.83428-0.10240 0.37502-0.68868-0.40412 0.71779
   7  -3  -3 3315.06 1384.14   1 0.56071 0.17150 0.65141-0.96521-0.51113 0.19732
   7   3   3 3668.93 1031.25   1 0.41147 0.32074 0.74000-0.42619-0.53205 0.84585
  -7  -3   4 1980.72  835.61   1 0.10080-0.83243-0.86207 0.54852 0.49664-0.07857
  -3  -4   7 1971.47  649.92   1 0.53949-0.85320-0.76803 0.34975 0.34506 0.38692
  -4  -7   3 -111.23 1412.29   1 0.58156-0.99984-0.74655 0.01456 0.32316-0.00945
   3  -4   7 2209.87  798.55   1 0.95444-0.64070-0.29722-0.12110-0.02610 0.75817
   4  -7   3 1399.44 1700.88   1 0.98300-0.56473-0.06463-0.66734-0.17181 0.48552
   7  -3   4 2527.65 1914.16   1 0.88502-0.15314 0.29008-0.60374-0.36410 0.78232
   7  -3  -4 1491.00 1352.27   1 0.54319 0.18902 0.66344-0.97725-0.51456 0.09615
  -7  -4   0  858.48  701.63   1 0.00473-0.73636-0.85750 0.43942 0.51445-0.51445
  -4   0   7-1194.92  892.39   1 0.04049-0.45856-0.86016 0.86016 0.50840 0.22322
   0  -7   4  755.32  752.61   1 0.89341-0.89341-0.44302-0.28904 0.07442 0.34389
   7  -4   0  795.53 1532.72   1 0.75717-0.02529 0.47554-0.89376-0.44782 0.44782
  -7  -4  -1 4783.89 1922.53   1-0.08458-0.64704-0.84590 0.42782 0.52659-0.63110
  -7  -4   1 1854.03  929.06   1 0.07138-0.80301-0.86155 0.44347 0.50262-0.39810
  -4  -1   7 1445.15  834.43   1 0.18647-0.60454-0.85914 0.75462 0.47655 0.25507
  -1  -7   4 2327.40  896.47   1 0.83496-0.93954-0.53209-0.19997 0.14037 0.27795
   1  -7   4 3296.00 1095.76   1 0.93559-0.83101-0.35289-0.37917 0.01133 0.40699
   7  -4   1 3030.02 2360.61   1 0.79748-0.06560 0.42629-0.84450-0.42695 0.53151
   7  -4  -1 3610.08 1524.28   1 0.72094 0.01093 0.51500-0.93321-0.46369 0.35914
  -7  -4   2 -181.39 1356.77   1 0.11827-0.84990-0.86202 0.44394 0.49287-0.28383
  -4  -2   7  842.36 1089.13   1 0.29816-0.71623-0.84491 0.63587 0.44410 0.28752
  -2  -7   4 -780.77 1547.59   1 0.76103-0.97017-0.61517-0.11681 0.20588 0.21239
   2  -7   4  300.70  829.65   1 0.96265-0.75349-0.26675-0.46531-0.04613 0.46446
   7  -4   2-1594.70 1616.42   1 0.83952-0.10764 0.36712-0.78534-0.40052 0.60962
   7  -4  -2  133.11 1486.06   1 0.69090 0.04097 0.54487-0.96308-0.47515 0.26604
   7   4   2 1415.11 1154.41   1 0.19916 0.53305 0.82111-0.40270-0.53489 0.74409
  -7  -4   3 2556.16  999.22   1 0.14802-0.87965-0.86129 0.44321 0.48607-0.17251
  -4  -3   7 1656.77  798.61   1 0.37912-0.79740-0.82712 0.51341 0.41488 0.31710
  -3  -7   4 2214.67  851.01   1 0.67402-0.98773-0.68824-0.04374 0.26836 0.14991
   4  -3   7 2372.72  891.96   1 0.97596-0.55769-0.19847-0.11522-0.09003 0.82201
   3  -7   4 -925.13 1559.01   1 0.97729-0.66359-0.18880-0.54317-0.09612 0.51439
   7  -4   3 3157.54 1487.96   1 0.88072-0.14884 0.29813-0.71635-0.36801 0.68167
   7  -4  -3 3246.26 1357.01   1 0.66884 0.06303 0.56537-0.98359-0.48270 0.16904
  -5   0   7  753.39  690.99   1-0.04331-0.47927-0.85214 0.85214 0.52151 0.21011
  -7  -5   0  969.92  521.87   1 0.06272-0.79435-0.86124 0.33865 0.50429-0.50429
   0  -7   5 -350.82 1457.37   1 0.87122-0.87122-0.48027-0.25180 0.10152 0.42138
   7  -5   0  557.66 1598.30   1 0.82757-0.09569 0.38490-0.90767-0.40861 0.40861
  -7  -5  -1 2416.24 1070.58   1-0.02361-0.70802-0.85458 0.33199 0.51876-0.62328
  -5  -1   7 2719.53 1095.01   1 0.08763-0.61022-0.86193 0.75741 0.49938 0.23224
  -7  -5   1 3184.83  759.37   1 0.12589-0.85752-0.86191 0.33931 0.49117-0.38666
  -1  -7   5 1912.83 1236.08   1 0.81217-0.91675-0.56040-0.17167 0.16223 0.36067
   1  -7   5  941.53 1231.42   1 0.91607-0.81149-0.39869-0.33338 0.04297 0.47993
   7  -5   1 3238.01 1729.59   1 0.85742-0.12554 0.33877-0.86154-0.38736 0.49191
   7  -5  -1 2186.66 1462.02   1 0.80078-0.06890 0.42196-0.94473-0.42507 0.32051
   0  -8   016942.14 6456.40   1 0.90651-0.90651-0.41832-0.41832 0.05680-0.05680
   8   0   018726.04 1660.54   1 0.41841 0.41841 0.73653-0.73653-0.53146 0.53146
  -1  -8   012698.87 3070.17   1 0.83695-0.94153-0.52948-0.30717 0.13838-0.13838
   1  -8   013640.23 2796.76   1 0.95185-0.84726-0.30588-0.53077-0.02035 0.02035
   8   0   118118.39 2248.64   1 0.49035 0.34646 0.69695-0.69695-0.52325 0.62786
   8   0  -115634.31 1709.68   1 0.35801 0.47880 0.76492-0.76492-0.53546 0.43085
  -2  -8   0 8921.74 2174.16   1 0.74468-0.95382-0.63059-0.20596 0.21863-0.21863
   2  -8   010678.57 1751.00   1 0.97566-0.76652-0.20049-0.63604-0.08876 0.08876
   8   0   211213.30 1394.28   1 0.57176 0.26505 0.64357-0.64357-0.50881 0.71802
   8   0  -212930.97 1767.09   1 0.31033 0.52648 0.78448-0.78448-0.53690 0.32770
  -3  -8   0 5075.90 1724.65   1 0.63468-0.94839-0.71510-0.12145 0.29291-0.29291
   0  -3   8 5319.56 2136.90   1 0.72426-0.72426-0.64865 0.33494 0.23385 0.60270
   3  -8   0 2368.37 1560.59   1 0.98338-0.66967-0.10832-0.72822-0.14569 0.14569
   8   0   3 7491.57 1838.13   1 0.65920 0.17723 0.57398-0.57398-0.48579 0.79945
   8   0  -3 6291.27 1408.11   1 0.27584 0.56097 0.79716-0.79716-0.53706 0.22326
   0  -8  -111782.03 4323.77   1 0.89872-0.89872-0.43329-0.40336 0.06745-0.17203
   0  -8   111549.83 2320.04   1 0.90677-0.90677-0.41780-0.41884 0.05643 0.04814
   8  -1   014174.01 1803.52   1 0.51052 0.32629 0.68463-0.78923-0.52022 0.52022
   8   1   017119.19 1826.01   1 0.32774 0.50907 0.77762-0.67302-0.53654 0.53654
  -1  -8  -113258.01 3323.39   1 0.81814-0.92273-0.55325-0.28340 0.15666-0.26125
  -1  -8   115125.20 5265.96   1 0.84371-0.94830-0.52042-0.31622 0.13150-0.02691
   1  -8   114680.81 3565.85   1 0.94911-0.84453-0.31458-0.52207-0.01455 0.11913
   1  -8  -113518.84 4240.84   1 0.95043-0.84585-0.31043-0.52622-0.01732-0.08725
   8  -1   117098.81 2161.81   1 0.57513 0.26168 0.64114-0.74574-0.50808 0.61269
   8  -1  -119421.23 1978.30   1 0.45515 0.38166 0.71714-0.82174-0.52776 0.42316
   8   1   119864.05 1667.47   1 0.40516 0.43165 0.74311-0.63851-0.53255 0.63715
   8   1  -114962.90 1495.20   1 0.26422 0.57260 0.80116-0.69656-0.53695 0.43235
  -2  -8   110301.14 3151.07   1 0.76080-0.96994-0.61539-0.22115 0.20606-0.10149
   2  -8   112681.26 1738.31   1 0.97294-0.76381-0.21746-0.61908-0.07800 0.18257
   2  -8  -110742.72 1644.77   1 0.97640-0.76727-0.19534-0.64119-0.09200-0.01255
   8  -1   211543.16 2033.88   1 0.64644 0.18998 0.58506-0.68962-0.48969 0.69880
   8   1   210554.86 1426.36   1 0.49497 0.34184 0.69418-0.58958-0.52259 0.73179
   8  -1  -213301.64 1772.08   1 0.41062 0.42619 0.74042-0.84503-0.53212 0.32291
   8   1  -210617.50 1484.85   1 0.21511 0.62170 0.81659-0.71199-0.53562 0.32641
  -1  -3   8 8763.41 2938.24   1 0.63271-0.73728-0.71636 0.40265 0.29408 0.54247
  -3  -8   1 9448.09 2886.01   1 0.66150-0.97521-0.69715-0.13940 0.27639-0.17182
   3  -8   111962.10 1810.37   1 0.98253-0.66883-0.13161-0.70492-0.13154 0.23611
   3  -8  -1 9206.58 1698.54   1 0.98353-0.66983-0.09563-0.74090-0.15334 0.04877
   8  -1   312433.24 1881.10   1 0.72163 0.11480 0.51428-0.61884-0.46341 0.77708
   8   1   3 9233.01 1545.95   1 0.59431 0.24250 0.62694-0.52234-0.50371 0.81752
   8  -1  -310669.36 1808.48   1 0.37788 0.45893 0.75604-0.86064-0.53442 0.22061
   8   1  -3 8472.24 1499.78   1 0.18032 0.65649 0.82613-0.72152-0.53384 0.22003
   0  -8   211132.78 3929.63   1 0.90128-0.90128-0.42847-0.40818 0.06401 0.14515
   8  -2   014201.68 1756.12   1 0.60018 0.23664 0.62247-0.83168-0.50230 0.50230
   8   2   012642.74 1433.54   1 0.24249 0.59433 0.80828-0.59907-0.53654 0.53654
  -1  -8   213204.70 2574.11   1 0.84189-0.94647-0.52290-0.31375 0.13337 0.07578
   1  -8   210375.79 1878.31   1 0.94270-0.83812-0.33361-0.50304-0.00176 0.21092
   8  -2   112546.35 2349.41   1 0.65595 0.18048 0.57684-0.78595-0.48680 0.59136
   8  -2  -111423.92 2315.39   1 0.55143 0.28538 0.65784-0.86705-0.51298 0.40838
   8   2   113044.33 1465.59   1 0.32333 0.51348 0.77939-0.57018-0.53665 0.64125
   8   2  -113302.85 1480.48   1 0.17768 0.65913 0.82681-0.61760-0.53367 0.42907
  -8  -2   2 9010.28 1783.62   1-0.12818-0.70796-0.83764 0.62860 0.53095-0.32192
  -2  -8   2 6386.00 1899.26   1 0.76506-0.97422-0.61118-0.22546 0.20278 0.00637
   2  -8   2 5851.95 1457.65   1 0.96788-0.75871-0.24389-0.59276-0.06097 0.27013
   8  -2   2 7471.41 1575.44   1 0.71668 0.11974 0.51937-0.72848-0.46540 0.67451
   8  -2  -2 6743.90 1423.50   1 0.51168 0.32514 0.68391-0.89312-0.52004 0.31083
   8   2   2 8499.67 1253.80   1 0.41956 0.41725 0.73594-0.52674-0.53136 0.74056
  -8  -2   3 5071.43 1466.65   1-0.09407-0.74207-0.84425 0.63521 0.52762-0.21407
  -2  -3   8 5165.98 1717.74   1 0.53405-0.74319-0.77060 0.45689 0.34777 0.48878
  -3  -8   2 5020.03 1698.97   1 0.67349-0.98720-0.68862-0.14793 0.26870-0.05956
   3  -8   2 3145.34 1707.60   1 0.98016-0.66645-0.16363-0.67291-0.11183 0.32097
   8  -2   3 4391.53 1461.45   1 0.77930 0.05712 0.44928-0.65839-0.43683 0.75050
   8   2   3 5518.54 1023.43   1 0.52912 0.30769 0.67276-0.46355-0.51711 0.83092
   8  -2  -3 7269.19 1603.58   1 0.48219 0.35462 0.70178-0.91098-0.52439 0.21058
   0  -8   3 7580.24 1968.37   1 0.89066-0.89066-0.44792-0.38873 0.07795 0.23579
   8  -3   010913.78 2228.11   1 0.68385 0.15257 0.55154-0.86520-0.47763 0.47763
   8   3   0 6579.29 1538.11   1 0.16611 0.67071 0.82970-0.51589-0.53291 0.53291
  -8  -3   115720.65 1998.56   1-0.10124-0.73490-0.84294 0.52939 0.52838-0.42386
  -1  -8   310571.23 2213.93   1 0.83311-0.93769-0.53450-0.30215 0.14221 0.17153
   1  -8   3 8282.40 2668.15   1 0.93247-0.82789-0.36084-0.47581 0.01676 0.29698
   8  -3   114184.96 2571.58   1 0.73043 0.10600 0.50505-0.81871-0.45977 0.56432
   8  -3  -111940.75 2202.30   1 0.64278 0.19364 0.58818-0.90184-0.49078 0.38622
   8   3   112086.47 1463.60   1 0.24848 0.58833 0.80636-0.49255-0.53668 0.64128
  -2  -8   3 3999.96  970.40   1 0.76029-0.96943-0.61588-0.22066 0.20647 0.10723
   2  -8   3 4432.18 1464.41   1 0.95982-0.75065-0.27791-0.55874-0.03884 0.35258
   8  -3   2 7245.32 1712.51   1 0.78028 0.05615 0.44808-0.76174-0.43632 0.64543
   8  -3  -2 6232.83 1609.58   1 0.60919 0.22762 0.61548-0.92929-0.50005 0.29085
   8   3   2 3018.50 1181.15   1 0.34906 0.48775 0.76878-0.45497-0.53584 0.74504
;
_shelx_hkl_checksum              73489
loop_
_space_group_symop_operation_xyz
'x, y, z'
'-y, x, z'
'-x, -y, z'
'y, -x, z'
'x, -y, -z'
'y, x, -z'
'-x, y, -z'
'-y, -x, -z'
'z, x, y'
'-x, z, y'
'-z, -x, y'
'x, -z, y'
'z, -x, -y'
'x, z, -y'
'-z, x, -y'
'-x, -z, -y'
'y, z, x'
'-z, -y, -x'
'-z, y, x'
'z, y, -x'
'z, -y, x'
'y, -z, -x'
'-y, -z, x'
'-y, z, -x'
'-x, -y, -z'
'y, -x, -z'
'x, y, -z'
'-y, x, -z'
'-x, y, z'
'-y, -x, z'
'x, -y, z'
'y, x, z'
'-z, -x, -y'
'x, -z, -y'
'z, x, -y'
'-x, z, -y'
'-z, x, y'
'-x, -z, y'
'z, -x, y'
'x, z, y'
'-y, -z, -x'
'z, y, x'
'z, -y, -x'
'-z, -y, x'
'-z, y, -x'
'-y, z, x'
'y, z, -x'
'y, -z, x'
loop_
_atom_site_label
_atom_site_type_symbol
_atom_site_fract_x
_atom_site_fract_y
_atom_site_fract_z
_atom_site_U_iso_or_equiv
_atom_site_adp_type
_atom_site_occupancy
_atom_site_site_symmetry_order
_atom_site_calc_flag
_atom_site_refinement_flags_posn
_atom_site_refinement_flags_adp
_atom_site_refinement_flags_occupancy
Rb1 Rb 0.0000 0.0000 0.0000 0.0474(16) Uani 1 48 d S T P
Br1 Br 0.5000 0.0000 0.0000 0.124(3) Uani 1 16 d S T P
C1 C 0.5000 0.348(3) 0.348(3) 0.28(3) Uani 0.8889 4 d S T P
loop_
_atom_site_aniso_label
_atom_site_aniso_U_11
_atom_site_aniso_U_22
_atom_site_aniso_U_33
_atom_site_aniso_U_23
_atom_site_aniso_U_13
_atom_site_aniso_U_12
Rb1 0.0474(16) 0.0474(16) 0.0474(16) 0.000 0.000 0.000
Br1 0.046(2) 0.163(3) 0.163(3) 0.000 0.000 0.000
C1 0.24(5) 0.30(3) 0.30(3) -0.20(4) 0.000 0.000
loop_
_atom_type_symbol
_atom_type_description
_atom_type_scat_dispersion_real
_atom_type_scat_dispersion_imag
_atom_type_scat_source
C C 0.0033 0.0016 'International Tables Vol C Tables 4.2.6.8 and 6.1.1.4'
H H 0.0000 0.0000 'International Tables Vol C Tables 4.2.6.8 and 6.1.1.4'
Br Br -0.2901 2.4595 'International Tables Vol C Tables 4.2.6.8 and 6.1.1.4'
N N 0.0061 0.0033 'International Tables Vol C Tables 4.2.6.8 and 6.1.1.4'
Rb Rb -0.9393 2.9676 'International Tables Vol C Tables 4.2.6.8 and 6.1.1.4'
loop_
_geom_angle_atom_site_label_1
_geom_angle_atom_site_label_2
_geom_angle_atom_site_label_3
_geom_angle
_geom_angle_site_symmetry_1
_geom_angle_site_symmetry_3
Br1 Rb1 Br1 90.0 17 .
Br1 Rb1 Br1 90.0 17 1_455
Br1 Rb1 Br1 180.0 . 1_455
Br1 Rb1 Br1 90.0 17 2_545
Br1 Rb1 Br1 90.0 . 2_545
Br1 Rb1 Br1 90.0 1_455 2_545
Br1 Rb1 Br1 90.0 17 2
Br1 Rb1 Br1 90.0 . 2
Br1 Rb1 Br1 90.0 1_455 2
Br1 Rb1 Br1 180.0 2_545 2
Br1 Rb1 Br1 180.0 17 17_554
Br1 Rb1 Br1 90.0 . 17_554
Br1 Rb1 Br1 90.0 1_455 17_554
Br1 Rb1 Br1 90.0 2_545 17_554
Br1 Rb1 Br1 90.0 2 17_554
Rb1 Br1 Rb1 180.0 1_655 .
C1 C1 C1 60.000(1) 19_655 2_655
C1 C1 C1 120.000(3) 19_655 4_565
C1 C1 C1 90.000(3) 2_655 4_565
C1 C1 C1 90.0 19_655 17
C1 C1 C1 120.000(4) 2_655 17
C1 C1 C1 60.000(2) 4_565 17
loop_
_geom_bond_atom_site_label_1
_geom_bond_atom_site_label_2
_geom_bond_distance
_geom_bond_site_symmetry_2
Rb1 Br1 3.3990(10) 17
Rb1 Br1 3.3990(10) .
Rb1 Br1 3.3990(10) 1_455
Rb1 Br1 3.3990(10) 2_545
Rb1 Br1 3.3990(10) 2
Rb1 Br1 3.3990(10) 17_554
Br1 Rb1 3.3990(10) 1_655
C1 C1 1.46(3) 19_655
C1 C1 1.46(3) 2_655
C1 C1 1.46(3) 4_565
C1 C1 1.46(3) 17
