#------------------------------------------------------------------------------
#$Date: 2019-11-26 00:29:25 +0200 (Tue, 26 Nov 2019) $
#$Revision: 242171 $
#$URL: file:///home/coder/svn-repositories/cod/cif/4/13/21/4132126.cif $
#------------------------------------------------------------------------------
#
# This file is available in the Crystallography Open Database (COD),
# http://www.crystallography.net/
#
# All data on this site have been placed in the public domain by the
# contributors.
#
data_4132126
loop_
_publ_author_name
'Cheng, Ruofei'
'Li, Bowen'
'Wu, Jie'
'Zhang, Jie'
'Qiu, Zaozao'
'Tang, Wenjun'
'You, Shu-Li'
'Tang, Yong'
'Xie, Zuowei'
_publ_section_title
;
 Enantioselective Synthesis of Chiral-at-Cage o-Carboranes via
 Pd-Catalyzed Asymmetric B-H Substitution.
;
_journal_issue                   13
_journal_name_full               'Journal of the American Chemical Society'
_journal_page_first              4508
_journal_page_last               4511
_journal_paper_doi               10.1021/jacs.8b01754
_journal_volume                  140
_journal_year                    2018
_chemical_formula_moiety         'C9 H13 B10 I O'
_chemical_formula_sum            'C9 H13 B10 I O'
_chemical_formula_weight         372.19
_space_group_crystal_system      monoclinic
_space_group_IT_number           4
_space_group_name_Hall           'P 2yb'
_space_group_name_H-M_alt        'P 1 21 1'
_atom_sites_solution_hydrogens   geom
_audit_creation_date             2017-11-14
_audit_creation_method
;
Olex2 1.2
(compiled 2017.08.10 svn.r3458 for OlexSys, GUI svn.r5381)
;
_cell_angle_alpha                90
_cell_angle_beta                 106.709(10)
_cell_angle_gamma                90
_cell_formula_units_Z            2
_cell_length_a                   9.104(3)
_cell_length_b                   7.3271(16)
_cell_length_c                   11.901(3)
_cell_measurement_reflns_used    3180
_cell_measurement_temperature    293(2)
_cell_measurement_theta_max      26.96
_cell_measurement_theta_min      2.33
_cell_volume                     760.3(4)
_computing_cell_refinement       'SAINT v8.37A (Bruker, 2015)'
_computing_data_reduction        'SAINT v8.37A (Bruker, 2015)'
_computing_molecular_graphics    'Olex2 (Dolomanov et al., 2009)'
_computing_publication_material  'Olex2 (Dolomanov et al., 2009)'
_computing_structure_refinement  'ShelXL (Sheldrick, 2015)'
_computing_structure_solution    'ShelXT (Sheldrick, 2015)'
_diffrn_ambient_temperature      293.15
_diffrn_measured_fraction_theta_full 0.976
_diffrn_measured_fraction_theta_max 0.978
_diffrn_measurement_device_type  'Bruker APEX-II CCD'
_diffrn_measurement_method       '\f and \w scans'
_diffrn_radiation_type           MoK\a
_diffrn_radiation_wavelength     0.71073
_diffrn_reflns_av_R_equivalents  0.0291
_diffrn_reflns_av_unetI/netI     0.0474
_diffrn_reflns_Laue_measured_fraction_full 0.976
_diffrn_reflns_Laue_measured_fraction_max 0.978
_diffrn_reflns_limit_h_max       11
_diffrn_reflns_limit_h_min       -11
_diffrn_reflns_limit_k_max       7
_diffrn_reflns_limit_k_min       -8
_diffrn_reflns_limit_l_max       14
_diffrn_reflns_limit_l_min       -14
_diffrn_reflns_number            5233
_diffrn_reflns_point_group_measured_fraction_full 0.892
_diffrn_reflns_point_group_measured_fraction_max 0.891
_diffrn_reflns_theta_full        25.242
_diffrn_reflns_theta_max         25.992
_diffrn_reflns_theta_min         2.500
_diffrn_standards_number         0
_exptl_absorpt_coefficient_mu    2.089
_exptl_absorpt_correction_T_max  0.7456
_exptl_absorpt_correction_T_min  0.5848
_exptl_absorpt_correction_type   multi-scan
_exptl_absorpt_process_details
;
SADABS-2016/2 (Bruker,2016/2) was used for absorption correction.
wR2(int) was 0.1297 before and 0.0585 after correction.
The Ratio of minimum to maximum transmission is 0.7843.
The \l/2 correction factor is Not present.
;
_exptl_crystal_colour            colourless
_exptl_crystal_colour_primary    colourless
_exptl_crystal_density_diffrn    1.626
_exptl_crystal_description       block
_exptl_crystal_F_000             356
_exptl_crystal_size_max          0.1
_exptl_crystal_size_mid          0.08
_exptl_crystal_size_min          0.02
_refine_diff_density_max         0.459
_refine_diff_density_min         -0.477
_refine_diff_density_rms         0.069
_refine_ls_abs_structure_details
;
 Flack x determined using 857 quotients [(I+)-(I-)]/[(I+)+(I-)]
 (Parsons and Flack (2004), Acta Cryst. A60, s61).
;
_refine_ls_abs_structure_Flack   -0.01(2)
_refine_ls_extinction_method     none
_refine_ls_goodness_of_fit_ref   1.071
_refine_ls_hydrogen_treatment    constr
_refine_ls_matrix_type           full
_refine_ls_number_parameters     190
_refine_ls_number_reflns         2661
_refine_ls_number_restraints     1
_refine_ls_restrained_S_all      1.071
_refine_ls_R_factor_all          0.0390
_refine_ls_R_factor_gt           0.0335
_refine_ls_shift/su_max          0.000
_refine_ls_shift/su_mean         0.000
_refine_ls_structure_factor_coef Fsqd
_refine_ls_weighting_details
;
 w=1/[\s^2^(Fo^2^)+(0.0278P)^2^+0.2436P]
 where P=(Fo^2^+2Fc^2^)/3
;
_refine_ls_weighting_scheme      calc
_refine_ls_wR_factor_gt          0.0771
_refine_ls_wR_factor_ref         0.0818
_reflns_Friedel_coverage         0.681
_reflns_Friedel_fraction_full    0.793
_reflns_Friedel_fraction_max     0.787
_reflns_number_gt                2385
_reflns_number_total             2661
_reflns_threshold_expression     'I > 2\s(I)'
_cod_data_source_file            ja8b01754_si_002.cif
_cod_data_source_block           (R)-4a
_cod_original_cell_volume        760.4(3)
_cod_database_code               4132126
_shelxl_version_number           2013-2
_shelx_space_group_comment
;
The symmetry employed for this shelxl refinement is uniquely defined
by the following loop, which should always be used as a source of
symmetry information in preference to the above space-group names.
They are only intended as comments.
;
_shelx_estimated_absorpt_t_max   0.959
_shelx_estimated_absorpt_t_min   0.818
_olex2_refinement_description
;
1. Fixed Uiso
 At 1.2 times of:
  All B(H) groups, All C(H) groups
2.a Aromatic/amide H refined with riding coordinates:
 C5(H5), C6(H6), C7(H7), C8(H8)
2.b Boron cage BH refined with riding coordinates:
 C2(H2), B6(H6A), B11(H11), B7(H7A), B3(H3), B5(H5A), B10(H10), B8(H8A), B9(H9)
;
_shelx_res_file
;
TITL mo_d8v17282_0m_d.res in P2(1)
CELL 0.71073 9.1045 7.3271 11.9006 90 106.709 90
ZERR 2 0.0025 0.0016 0.0029 0 0.01 0
LATT -1
SYMM -X,0.5+Y,-Z
SFAC C H B I O
UNIT 18 26 20 2 2

L.S. 4
PLAN  -39 0 0
SIZE 0.02 0.08 0.1
TEMP 20
HTAB
BOND $H
CONF
conf
bond $h
fmap 2
acta
OMIT -3 52
OMIT 0 0 1
OMIT 1 0 0
OMIT 3 4 9
REM <olex2.extras>
REM <HklSrc "%.\\mo_d8v17282_0m.hkl">
REM </olex2.extras>

WGHT    0.027800    0.243600
FVAR       0.81352
I1    4    0.349674    0.144250    0.033706    11.00000    0.09260    0.07960 =
         0.05418   -0.01246    0.03671   -0.00080
O1    5    0.220088    0.916271    0.432753    11.00000    0.10879    0.03737 =
         0.07792   -0.00620    0.02843   -0.00442
C2    1    0.348227    0.683406    0.247681    11.00000    0.06995    0.05818 =
         0.04808    0.00131    0.02531   -0.01245
AFIX 153
H2    2    0.405877    0.816224    0.251867    11.00000   -1.20000
AFIX   0
C1    1    0.234653    0.638500    0.328570    11.00000    0.05394    0.03942 =
         0.04317   -0.00057    0.01601   -0.00544
C3    1    0.219756    0.754870    0.431004    11.00000    0.05529    0.05337 =
         0.05812   -0.00130    0.01397   -0.00314
C4    1    0.207724    0.624224    0.524208    11.00000    0.04690    0.04209 =
         0.04930   -0.00564    0.01581   -0.00248
C5    1    0.191511    0.682364    0.631710    11.00000    0.06104    0.05071 =
         0.06806   -0.01156    0.02624    0.00124
AFIX  43
H5    2    0.179510    0.805435    0.646039    11.00000   -1.20000
AFIX   0
C6    1    0.193716    0.554531    0.714857    11.00000    0.07152    0.07873 =
         0.04981   -0.00518    0.03282    0.00308
AFIX  43
H6    2    0.186399    0.590766    0.787950    11.00000   -1.20000
AFIX   0
C7    1    0.206747    0.370721    0.691972    11.00000    0.05788    0.07950 =
         0.04763    0.00761    0.02374    0.00285
AFIX  43
H7    2    0.206650    0.284938    0.749548    11.00000   -1.20000
AFIX   0
C8    1    0.220003    0.312786    0.583697    11.00000    0.06011    0.04299 =
         0.05207    0.00280    0.02407    0.00341
AFIX  43
H8    2    0.226515    0.189050    0.568384    11.00000   -1.20000
AFIX   0
C9    1    0.223368    0.441267    0.499293    11.00000    0.03977    0.05199 =
         0.03838   -0.00173    0.01439    0.00237
B6    3    0.149909    0.678140    0.182129    11.00000    0.07080    0.05528 =
         0.04672    0.00867    0.01062   -0.00017
AFIX 153
H6A   2    0.077487    0.796100    0.144917    11.00000   -1.20000
AFIX   0
B11   3    0.285518    0.578441    0.116362    11.00000    0.07662    0.06230 =
         0.04130    0.00754    0.02283   -0.00613
AFIX 153
H11   2    0.300064    0.632175    0.033913    11.00000   -1.20000
AFIX   0
B7    3    0.445115    0.494821    0.228122    11.00000    0.05782    0.06437 =
         0.04828   -0.00240    0.02738   -0.01361
AFIX 153
H7A   2    0.561227    0.494500    0.217536    11.00000   -1.20000
AFIX   0
B3    3    0.412438    0.538668    0.364941    11.00000    0.04717    0.06364 =
         0.04022   -0.00454    0.01591   -0.00830
AFIX 153
H3    2    0.507418    0.568845    0.443755    11.00000   -1.20000
AFIX   0
B5    3    0.087819    0.500431    0.258504    11.00000    0.04609    0.04491 =
         0.05006    0.00457    0.01144   -0.00025
AFIX 153
H5A   2   -0.028251    0.503395    0.269127    11.00000   -1.20000
AFIX   0
B10   3    0.117905    0.456747    0.121705    11.00000    0.05756    0.05402 =
         0.04365    0.00496    0.00734   -0.00210
AFIX 153
H10   2    0.022989    0.429881    0.042235    11.00000   -1.20000
AFIX   0
B12   3    0.297694    0.344620    0.151326    11.00000    0.05927    0.05163 =
         0.04328   -0.00160    0.02311    0.00002
B8    3    0.377758    0.318451    0.306335    11.00000    0.05540    0.05580 =
         0.03860    0.00523    0.01953    0.00459
AFIX 153
H8A   2    0.450465    0.202170    0.346407    11.00000   -1.20000
AFIX   0
B4    3    0.244413    0.418730    0.372779    11.00000    0.04582    0.04099 =
         0.03952    0.00094    0.01803   -0.00247
B9    3    0.175898    0.292089    0.240132    11.00000    0.05119    0.04452 =
         0.04368    0.00345    0.02015   -0.00215
AFIX 153
H9    2    0.119223    0.158900    0.237390    11.00000   -1.20000
AFIX   0
HKLF 4

REM  mo_d8v17282_0m_d.res in P2(1)
REM R1 =  0.0335 for    2385 Fo > 4sig(Fo)  and  0.0390 for all    2661 data
REM    190 parameters refined using      1 restraints

END

WGHT      0.0278      0.2436

REM No hydrogen bonds found for HTAB generation

REM Highest difference peak  0.459,  deepest hole -0.477,  1-sigma level  0.069
Q1    1   0.4455  0.0588  0.0575  11.00000  0.05    0.46
Q2    1   0.4472  0.2284  0.0598  11.00000  0.05    0.43
Q3    1   0.4156  0.2458  0.0436  11.00000  0.05    0.43
Q4    1   0.4499  0.1509  0.0944  11.00000  0.05    0.38
Q5    1  -0.1445  0.0558 -0.1228  11.00000  0.05    0.26
Q6    1  -0.1455  0.2266 -0.1227  11.00000  0.05    0.26
Q7    1  -0.0777  0.2951 -0.1873  11.00000  0.05    0.25
Q8    1   0.2169 -0.0346 -0.0675  11.00000  0.05    0.23
Q9    1   0.2017  0.1289 -0.0481  11.00000  0.05    0.22
Q10   1   0.3458  0.6410  0.0637  11.00000  0.05    0.22
Q11   1   0.2170  0.6245  0.8023  11.00000  0.05    0.22
Q12   1   0.1354  0.0810 -0.1318  11.00000  0.05    0.21
Q13   1  -0.1944 -0.0303 -0.1088  11.00000  0.05    0.20
Q14   1   0.2308  0.5475  0.3439  11.00000  0.05    0.20
Q15   1   0.5833  0.2561  0.2819  11.00000  0.05    0.20
Q16   1   0.4666  0.7809  0.3040  11.00000  0.05    0.20
Q17   1   0.4588  0.6462  0.0636  11.00000  0.05    0.19
Q18   1   0.2596  0.6779  0.3737  11.00000  0.05    0.19
Q19   1   0.2798  0.3704  0.3449  11.00000  0.05    0.19
Q20   1   0.5797  0.5186  0.2833  11.00000  0.05    0.19
Q21   1   0.2656  0.9137  0.3445  11.00000  0.05    0.19
Q22   1   0.2497  0.1465  0.3773  11.00000  0.05    0.19
Q23   1   0.3008  0.6243  0.3431  11.00000  0.05    0.19
Q24   1   0.2437  0.7164  0.3574  11.00000  0.05    0.19
Q25   1   0.4466  0.6399  0.4376  11.00000  0.05    0.18
Q26   1  -0.1920  0.3446 -0.1142  11.00000  0.05    0.18
Q27   1   0.2454  0.3111  0.4192  11.00000  0.05    0.18
Q28   1   0.2214  0.4770  0.7782  11.00000  0.05    0.18
Q29   1   0.3347  0.4813  0.3741  11.00000  0.05    0.18
Q30   1   0.1329  0.2041 -0.1166  11.00000  0.05    0.18
Q31   1   0.2966  0.0957  0.8027  11.00000  0.05    0.18
Q32   1  -0.0583 -0.0473 -0.1824  11.00000  0.05    0.17
Q33   1   0.2492  0.9692  0.3990  11.00000  0.05    0.17
Q34   1   0.0309  0.1472 -0.1228  11.00000  0.05    0.17
Q35   1   0.5563  0.8132  0.3277  11.00000  0.05    0.17
Q36   1  -0.2155 -0.1707 -0.1444  11.00000  0.05    0.16
Q37   1   0.4957  0.1900  0.2964  11.00000  0.05    0.16
Q38   1   0.1810  0.6295  0.9000  11.00000  0.05    0.16
Q39   1   0.6007  0.0378  0.1957  11.00000  0.05    0.16
;
_shelx_res_checksum              85431
_shelx_hkl_file
;
   1   0   0  243.58   11.10
  -3   0   0  440.26   21.30
   3   0   0  334.37   18.80
   4   0   0  476.35   23.70
  -4   0   0  442.16   23.80
   5   0   0  489.65   26.00
  -5   0   0  491.65   26.70
   6   0   0  177.38   14.10
   6   0   0  177.68   13.40
  -7   0   0  563.74   34.00
   7   0   0  705.33   38.80
   7   0   0  578.04   32.80
   8   0   0   -0.20    3.60
  -8   0   0    5.20    3.70
   8   0   0    0.00    1.20
  -9   0   0   97.29   17.20
   9   0   0   66.89    9.40
   9   0   0   71.99   10.80
 -10   0   0    0.10    4.50
  10   0   0    1.20    3.50
  11   0   0   -3.30    4.10
   1  -1   0 1660.63   73.09
  -1  -1   0 1655.73   72.39
  -1   1   0 2049.40   73.49
  -2  -1   0 5437.76  216.48
   2  -1   0 5275.47  216.98
  -2   1   0 5349.36  217.18
   3  -1   0  603.34   28.90
  -3  -1   0  619.14   28.60
  -3   1   0  615.34   29.20
  -4  -1   0 1247.48   59.39
   4   1   0 1267.67   58.89
  -4   1   0 1564.24   63.59
   5  -1   0 1194.18   53.59
  -5  -1   0 1168.68   53.59
   5   1   0 1154.88   52.59
  -5   1   0 1102.59   53.89
  -6  -1   0   86.19    8.90
   6  -1   0   83.19    8.60
   6  -1   0   82.49    9.20
   6   1   0   79.49    8.10
  -6   1   0   77.29    8.90
   7  -1   0   38.60    6.30
   7  -1   0   48.70    9.50
  -7  -1   0   41.90    6.40
   7   1   0   26.30    5.60
  -7   1   0   30.20    6.80
   7   1   0   52.89    9.90
   8  -1   0   37.50    7.50
  -8  -1   0   49.80    8.20
   8   1   0   63.79   11.10
   8   1   0   67.89    8.20
  -8   1   0   53.79    8.40
   9  -1   0   43.30   11.30
  -9  -1   0   44.20    8.80
   9  -1   0   45.20    9.50
  -9   1   0   38.00    9.40
   9   1   0   36.60    7.60
 -10  -1   0   -5.10    4.70
 -10   1   0    3.80    5.30
  11  -1   0    3.60    5.50
  11   1   0    6.80    5.30
   1  -2   0 1714.83   70.59
  -1  -2   0 1718.73   69.09
  -1   2   0 1700.13   70.49
   2  -2   0  417.36   21.30
  -2  -2   0  430.86   20.20
  -2   2   0  474.85   21.70
   2   2   0  481.85   19.80
   3  -2   0 2023.90   84.39
  -3  -2   0 1984.50   83.19
   3   2   0 1961.30   82.29
  -3   2   0 1967.40   84.59
   4  -2   0 1165.58   54.49
  -4  -2   0 1237.58   53.89
   4   2   0 1240.98   53.99
  -4   2   0 1183.38   55.09
   4   2   0 1220.48   52.79
   5  -2   0   24.50    5.80
   5  -2   0   22.00    6.00
  -5  -2   0   19.90    4.10
   5   2   0   22.30    3.50
  -5   2   0   13.10    4.30
   5   2   0   19.40    4.50
   6  -2   0  532.05   30.40
  -6  -2   0  471.55   28.10
   6  -2   0  518.35   28.80
   6   2   0  520.35   28.60
  -6   2   0  534.15   30.00
   7  -2   0  159.48   14.70
  -7  -2   0  148.29   13.60
   7  -2   0  162.58   14.00
   7   2   0  157.18   13.50
   7   2   0  171.38   12.90
  -7   2   0  169.58   14.90
   8  -2   0    5.90    3.60
  -8  -2   0   -1.90    2.30
  -8   2   0   -4.20    6.00
   8   2   0    2.30    2.10
  -9  -2   0    7.90    5.20
   9  -2   0   14.80    4.50
  -9   2   0    6.80    4.80
   9   2   0    9.60    3.50
  10  -2   0   17.50    7.10
  10  -2   0    9.70    5.20
 -10  -2   0    6.40    4.40
  10   2   0   17.90    5.10
  11  -2   0    3.80    5.80
  11   2   0    6.30    5.60
   1  -3   0  336.37   15.60
   1  -3   0  343.07   15.50
  -1   3   0  293.77   15.30
   2  -3   0 1737.93   74.09
  -2  -3   0 1755.32   72.09
   2  -3   0 1816.52   74.59
  -2   3   0 1703.03   73.89
  -3  -3   0  764.42   34.10
   3  -3   0  747.23   35.60
   3  -3   0  779.02   36.40
   3   3   0  778.72   33.70
  -3   3   0  755.82   35.80
   3   3   0  744.53   32.60
  -4  -3   0  554.54   27.60
   4  -3   0  584.24   29.20
   4   3   0  574.34   26.20
   4   3   0  561.74   27.30
  -4   3   0  561.74   29.40
  -5  -3   0  344.07   19.70
   5  -3   0  363.46   21.80
   5  -3   0  348.87   20.80
   5   3   0  317.17   19.00
  -5   3   0  319.87   20.70
   5   3   0  339.97   18.00
   6  -3   0    8.30    3.50
  -6  -3   0    9.10    3.40
   6  -3   0   13.80    4.70
   6   3   0    5.20    2.00
  -6   3   0    7.00    3.60
   6   3   0    9.70    3.00
   7  -3   0   -4.00    2.40
  -7  -3   0    1.30    1.80
   7  -3   0    2.20    2.50
  -7   3   0    6.30    3.60
   7   3   0    0.30    1.60
  -8  -3   0   80.99   10.10
   8  -3   0   66.59   10.30
   8  -3   0   77.59    9.80
  -8   3   0   69.09   10.60
   8   3   0   77.39    8.30
  -9  -3   0   16.80    6.10
   9  -3   0    8.70    6.60
   9  -3   0   20.30    6.40
   9   3   0   18.00    5.10
  10  -3   0    4.00    5.70
 -10  -3   0   -3.50    5.20
  10  -3   0    5.90    3.60
  10   3   0    6.20    3.90
   1  -4   0  385.26   17.90
   1  -4   0  365.66   17.80
   2  -4   0  664.83   31.20
   2  -4   0  657.23   31.00
  -2   4   0  682.63   30.60
  -3  -4   0  674.63   30.60
   3  -4   0  673.53   32.90
   3  -4   0  710.03   33.60
  -3   4   0  676.83   32.70
   4  -4   0  147.29   11.80
  -4  -4   0  149.19    9.80
   4  -4   0  143.19   11.10
   4   4   0  151.38    8.10
   4   4   0  137.69    9.00
  -4   4   0  133.69   11.10
   5  -4   0    2.80    2.00
  -5  -4   0    5.40    2.30
   5  -4   0    4.30    2.90
   5   4   0    4.40    1.60
  -5   4   0    4.20    2.70
   5   4   0    4.80    1.90
  -6  -4   0  128.79   11.10
   6  -4   0  130.29   11.80
   6  -4   0  140.79   13.10
   6   4   0  122.69    8.90
  -6   4   0  125.29   12.40
   7  -4   0  104.19   11.10
  -7  -4   0  118.29   11.30
   7   4   0  112.59    9.10
   8  -4   0   16.30    5.10
   8  -4   0   17.40    4.90
  -8  -4   0   17.70    5.80
   8   4   0   16.00    3.90
   9  -4   0   10.50    3.10
  -9  -4   0   19.00    6.40
   9  -4   0   16.80    6.50
   9   4   0    5.70    3.00
  10  -4   0   13.40    5.80
   1  -5   0  580.54   26.20
   1  -5   0  578.84   26.20
   2  -5   0  733.13   33.90
   2  -5   0  718.73   33.50
   3  -5   0   69.89    6.70
   3  -5   0   70.79    7.10
  -3   5   0   65.09    6.20
  -4  -5   0  111.29   11.10
   4  -5   0  104.19    9.40
   4  -5   0  113.29   10.10
  -4   5   0  118.89    9.60
   5  -5   0  191.58   15.00
   5  -5   0  169.28   13.70
  -5  -5   0  197.88   12.80
   5   5   0  185.78    9.90
   6  -5   0   35.10    6.50
  -6  -5   0   28.40    5.30
   6  -5   0   33.00    7.40
   6   5   0   27.90    3.70
   7  -5   0   11.30    3.90
   7  -5   0   13.70    6.40
  -7  -5   0    6.90    3.80
   7   5   0   12.80    3.00
  -8  -5   0    1.20    3.50
   8  -5   0    7.60    3.30
   8  -5   0   17.10    5.60
   8   5   0    4.80    2.70
   9  -5   0    1.70    3.10
  -9  -5   0   -0.80    4.00
   9   5   0   -0.10    3.10
   1  -6   0   90.69    5.80
   1  -6   0   87.49    5.90
   2  -6   0   55.39    5.30
   2  -6   0   49.99    5.30
   3  -6   0  147.79   10.80
   4  -6   0  130.29   11.60
   4  -6   0  143.39   11.40
  -5  -6   0    3.70    2.30
   5  -6   0    2.30    1.90
   5  -6   0    6.70    3.10
  -6  -6   0   33.20    5.40
   6  -6   0   29.10    6.10
   6  -6   0   15.60    5.40
   7  -6   0   33.80    7.10
   7  -6   0   36.70    8.10
  -7  -6   0   50.79    7.40
   7   6   0   34.70    4.10
   8  -6   0    5.90    4.10
  -8  -6   0    4.40    4.00
   8  -6   0    5.70    5.30
   8   6   0    1.60    2.50
   2  -7   0   98.29    7.30
   2  -7   0   98.29    7.30
   3  -7   0    7.80    2.60
   3  -7   0    7.50    2.50
   4  -7   0   14.60    4.20
   4  -7   0   17.00    4.40
   5  -7   0   63.29    7.70
   5  -7   0   73.19    9.00
   6  -7   0    1.60    4.00
  -6  -7   0    9.90    2.90
   6  -7   0    8.60    3.00
   7  -7   0    7.90    3.70
  -7  -7   0    2.70    3.30
   2  -8   0    8.70    2.00
   3  -8   0   15.20    3.30
   3  -8   0   23.80    4.30
   4  -8   0    7.10    3.40
   4  -8   0    4.60    2.60
   5  -8   0    6.70    3.70
   5  -8   0    7.60    3.90
   6  -8   0   -0.10    3.20
   6  -8   0   -8.30    4.40
   3  -9   0    2.90    2.00
   3  -9   0    0.90    1.40
 -11   0   1    4.00    6.10
  11   0  -1    6.70    3.90
  10   0  -1   25.90    7.00
 -10   0   1   45.80    9.90
  -9   0   1   23.40    6.40
   9   0  -1   11.30    5.10
   9   0  -1   18.30    5.70
   8   0  -1    1.50    2.00
  -8   0   1   -2.30    2.60
   7   0  -1   74.89    8.50
   7   0  -1   63.89    8.60
   6   0  -1  542.85   29.00
   6   0  -1  506.25   29.00
  -6   0   1  532.95   29.40
  -5   0   1  930.91   44.70
   5   0  -1  945.51   44.50
  -4   0   1 1717.33   75.39
   4   0  -1 1748.72   75.39
   4   0  -1 1762.72   75.59
   3   0  -1 9999.00  403.56
   2   0  -1  121.29    7.30
   2   0  -1  123.69    7.30
  -2   0   1  124.09    7.40
  -2   0   1  125.29    7.40
   1   0  -1   11.80    1.70
   0   0   1    0.10    0.10
   2   0   1 2207.28   91.39
  -2   0  -1 2225.78   91.79
   3   0   1 2789.52  115.59
  -3   0  -1 2784.42  116.19
  -4   0  -1 3728.23  155.48
  -5   0  -1  247.68   16.60
   5   0   1  264.27   16.10
  -6   0  -1  658.43   38.30
   6   0   1  851.81   40.80
  -7   0  -1    4.40    4.00
   7   0   1    5.60    2.30
   8   0   1   12.70    7.50
   8   0   1    6.50    3.30
  -8   0  -1   16.00    4.80
  -9   0  -1    5.70    4.90
 -10   0  -1    4.30    5.60
  10   0   1    4.80    4.50
  11   0   1    6.00    5.70
  11  -1  -1    7.80    3.80
 -11   1   1    0.40    6.30
  11   1  -1    6.20    4.70
  10  -1  -1   -3.00    2.20
 -10   1   1   -3.40    5.40
  10   1  -1    1.30    3.20
   9  -1  -1   30.00   10.50
   9  -1  -1   25.90    6.40
  -9  -1   1   30.60    7.50
   9   1  -1   21.80    5.70
  -9   1   1   18.20    6.50
   8  -1  -1  133.89   12.90
  -8  -1   1  127.39   13.20
   8  -1  -1  120.09   13.50
   8   1  -1  128.69   12.70
   8   1  -1  112.39   11.50
  -8   1   1  124.29   13.20
  -7  -1   1  116.89   11.10
   7  -1  -1  113.19   10.80
   7   1  -1   92.89   10.20
  -7   1   1  102.69   11.00
   7   1  -1   90.09    9.50
   6  -1  -1  111.99   13.90
   6  -1  -1  156.38   13.70
  -6  -1   1  122.79   10.80
   6   1  -1  112.19   10.40
  -6   1   1  115.09   11.10
   6   1  -1  108.29    9.80
   5  -1  -1 1133.19   53.79
  -5  -1   1 1178.98   53.29
   5  -1  -1 1198.48   53.69
   5   1  -1 1105.69   52.39
   4  -1  -1  637.64   31.90
   4  -1  -1  641.64   32.10
  -4  -1   1  626.54   31.30
  -4   1   1  723.33   32.80
   3  -1  -1   49.70    4.90
  -3  -1   1   58.19    4.90
   3  -1  -1   54.99    5.10
  -3   1   1   49.10    4.90
   3   1  -1   52.59    4.60
   2  -1  -1 2922.91  118.19
   2  -1  -1 2813.12  117.99
  -2  -1   1 2840.02  117.39
  -2  -1   1 2873.91  117.39
  -2   1   1 2916.41  118.09
   2   1  -1 2886.11  117.29
   0  -1   1  369.26   16.30
   0   1   1  410.86   16.50
   0   1  -1  389.96   16.40
  -1   1  -1 4690.43  189.38
   2  -1   1 3615.34  146.69
  -2  -1  -1 3715.23  146.29
  -2   1  -1 3438.96  146.89
   3  -1   1  160.18   10.40
  -3  -1  -1  153.28   10.10
  -3   1  -1  197.68   11.50
  -4  -1  -1   37.70    4.80
   4  -1   1   56.19    6.40
   4   1   1   42.50    4.60
  -4   1  -1   30.60    4.60
   5  -1   1  508.35   27.00
  -5  -1  -1  467.55   26.90
   5   1   1  542.65   26.50
  -6  -1  -1  688.03   36.30
   6  -1   1  679.23   35.40
   6   1   1  710.03   34.90
  -6   1  -1  662.53   36.60
   7  -1   1   36.30    8.30
  -7  -1  -1   42.00    6.70
   7   1   1   36.50    5.60
  -7   1  -1   43.50    9.10
   8  -1   1  178.18   16.40
   8  -1   1  160.18   15.60
  -8  -1  -1  135.79   14.30
   8   1   1  125.09   12.20
  -8   1  -1  142.89   14.90
   9  -1   1    4.90    3.00
   9  -1   1    1.60    5.40
  -9  -1  -1    4.90    4.50
  -9   1  -1   -2.90    4.10
   9   1   1    0.20    2.90
  10  -1   1    6.50    4.30
 -10  -1  -1   -4.00    5.10
 -10   1  -1    4.80    6.30
  10   1   1   10.40    4.50
  11  -1   1    7.00    4.70
  11   1   1   -3.10    4.40
  11  -2  -1    3.30    5.30
  11   2  -1    0.00    3.40
  10  -2  -1   18.30    6.80
 -10  -2   1   10.50    6.40
  10  -2  -1   15.40    4.90
  10   2  -1   20.80    6.80
   9  -2  -1   51.69    8.30
   9  -2  -1   31.40    7.90
  -9  -2   1   41.70    8.50
  -9   2   1   34.70    9.10
   9   2  -1   49.10    7.00
   8  -2  -1    1.40    3.10
  -8  -2   1    3.80    3.00
   8  -2  -1    4.80    2.90
   8   2  -1    4.50    2.30
  -8   2   1    4.30    5.10
  -7  -2   1  246.68   17.60
   7  -2  -1  233.88   18.10
   7  -2  -1  232.78   17.40
   7   2  -1  219.68   16.50
  -7   2   1  219.88   17.90
  -6  -2   1  346.57   21.30
   6  -2  -1  360.86   22.20
   6   2  -1  328.47   20.80
  -6   2   1  375.76   22.90
  -5  -2   1  105.49    9.00
   5  -2  -1   90.89    9.00
   5   2  -1  115.39    8.80
  -5   2   1  108.49    9.70
   5   2  -1  109.79    8.90
   4  -2  -1  407.56   22.60
   4  -2  -1  427.26   23.00
  -4  -2   1  424.86   21.80
   4   2  -1  439.96   21.40
  -4   2   1  428.96   23.00
   4   2  -1  416.26   21.50
   3  -2  -1 2257.17   94.29
  -3  -2   1 2239.08   92.79
   3  -2  -1 2183.18   94.09
   3   2  -1 2293.87   92.39
   3   2  -1 2156.78   93.49
  -3   2   1 2248.58   94.19
   2  -2  -1 1882.01   80.89
   2  -2  -1 1861.81   80.99
  -2  -2   1 1931.21   79.49
   2   2  -1 2001.80   79.29
   2   2  -1 1935.11   79.09
  -2   2   1 2003.60   80.99
   1  -2  -1  725.53   30.90
   1  -2  -1  693.93   30.70
  -1   2   1  718.63   30.80
   0   2   1 4858.61  195.68
   0   2  -1 4881.61  195.38
   1  -2   1 2283.27   93.09
  -1  -2  -1 2258.87   92.09
  -1   2  -1 2295.87   93.39
   1   2   1 2259.87   91.99
  -2  -2  -1  174.78    9.10
   2  -2   1  172.08    9.90
  -2   2  -1  173.38   10.20
   2   2   1  157.68    8.40
  -3  -2  -1 1612.54   68.29
   3  -2   1 1636.74   69.29
  -3   2  -1 1558.64   75.59
   3   2   1 1605.74   67.19
   4  -2   1  791.12   37.50
  -4  -2  -1  762.72   36.80
   4   2   1  805.02   35.60
  -4   2  -1  764.82   38.00
   5  -2   1   81.69    8.10
  -5  -2  -1   70.29    7.60
  -5   2  -1   95.59    9.20
  -6  -2  -1  107.29    9.90
  -6   2  -1  101.99   10.50
   6   2   1   70.59    7.80
  -7  -2  -1  167.98   14.30
   7  -2   1  157.28   13.70
   7   2   1  164.48   14.50
   7   2   1  161.98   12.40
  -7   2  -1  144.59   14.50
  -8  -2  -1   27.60    7.10
   8  -2   1   53.19   12.80
   8  -2   1   56.19    9.00
   8   2   1   38.00    6.20
   9  -2   1    6.20    3.70
  -9  -2  -1    7.60    4.00
   9   2   1    2.10    3.10
  -9   2  -1    3.90    5.30
 -10  -2  -1   20.30    7.00
  10  -2   1   18.60    5.70
  10  -2   1   32.10    7.60
  10   2   1   15.50    6.00
  10  -3  -1   -5.30    5.00
 -10  -3   1   10.70    4.20
  10  -3  -1   -2.40    3.00
  10   3  -1    2.60    3.30
  -9  -3   1   -4.30    2.30
   9  -3  -1   -1.40    2.10
   9   3  -1    0.70    2.50
   8  -3  -1   71.39    9.20
  -8  -3   1   76.69   11.40
   8  -3  -1   79.69   11.30
   8   3  -1   67.89    8.00
  -8   3   1   73.29   10.60
   7  -3  -1   62.99    8.70
   7  -3  -1   68.49    8.50
  -7  -3   1   55.79    7.50
   7   3  -1   51.79    6.40
  -7   3   1   37.40    9.80
  -6  -3   1  230.68   16.70
   6  -3  -1  269.97   18.30
   6  -3  -1  240.98   18.30
   6   3  -1  278.37   17.10
  -6   3   1  253.97   18.40
   6   3  -1  276.07   16.00
  -5  -3   1  553.44   28.70
   5  -3  -1  587.94   30.50
   5  -3  -1  577.94   30.80
   5   3  -1  527.35   28.00
   5   3  -1  591.94   27.60
  -5   3   1  553.74   30.40
  -4  -3   1  330.87   17.40
   4  -3  -1  317.97   19.00
   4  -3  -1  314.47   18.80
  -4   3   1  322.17   18.80
   4   3  -1  319.87   16.20
  -3  -3   1  103.69    6.80
   3  -3  -1  107.19    8.20
   3  -3  -1   98.99    8.00
   3   3  -1  106.19    6.10
  -3   3   1   96.79    7.80
   3   3  -1  104.69    6.30
  -2  -3   1 1850.41   74.59
   2  -3  -1 1761.12   76.89
   2  -3  -1 1842.22   77.09
  -2   3   1 1845.22   76.59
   1  -3  -1 2343.27   93.39
   1  -3  -1 2197.18   93.39
   0  -3  -1  128.49    6.30
  -1  -3  -1 1864.71   76.19
   1  -3   1 1911.41   77.49
  -1   3  -1 1851.41   77.59
   2  -3   1  778.02   35.00
  -2  -3  -1  764.92   32.80
  -2   3  -1  742.23   34.60
   2   3   1  755.62   32.00
  -3  -3  -1  186.28   10.70
   3  -3   1  197.38   11.90
   3   3   1  172.58    9.30
  -3   3  -1  160.88   11.50
   4  -3   1   77.39    7.50
  -4  -3  -1   84.39    7.20
   4   3   1   84.69    6.10
  -4   3  -1   79.39    8.00
  -5  -3  -1  499.75   25.90
   5  -3   1  460.85   26.00
  -5   3  -1  451.45   26.70
   5   3   1  459.95   23.30
  -6  -3  -1   82.19    8.80
   6  -3   1   91.69    9.40
  -6   3  -1   86.59   10.00
   6   3   1   92.39    7.90
   6   3   1  106.79    9.80
  -7  -3  -1    6.30    3.10
   7  -3   1    3.50    1.90
   7  -3   1    1.80    3.00
   7   3   1    3.90    2.00
  -7   3  -1    0.50    3.40
  -8  -3  -1   79.99   10.50
   8  -3   1   95.09   12.30
   8  -3   1   89.39   10.30
   8   3   1   99.19    9.70
   9  -3   1   35.70    8.20
   9  -3   1   47.90   12.80
  -9  -3  -1   31.50    7.10
   9   3   1   28.70    6.00
  10  -3   1   -3.10   14.10
  10  -3   1   -2.10    3.50
  10   3   1   -2.10    3.80
  10  -4  -1    2.90    3.70
 -10  -4   1   -2.00    4.10
   9  -4  -1   10.10    6.90
   9  -4  -1   23.80    6.40
  -9  -4   1   38.80    7.80
   9   4  -1   31.40    5.70
   8  -4  -1    4.00    4.30
  -8  -4   1    4.60    3.60
   8  -4  -1   10.50    3.90
   8   4  -1   10.10    3.20
   7  -4  -1   58.69    9.30
  -7  -4   1   57.89    7.70
   7  -4  -1   57.69    8.10
   7   4  -1   66.09    6.60
   6  -4  -1  206.58   16.00
  -6  -4   1  205.78   14.70
   6  -4  -1  202.98   16.30
  -6   4   1  198.88   16.10
   6   4  -1  211.08   12.60
  -5  -4   1   48.60    5.70
   5  -4  -1   43.30    6.50
   5  -4  -1   48.10    6.70
   5   4  -1   54.59    5.50
   5   4  -1   51.49    4.60
  -5   4   1   62.69   11.90
   4  -4  -1  399.16   23.70
   4  -4  -1  437.56   24.40
  -4  -4   1  422.76   21.80
  -4   4   1  450.65   24.10
   4   4  -1  460.75   20.70
   4   4  -1  458.15   20.40
  -3  -4   1  736.03   31.90
   3  -4  -1  725.73   34.80
   3  -4  -1  710.73   34.80
  -3   4   1  729.03   34.30
   2  -4  -1  339.77   17.80
   1  -4  -1  254.67   12.60
   1  -4  -1  244.68   12.90
   0  -4  -1  955.20   38.50
   0  -4  -1  901.11   39.00
   1  -4   1  986.10   42.90
  -1   4  -1 1028.90   42.80
   2  -4   1   24.70    3.20
  -2  -4  -1   23.50    2.50
  -2   4  -1   26.80    3.50
  -3  -4  -1 1164.28   49.30
   3  -4   1 1143.89   51.09
   3   4   1 1094.29   47.30
  -3   4  -1 1136.49   51.59
   4  -4   1  661.33   34.10
  -4  -4  -1  684.63   32.90
   4   4   1  709.03   32.60
   4   4   1  710.43   30.50
  -4   4  -1  677.93   35.00
   5  -4   1    6.20    3.10
  -5  -4  -1    4.40    2.40
   5  -4   1    5.80    2.70
   5   4   1    3.00    1.50
  -5   4  -1    8.00    3.50
   5   4   1    2.20    1.60
  -6  -4  -1   81.59    8.50
   6  -4   1   63.99    9.30
   6  -4   1   76.89    8.70
   6   4   1   79.19    6.70
  -6   4  -1   74.09    9.10
  -7  -4  -1   20.50    5.90
   7  -4   1   23.80    6.10
   7  -4   1   15.80    4.50
   7   4   1   24.40    4.00
   8  -4   1   15.50    5.60
   8  -4   1   12.90    4.70
  -8  -4  -1    4.70    3.70
   8   4   1   18.10    3.90
  -9  -4  -1    0.90    4.10
   9  -4   1    4.00    4.50
   9   4   1    9.80    3.80
  10  -4   1    1.30    4.00
  -9  -5   1    7.60    4.30
   9  -5  -1    6.10    4.00
   9   5  -1    3.70    3.30
   8  -5  -1   23.80    7.10
   8  -5  -1   10.90    5.00
  -8  -5   1   28.10    5.70
   8   5  -1   19.00    3.90
   7  -5  -1    8.80    4.80
   7  -5  -1    3.30    2.80
  -7  -5   1    5.20    3.60
   7   5  -1    7.50    2.40
   6  -5  -1   16.70    5.40
  -6  -5   1   25.10    4.90
   6  -5  -1   19.20    5.80
   6   5  -1   21.30    3.00
  -5  -5   1  138.29   11.40
   5  -5  -1  137.69   12.30
   5  -5  -1  134.49   11.70
   5   5  -1  126.39    7.20
   5   5  -1  130.29    7.80
   4  -5  -1  307.57   19.20
  -4  -5   1  316.47   16.20
   4  -5  -1  315.97   19.20
   4  -5  -1  306.27   19.20
  -4   5   1  302.27   18.30
   3  -5  -1   45.80    5.40
   3  -5  -1   37.10    5.00
  -3   5   1   37.10    4.70
   2  -5  -1  603.84   29.20
   2  -5  -1  619.24   29.00
   1  -5  -1  734.23   33.00
   1  -5  -1  739.13   32.20
   1  -5   1  204.68   10.60
   1  -5   1  195.18   11.10
   2  -5   1  438.96   21.80
   2  -5   1  435.86   22.60
  -2   5  -1  447.36   21.50
   3  -5   1   83.29    8.20
   3  -5   1   82.19    7.40
  -3   5  -1   85.49    7.50
   4  -5   1   65.09    7.00
   4  -5   1   58.99    7.60
  -4  -5  -1   73.39    6.40
  -4   5  -1   79.39    8.00
  -5  -5  -1  118.89    9.70
   5  -5   1  115.09   10.70
   5  -5   1  118.69   11.70
   5   5   1  117.29    7.40
   6  -5   1   44.60    6.80
  -6  -5  -1   40.60    6.10
   6   5   1   37.30    4.20
   7  -5   1    9.80    3.30
   7  -5   1    2.00    4.10
  -7  -5  -1    1.70    3.50
   7   5   1    7.70    2.60
   8  -5   1   26.00    6.60
   8  -5   1   16.20    5.50
  -8  -5  -1   17.00    5.30
   8  -5   1   16.20    5.60
   8   5   1   22.90    4.70
   9  -5   1    2.00    3.80
  -9  -5  -1    4.40    5.00
   9   5   1   -0.60    4.30
  -8  -6   1   -4.50    3.50
   8  -6  -1    1.90    4.30
   8  -6  -1    4.00    3.00
   8   6  -1   -0.50    2.20
  -7  -6   1    9.00    3.70
   7  -6  -1    7.20    4.10
   6  -6  -1   56.89    8.10
   6  -6  -1   59.29    8.50
  -6  -6   1   52.29    6.30
   5  -6  -1   24.50    5.60
  -5  -6   1   27.00    3.70
   4  -6  -1  133.69   11.20
   4  -6  -1  138.29   11.40
   3  -6  -1  287.77   17.20
   3  -6  -1  283.77   17.00
   2  -6  -1  101.39    7.90
   2  -6  -1  100.89    7.50
   1  -6  -1   15.00    2.50
   1  -6  -1   15.80    2.30
   1  -6   1  241.58   12.60
   1  -6   1  232.88   11.80
   2  -6   1   11.90    3.00
   2  -6   1   10.60    2.40
   3  -6   1  115.09    9.80
   3  -6   1  120.89   10.60
   4  -6   1   90.09    9.30
  -4  -6  -1   93.39    7.40
   4  -6   1   92.19    8.60
   5  -6   1    9.30    3.80
  -5  -6  -1    6.50    2.70
   5  -6   1   10.80    3.20
   6  -6   1   18.40    5.30
  -6  -6  -1   18.00    4.30
   6  -6   1   14.00    5.80
   6   6   1   16.10    2.50
  -7  -6  -1    6.40    3.80
   7  -6   1    9.90    3.60
   7   6   1   16.10    3.30
  -8  -6  -1    5.00    4.10
   8  -6   1    3.30    3.20
   8   6   1    2.60    2.80
   7  -7  -1   -1.30    3.40
  -7  -7   1    4.00    2.90
   7  -7  -1   -1.80    4.70
   6  -7  -1   11.60    4.30
   6  -7  -1    5.50    3.20
   5  -7  -1   38.80    6.20
   5  -7  -1   43.70    7.10
   4  -7  -1   31.60    5.20
   4  -7  -1   41.30    5.80
   3  -7  -1   24.50    4.50
   3  -7  -1   17.00    3.90
   2  -7  -1   43.50    4.30
   2  -7  -1   48.60    5.00
   2  -7   1  107.79    8.00
   2  -7   1   89.69    6.80
   3  -7   1   14.30    3.60
   3  -7   1   13.10    3.20
   4  -7   1   12.60    3.30
   4  -7   1    7.60    3.10
  -5  -7  -1   30.30    4.30
   5  -7   1   26.80    5.80
   5  -7   1   24.60    5.90
   6  -7   1   25.60    5.10
   6  -7   1   43.00    8.70
  -6  -7  -1   14.80    4.30
  -7  -7  -1    6.40    3.60
   7  -7   1   -0.70    2.90
   6  -8  -1   29.10    6.90
   6  -8  -1   19.20    4.60
   5  -8  -1    4.20    3.10
   5  -8  -1    9.70    4.00
   4  -8  -1   27.30    5.40
   4  -8  -1   29.80    5.30
   3  -8  -1   24.60    4.50
   3  -8  -1   29.00    4.20
   2  -8  -1    4.40    1.70
   2  -8  -1    4.90    1.60
   2  -8   1    2.90    1.40
   3  -8   1   37.00    5.50
   3  -8   1   34.10    4.10
   4  -8   1    8.70    2.70
   4  -8   1    4.60    3.40
   5  -8   1    2.40    2.40
   5  -8   1    4.90    4.00
   3  -9   1    0.50    1.50
   3  -9   1    4.10    2.60
  11   0  -2   -2.40    2.90
 -11   0   2   12.50    6.50
 -10   0   2   19.90    6.30
   9   0  -2   28.40    7.10
   9   0  -2   42.80    8.00
  -9   0   2   41.80    8.50
   8   0  -2    5.50    3.50
   8   0  -2    3.00    2.50
   7   0  -2   90.39    9.70
  -7   0   2  103.99   10.70
  -6   0   2  290.77   19.10
   6   0  -2  294.97   18.90
  -5   0   2  455.95   24.90
   5   0  -2  494.15   25.30
   5   0  -2  415.26   30.40
   4   0  -2    3.60    1.50
  -4   0   2   10.70    4.10
  -4   0   2    4.50    1.50
   4   0  -2    3.20    1.40
   3   0  -2 4448.96  181.18
   3   0  -2 4469.55  181.18
  -3   0   2 4224.88  180.98
   2   0  -2 1529.65   73.69
  -2   0   2 1543.25   73.59
   2   0  -2 1997.70   75.19
  -2   0   2 2047.10   75.59
   1   0  -2   44.30    3.00
   0   0   2 1566.04   64.19
   0   0  -2 1573.54   64.19
  -2   0  -2  469.85   23.70
   2   0   2  559.64   24.60
   3   0   2 1165.88   50.59
  -3   0  -2 1150.68   51.39
  -4   0  -2  450.05   25.90
   4   0   2  565.44   27.40
   5   0   2  369.26   20.90
  -5   0  -2  370.66   22.20
   6   0   2  126.39   10.70
  -6   0  -2  127.99   11.90
   7   0   2  419.96   26.10
  -7   0  -2  508.15   33.00
  -8   0  -2   42.10    8.20
   8   0   2   39.10    6.30
   9   0   2   31.60    7.20
  -9   0  -2   32.80    7.90
 -10   0  -2   -1.40    6.50
  10   0   2   -1.20    3.40
 -11  -1   2    1.10    6.50
  11  -1  -2    3.70    3.50
  11   1  -2   11.30    4.70
 -11   1   2   25.10    9.80
 -10  -1   2    4.40    4.90
  10  -1  -2    0.80    6.70
  10  -1  -2    9.50    4.50
  10   1  -2    5.20    3.90
 -10   1   2   10.40    5.40
   9  -1  -2    8.70    3.90
  -9  -1   2   11.90    4.50
   9  -1  -2    5.20    5.00
  -9   1   2   14.40    5.40
   9   1  -2    8.40    3.20
  -8  -1   2  218.28   17.60
   8  -1  -2  214.18   17.00
  -8   1   2  205.38   17.50
   8   1  -2  188.58   15.70
   7  -1  -2  204.88   16.20
  -7  -1   2  197.88   15.70
   7  -1  -2  197.68   15.60
  -7   1   2  199.18   15.90
   7   1  -2  189.38   15.10
   7   1  -2  190.78   14.80
   6  -1  -2   89.49    9.10
  -6  -1   2   87.09    8.90
   6   1  -2   93.69    9.00
   6   1  -2   96.79    9.00
  -5  -1   2 1301.07   59.99
   5  -1  -2 1337.37   60.79
   5   1  -2 1328.07   59.89
   5   1  -2 1357.16   60.09
  -5   1   2 1331.67   60.79
  -4  -1   2 1233.08   54.99
  -4  -1   2 1308.57   55.59
  -4   1   2 1254.97   55.69
   4   1  -2 1169.08   59.59
  -3  -1   2   70.39    5.70
   3  -1  -2   75.79    6.30
  -3  -1   2   75.29    5.90
  -3   1   2   92.39    7.80
   3   1  -2   65.79    5.50
  -2  -1   2 3160.18  126.79
   2  -1  -2 3129.39  127.79
   2  -1  -2 3170.18  127.59
  -2  -1   2 3138.79  126.89
  -2   1   2 3020.70  127.29
   2   1  -2 3038.90  126.49
   0  -1   2  999.90   42.20
   0  -1  -2  995.50   42.40
   0   1  -2 1076.69   42.50
  -1  -1  -2 1049.79   43.60
   1  -1   2 1045.60   43.70
  -1   1  -2 1017.90   44.00
  -2  -1  -2 3720.03  151.58
   2  -1   2 3561.44  151.58
  -2   1  -2 3857.11  152.48
  -3  -1  -2 1588.24   70.39
   3  -1   2 1727.13   70.59
   3   1   2 1616.14   69.39
  -4  -1  -2  339.07   19.30
   4  -1   2  346.27   19.10
   4   1   2  337.57   18.20
  -4   1  -2  350.06   20.10
  -5  -1  -2  494.95   27.60
   5  -1   2  516.45   26.90
  -5   1  -2  511.85   28.30
   5   1   2  491.95   25.90
  -6  -1  -2   76.19    8.60
   6  -1   2   89.59   10.30
  -6   1  -2   66.89    8.70
   6   1   2   79.79    7.80
  -7  -1  -2   10.60    4.30
   7  -1   2   10.10    3.90
  -7   1  -2   19.40    5.30
   7   1   2    7.50    2.90
   8  -1   2   34.80    7.30
  -8  -1  -2   27.10    6.40
  -8   1  -2   35.20    8.80
   8   1   2   22.90    5.10
   9  -1   2   39.00    8.20
   9  -1   2   40.70    9.80
  -9  -1  -2   52.19   10.30
   9   1   2   49.10    8.00
  -9   1  -2   27.70    9.00
  10  -1   2   -1.20    3.90
 -10  -1  -2   15.10    7.20
 -10   1  -2   -1.10    6.20
  11  -2  -2   -3.00    4.50
  11   2  -2    1.50    3.60
  10  -2  -2   19.00    6.60
 -10  -2   2   17.10    6.80
  10   2  -2   11.80    4.80
 -10   2   2   14.00    7.90
   9  -2  -2   41.00    9.60
  -9  -2   2   27.10    7.10
   9  -2  -2   27.90    7.30
   9   2  -2   38.80    8.10
  -9   2   2   20.90    6.90
   8  -2  -2    4.40    3.30
   8  -2  -2    8.20    4.20
  -8  -2   2    7.00    3.70
  -8   2   2    5.20    4.20
   8   2  -2    8.20    3.00
   7  -2  -2  117.19   11.30
  -7  -2   2  101.09   10.50
   7   2  -2  101.89   10.40
   7   2  -2  101.09   10.40
  -7   2   2  105.19   11.40
  -6  -2   2  677.83   34.80
   6  -2  -2  674.83   35.80
   6   2  -2  683.53   34.40
  -6   2   2  659.43   35.60
   5  -2  -2  246.78   16.60
  -5  -2   2  245.88   15.50
   5  -2  -2  288.97   18.80
   5   2  -2  249.28   15.30
   5   2  -2  253.77   15.40
  -5   2   2  235.98   16.20
   4  -2  -2  670.23   33.00
   4  -2  -2  669.93   33.20
  -4  -2   2  645.94   31.60
   4   2  -2  685.53   31.60
  -4   2   2  650.73   32.80
   4   2  -2  701.33   31.50
  -3  -2   2 2089.59   84.59
  -3  -2   2 2065.99   84.79
   3  -2  -2 2037.20   86.29
  -3   2   2 1875.41   85.89
   3   2  -2 2060.89   84.59
   3   2  -2 1959.60   83.89
  -3   2   2 2086.19   86.09
   2  -2  -2  953.00   42.00
  -2  -2   2  975.20   40.70
  -2  -2   2  972.20   40.50
   2  -2  -2  995.30   42.40
   2   2  -2  919.61   39.80
   2   2  -2  934.31   40.60
  -1  -2   2  144.99    6.50
  -1   2   2  122.19    7.40
   1   2  -2  116.89    6.00
   0  -2  -2 2326.77   93.79
   0  -2   2 2309.37   93.59
   0   2   2 2350.86   94.09
   0   2  -2 2242.68   93.79
   1  -2   2 3482.15  142.59
  -1   2  -2 3539.35  143.19
   2  -2   2  116.29    8.00
  -2  -2  -2  130.49    7.80
   2   2   2  134.49    7.30
  -2   2  -2  133.09    8.70
   3  -2   2 1087.79   48.80
  -3  -2  -2 1084.49   48.40
  -3   2  -2 1109.69   49.90
   3   2   2 1105.59   47.20
  -4  -2  -2  860.11   39.80
  -4   2  -2  815.12   40.70
  -5  -2  -2   94.99    9.10
   5  -2   2  115.19   10.70
  -5   2  -2   84.59    9.20
  -6  -2  -2   82.19    8.80
   6  -2   2   83.29    8.50
  -6   2  -2   55.89    8.30
   6   2   2   55.79    6.50
   7  -2   2  110.79   10.80
  -7  -2  -2  103.39   11.00
  -7   2  -2  132.19   15.50
   7   2   2  103.09    9.70
   8  -2   2   11.30    4.00
  -8  -2  -2    9.30    4.60
   8   2   2    5.10    2.70
  -8   2  -2   -1.50    3.60
   9  -2   2    3.10    3.70
  -9  -2  -2   13.70    5.10
   9  -2   2    2.20    5.00
   9   2   2    6.60    3.30
  10  -2   2   -4.40    3.60
  10   2   2    1.40    3.70
  11  -3  -2   -1.00    4.20
  10  -3  -2   19.70    7.10
  10  -3  -2   16.80    6.30
 -10  -3   2    7.40    3.80
  10   3  -2   13.00    4.60
  -9  -3   2   13.80    4.90
   9  -3  -2   21.10    6.10
   9  -3  -2   11.80    5.80
   9   3  -2   23.10    5.20
  -8  -3   2   93.79   11.30
   8  -3  -2  134.19   13.30
  -8   3   2  112.59   12.80
   8   3  -2  126.09   11.20
   7  -3  -2  107.59   11.00
   7  -3  -2   84.89   10.70
  -7  -3   2   93.99    9.80
   7   3  -2   95.99    9.10
  -7   3   2   84.99   11.30
   6  -3  -2   68.89    8.90
   6  -3  -2  102.39   11.50
  -6  -3   2   64.39    7.40
   6   3  -2   68.59    7.30
  -6   3   2   71.39    8.40
   6   3  -2   68.29    7.10
  -5  -3   2  675.53   33.70
   5  -3  -2  709.83   36.00
   5  -3  -2  667.73   35.50
   5   3  -2  692.63   33.10
  -5   3   2  696.83   35.50
   5   3  -2  713.93   33.10
   4  -3  -2 1063.29   50.29
  -4  -3   2 1114.19   48.40
   4  -3  -2 1070.89   50.49
  -4   3   2 1090.39   50.19
   4   3  -2 1104.29   47.70
   4   3  -2 1098.89   47.40
   3  -3  -2  151.88   10.80
   3  -3  -2  164.68   10.90
  -3  -3   2  155.78    9.40
  -3  -3   2  164.08    9.30
   3   3  -2  174.58    9.10
  -3   3   2  161.68   10.60
   3   3  -2  162.48    8.50
   2  -3  -2 1997.80   85.59
   2  -3  -2 2108.49   85.39
  -2   3   2 1995.00   85.49
   1  -3  -2 3042.60  128.39
   1  -3  -2 3135.29  127.99
  -1  -3   2 3196.38  126.39
  -1   3   2 3176.18  128.49
   0  -3   2  283.87   12.20
   0  -3  -2  290.17   12.50
   0   3  -2  229.98   12.50
   0   3   2  260.27   12.70
   1  -3   2  792.52   34.90
   1  -3   2  793.92   34.90
  -1  -3  -2  805.52   34.40
   1   3   2  846.72   34.30
  -1   3  -2  802.72   35.60
   2  -3   2 1155.08   51.49
  -2  -3  -2 1162.38   50.59
   2   3   2 1213.88   49.90
  -2   3  -2 1232.48   52.59
  -3  -3  -2  396.36   19.70
   3  -3   2  376.26   20.20
  -3   3  -2  376.36   21.00
   3   3   2  386.06   18.20
   4  -3   2   40.50    5.20
  -4  -3  -2   39.40    5.10
  -4   3  -2   53.69    6.30
   4   3   2   50.59    4.50
   5  -3   2  569.24   29.70
  -5  -3  -2  519.85   29.20
   5   3   2  566.44   27.10
  -5   3  -2  558.14   31.30
  -6  -3  -2  163.78   13.50
   6  -3   2  156.98   13.10
   6   3   2  176.18   11.60
  -6   3  -2  141.79   17.20
  -7  -3  -2   -0.70    2.10
   7  -3   2    2.40    2.50
  -7   3  -2    0.10    2.60
   7   3   2    1.50    1.80
   8  -3   2    4.90    3.30
   8  -3   2    7.40    4.50
  -8  -3  -2    3.00    3.50
   8   3   2    3.20    2.80
   9  -3   2   22.20    6.40
  -9  -3  -2   31.30    7.70
   9  -3   2   17.50    7.60
   9   3   2    5.10    5.40
  10  -3   2    0.50    3.70
 -10  -4   2    1.50    4.10
  10  -4  -2   12.10    5.90
  10  -4  -2   11.40    7.10
  10   4  -2    2.40    3.50
  -9  -4   2   -0.20    3.30
   9  -4  -2    7.50    4.80
   9  -4  -2    0.10    3.20
   9   4  -2   13.60    4.00
   8  -4  -2    1.30    4.50
   8  -4  -2   11.90    6.40
  -8  -4   2    8.30    4.20
   8   4  -2   10.90    3.30
   7  -4  -2   58.39    8.40
   7  -4  -2   47.30    7.50
  -7  -4   2   48.30    6.80
   7   4  -2   50.89    6.10
   6  -4  -2  199.38   15.90
   6  -4  -2  183.18   15.10
   6  -4  -2  199.08   15.90
  -6  -4   2  207.28   14.10
  -6   4   2  204.68   15.60
   6   4  -2  202.38   12.50
   6   4  -2  185.18   12.80
   5  -4  -2   94.99    9.60
  -5  -4   2  101.09    8.40
   5   4  -2   99.89    7.30
   5   4  -2  103.39    7.30
  -5   4   2   97.49   10.20
   4  -4  -2  182.48   12.80
  -4  -4   2  190.08   10.90
   4  -4  -2  181.68   13.10
   4   4  -2  175.28    9.40
   4   4  -2  187.48    9.70
  -4   4   2  165.58   12.20
   3  -4  -2 1070.99   47.90
   3  -4  -2 1033.30   48.10
   2  -4  -2  555.34   26.80
   2  -4  -2  550.74   26.20
   1  -4  -2   84.79    6.10
   1  -4  -2   80.39    5.60
  -1   4   2   92.79    6.20
   0  -4   2 1672.53   69.89
   0  -4  -2 1735.63   70.29
   0   4   2 1730.23   70.79
  -1  -4  -2  858.91   34.40
   1  -4   2  800.52   34.80
  -1   4  -2  764.32   35.30
   1   4   2  789.52   34.00
  -2  -4  -2   94.09    6.30
   2  -4   2   87.59    6.80
  -2   4  -2   92.39    7.40
   2   4   2  100.99    5.70
  -3  -4  -2  254.47   13.40
   3  -4   2  243.48   14.20
  -3   4  -2  207.88   14.30
   3   4   2  207.58   11.40
   4  -4   2  318.87   19.10
  -4  -4  -2  355.76   19.00
   4   4   2  329.97   16.30
  -4   4  -2  300.37   22.90
  -5  -4  -2  140.39   11.50
   5  -4   2  146.39   11.90
   5   4   2  158.48    9.70
  -5   4  -2  151.18   13.20
  -6  -4  -2   34.00    5.40
   6  -4   2   24.30    5.00
   6   4   2   28.00    3.90
   7  -4   2   58.69    9.90
  -7  -4  -2   70.19    9.50
   7  -4   2   77.19   10.10
   7   4   2   82.49    7.50
   8  -4   2   -3.10    2.40
   8  -4   2   -8.30    4.20
  -8  -4  -2    5.80    3.90
   8   4   2   -1.20    2.10
  -9  -4  -2    0.80    4.80
   9  -4   2    5.30    4.20
   9   4   2    3.40    3.20
  -9  -5   2   11.70    4.50
   9   5  -2   13.40    3.70
  -8  -5   2   16.10    5.20
   8  -5  -2   16.20    4.90
   8  -5  -2   28.50    7.50
   8   5  -2   23.50    4.50
  -7  -5   2   35.10    5.70
   7  -5  -2   28.10    7.50
   7  -5  -2   26.50    5.90
   7   5  -2   29.30    4.10
   6  -5  -2    0.40    2.50
  -6  -5   2   -1.60    1.70
   6   5  -2    2.30    1.60
   5  -5  -2  117.99   11.00
   5  -5  -2  116.79   10.80
  -5  -5   2  108.99    9.70
   4  -5  -2  150.18   11.60
   4  -5  -2  141.49   11.50
   3  -5  -2   32.60    4.80
   3  -5  -2   38.20    4.80
   2  -5  -2  220.08   12.60
   2  -5  -2  214.28   13.20
   1  -5  -2  583.44   27.30
   0  -5  -2  101.09    5.70
   0  -5  -2   91.39    6.20
   1  -5   2  102.89    6.50
  -1  -5  -2  104.19    6.10
  -2  -5  -2  665.63   28.40
   2  -5   2  645.14   29.40
  -2   5  -2  563.64   34.80
   3  -5   2  228.68   13.90
  -3  -5  -2  208.08   12.50
  -3   5  -2  222.28   14.50
  -4  -5  -2   77.79    7.10
   4  -5   2   72.29    7.40
   4   5   2   71.29    5.20
   4   5   2   66.29    6.30
   5  -5   2  132.19   14.60
  -5  -5  -2  138.19   11.10
   5   5   2  136.99    8.60
   6  -5   2   33.80    7.10
   6  -5   2   24.90    5.70
  -6  -5  -2   26.90    5.60
   6   5   2   31.10    3.80
   7  -5   2    4.00    4.10
   7  -5   2    8.20    3.40
  -7  -5  -2    5.20    3.20
   7   5   2    6.70    2.50
   8  -5   2    7.00    3.40
  -8  -5  -2    5.80    4.20
   8  -5   2    1.50    5.20
   8   5   2   11.00    3.70
   9  -5   2    6.20    4.20
   9  -6  -2    3.70    5.20
  -9  -6   2    5.60    4.20
   8  -6  -2   12.20    5.50
   8  -6  -2   -0.40    2.80
  -8  -6   2    8.90    3.60
   8   6  -2    3.40    3.50
   7  -6  -2   30.60    6.90
   7  -6  -2   30.00    7.10
  -7  -6   2   39.00    5.70
   6  -6  -2   55.39    8.40
  -6  -6   2   73.79    6.80
   6  -6  -2   74.39    9.70
   5  -6  -2   11.70    3.60
   5  -6  -2    9.30    3.90
   4  -6  -2   55.39    6.90
   4  -6  -2   56.89    6.90
   3  -6  -2  205.68   13.40
   3  -6  -2  224.88   14.60
   2  -6  -2  145.89    9.50
   2  -6  -2  154.78   10.70
   1  -6  -2   19.40    3.10
   1  -6  -2   18.10    2.50
   0  -6  -2  225.28   11.00
   1  -6   2  273.07   13.70
   1  -6   2  292.77   15.30
   2  -6   2    1.60    1.70
   2  -6   2    1.70    1.40
  -2   6  -2    3.50    1.70
   3  -6   2  117.09   10.40
  -3  -6  -2  123.69    8.30
   3  -6   2  123.69    9.20
   4  -6   2   40.50    6.50
   4  -6   2   47.40    5.80
  -4  -6  -2   52.59    5.60
   5  -6   2   23.20    5.40
  -5  -6  -2   15.40    4.00
   5  -6   2   19.10    5.90
  -6  -6  -2   14.90    4.50
   6  -6   2   12.20    4.40
   6  -6   2    6.00    4.20
   7  -6   2    9.90    5.30
   7  -6   2    4.90    3.90
  -7  -6  -2   14.10    5.00
   7   6   2   10.30    3.60
  -8  -6  -2    4.20    4.60
   8  -6   2    1.40    3.10
   8   6   2    0.70    3.10
   7  -7  -2    3.80    4.00
   7  -7  -2    3.50    5.30
   6  -7  -2   14.50    4.90
   6  -7  -2   14.30    4.30
   5  -7  -2   20.80    4.90
   5  -7  -2   17.40    5.40
   4  -7  -2   70.29    8.10
   4  -7  -2   72.39    7.60
   3  -7  -2    3.90    2.40
   3  -7  -2   11.30    2.70
   2  -7  -2   45.00    5.40
   2  -7  -2   39.40    4.00
   1  -7  -2  117.89    8.00
   1  -7   2   56.99    4.80
   2  -7   2  132.39    9.70
   2  -7   2  121.59    8.20
   3  -7   2   27.50    4.00
   3  -7   2   30.30    5.80
   4  -7   2    7.90    3.10
   4  -7   2   10.10    3.00
   5  -7   2    9.00    3.00
  -5  -7  -2    2.10    2.40
   5  -7   2    5.30    3.40
   6  -7   2    0.00    3.60
  -6  -7  -2    2.90    3.50
  -7  -7  -2   13.90    4.70
   7  -7   2    5.40    3.10
   6  -8  -2   19.40    5.40
   6  -8  -2   24.50    7.00
   5  -8  -2   20.50    4.70
   5  -8  -2   15.30    4.50
   4  -8  -2    2.30    2.60
   4  -8  -2   10.20    3.90
   3  -8  -2   64.39    6.20
   3  -8  -2   72.99    7.30
   2  -8  -2   38.90    4.40
   2  -8  -2   36.20    3.70
   2  -8   2    3.80    1.20
   2  -8   2    0.70    1.90
   3  -8   2    5.00    2.00
   3  -8   2   -1.10    2.50
   4  -8   2   18.90    5.00
   4  -8   2   24.40    5.30
   5  -8   2   -3.00    4.20
   5  -8   2    7.50    3.30
   3  -9  -2   -2.40    1.50
  11   0  -3    1.70    4.30
 -11   0   3   11.40    6.50
 -10   0   3    6.30    4.40
  10   0  -3    1.40    4.20
   9   0  -3   53.99    9.90
  -9   0   3   60.59    8.90
   9   0  -3   61.09    9.20
   8   0  -3   -0.60    2.10
  -8   0   3    4.90    3.00
  -7   0   3  301.57   20.60
   7   0  -3  305.27   20.50
   6   0  -3  601.64   32.00
  -6   0   3  584.04   31.60
   5   0  -3   10.30    2.50
  -5   0   3   21.60    4.50
  -5   0   3   14.70    3.20
   5   0  -3   18.00    4.20
  -4   0   3  251.17   15.40
  -4   0   3  268.17   15.40
   4   0  -3  263.37   15.30
  -3   0   3 1701.63   73.69
   3   0  -3 1750.32   73.39
   3   0  -3 1736.03   73.99
   2   0  -3 2417.56  108.69
   2   0  -3 2899.61  110.99
   1   0  -3    1.40    0.70
  -1   0   3    1.20    0.80
   0   0   3 2833.02  116.79
   0   0  -3 2905.91  116.89
  -1   0  -3 6582.74  266.87
  -2   0  -3  372.16   19.90
   3   0   3 1471.85   65.19
  -3   0  -3 1574.64   66.69
   4   0   3  904.31   42.40
  -4   0  -3  948.01   44.30
   5   0   3  208.68   14.00
   5   0   3  208.28   14.00
   6   0   3   17.60    3.90
   7   0   3   94.29    9.90
  -7   0  -3  100.09   11.60
   8   0   3   21.80    7.90
  -8   0  -3   14.30    5.00
  -9   0  -3   -4.90    4.80
   9   0   3   -2.30    2.80
 -10   0  -3    5.10    8.10
  10   0   3   14.10    6.20
 -11  -1   3   15.50    5.60
  11  -1  -3   10.10    6.90
 -11   1   3   30.00    7.80
  10  -1  -3   22.50    6.60
 -10  -1   3   25.00    9.50
 -10   1   3   19.70    6.60
  10   1  -3   12.60    4.60
  -9  -1   3    7.60    4.20
   9  -1  -3    2.20    3.20
   9   1  -3    9.90    4.10
  -9   1   3    6.40    3.90
   8  -1  -3  159.38   14.70
  -8  -1   3  156.58   14.30
   8  -1  -3  133.69   13.60
   8   1  -3  142.09   13.80
  -8   1   3  166.78   14.90
   8   1  -3  162.78   14.10
  -7  -1   3  356.56   22.30
   7  -1  -3  369.06   23.10
   7  -1  -3  352.76   22.70
  -7   1   3  335.87   22.50
   7   1  -3  322.37   21.50
   7   1  -3  330.47   21.80
  -6  -1   3   18.80    4.60
   6  -1  -3   28.80    6.10
   6  -1  -3   23.50    5.30
   6   1  -3   25.60    5.70
  -6   1   3   15.00    6.40
   6   1  -3   28.80    5.20
  -5  -1   3  969.00   43.70
   5  -1  -3  955.30   44.60
   5   1  -3  908.51   43.00
  -5   1   3  906.31   43.80
  -5   1   3  884.91   44.30
   5   1  -3  881.71   43.30
   4  -1  -3 2596.54  108.89
  -4  -1   3 2597.94  108.69
  -4  -1   3 2514.35  108.09
   4  -1  -3 2623.84  109.59
  -4   1   3 2550.64  108.89
   4   1  -3 2550.64  107.89
  -3  -1   3  406.46   20.70
  -3  -1   3  406.26   20.40
   3  -1  -3  411.36   21.40
   3  -1  -3  418.86   21.00
  -3   1   3  428.96   21.10
  -3   1   3  400.76   21.30
   3   1  -3  457.15   20.50
  -2  -1   3 2025.20   83.89
   2  -1  -3 1991.10   84.09
   2  -1  -3 1966.80   84.49
   2   1  -3 2096.59   83.19
  -2   1   3 2027.00   84.69
   0  -1  -3 1470.05   58.99
   0  -1   3 1521.55   58.89
   0   1   3 1287.27   58.79
   0   1  -3 1396.36   58.99
   1  -1   3  210.98   11.20
  -1  -1  -3  226.48   11.50
  -1   1  -3  225.98   11.80
  -2  -1  -3 1372.26   58.89
  -2   1  -3 1407.16   59.49
   2   1   3 1340.27   57.89
  -3  -1  -3 1523.75   66.59
  -3   1  -3 1576.64   67.39
   3   1   3 1490.35   65.09
   4  -1   3   45.00    5.10
  -4  -1  -3   34.10    4.80
  -4   1  -3   28.10    7.70
   4   1   3   38.40    4.50
   5  -1   3  479.85   25.30
  -5  -1  -3  436.86   26.00
  -5   1  -3  474.75   27.20
   6  -1   3  201.68   15.10
  -6  -1  -3  217.68   16.70
   6   1   3  234.38   15.30
  -7  -1  -3   -1.90    3.40
   7  -1   3    7.90    3.10
  -7   1  -3   13.60    4.90
   7   1   3   17.90    4.90
  -8  -1  -3   30.80    8.70
   8  -1   3   29.40    6.40
   8   1   3   34.50    7.70
  -8   1  -3   27.50    7.80
  -9  -1  -3   23.30    7.40
   9  -1   3   12.60    5.30
  -9   1  -3    4.60    6.30
   9   1   3   15.60    4.60
  10  -1   3   -1.30    3.80
  10   1   3    7.90    4.40
  11  -2  -3    0.20    4.30
  11   2  -3    9.70    4.10
 -10  -2   3   21.00    6.20
  10  -2  -3   18.90    6.50
 -10   2   3   35.60   14.30
  10   2  -3   14.00    4.40
   9  -2  -3   97.69   13.50
  -9  -2   3   64.69    9.50
   9   2  -3   53.59    8.30
  -9   2   3   63.79   12.20
   8  -2  -3    8.60    3.60
  -8  -2   3    5.80    3.00
  -8   2   3    7.50    4.20
   8   2  -3   18.00    5.30
   7  -2  -3  101.89   11.10
   7  -2  -3   92.79   10.40
  -7  -2   3  112.99   10.50
  -7   2   3  108.29   11.10
   7   2  -3   86.69    9.70
   6  -2  -3  398.06   24.40
  -6  -2   3  419.66   23.80
   6  -2  -3  413.36   24.90
   6   2  -3  415.86   23.20
  -6   2   3  408.16   24.50
   5  -2  -3  456.75   25.60
  -5  -2   3  467.85   24.70
  -5  -2   3  465.35   24.20
   5   2  -3  445.26   23.50
   5   2  -3  429.86   23.80
  -5   2   3  451.35   25.10
  -4  -2   3   69.49    6.20
   4  -2  -3   65.99    6.80
   4  -2  -3   78.49    7.00
  -4  -2   3   73.59    6.40
   4   2  -3   59.09    5.50
   4   2  -3   61.89    5.90
  -4   2   3   59.39    6.20
   3  -2  -3 2784.72  119.79
  -3  -2   3 2866.71  118.89
   3  -2  -3 2914.91  120.59
   3   2  -3 2927.21  118.99
   3   2  -3 2975.00  117.99
  -3   2   3 2783.82  120.29
  -2  -2   3 2970.10  123.99
   2  -2  -3 3031.90  125.59
   2   2  -3 3052.09  124.29
   2   2  -3 3090.79  123.19
   1  -2  -3  675.53   29.60
  -1  -2   3  709.93   28.90
   1   2  -3  626.44   28.50
   0  -2   3 2381.66   97.89
   0  -2  -3 2415.56   98.19
   0   2   3 2398.06   98.59
   0   2  -3 2407.36   98.39
   1  -2   3 1562.24   63.39
  -1  -2  -3 1532.45   63.39
  -1   2  -3 1464.05   63.99
   1   2   3 1495.55   63.09
  -2  -2  -3  235.28   13.10
   2  -2   3  234.08   13.00
   2   2   3  249.08   12.40
  -2   2  -3  246.08   14.00
  -3  -2  -3  277.27   15.90
   3  -2   3  283.17   15.80
  -3   2  -3  276.87   16.60
  -4  -2  -3  641.44   34.80
   4  -2   3  843.32   37.70
  -4   2  -3  690.33   36.40
  -5  -2  -3  106.79    9.60
   5  -2   3  110.19    9.50
   5   2   3   92.19    8.00
  -5   2  -3   95.69   10.00
   6  -2   3   42.20    8.40
  -6  -2  -3   31.80    6.20
  -6   2  -3   39.40    7.70
   6   2   3   35.50    5.00
  -7  -2  -3   77.99    9.90
   7  -2   3   76.69    9.10
   7   2   3   71.49    8.00
  -7   2  -3   87.59   12.10
   8  -2   3   14.30    4.90
  -8  -2  -3    7.30    3.80
  -8   2  -3   15.90    5.80
   8   2   3   12.40    3.90
  -9  -2  -3   -1.00    3.90
   9  -2   3    5.50    4.70
   9   2   3    1.20    2.80
  10  -2   3    5.80    4.90
  10   2   3   11.80    4.80
  11  -3  -3    7.70    5.10
  10  -3  -3   -2.30    4.80
 -10  -3   3    4.90    3.60
  10  -3  -3   -3.20    3.80
  10   3  -3    1.60    2.90
   9  -3  -3    3.70    3.10
  -9  -3   3    2.30    3.20
   9   3  -3    2.30    2.30
  -8  -3   3   76.19    9.80
   8  -3  -3  104.09   12.70
   8   3  -3   73.49    8.50
   7  -3  -3  335.57   22.90
  -7  -3   3  321.97   21.20
   7   3  -3  334.97   20.40
   7   3  -3  334.87   29.80
  -7   3   3  335.57   22.80
  -6  -3   3   65.59    7.20
   6  -3  -3   71.59    8.50
   6  -3  -3   64.39    7.90
  -6   3   3   66.59    8.00
   6   3  -3   71.79    7.30
   6   3  -3   71.29    7.20
   5  -3  -3  972.40   46.70
  -5  -3   3  951.70   44.00
   5  -3  -3  931.51   45.90
   5   3  -3  955.90   43.00
  -5   3   3  908.51   45.50
   5   3  -3  969.60   43.80
  -4  -3   3 1328.67   56.79
   4  -3  -3 1311.57   59.59
   4  -3  -3 1314.77   58.99
  -4  -3   3 1270.87   57.09
   4   3  -3 1333.27   56.79
  -4   3   3 1285.27   58.49
  -4   3   3 1284.37   59.49
   3  -3  -3  105.99    9.10
   3  -3  -3  132.99    9.50
  -3  -3   3  128.69    7.90
   3   3  -3  112.09    6.40
   3   3  -3  108.19    7.30
   2  -3  -3  235.88   12.90
   2  -3  -3  213.28   17.50
  -2  -3   3  231.68   12.40
   2   3  -3  242.48   11.60
   2   3  -3  231.98   10.80
   1  -3  -3 1646.34   68.09
  -1  -3   3 1603.34   67.09
  -1   3   3 1619.04   68.99
   1   3  -3 1663.93   66.99
   0  -3  -3 1385.86   56.69
   0  -3   3 1243.08   56.69
   0   3  -3 1345.07   56.79
   0   3   3 1456.75   57.49
   1  -3   3  139.49    7.80
  -1  -3  -3  135.39    7.80
  -1   3  -3  113.09    8.10
   1   3   3  131.19    7.70
   2  -3   3 1925.21   81.19
  -2  -3  -3 1909.31   80.99
  -2   3  -3 1901.31   82.39
   2   3   3 1973.10   80.09
  -3  -3  -3  432.86   23.00
   3  -3   3  434.36   23.10
   3   3   3  481.15   21.80
  -3   3  -3  486.95   25.00
  -4  -3  -3    4.70    2.10
   4  -3   3    4.90    2.30
  -4   3  -3    1.50    2.00
   4   3   3    3.40    1.40
  -5  -3  -3   86.09    8.80
   5  -3   3   95.79    9.10
   5   3   3   97.39    7.80
  -5   3  -3  101.89   10.10
   6  -3   3  109.39   10.20
  -6  -3  -3   89.99   10.00
   6   3   3  102.39    8.50
  -6   3  -3   96.49   11.20
  -7  -3  -3    9.30    3.80
   7  -3   3    0.20    2.10
   7   3   3    3.00    1.70
  -8  -3  -3    2.80    3.30
   8  -3   3   -4.50    2.50
  -9  -3  -3    2.10    5.10
   9  -3   3   -0.90    5.70
   9  -3   3    6.80    3.90
  10  -4  -3   36.50   10.20
 -10  -4   3   13.20    5.10
  10  -4  -3   27.80    8.20
  10   4  -3   12.90    4.70
   9  -4  -3   45.30   10.70
   9  -4  -3   35.90    7.50
  -9  -4   3   32.70    7.10
   9   4  -3   24.60    5.70
   8  -4  -3    8.90    4.50
   8  -4  -3    9.80    5.00
  -8  -4   3    8.70    3.90
   8   4  -3    7.40    3.10
  -7  -4   3   54.19    7.30
   7  -4  -3   63.19    9.10
   7  -4  -3   73.49    9.10
   7   4  -3   68.09    6.90
   6  -4  -3  170.18   14.60
   6  -4  -3  189.98   15.40
  -6  -4   3  183.48   13.20
   6   4  -3  205.68   12.80
   6   4  -3  188.48   12.90
  -6   4   3  217.08   15.70
  -5  -4   3  106.19    8.40
   5  -4  -3  111.29   10.60
   5  -4  -3  112.59   10.30
   5   4  -3  110.59    7.50
  -5   4   3  101.19   11.70
   5   4  -3  115.09    8.50
   4  -4  -3   14.40    3.80
   4  -4  -3   13.00    3.90
   4   4  -3   17.70    2.10
   4   4  -3   19.50    2.60
  -3  -4   3  783.12   33.60
   3  -4  -3  769.02   36.60
   3  -4  -3  778.42   35.90
  -3   4   3  683.63   35.90
   2  -4  -3  741.63   34.60
  -2  -4   3  760.12   32.80
   2  -4  -3  780.72   35.80
  -2   4   3  770.22   35.50
   1  -4  -3   15.90    3.00
  -1  -4   3   14.90    1.80
   1  -4  -3   20.10    2.40
  -1   4   3   13.60    2.90
   0  -4  -3  734.23   31.40
   0  -4   3  719.63   30.90
   0   4   3  713.83   32.00
   0   4  -3  710.33   31.40
   1  -4   3  982.20   43.50
  -1  -4  -3 1000.20   43.60
   1   4   3 1069.59   43.70
  -1   4  -3 1008.90   44.70
  -2  -4  -3   51.99    4.80
   2  -4   3   56.99    5.00
  -2   4  -3   45.80    5.30
   2   4   3   47.60    4.10
   3  -4   3  226.88   13.60
  -3  -4  -3  196.78   12.80
  -3   4  -3  218.38   14.60
   3   4   3  228.68   12.00
   4  -4   3  236.98   15.10
  -4  -4  -3  241.48   15.10
   4   4   3  232.98   12.90
  -4   4  -3  206.58   15.70
  -5  -4  -3   50.19    6.50
   5  -4   3   45.10    6.20
   5   4   3   51.19    5.10
  -5   4  -3   44.70    7.20
  -6  -4  -3    9.30    3.70
   6  -4   3   11.30    3.40
   6   4   3   10.10    2.80
   7  -4   3   44.30    7.40
  -7  -4  -3   44.20    8.40
   7   4   3   45.20    5.70
  -8  -4  -3    3.90    4.40
   8  -4   3    9.80    4.40
   8   4   3   17.90    4.50
   9  -4   3    0.10    3.10
   9   4   3    4.20    4.00
  10  -5  -3   14.60    5.90
   9  -5  -3   -0.50    3.60
  -9  -5   3    2.50    3.40
   9  -5  -3   -0.10    4.50
   9   5  -3   -1.50    2.80
   8  -5  -3   17.10    6.60
   8  -5  -3   30.80    7.50
  -8  -5   3   28.60    6.20
   8   5  -3   26.30    4.90
   7  -5  -3   64.99    9.60
  -7  -5   3   67.39    7.60
   7  -5  -3   51.99    8.20
   7   5  -3   67.29    6.20
   6  -5  -3    0.30    2.40
  -6  -5   3    4.50    2.10
   6   5  -3    1.10    1.60
   5  -5  -3  286.07   19.30
   5  -5  -3  304.67   20.00
   4  -5  -3  141.89   11.50
   4  -5  -3  129.09   10.60
   3  -5  -3   12.70    3.50
   3  -5  -3    8.60    2.60
   2  -5  -3   52.49    5.00
   2  -5  -3   62.19    6.10
   1  -5  -3  746.03   31.80
   1  -5  -3  709.73   33.30
  -1   5   3  696.93   36.30
   0  -5  -3  426.06   19.70
   0  -5   3  423.06   19.10
  -1  -5  -3   54.19    4.50
   1  -5   3   61.19    4.60
  -1   5  -3   52.79    4.90
   1   5   3   51.99    4.20
  -2  -5  -3  436.36   21.30
   2  -5   3  438.66   21.60
  -2   5  -3  427.86   22.70
   2   5   3  444.26   20.30
   3  -5   3  228.08   13.80
  -3  -5  -3  217.18   13.30
   3   5   3  218.98   11.80
  -3   5  -3  225.98   15.00
  -4  -5  -3    2.30    1.60
   4  -5   3    4.20    1.90
  -5  -5  -3   47.30    6.30
   5  -5   3   46.70    6.10
   5   5   3   42.30    4.60
  -6  -5  -3   83.39    9.70
   6  -5   3   81.59    9.30
   6   5   3   77.29    6.80
  -7  -5  -3   -2.00    3.30
   7  -5   3    7.30    3.20
   7   5   3    3.70    2.50
  -8  -5  -3    2.20    4.60
   8  -5   3   17.00    5.60
   8  -5   3   -3.40    6.60
   8   5   3    5.80    3.50
  -9  -6   3   -0.20    4.00
   9  -6  -3    2.80    4.20
  -8  -6   3   -0.50    3.40
   8  -6  -3    0.30    2.60
   8  -6  -3    7.00    4.80
   7  -6  -3   15.50    5.00
   7  -6  -3   14.60    5.90
   6  -6  -3   19.00    5.40
   6  -6  -3   27.70    5.90
   5  -6  -3   93.99   10.00
   5  -6  -3  104.49   10.20
   4  -6  -3   10.00    3.10
   4  -6  -3    0.80    2.10
   3  -6  -3  333.07   18.90
   3  -6  -3  361.26   21.00
   2  -6  -3  225.48   14.30
   1  -6  -3  137.49    9.30
   1  -6  -3  119.49   10.20
   0  -6  -3  165.28    8.70
   0  -6   3  130.19    7.60
   0  -6  -3  154.08    9.50
   1  -6   3  109.69    6.90
  -2  -6  -3   28.10    3.60
  -3  -6  -3   39.50    4.80
   3  -6   3   49.50    5.30
   4  -6   3  126.49   10.50
  -4  -6  -3  148.29   10.80
  -5  -6  -3   34.30    5.40
   5  -6   3   32.50    5.40
   5   6   3   32.00    4.10
   6  -6   3   14.50    3.90
   6  -6   3   13.20    4.80
  -6  -6  -3    4.20    2.80
   6   6   3   11.10    2.90
   7  -6   3   14.50    4.20
  -7  -6  -3    9.20    4.20
   7  -6   3    3.60    6.50
   7  -6   3   15.00    4.30
   8  -7  -3   -1.10    3.90
   7  -7  -3    8.00    5.50
   6  -7  -3    2.50    3.30
   6  -7  -3   -0.80    2.70
   5  -7  -3   12.00    3.80
   5  -7  -3   14.80    4.10
   4  -7  -3   67.89    8.20
   4  -7  -3   64.69    7.20
   3  -7  -3   26.80    4.00
   3  -7  -3   24.00    4.90
   2  -7  -3   84.39    6.20
   2  -7  -3   81.89    7.70
   1  -7  -3  124.79    7.60
   1  -7  -3  129.09    9.10
   0  -7  -3   44.10    4.60
   0  -7  -3   44.80    3.80
   1  -7   3    5.00    1.50
   1  -7   3    8.30    2.50
   2  -7   3   49.90    4.80
   2  -7   3   58.59    6.30
   3  -7   3   48.80    5.40
   3  -7   3   58.29    7.50
  -3  -7  -3   52.69    5.40
   4  -7   3    3.30    1.90
  -4  -7  -3    2.80    2.10
   4  -7   3    0.80    2.80
   5  -7   3   21.50    6.40
   5  -7   3   18.60    4.30
  -5  -7  -3   33.30    5.80
  -6  -7  -3    0.50    3.00
   6  -7   3   -0.30    2.90
   6  -7   3   -3.90    3.80
   6  -8  -3   14.10    4.20
   5  -8  -3   16.80    4.70
   5  -8  -3   25.60    5.70
   4  -8  -3    4.00    2.80
   3  -8  -3   14.90    3.40
   3  -8  -3   16.80    4.10
   2  -8  -3   51.59    6.10
   2  -8  -3   53.79    4.70
   2  -8   3    0.30    2.10
   2  -8   3    3.10    1.30
   3  -8   3   12.10    3.90
   3  -8   3   10.60    2.90
   4  -8   3    1.80    1.70
   4  -8   3    0.00    3.20
   5  -8   3    9.50    4.90
   5  -8   3    4.60    2.30
   3  -9  -3    0.40    1.90
   3  -9  -3   -2.20    1.70
  11   0  -4   -3.30    3.50
 -11   0   4   12.80    5.70
 -10   0   4   15.10    6.00
  10   0  -4   20.30    5.80
   9   0  -4  184.98   17.30
   9   0  -4  193.18   17.00
  -9   0   4  181.18   18.70
   8   0  -4  119.49   12.40
  -8   0   4  110.99   11.70
   8   0  -4  127.99   12.60
   7   0  -4  432.86   26.60
  -7   0   4  435.96   26.40
   7   0  -4  451.95   26.50
   6   0  -4 1144.89   54.39
  -6   0   4 1088.99   53.39
  -6   0   4 1180.08   54.89
   6   0  -4 1114.69   53.39
   5   0  -4  432.76   23.40
  -5   0   4  413.96   23.30
   5   0  -4  424.16   24.10
  -5   0   4  447.86   24.40
  -4   0   4    5.10    2.70
   4   0  -4    2.40    1.50
  -4   0   4    3.50    1.50
   4   0  -4    2.20    1.40
   3   0  -4 2778.42  118.19
  -3   0   4 2877.01  118.29
  -2   0   4 4398.56  177.88
   2   0  -4 4302.27  176.78
  -1   0   4   15.80    2.20
   1   0  -4   16.70    2.00
   0   0   4 1846.52   76.69
   1   0   4 1722.93   82.39
  -1   0  -4 2280.27   85.29
   2   0   4 2002.30   77.99
  -2   0  -4 1635.04   77.19
   3   0   4   57.59    5.40
  -3   0  -4   60.19    6.30
   4   0   4 1156.38   52.09
  -5   0  -4  240.78   17.40
   5   0   4  246.08   15.70
  -6   0  -4   13.50    4.40
   6   0   4   17.90    4.70
  -7   0  -4   73.19   10.10
   7   0   4   74.69    8.50
  -8   0  -4    7.80    5.50
   8   0   4    7.30    3.70
  -9   0  -4    6.50    5.80
   9   0   4   -0.20    2.40
  10   0   4    1.80    4.60
 -11  -1   4   23.70    7.50
  11  -1  -4   13.30    5.80
  11   1  -4   21.10    7.40
 -11   1   4   11.00    6.80
  10  -1  -4   24.10    6.50
 -10  -1   4   26.40    5.90
  10  -1  -4    7.00    6.80
  10   1  -4   18.00    6.10
 -10   1   4   26.30    6.80
  -9  -1   4   11.80    3.90
   9  -1  -4    3.60    4.10
   9  -1  -4    6.00    3.70
   9   1  -4    4.60    3.20
  -9   1   4    6.10    4.60
  -8  -1   4   80.09    9.80
   8  -1  -4   83.19   10.70
   8  -1  -4   79.49   10.50
   8   1  -4   99.59   10.50
   8   1  -4  108.49   11.30
  -8   1   4   93.59   11.10
  -7  -1   4  350.76   22.60
   7  -1  -4  333.47   22.50
   7  -1  -4  341.17   23.20
   7   1  -4  382.76   23.20
   7   1  -4  386.86   22.90
   6  -1  -4  216.68   16.00
  -6  -1   4  216.98   15.70
   6  -1  -4  227.48   15.60
  -6  -1   4  216.18   15.10
   6   1  -4  217.18   14.80
   6   1  -4  212.38   15.30
  -6   1   4  198.88   17.90
  -5  -1   4  750.62   37.00
  -5  -1   4  717.33   36.10
   5  -1  -4  714.63   36.60
  -5   1   4  735.43   36.80
   5   1  -4  795.12   37.30
   5   1  -4  769.92   36.20
  -4  -1   4 2399.26   97.59
   4  -1  -4 2337.07   98.19
   4   1  -4 2188.68   97.89
  -4   1   4 2283.07   97.99
   4   1  -4 2307.87   96.99
  -3  -1   4  501.65   24.30
   3  -1  -4  490.95   24.90
   3  -1  -4  499.55   24.20
   3   1  -4  479.25   23.10
  -3   1   4  489.15   24.90
   2  -1  -4  799.62   33.70
  -2   1   4  698.83   34.10
   2   1  -4  757.82   32.80
  -1  -1   4 3727.73  158.28
   1  -1  -4 3972.80  158.28
   1   1  -4 3979.10  158.18
   0  -1   4 2521.75  103.99
   0  -1  -4 2480.45  104.09
   0   1   4 2502.75  104.29
   0   1  -4 2627.54  104.39
   1  -1   4   41.20    3.80
  -1  -1  -4   45.80    4.30
   1   1   4   47.00    4.00
  -1   1  -4   49.00    4.50
   2  -1   4 1040.70   46.50
  -2  -1  -4 1049.70   47.30
   2   1   4 1058.59   46.20
  -2   1  -4 1113.49   48.10
  -3  -1  -4  664.53   32.60
   3  -1   4  660.53   31.40
   3   1   4  669.13   31.00
   4  -1   4  113.79    9.00
  -4  -1  -4  105.59    9.60
  -4   1  -4  128.59   10.60
   4   1   4  116.69    8.70
   5  -1   4  168.58   17.50
  -5  -1  -4  227.58   19.40
  -5   1  -4  227.38   19.30
   6  -1   4  169.08   13.20
  -6  -1  -4  154.08   14.40
   6   1   4  167.48   12.60
  -6   1  -4  157.28   14.60
   7  -1   4   20.50    5.40
  -7  -1  -4   16.70    5.10
   7   1   4   10.80    3.50
  -7   1  -4   12.90    4.90
   8  -1   4   -1.00    2.30
  -8  -1  -4   -8.80    4.20
   8   1   4    1.80    2.50
  -8   1  -4   -2.90    5.40
   9  -1   4    2.30    3.50
  -9  -1  -4    4.00    6.00
   9   1   4    8.10    4.50
  -9   1  -4    1.60    6.10
  10  -1   4   -5.20    3.80
  10   1   4    3.50    5.70
  11  -2  -4    1.50    4.40
  11   2  -4    0.60    3.60
 -10  -2   4    2.80    4.40
  10  -2  -4    8.60    3.90
  10  -2  -4    7.70    7.60
 -10   2   4   14.80    5.40
  10   2  -4    4.10    3.40
  -9  -2   4   81.89   10.30
   9  -2  -4   74.49   11.40
   9  -2  -4   69.29   10.20
  -9   2   4   88.99   18.70
   9   2  -4   68.59    9.40
  -8  -2   4   50.69    7.80
   8  -2  -4   57.69    8.60
   8  -2  -4   80.09   12.90
  -8   2   4   63.29    9.50
   8   2  -4   57.99    7.70
   7  -2  -4   69.49    9.30
   7  -2  -4   69.19    8.90
  -7  -2   4   67.19    7.90
   7   2  -4   61.69    7.60
  -7   2   4   68.59    8.50
  -6  -2   4  799.62   39.30
   6  -2  -4  760.22   40.10
  -6  -2   4  802.22   40.20
   6  -2  -4  763.72   40.90
  -6   2   4  775.42   41.10
   6   2  -4  833.62   38.90
   5  -2  -4  411.36   24.00
  -5  -2   4  427.36   23.10
  -5  -2   4  421.36   23.60
   5  -2  -4  393.76   27.70
  -5   2   4  458.45   25.30
   5   2  -4  459.95   23.90
   5   2  -4  442.16   22.60
  -5   2   4  435.56   24.10
  -4  -2   4  222.78   13.70
   4  -2  -4  223.88   14.80
   4   2  -4  232.88   13.80
  -4   2   4  210.58   14.50
   4   2  -4  223.48   12.70
   3  -2  -4 1065.19   48.30
  -3  -2   4  972.80   49.99
   3   2  -4 1140.39   46.50
   3   2  -4 1147.69   48.10
  -3   2   4 1085.99   49.20
   2  -2  -4 2487.35   99.79
  -2  -2   4 2434.66   99.19
  -2   2   4 2167.68  100.29
   2   2  -4 2501.85   98.29
   1  -2  -4  758.02   31.40
  -1  -2   4  714.73   31.10
   1   2  -4  653.43   31.20
   0  -2   4 1311.77   55.59
   0  -2  -4 1331.47   55.89
  -1  -2  -4 3037.20  128.49
   1  -2   4 3174.88  128.19
  -1   2  -4 3164.18  129.29
   2  -2   4  248.68   13.90
  -2  -2  -4  262.87   14.40
  -2   2  -4  246.38   14.80
  -3  -2  -4  583.14   29.10
   3   2   4  586.54   27.40
  -3   2  -4  573.34   29.90
  -4  -2  -4  478.75   26.00
   4  -2   4  478.05   25.10
  -4   2  -4  472.15   26.90
   4   2   4  468.95   23.70
  -5  -2  -4   36.90    6.00
   5  -2   4   47.90    6.70
   5   2   4   31.60    4.50
  -5   2  -4   26.50    6.20
  -6  -2  -4    2.10    2.20
   6  -2   4    6.10    3.30
  -6   2  -4   -0.90    2.70
   6   2   4    1.40    1.70
   7  -2   4   91.19   11.50
  -7  -2  -4   62.09    9.10
  -7   2  -4   58.29   10.40
   7   2   4   56.59    7.10
   8  -2   4   41.80    8.20
  -8  -2  -4   44.30    9.40
   8   2   4   49.30    6.80
   9  -2   4   12.20    5.40
  -9  -2  -4   -1.80    5.20
   9   2   4    1.10    3.40
  11  -3  -4   10.00    5.80
 -10  -3   4   13.50    5.10
  10  -3  -4   15.50    7.40
  10  -3  -4    9.80    7.00
  10   3  -4   18.80    5.10
  -9  -3   4    7.30    3.70
   9  -3  -4    7.20    7.10
   9  -3  -4    2.20    3.80
   9   3  -4   -1.20    1.90
   8  -3  -4   77.39   10.70
  -8  -3   4   82.29    9.60
   8  -3  -4   83.69   10.70
  -8   3   4   90.99   11.00
   8   3  -4   85.59    9.10
   7  -3  -4  106.19   11.50
  -7  -3   4  114.79   10.60
   7  -3  -4  105.49   11.30
  -7   3   4  101.69   11.70
   7   3  -4  110.39   10.10
  -6  -3   4   90.89    8.50
   6  -3  -4   92.59   10.00
   6  -3  -4   90.79    9.70
  -6   3   4   88.59    9.30
   6   3  -4  102.39    8.40
   6   3  -4   93.09    8.60
   5  -3  -4   62.19    7.30
   5  -3  -4   49.80    6.30
  -5  -3   4   56.29    5.80
  -5  -3   4   50.89    6.00
  -5   3   4   55.09    6.40
  -5   3   4   49.40    6.80
   5   3  -4   57.49    5.90
   5   3  -4   58.49    5.50
   4  -3  -4 1345.17   59.29
   4  -3  -4 1339.97   60.39
  -4  -3   4 1292.07   57.79
   4   3  -4 1332.47   57.59
  -4   3   4 1246.78   59.69
   3  -3  -4  527.95   27.60
  -3  -3   4  510.35   25.50
   3  -3  -4  552.14   26.90
   3   3  -4  575.44   25.80
   2  -3  -4  474.95   21.90
   2  -3  -4  463.95   22.90
   2   3  -4  420.76   20.00
  -2   3   4  425.06   22.60
   2   3  -4  448.76   21.00
  -1   3   4 1661.53   69.39
   1   3  -4 1581.64   67.29
   0  -3   4  703.03   30.90
   0  -3  -4  698.53   31.20
   0   3  -4  705.93   31.50
  -1  -3  -4   87.99    6.50
   1  -3   4   96.59    6.50
   1   3   4   99.29    6.70
  -1   3  -4   90.79    7.10
   2  -3   4  561.24   26.50
  -2   3  -4  527.45   27.80
   2   3   4  579.84   26.10
  -3  -3  -4  400.36   21.90
   3  -3   4  414.26   21.60
   3   3   4  418.16   20.40
  -3   3  -4  411.76   23.30
  -4  -3  -4   25.80    5.00
   4  -3   4   28.60    4.50
  -4   3  -4   31.00    6.70
   4   3   4   31.20    3.90
  -5  -3  -4   72.79    8.30
   5  -3   4   78.69    8.00
   5   3   4   62.49    6.30
  -5   3  -4   81.89    9.50
   6  -3   4  134.49   11.80
  -6  -3  -4  128.59   12.50
  -6   3  -4  126.59   13.10
  -7  -3  -4    1.70    3.40
   7  -3   4    0.90    2.40
   8  -3   4   29.30    6.70
  -8  -3  -4   16.50    5.80
   9  -3   4   -0.40    3.50
   9   3   4   -4.20    2.70
 -10  -4   4   -0.40    3.90
  10  -4  -4   -1.40    6.30
  10  -4  -4    3.10    4.50
  10   4  -4   -3.90    3.10
  -9  -4   4   54.29    8.30
   9  -4  -4   57.69   10.30
   9  -4  -4   54.19   10.70
   9   4  -4   41.70    7.80
   8  -4  -4   21.10    6.60
  -8  -4   4   42.90    6.40
   8  -4  -4   24.40    6.30
   8   4  -4   24.50    5.00
   7  -4  -4   24.40    6.50
   7  -4  -4   33.70    6.80
  -7  -4   4   43.10    5.60
   7   4  -4   34.80    5.10
  -6  -4   4  306.37   17.90
   6  -4  -4  300.87   21.00
   6  -4  -4  304.37   20.50
  -6   4   4  293.57   19.50
   6   4  -4  280.57   17.30
  -5  -4   4  140.79   11.00
   5  -4  -4  151.08   12.40
   5  -4  -4  159.28   13.20
   5   4  -4  166.38    9.50
   5   4  -4  174.48   10.90
  -4  -4   4   26.10    3.70
   4  -4  -4   23.30    5.20
   4   4  -4   23.20    2.60
  -4   4   4   30.50    4.60
   3  -4  -4  791.52   38.70
  -3  -4   4  769.72   35.60
   3  -4  -4  768.12   37.20
  -3   4   4  837.02   38.70
   3   4  -4  843.62   35.30
   3   4  -4  775.92   33.80
   2  -4  -4  791.62   35.70
   2  -4  -4  793.92   37.20
   2   4  -4  747.23   37.50
   2   4  -4  802.62   33.40
  -2   4   4  801.92   37.10
   1  -4  -4  210.38   10.80
  -1  -4   4  188.38   10.00
  -1   4   4  178.98   11.50
   1   4  -4  183.98    9.90
   0  -4  -4  295.37   15.00
   0  -4   4  284.47   14.50
   0   4  -4  323.57   15.50
   0   4   4  291.57   15.80
  -1  -4  -4  925.91   40.80
   1  -4   4  929.01   40.40
  -1   4  -4  915.71   41.80
  -2  -4  -4  184.18   11.30
   2  -4   4  175.98   10.90
  -2   4  -4  180.08   12.40
   2   4   4  173.38   10.50
  -3  -4  -4  172.68   12.10
   3   4   4  177.88   10.70
  -3   4  -4  184.08   13.40
  -4  -4  -4  212.58   15.00
   4  -4   4  229.88   14.80
  -4   4  -4  216.68   16.40
   4   4   4  230.58   13.20
  -5  -4  -4   58.79    7.60
   5  -4   4   61.99    7.40
   5   4   4   62.39    6.00
   6  -4   4    2.20    2.40
  -6  -4  -4    1.40    2.50
   6   4   4    4.30    2.20
  -7  -4  -4   20.80    6.10
   7  -4   4   20.40    5.80
   7   4   4   15.30    3.80
   8  -4   4   14.50    5.10
  -8  -4  -4   18.90    5.90
   8   4   4   16.60    4.40
  10  -5  -4   14.00    5.90
   9  -5  -4    9.90    5.40
  -9  -5   4    2.20    4.00
   9  -5  -4    7.80    4.90
   9   5  -4    3.70    3.90
  -8  -5   4   51.69    7.10
   8  -5  -4   38.10    8.90
   8  -5  -4   34.20    8.10
   8   5  -4   35.90    6.30
   7  -5  -4   41.40    7.80
   7  -5  -4   47.20    7.40
   7   5  -4   37.50    4.80
   6  -5  -4   44.90    8.30
   6  -5  -4   35.40    8.80
   6   5  -4   44.20    4.80
   5  -5  -4   81.39    9.10
   5  -5  -4   74.59    8.30
   5   5  -4   77.19    5.70
   4  -5  -4  626.84   33.60
  -4  -5   4  629.84   29.80
   4  -5  -4  644.74   32.40
   3  -5  -4  160.38   11.10
   3  -5  -4  159.98   12.20
  -3  -5   4  170.58    9.70
  -3   5   4  159.48   11.90
  -2  -5   4  124.59    7.50
   2  -5  -4  143.99   10.20
   2  -5  -4  130.99    8.70
  -2   5   4  119.19    9.50
   1  -5  -4  497.15   22.80
  -1  -5   4  488.35   21.90
   1  -5  -4  479.35   24.40
  -1   5   4  472.15   24.00
   0  -5  -4  127.09    8.00
   0  -5   4  120.89    7.40
   0   5  -4  121.79    7.60
   1  -5   4    5.10    1.60
  -1  -5  -4    6.70    2.00
   1   5   4    8.20    2.10
  -1   5  -4    7.00    2.00
  -2  -5  -4   38.50    4.40
   2  -5   4   29.00    3.70
   2   5   4   29.50    3.60
  -2   5  -4   34.80    5.00
  -3  -5  -4  300.27   17.40
   3  -5   4  301.97   17.00
   3   5   4  277.77   15.40
  -4  -5  -4   29.40    4.70
   4  -5   4   21.20    4.40
   4   5   4   23.50    3.50
  -5  -5  -4   63.99    8.00
   5  -5   4   67.19    7.80
   6  -5   4   21.90    5.20
  -6  -5  -4   25.40    5.70
   6   5   4   28.70    4.50
  -7  -5  -4    9.10    4.50
   7  -5   4    6.50    3.50
   7   5   4    6.90    3.30
  -8  -5  -4   -5.70    7.40
   8  -5   4    0.30    3.40
   9  -6  -4    1.80    4.50
   8  -6  -4   28.60    6.90
   8  -6  -4   36.20    8.60
   7  -6  -4   16.40    5.40
   7  -6  -4   13.90    4.80
   6  -6  -4  132.49   12.70
   6  -6  -4  116.69   11.80
   5  -6  -4   28.00    6.80
   5  -6  -4   33.70    6.20
   4  -6  -4   22.30    4.60
   4  -6  -4   20.10    4.80
   3  -6  -4   72.89    6.70
   3  -6  -4   66.39    7.70
   2  -6  -4  180.78   10.70
   2  -6  -4  166.18   12.10
   1  -6  -4   81.09    7.20
   1  -6  -4   76.29    5.90
  -1   6   4   89.09    6.90
   0  -6   4  149.79    8.50
   0  -6  -4  135.19   10.70
   0   6   4  154.58    9.30
  -1  -6  -4  400.36   20.20
   1  -6   4  412.76   21.30
   1   6   4  398.96   19.40
   2  -6   4   24.70    3.50
  -2  -6  -4   22.80    3.40
   2   6   4   28.60    3.40
   3  -6   4   51.59    5.70
  -3  -6  -4   66.89    6.40
   3   6   4   60.69    5.20
   4  -6   4   25.60    4.90
  -4  -6  -4   33.30    5.30
   4   6   4   28.50    3.80
  -5  -6  -4   40.90    6.30
   5  -6   4   31.50    5.20
   5   6   4   30.40    4.70
  -6  -6  -4    7.40    4.10
   6  -6   4   20.60    4.80
   6   6   4    8.00    3.10
  -7  -6  -4   -8.30    4.00
   7  -6   4    2.30    3.10
   7   6   4   -0.70    3.10
   7  -7  -4   21.70    6.20
   7  -7  -4   20.00    9.10
   6  -7  -4   -1.60    2.60
   6  -7  -4    0.50    2.80
   5  -7  -4   39.30    6.40
   5  -7  -4   42.90    6.40
   4  -7  -4   57.69    7.60
   4  -7  -4   50.09    6.20
   3  -7  -4   49.99    7.00
   3  -7  -4   47.90    6.40
   2  -7  -4   10.40    2.60
   2  -7  -4    6.80    2.60
   1  -7  -4  114.99    7.50
   1  -7  -4  104.59    8.70
   0  -7  -4   81.99    6.80
   0  -7  -4   72.99    5.80
  -1  -7  -4    9.10    2.30
  -2  -7  -4   50.19    5.20
   2  -7   4   48.80    4.90
  -3  -7  -4   25.50    4.70
   3  -7   4   24.50    3.90
   4  -7   4    8.10    3.00
  -4  -7  -4    3.90    2.80
  -5  -7  -4   10.30    4.30
   5  -7   4   14.20    4.80
   5  -7   4   15.20    5.40
  -6  -7  -4   14.40    5.10
   6  -8  -4   12.10    4.70
   5  -8  -4   18.00    4.80
   5  -8  -4   18.70    4.40
   4  -8  -4    1.40    2.60
   4  -8  -4    1.70    2.20
   3  -8  -4   18.30    3.50
   3  -8  -4   14.40    4.20
   2  -8  -4   34.10    3.90
   2  -8  -4   29.80    4.70
   1  -8  -4    9.80    2.80
   1  -8  -4   12.00    2.50
   3  -8   4    3.70    1.70
   3  -8   4    4.90    3.50
   4  -8   4    5.90    4.70
   4  -8   4   12.80    3.60
  -4  -8  -4   22.10    4.00
   3  -9  -4   12.00    4.40
   3  -9  -4    9.40    3.40
 -11   0   5   22.50    7.90
  11   0  -5    9.30    5.10
  10   0  -5   66.09   10.30
 -10   0   5   57.69   10.70
  -9   0   5   91.89   10.90
   9   0  -5   91.69   11.00
   9   0  -5   79.59   10.70
  -8   0   5  185.38   19.50
   8   0  -5  229.28   17.30
   7   0  -5   18.90    4.90
   7   0  -5   24.50    5.10
  -7   0   5   43.60    9.10
  -7   0   5   24.30    5.80
   6   0  -5  945.01   45.90
   6   0  -5  890.11   44.10
  -6   0   5  889.31   44.20
   5   0  -5 1487.35   65.59
   5   0  -5 1451.15   66.89
  -4   0   5   10.90    3.00
   4   0  -5    8.90    2.60
  -3   0   5 2296.87  105.79
   3   0  -5 2642.74  105.49
  -2   0   5 2177.48   92.39
   2   0  -5 2213.78   91.29
  -1   0   5  400.36   19.70
   1   0  -5  397.16   19.10
   0   0   5  579.44   25.40
   0   0  -5  440.66   23.50
  -1   0  -5 2197.88   92.79
   1   0   5 2207.88   91.89
  -2   0  -5  744.93   35.50
  -3   0  -5    1.40    1.00
   3   0   5    1.10    0.90
   4   0   5  381.26   21.00
  -4   0  -5  393.26   23.40
   5   0   5  251.57   15.70
  -5   0  -5  221.88   17.50
   6   0   5    4.20    2.70
  -6   0  -5    0.20    2.80
  -7   0  -5   40.30    8.80
  -8   0  -5   12.80    5.70
  -9   0  -5    5.60    7.20
   9   0   5    0.90    3.00
 -11  -1   5   15.90    6.10
  11  -1  -5   13.20    7.00
  11   1  -5   27.20    7.40
 -11   1   5   20.00    7.80
  10  -1  -5   29.70    7.30
 -10  -1   5   22.00    7.00
 -10   1   5   23.50    7.10
  10   1  -5   32.10    8.80
   9  -1  -5    2.00    3.10
  -9  -1   5    7.10    4.10
  -9   1   5    6.00    4.50
   9   1  -5    6.50    3.40
  -8  -1   5  218.28   17.30
   8  -1  -5  222.18   17.80
   8  -1  -5  225.78   18.40
   8   1  -5  213.98   17.20
  -8   1   5  224.48   17.60
   8   1  -5  219.08   17.00
  -7  -1   5  282.67   19.10
   7  -1  -5  283.17   19.40
   7  -1  -5  279.17   20.20
  -7  -1   5  292.57   20.40
  -7   1   5  282.17   19.40
   7   1  -5  293.77   19.10
   7   1  -5  267.27   19.30
  -6  -1   5   99.89   10.00
  -6  -1   5   90.59    9.00
   6  -1  -5   96.49   10.20
   6   1  -5  118.69   10.50
   6   1  -5  128.69   10.10
  -6   1   5  100.09    9.70
  -6   1   5  127.49   11.60
  -5  -1   5  315.47   19.30
   5  -1  -5  296.27   19.50
   5  -1  -5  364.76   21.00
   5   1  -5  288.67   18.80
  -4  -1   5 1865.81   84.79
   4  -1  -5 1825.72   83.19
   4  -1  -5 1819.52   81.79
   4   1  -5 1939.91   82.89
  -4   1   5 1945.31   83.59
   4   1  -5 1960.10   81.09
   4   1  -5 1969.30   81.09
   3  -1  -5 1572.44   67.09
   3  -1  -5 1562.34   66.99
  -3  -1   5 1580.14   67.79
   3  -1  -5 1586.64   68.49
  -3   1   5 1527.75   68.39
   3   1  -5 1622.74   66.29
   3   1  -5 1461.65   67.39
   2   1  -5  825.22   35.80
  -2   1   5  804.32   37.60
  -1  -1   5 3156.28  125.99
   1  -1  -5 3198.18  125.49
   1   1  -5 3036.00  125.49
  -1   1   5 2836.62  126.19
   0   1  -5 2046.70   85.89
   0   1   5 2050.79   85.79
  -1  -1  -5   93.19    7.00
  -1   1  -5   87.69    7.10
   2  -1   5  807.82   35.60
  -2  -1  -5  802.22   36.90
   2   1   5  764.12   35.20
  -2   1  -5  743.23   37.10
  -3  -1  -5  309.67   18.70
   3  -1   5  311.77   17.40
  -3   1  -5  327.37   19.40
   3   1   5  318.37   17.20
  -4  -1  -5   47.00    6.60
   4  -1   5   68.39    9.60
   4   1   5   54.99    5.70
  -4   1  -5   54.89    7.10
  -5  -1  -5   12.80    3.80
   5  -1   5    9.50    2.90
   5   1   5   17.80    4.10
  -5   1  -5   12.00    4.20
  -6  -1  -5   99.19   11.10
   6  -1   5  107.19   10.00
  -6   1  -5  105.69   12.20
   6   1   5   97.69    9.30
  -7  -1  -5    3.00    4.30
   7  -1   5    4.10    2.70
  -7   1  -5    9.90    5.40
   7   1   5    4.20    2.30
  -8  -1  -5    6.00    7.10
   8  -1   5   11.90    4.10
  -8   1  -5   12.90    6.30
   8   1   5    6.00    3.20
   9  -1   5   -4.40    3.30
  -9  -1  -5   13.70    8.10
   9   1   5    5.00    5.30
  11  -2  -5    1.20    3.90
  11   2  -5    1.60    5.30
 -10  -2   5    2.60    5.00
  10  -2  -5   14.70    7.50
  10  -2  -5    5.10    4.60
  10   2  -5    2.80    4.30
 -10   2   5   -1.40    3.60
   9  -2  -5   98.69   14.50
  -9  -2   5   89.49   10.80
   9  -2  -5   90.69   12.20
   9   2  -5   92.69   10.80
  -9   2   5  100.09   13.70
  -8  -2   5   78.19    8.90
   8  -2  -5   81.99   10.30
   8  -2  -5   58.09    9.60
  -8   2   5   72.99    9.40
   8   2  -5   66.79    8.80
  -7  -2   5   17.50    4.50
  -7  -2   5   26.10    6.20
   7  -2  -5   18.70    5.10
   7  -2  -5   15.70    4.60
   7   2  -5   19.40    4.10
  -7   2   5   23.40    6.40
  -7   2   5   17.70    4.70
   6  -2  -5  553.74   31.20
  -6  -2   5  532.65   28.60
   6  -2  -5  497.35   29.30
  -6  -2   5  517.35   29.40
   6   2  -5  578.14   28.40
  -6   2   5  553.24   29.90
   5  -2  -5  984.70   46.80
  -5  -2   5  877.21   46.00
   5  -2  -5  969.80   48.10
   5   2  -5  980.30   46.50
  -5   2   5 1040.30   48.50
   5   2  -5 1046.60   45.10
  -4  -2   5   38.40    4.90
   4  -2  -5   40.20    5.40
   4  -2  -5   32.70    4.60
  -4   2   5   35.10    5.30
   4   2  -5   30.00    3.70
   4   2  -5   40.90    4.90
   3  -2  -5 1322.97   58.59
  -3  -2   5 1332.17   57.19
   3  -2  -5 1320.67   57.09
   3   2  -5 1294.17   57.09
   3   2  -5 1286.27   55.29
  -3   2   5 1243.38   58.29
   2  -2  -5 2511.65  107.69
  -2  -2   5 2701.73  111.49
  -2   2   5 2567.14  109.49
   2   2  -5 2616.44  106.89
   1  -2  -5  611.54   28.90
  -1   2   5  656.93   30.50
   1   2  -5  661.83   29.20
   0  -2  -5  602.74   27.20
   0  -2   5  542.75   27.20
   0   2   5  541.75   27.30
   0   2  -5  661.53   27.90
  -1  -2  -5 1229.08   55.19
   1  -2   5 1302.57   54.79
  -1   2  -5 1277.57   55.99
   2  -2   5 1049.09   45.80
  -2  -2  -5 1054.79   47.00
  -2   2  -5  996.60   47.50
   2   2   5 1022.60   45.50
   3  -2   5    5.30    2.00
  -3  -2  -5    3.50    1.80
  -3   2  -5    3.10    2.00
   3   2   5    2.50    1.40
  -4  -2  -5  804.02   39.50
  -4   2  -5  764.12   40.20
   4   2   5  754.12   36.30
  -5  -2  -5  195.78   15.60
   5  -2   5  198.68   14.20
   5   2   5  187.78   13.00
  -5   2  -5  206.08   16.60
   6  -2   5   14.80    4.30
  -6  -2  -5   12.90    4.20
  -6   2  -5    7.30    4.20
  -7  -2  -5   29.00    6.50
  -7   2  -5   35.00    7.90
   7   2   5   21.60    4.40
   8  -2   5   15.50    5.30
  -8  -2  -5    7.10    5.50
   8   2   5    8.90    3.20
   9  -2   5    3.10    3.90
   9   2   5    0.30    2.90
  11  -3  -5   -2.80    4.60
  10  -3  -5   45.40   13.60
  10  -3  -5   10.40    7.10
 -10  -3   5    4.80    5.10
  10   3  -5   12.80    5.50
   9  -3  -5    3.70    5.10
   9  -3  -5    5.50    5.10
  -9  -3   5    4.10    3.50
   9   3  -5    2.10    3.30
  -8  -3   5   62.19    8.20
   8  -3  -5   55.89    8.90
   8  -3  -5   53.69    8.80
  -8   3   5   65.09    9.20
   8   3  -5   59.49    7.80
   7  -3  -5  229.38   18.30
   7  -3  -5  229.58   17.40
  -7  -3   5  228.28   16.10
   7   3  -5  231.58   16.20
  -7   3   5  221.18   21.30
   6  -3  -5   38.00    6.30
   6  -3  -5   36.70    5.80
  -6  -3   5   32.30    5.40
   6   3  -5   39.50    4.80
   6   3  -5   26.30    4.50
   5  -3  -5   95.09    9.10
   5  -3  -5   97.09    9.60
  -5  -3   5   98.29    8.50
  -5   3   5   81.89    9.10
   5   3  -5   80.49    7.60
   5   3  -5   77.99    6.70
  -4  -3   5  828.92   37.20
   4  -3  -5  774.22   37.60
   4  -3  -5  773.02   39.10
   4   3  -5  781.92   34.60
  -4   3   5  769.72   38.90
   4   3  -5  742.53   36.50
   3  -3  -5  634.34   31.70
   3  -3  -5  647.94   30.20
  -3  -3   5  637.14   29.70
  -3   3   5  571.64   31.10
   3   3  -5  632.64   29.60
   3   3  -5  607.74   27.60
  -2  -3   5  233.58   12.90
   2  -3  -5  241.68   13.20
  -2  -3   5  233.18   12.90
   2   3  -5  230.28   12.10
  -1  -3   5 1099.69   47.20
   1   3  -5 1073.49   47.20
  -1   3   5 1105.99   49.10
   0  -3   5 1347.27   56.49
   0   3   5 1348.57   57.69
   0   3  -5 1273.67   57.09
  -1  -3  -5   35.50    4.10
   1  -3   5   33.00    3.70
  -1   3  -5   33.50    4.30
   1   3   5   29.40    3.70
   2  -3   5  744.73   34.60
  -2  -3  -5  730.43   35.40
   2   3   5  772.92   34.30
  -2   3  -5  742.63   36.60
   3  -3   5  454.75   24.30
   3   3   5  487.45   23.70
  -3   3  -5  487.85   26.90
  -4  -3  -5   11.50    3.80
  -4   3  -5   16.00    6.50
   4   3   5   13.90    2.70
   5  -3   5   37.30    5.70
  -5  -3  -5   37.60    7.00
  -5   3  -5   43.60    7.90
  -6  -3  -5   50.99    7.70
  -7  -3  -5    9.80    4.30
   7  -3   5   14.70    4.80
   7   3   5   10.40    3.70
  -8  -3  -5    0.80    4.60
   8   3   5   -0.20    2.30
   9  -3   5    7.00    3.90
  10  -4  -5    6.80    5.20
 -10  -4   5    5.00    3.90
  10  -4  -5    6.60    3.70
  10   4  -5    0.80    3.90
  -9  -4   5   22.90    5.60
   9  -4  -5   29.10    7.70
   9  -4  -5   40.60    8.70
   9   4  -5   13.50    5.30
   8  -4  -5   20.00    4.80
  -8  -4   5   17.40    4.60
   8   4  -5   18.00    4.70
   7  -4  -5    4.00    3.70
   7  -4  -5    4.30    3.50
   6  -4  -5  340.57   21.60
  -6  -4   5  280.37   19.30
   6  -4  -5  317.47   22.10
   6   4  -5  358.96   19.60
  -5  -4   5  670.13   32.50
   5  -4  -5  649.54   33.70
   5  -4  -5  670.73   35.60
  -5   4   5  570.64   34.10
   5   4  -5  645.94   29.30
   5   4  -5  656.83   31.60
   4  -4  -5    3.80    2.30
   4  -4  -5    3.90    2.50
  -4   4   5    4.50    1.70
   4   4  -5    2.50    2.00
  -3  -4   5  595.84   28.40
   3  -4  -5  596.24   31.20
   3   4  -5  591.84   26.60
   3   4  -5  610.04   28.10
  -2  -4   5  917.21   41.90
   2  -4  -5  915.11   44.30
   2  -4  -5  929.61   42.40
   2   4  -5  999.70   42.00
  -2   4   5  987.60   44.70
   2   4  -5  972.60   41.10
   1  -4  -5  141.29    8.90
  -1  -4   5  137.09    8.70
  -1   4   5  163.58   10.80
   1   4  -5  145.69    8.80
   0  -4   5  184.18   10.50
   0  -4  -5  164.08   10.50
   0   4   5  196.28   12.00
   0   4  -5  187.48   11.20
  -1  -4  -5  460.05   24.40
   1  -4   5  495.75   24.00
  -1   4  -5  541.45   26.10
   1   4   5  528.05   25.10
   2  -4   5  366.56   19.60
  -2  -4  -5  382.86   20.60
  -2   4  -5  373.56   21.60
   2   4   5  392.16   19.80
  -3  -4  -5   28.50    5.70
   3  -4   5   29.30    4.20
   3   4   5   34.70    4.20
  -3   4  -5   32.10    6.00
  -4  -4  -5  194.98   14.80
   4   4   5  221.78   13.20
   5  -4   5   39.50    7.60
  -5  -4  -5   43.50    6.90
   5   4   5   44.20    5.20
  -6  -4  -5    3.00    3.10
   6  -4   5    1.20    2.50
   6   4   5    1.10    2.00
  -7  -4  -5   -0.90    3.90
   7   4   5    9.80    3.40
   8  -4   5    1.00    3.60
   8   4   5    3.00    3.70
  10  -5  -5   20.80    7.70
   9  -5  -5   18.30    6.80
   9  -5  -5   11.60    5.60
   9   5  -5    9.90    4.50
   8  -5  -5   70.59   12.90
   8  -5  -5   70.29   10.70
   8   5  -5   52.79    7.30
   7  -5  -5  109.59   12.70
   7  -5  -5  117.89   12.20
   7   5  -5  113.19    9.40
   6  -5  -5    6.70    3.20
   6  -5  -5    6.20    3.40
  -5  -5   5   28.10    5.80
   5  -5  -5   26.40    5.90
   5   5  -5   28.90    3.70
   4  -5  -5  178.78   14.10
  -4  -5   5  176.08   11.50
   4  -5  -5  159.78   12.40
  -4   5   5  218.18   15.00
   3  -5  -5  171.98   11.60
  -3  -5   5  187.98   11.10
   3  -5  -5  182.78   13.50
  -3   5   5  183.88   13.30
   2  -5  -5   94.29    7.10
  -2  -5   5   88.89    6.50
   2  -5  -5   90.39    8.40
   1  -5  -5  378.36   18.50
  -1  -5   5  378.66   18.20
   1   5  -5  354.16   17.60
  -1   5   5  356.96   20.00
   0  -5  -5  548.85   24.60
   0   5  -5  470.95   24.20
   0   5   5  494.05   25.30
  -1  -5  -5   24.10    3.70
   1  -5   5   26.80    3.30
   1   5   5   22.50    4.00
  -1   5  -5   16.20    3.50
   2  -5   5  160.08   10.10
  -2  -5  -5  130.99   10.10
   2   5   5  142.89    9.80
   3  -5   5   53.49    6.20
  -3  -5  -5   45.40    5.80
   3   5   5   58.29    5.80
  -4  -5  -5   18.70    4.20
   4  -5   5   30.00    4.70
   4   5   5   24.70    4.90
  -5  -5  -5    6.30    3.60
   5  -5   5    4.30    2.70
   5   5   5    5.90    2.80
   6  -5   5   19.10    5.00
  -6  -5  -5   19.40    6.10
  -7  -5  -5   20.00    6.30
   7  -5   5   13.30    4.50
   7   5   5   19.80    5.00
   9  -6  -5   11.10    6.10
   8  -6  -5   16.10    5.70
   8  -6  -5    9.30    6.00
   7  -6  -5   -4.60    3.00
   7  -6  -5    4.30    3.00
   6  -6  -5   57.39    8.60
   6  -6  -5   53.49    8.00
   5  -6  -5  113.49   11.70
  -4  -6   5    7.10    2.10
   4  -6  -5    6.70    2.90
   4  -6  -5    7.50    3.30
   3  -6  -5  154.78   12.30
   3  -6  -5  161.08   10.80
  -3   6   5  130.19   14.40
   2  -6  -5  224.18   14.90
   2  -6  -5  215.38   12.70
  -2  -6   5  213.28   11.70
  -2   6   5  218.28   14.30
   1  -6  -5   32.50    3.80
   1  -6  -5   24.60    4.70
  -1  -6   5   24.60    3.10
  -1   6   5   25.60    4.20
   0  -6  -5   39.50    4.20
   0   6   5   37.50    4.70
   1  -6   5  106.89    7.60
  -1  -6  -5  111.89    8.30
   1   6   5   98.89    7.80
   2  -6   5   76.99    6.80
  -2  -6  -5   82.49    7.40
   2   6   5   80.39    6.70
   3  -6   5    2.50    1.90
  -3  -6  -5    4.60    2.40
   3   6   5    0.40    2.00
   4  -6   5   41.70    5.50
  -4  -6  -5   46.10    6.60
   4   6   5   37.00    5.00
  -5  -6  -5   15.60    5.10
   5  -6   5    6.30    3.10
   5   6   5   15.40    3.90
   6  -6   5    1.10    2.20
  -6  -6  -5    9.00    4.30
   6   6   5    2.00    3.10
   7  -7  -5   11.50    4.80
   7  -7  -5    1.00    3.00
   6  -7  -5   15.50    4.40
   5  -7  -5    6.50    3.10
   5  -7  -5    1.30    2.40
   4  -7  -5   54.99    7.30
   4  -7  -5   50.19    6.10
   3  -7  -5   57.39    5.80
   3  -7  -5   50.19    6.80
   2  -7  -5    5.00    2.10
   2  -7  -5    6.40    2.60
   1  -7  -5   72.19    7.40
   1  -7  -5   81.59    6.50
   0  -7  -5   50.69    5.90
   0  -7   5   43.30    4.20
   0  -7  -5   54.19    5.10
   1  -7   5    3.00    1.60
  -1  -7  -5    4.00    1.80
   2  -7   5   31.10    4.10
  -2  -7  -5   30.20    4.30
   3  -7   5   34.30    4.60
  -3  -7  -5   30.50    5.00
  -4  -7  -5    2.40    2.70
   4  -7   5    3.80    2.60
   5  -7   5   -0.20    2.00
  -5  -7  -5    7.60    4.20
   6  -8  -5   -0.70    3.40
   5  -8  -5   21.90    5.70
   5  -8  -5    9.50    4.20
   4  -8  -5    4.60    2.50
   4  -8  -5    2.00    3.10
   3  -8  -5   20.80    5.30
   2  -8  -5   31.30    3.70
   2  -8  -5   21.50    4.90
   1  -8  -5    5.10    2.10
   1  -8  -5   10.20    3.00
   0  -8  -5   20.50    4.30
   0  -8  -5   14.70    3.30
  -1  -8  -5   37.60    4.60
  -1  -8  -5   35.40    4.70
   1  -8   5   30.40    3.50
   2  -8   5   11.00    3.50
  -2  -8  -5   11.90    3.50
   3  -8   5   10.20    3.80
   1  -9  -5    4.60    1.90
  11   0  -6   34.10    9.60
 -11   0   6   56.69   11.10
 -10   0   6    5.90    5.20
  -9   0   6   79.39   10.50
   9   0  -6   70.89    9.90
   9   0  -6   65.89    9.80
  -8   0   6  127.79   13.10
  -8   0   6  112.49   12.30
   8   0  -6  114.99   12.20
   7   0  -6   19.40    5.20
   7   0  -6   13.70    3.60
  -7   0   6   12.30    4.90
  -7   0   6   15.80    4.10
   6   0  -6  578.74   31.20
  -6   0   6  629.34   33.50
   6   0  -6  588.84   33.10
   5   0  -6  902.31   43.80
   5   0  -6  883.01   45.60
  -5   0   6 1067.59   57.69
  -4   0   6   38.30    5.30
   4   0  -6   42.60    5.50
  -3   0   6  882.31   40.30
   3   0  -6  807.52   37.90
   2   0  -6 2857.51  118.09
  -1   0   6  865.41   39.30
   1   0  -6  866.31   38.60
   0   0  -6   87.49    6.90
   0   0   6   89.69    6.70
  -1   0  -6 1460.45   64.39
   1   0   6 1480.75   63.39
  -2   0  -6  596.24   30.30
  -3   0  -6    0.70    1.40
   3   0   6    0.40    1.10
  -4   0  -6   64.29    8.10
   4   0   6   63.69    6.60
  -5   0  -6  113.69   12.20
  -6   0  -6   17.60    8.60
   6   0   6   15.70    4.00
   7   0   6   17.60    4.70
  -7   0  -6   21.50    6.10
   8   0   6    6.00    4.30
  -8   0  -6   15.80    7.90
   9   0   6   -0.20    3.00
  11  -1  -6    7.70    5.90
 -11  -1   6   11.10    5.70
 -11   1   6    6.30    5.50
  11   1  -6   14.70    7.90
 -10  -1   6   28.90    8.00
  10  -1  -6   40.20    8.60
 -10   1   6   41.00    9.60
  10   1  -6   38.80    9.00
   9  -1  -6   14.70    5.30
  -9  -1   6   16.20    4.70
   9  -1  -6   10.10    4.70
   9   1  -6   11.30    4.20
  -9   1   6    8.30    4.10
   8  -1  -6  133.49   14.10
  -8  -1   6  112.79   12.00
  -8  -1   6  109.29   11.00
  -8   1   6   89.39   11.10
   8   1  -6   94.99   11.00
   8   1  -6  100.39   10.50
  -7  -1   6  447.46   27.90
   7  -1  -6  438.16   27.00
   7  -1  -6  456.05   28.60
   7   1  -6  460.25   28.00
  -7   1   6  485.55   29.20
   7   1  -6  485.45   29.30
  -6  -1   6  450.05   26.40
   6  -1  -6  431.76   25.20
  -6   1   6  454.65   27.10
   6   1  -6  474.05   25.10
   6   1  -6  419.16   25.90
   5  -1  -6  128.09   13.40
   5   1  -6  174.18   11.50
   5   1  -6  173.48   12.90
  -4  -1   6 2069.39   90.89
   4   1  -6 2031.40   88.39
  -4   1   6 2115.89   91.89
   4   1  -6 2161.98   91.29
   3  -1  -6  908.11   40.30
  -3  -1   6  872.81   41.50
  -3   1   6  870.81   42.10
   3   1  -6  897.41   39.60
   2  -1  -6   62.99    5.30
  -2  -1   6   64.69    5.80
   2   1  -6   54.39    4.80
  -1  -1   6  869.61   39.30
   1  -1  -6  813.82   38.60
   1   1  -6  915.71   39.10
  -1   1   6  891.91   40.10
   0  -1   6 1695.23   71.89
   0  -1  -6 1651.83   71.99
   0   1  -6 1725.73   72.49
   1  -1   6  260.77   14.00
  -1  -1  -6  244.28   14.50
  -1   1  -6  240.58   14.80
   1   1   6  235.78   13.80
   2  -1   6  814.82   38.80
  -2  -1  -6  976.60   43.10
   2   1   6  814.62   38.80
  -2   1  -6  825.52   40.90
  -3  -1  -6  935.81   45.10
   3  -1   6  954.30   42.90
  -3   1  -6  891.51   45.30
  -4  -1  -6   40.60    6.60
   4   1   6   30.70    4.30
  -4   1  -6   37.60    8.30
  -5  -1  -6   86.39   10.20
   5  -1   6  103.39    9.10
  -5   1  -6   95.69   11.00
   5   1   6   85.59    8.20
   6  -1   6   56.39    7.20
  -6  -1  -6   49.00    9.20
   6   1   6   45.80    6.30
  -6   1  -6   49.60    9.40
  -7  -1  -6    0.50    5.10
   7  -1   6   13.90    4.10
  -7   1  -6   28.40    7.30
   7   1   6   10.70    4.10
  -8  -1  -6   -9.30    5.90
   8  -1   6    7.20    4.00
   8   1   6    3.00    3.40
   9  -1   6    3.50    3.70
   9   1   6    1.10    3.80
  11  -2  -6   16.70    9.00
  11   2  -6    8.90    5.80
  10  -2  -6    0.90    3.80
 -10  -2   6    9.90    4.40
  10  -2  -6    5.40    5.10
 -10   2   6    8.80   10.00
  10   2  -6    1.20    3.60
   9  -2  -6   84.69   11.00
   9  -2  -6   92.89   11.60
  -9  -2   6   65.79    9.00
  -9   2   6   77.39   10.90
   9   2  -6   65.69    9.50
   8  -2  -6  128.69   13.50
   8  -2  -6  134.69   13.00
  -8  -2   6  101.49   10.90
  -8  -2   6  103.99   11.80
   8   2  -6  111.69   11.50
  -8   2   6  122.49   12.20
  -7  -2   6    5.30    2.80
   7  -2  -6    4.40    4.40
   7  -2  -6    1.90    2.00
  -7   2   6    6.20    3.00
   7   2  -6    5.40    3.20
  -6  -2   6  347.57   21.60
   6  -2  -6  341.67   21.10
   6  -2  -6  349.47   22.80
  -6   2   6  304.47   21.60
  -5  -2   6  897.31   44.00
   5  -2  -6  895.11   45.50
   5   2  -6  929.81   41.70
  -4  -2   6  247.58   15.30
   4  -2  -6  232.28   16.30
   4   2  -6  228.68   14.90
   4   2  -6  228.48   13.10
  -4   2   6  231.18   16.00
  -3  -2   6  389.66   19.70
   3  -2  -6  357.56   18.70
   3   2  -6  295.87   17.00
  -3   2   6  365.26   20.70
   2  -2  -6 2320.07   93.49
  -2  -2   6 2110.99   93.59
   2   2  -6 2276.17   92.79
  -2   2   6 2191.68   95.49
  -1  -2   6 1071.79   47.90
   1  -2  -6 1099.09   47.70
   1   2  -6 1112.89   47.90
  -1   2   6 1071.59   49.10
   0  -2   6  231.08   12.60
   0  -2  -6  227.68   12.80
   0   2   6  207.58   12.90
   0   2  -6  198.48   12.70
  -1  -2  -6  910.61   41.10
  -1   2  -6  876.51   41.70
   1   2   6  893.41   40.50
  -2  -2  -6  433.76   23.00
   2  -2   6  402.96   21.40
  -2   2  -6  429.66   23.70
   2   2   6  411.96   21.40
  -3  -2  -6   98.49    9.30
   3  -2   6   96.29    8.10
   3   2   6   98.09    7.90
  -3   2  -6  100.09    9.70
  -4  -2  -6  168.58   14.20
   4  -2   6  183.78   12.90
  -4   2  -6  200.48   15.80
   4   2   6  187.88   12.40
  -5  -2  -6  236.68   17.90
   5  -2   6  226.68   15.50
  -5   2  -6  216.68   23.80
   5   2   6  204.78   14.10
  -6  -2  -6   15.90    5.30
   6  -2   6   26.30    6.40
   6   2   6    7.30    2.60
  -6   2  -6    0.00    4.10
  -7  -2  -6    6.40    5.10
   7  -2   6    5.80    2.90
   7   2   6    6.70    3.40
   8  -2   6   18.70    6.30
  -8  -2  -6   11.00    6.70
   8   2   6    3.30    3.60
  11  -3  -6   17.70    6.90
  10  -3  -6   70.29   10.50
  10  -3  -6   34.20    8.80
 -10  -3   6   40.70    7.70
  10   3  -6   42.20    7.80
   9  -3  -6    3.00    4.60
   9  -3  -6   -2.30    3.70
  -9  -3   6    6.30    3.60
   9   3  -6    9.40    3.30
   8  -3  -6   56.19    8.60
   8   3  -6   33.60    7.00
   7  -3  -6  246.38   19.20
  -7  -3   6  231.38   17.70
   7   3  -6  235.48   17.00
   6  -3  -6   53.69    7.30
   6  -3  -6   60.39    8.40
  -6  -3   6   70.89    7.80
  -6   3   6   61.29    8.50
   6   3  -6   74.09    7.80
   6   3  -6   65.69    6.50
   5  -3  -6  156.98   12.30
   5  -3  -6  176.68   14.20
  -5  -3   6  169.98   12.60
   5   3  -6  160.78   10.40
   5   3  -6  168.68   12.40
  -5   3   6  163.98   13.60
   4  -3  -6  659.63   35.70
  -4  -3   6  664.33   33.70
  -4   3   6  676.83   35.60
   4   3  -6  709.23   33.90
   4   3  -6  730.13   31.50
   3  -3  -6 1224.68   53.39
  -3  -3   6 1206.78   53.69
   3  -3  -6 1227.28   55.79
   3   3  -6 1214.08   53.59
  -3   3   6 1123.09   55.29
   2  -3  -6   95.89    7.80
  -2  -3   6  130.19    8.80
  -2   3   6  129.89   10.10
   2   3  -6  128.19    8.10
   1   3  -6  989.20   44.00
   0  -3  -6 1129.59   49.70
   0  -3   6 1132.99   49.30
   0   3  -6 1117.09   50.39
  -1  -3  -6  271.77   15.60
   1  -3   6  251.87   14.60
  -1   3  -6  279.97   16.50
  -2  -3  -6  205.38   13.80
   2  -3   6  220.58   13.10
  -2   3  -6  210.88   14.80
  -3  -3  -6  357.46   20.90
   3  -3   6  337.97   19.00
  -3   3  -6  316.57   25.00
   4  -3   6   46.30    5.70
  -4  -3  -6   49.70    6.90
  -4   3  -6   47.20    7.80
  -5  -3  -6   12.70    4.70
   5  -3   6    8.00    2.90
   5   3   6    8.20    2.70
   6  -3   6   43.80    6.60
  -6  -3  -6   38.10    7.70
   6   3   6   43.60    5.60
   7  -3   6    5.50    3.20
  -7  -3  -6   16.20    5.90
   7   3   6    3.90    2.10
   8  -3   6    3.20    3.20
   8   3   6   -3.10    2.40
  10  -4  -6   13.20    4.70
  10  -4  -6    5.90   11.00
  10   4  -6    4.80    4.20
   9  -4  -6   73.89   11.10
   9  -4  -6   75.49   11.60
   9   4  -6   89.49   10.50
   8  -4  -6  162.08   15.90
   8  -4  -6  158.68   14.70
   8   4  -6  116.19   11.80
   7  -4  -6   19.10    5.00
   7  -4  -6   20.60    5.50
  -7  -4   6   17.50    4.20
   7   4  -6    9.80    3.80
  -6  -4   6  152.38   13.50
   6  -4  -6  167.08   13.40
   6  -4  -6  157.38   14.10
  -6   4   6  130.09   13.40
   6   4  -6  142.49   11.40
  -5  -4   6  273.77   17.00
   5  -4  -6  267.97   19.00
  -5   4   6  254.07   18.50
   5   4  -6  272.67   16.30
   5   4  -6  251.87   14.10
   4  -4  -6  202.58   14.00
  -4  -4   6  194.98   13.40
   4  -4  -6  216.38   15.90
   4   4  -6  234.18   13.70
  -3  -4   6   43.80    4.90
   3  -4  -6   39.10    4.80
   3  -4  -6   37.50    5.40
   3   4  -6   31.50    4.20
   3   4  -6   30.50    3.40
  -3   4   6   39.90    5.60
   2  -4  -6 1037.30   45.60
  -2  -4   6  993.90   45.50
   2   4  -6  960.70   46.40
  -2   4   6 1097.69   48.70
   1  -4  -6  429.76   22.20
  -1  -4   6  436.66   22.10
   1   4  -6  478.55   23.60
  -1   4   6  468.15   24.50
   0  -4   6  276.47   14.40
   0   4   6  235.98   15.20
   0   4  -6  254.27   15.90
  -1  -4  -6  347.57   18.70
   1  -4   6  353.56   17.90
  -1   4  -6  315.97   19.20
   1   4   6  325.57   18.60
   2  -4   6   66.09    6.40
  -2  -4  -6   69.99    7.20
   2   4   6   91.59    7.30
  -2   4  -6   89.69    8.60
  -3  -4  -6    8.20    3.00
   3  -4   6    5.00    2.20
   3   4   6    6.10    2.10
  -4  -4  -6   55.99    7.70
   4  -4   6   70.39    7.40
   4   4   6   64.79    6.50
  -5  -4  -6   68.39    9.20
   5  -4   6   78.09    8.40
   5   4   6   73.09    7.30
  -6  -4  -6   16.70    5.70
   6  -4   6    8.70    3.70
   6   4   6   15.00    3.50
  -7  -4  -6   11.90    6.00
   7  -4   6   11.90    4.00
   7   4   6    8.70    3.50
   9  -5  -6    7.10    5.50
   9  -5  -6    7.20    4.50
   9   5  -6   -0.20    3.80
   8  -5  -6   25.10    6.70
   8  -5  -6   15.60    6.40
   8   5  -6   18.90    4.80
   7  -5  -6   92.89   10.90
   7  -5  -6   96.89   11.70
   7   5  -6   95.59    9.10
  -6  -5   6  139.09   11.60
   6  -5  -6  167.98   13.70
   6  -5  -6  153.18   14.40
   6   5  -6  145.89   10.70
  -5  -5   6   81.69    7.80
   5  -5  -6   79.29    8.70
  -5   5   6   89.79    9.90
   5   5  -6   81.69    7.00
   4  -5  -6  531.15   30.30
  -4  -5   6  527.05   27.20
   4  -5  -6  532.55   27.90
  -4   5   6  528.35   29.90
   4   5  -6  537.85   25.70
   3  -5  -6   64.69    6.20
  -3  -5   6   52.19    5.60
   3  -5  -6   68.69    7.80
   3   5  -6   56.89    4.50
   3   5  -6   57.99    5.20
  -3   5   6   52.39    7.10
  -2  -5   6   47.60    5.00
   2  -5  -6   58.59    6.60
   2   5  -6   45.50    4.60
  -2   5   6   46.80    6.20
   2   5  -6   45.70    4.20
   1  -5  -6   94.99    7.30
  -1  -5   6   83.19    6.80
   1   5  -6  105.59    7.40
   0  -5   6  244.58   13.90
   0  -5  -6  262.57   14.70
   0   5   6  263.07   15.90
   0   5  -6  236.48   15.90
   1  -5   6  183.78   11.50
  -1  -5  -6  186.08   12.30
   1   5   6  186.08   12.50
  -2  -5  -6   96.09    8.60
   2  -5   6   95.99    7.80
   2   5   6  102.99    8.30
  -3  -5  -6  170.78   13.40
   3  -5   6  180.58   12.30
   3   5   6  175.58   12.00
  -4  -5  -6   12.30    3.70
   4  -5   6   11.50    3.50
   4   5   6   20.20    3.90
  -5  -5  -6   16.40    4.80
   5  -5   6   19.50    4.70
   5   5   6   13.40    3.60
  -6  -5  -6    3.50    4.30
   6  -5   6    1.50    2.40
   6   5   6    3.60    3.20
   7  -5   6   -4.50    2.50
   8  -6  -6    6.10    4.30
   8  -6  -6   14.90    5.20
   7  -6  -6    1.80    2.40
   7  -6  -6    6.20    3.90
   6  -6  -6   25.10    6.20
   6  -6  -6   17.40    5.40
  -5  -6   6   89.19    7.60
   5  -6  -6   83.09    9.90
   5  -6  -6   70.49    8.40
   4  -6  -6   45.10    5.60
   4  -6  -6   45.10    6.80
  -4  -6   6   38.30    4.70
  -4   6   6   45.60    7.00
   3  -6  -6   38.80    6.10
  -3  -6   6   38.90    4.30
   3  -6  -6   37.30    4.70
  -3   6   6   51.69    6.20
   2  -6  -6  259.17   17.40
   2  -6  -6  250.77   14.70
  -2  -6   6  263.27   14.50
  -2   6   6  248.08   16.70
   1  -6  -6   61.69    5.60
  -1  -6   6   53.89    5.10
  -1   6   6   55.59    6.60
   0  -6   6   30.70    4.00
   0  -6  -6   43.70    4.60
   0   6   6   30.40    5.00
   1  -6   6   90.69    7.10
  -1  -6  -6   81.19    7.50
   1   6   6   76.99    7.30
  -2  -6  -6   36.20    5.40
   2  -6   6   36.80    4.40
   2   6   6   32.80    5.00
   3  -6   6    3.40    1.90
  -3  -6  -6    3.30    3.10
   3   6   6    4.10    2.60
  -4  -6  -6   14.70    4.70
   4  -6   6   11.80    3.60
   4   6   6   10.30    3.20
  -5  -6  -6   25.20    6.30
   5  -6   6   19.70    5.50
   6  -6   6   12.60    3.90
  -6  -6  -6    5.50    5.30
   7  -7  -6   10.60    4.60
   6  -7  -6    5.00    4.40
   6  -7  -6    2.60    4.20
   5  -7  -6    6.70    3.60
   5  -7  -6    5.60    3.10
   4  -7  -6   36.60    7.50
   4  -7  -6   41.80    5.80
   3  -7  -6   27.80    4.40
   3  -7  -6   32.90    6.40
   2  -7  -6   41.20    6.30
  -2   7   6   40.10    6.60
   1  -7  -6   16.30    3.40
  -1  -7   6   13.40    2.90
   1  -7  -6   11.30    3.70
  -1   7   6   19.00    4.10
   0  -7  -6   99.79    7.80
   0  -7   6   71.59    6.30
  -1  -7  -6   13.70    3.80
   1  -7   6   12.30    2.60
   1   7   6   12.20    3.20
  -2  -7  -6   26.30    5.10
   2  -7   6   26.70    4.00
   2   7   6   25.50    4.30
  -3  -7  -6   44.30    6.50
   3  -7   6   35.60    5.00
   3   7   6   43.90    6.20
   4  -7   6   12.70    3.50
  -4  -7  -6   16.70    5.00
   5  -8  -6   10.50    3.30
   5  -8  -6    9.70    4.20
   4  -8  -6    4.30    2.70
   4  -8  -6    0.50    2.90
   3  -8  -6    2.30    2.80
   3  -8  -6    6.10    2.90
   2  -8  -6   43.20    5.10
   2  -8  -6   47.50    7.00
   1  -8  -6   23.30    4.70
   1  -8  -6   28.50    4.30
   0  -8   6    1.80    1.60
   0  -8  -6    2.60    2.60
   0  -8  -6    2.20    2.00
   1  -8   6   16.80    3.90
  -1  -8  -6   29.20    4.80
  -1  -8  -6   25.80    5.00
  -2  -8  -6    6.70    3.20
   2  -8   6    9.40    2.80
  11   0  -7    2.70    4.40
 -11   0   7    7.10    5.50
  10   0  -7    8.20    6.50
   9   0  -7  123.39   13.60
  -9   0   7  119.19   13.70
   8   0  -7  136.39   12.50
  -8   0   7  111.49   13.10
   8   0  -7  128.99   13.40
   7   0  -7    1.90    2.40
   7   0  -7    1.80    2.10
  -7   0   7    1.10    2.30
   6   0  -7  473.25   28.10
  -6   0   7  465.85   28.20
   5   0  -7 1245.68   58.99
  -5   0   7 1225.18   58.89
   5   0  -7 1251.57   56.29
  -4   0   7  556.34   30.10
   4   0  -7  440.76   25.70
   4   0  -7  420.86   23.20
   3   0  -7  241.38   13.90
  -3   0   7  250.97   16.00
  -2   0   7 2598.24  110.29
  -1   0   7 1023.70   47.70
   1   0  -7 1094.09   47.30
   0   0   7   56.89    5.60
   0   0  -7   62.39    5.90
  -1   0  -7  374.36   25.70
   1   0   7  429.56   21.40
   2   0   7  476.25   24.10
  -2   0  -7  464.65   26.00
  -3   0  -7    2.50    2.30
   3   0   7    5.10    2.60
  -4   0  -7   97.89   10.70
   5   0   7   71.69    7.80
  -5   0  -7   86.79   10.40
  -6   0  -7   19.00    6.70
   6   0   7    7.70    3.50
   7   0   7    5.50    3.50
  -7   0  -7    7.70    6.60
   8   0   7   -2.40    2.90
  -8   0  -7    3.60    6.80
  11  -1  -7   17.30    6.40
 -11   1   7   12.80    4.50
  11   1  -7   22.40    7.30
  10  -1  -7   52.79   10.70
  10   1  -7   57.89    9.40
   9  -1  -7   39.60    8.00
   9  -1  -7   40.80    9.70
   9   1  -7   47.50    8.70
   8  -1  -7   44.20    7.10
   8  -1  -7   49.60    7.10
  -8   1   7   68.69   14.20
   8   1  -7   36.60    8.30
   8   1  -7   27.80    6.60
  -7  -1   7  401.56   25.90
   7  -1  -7  392.16   24.50
   7   1  -7  370.76   25.20
  -7   1   7  403.66   26.60
   7   1  -7  432.06   24.20
   6  -1  -7  299.57   19.30
  -6  -1   7  228.68   17.50
   6  -1  -7  228.58   17.80
   6   1  -7  257.77   16.10
   6   1  -7  237.28   17.60
  -6   1   7  221.98   21.90
  -5  -1   7   43.20    6.50
   5  -1  -7   66.09    8.90
  -5   1   7   53.69    7.20
   5   1  -7   47.80    5.70
   5   1  -7   58.19    6.90
   4  -1  -7  949.71   46.90
  -4  -1   7  954.50   46.40
   4  -1  -7  979.10   44.50
  -4   1   7  990.10   47.30
   4   1  -7  967.50   46.40
   4   1  -7  961.60   43.60
   3   1  -7 2168.68   90.89
  -3   1   7 2152.48   94.29
  -2  -1   7   41.50    5.10
   2  -1  -7   59.29    6.00
   2   1  -7   44.80    4.60
   1  -1  -7 1367.36   58.89
  -1   1   7 1309.77   59.89
   1   1  -7 1378.56   58.99
   0  -1  -7 1875.41   76.59
   0   1  -7 1711.83   76.49
   0   1   7 1735.43   76.39
   1  -1   7  291.77   16.70
   1   1   7  328.07   17.20
  -1   1  -7  296.97   18.00
   2  -1   7  135.19   10.00
  -2  -1  -7  138.39   11.20
   2   1   7  173.88   12.00
  -2   1  -7  134.59   11.30
   3  -1   7  565.24   29.50
  -3  -1  -7  548.25   31.70
  -3   1  -7  640.94   33.40
   3   1   7  617.94   29.80
   4  -1   7  216.38   14.30
  -4  -1  -7  195.18   16.00
   4   1   7  202.78   13.70
  -5  -1  -7   20.00    6.40
   5  -1   7   11.70    3.60
  -5   1  -7   17.00    5.10
   5   1   7    9.90    2.90
  -6  -1  -7   42.10    9.30
   6  -1   7   31.40    6.70
   6   1   7   38.80    5.80
  -6   1  -7   28.90    8.00
   7  -1   7   29.30    5.90
  -7  -1  -7    9.00    5.30
   7   1   7   19.00    5.50
  -7   1  -7   19.10    7.40
   8  -1   7   -2.90    3.10
   8   1   7    0.70    3.30
  11  -2  -7   22.10    7.40
  11   2  -7    3.90    6.10
  10  -2  -7    4.20    4.60
  10  -2  -7    2.10    4.60
  10   2  -7    2.40    3.50
   9  -2  -7   95.49   11.70
   9  -2  -7   87.19   15.80
   9   2  -7   91.59   11.20
   8  -2  -7  120.99   13.60
  -8  -2   7  107.89   14.60
   8  -2  -7  113.09   12.20
  -8   2   7  119.89   13.60
   8   2  -7  135.09   12.80
   7  -2  -7   72.09   11.50
  -7  -2   7   33.60    7.40
  -7   2   7   47.20    9.30
   7   2  -7   49.40    7.30
  -6  -2   7  209.18   15.80
   6  -2  -7  203.28   16.70
   6   2  -7  201.18   13.40
   5  -2  -7  908.61   43.50
  -5  -2   7  917.61   44.80
   5   2  -7  922.51   41.60
  -5   2   7  865.81   45.60
  -4  -2   7  203.88   14.20
   4  -2  -7  192.58   12.90
   4  -2  -7  193.28   14.80
   4   2  -7  206.98   12.20
  -4   2   7  215.58   15.50
  -3  -2   7  265.07   16.80
   3  -2  -7  284.17   15.90
   3   2  -7  287.57   15.10
  -3   2   7  282.37   18.10
  -2  -2   7  606.14   30.70
  -2   2   7  617.54   32.30
   2   2  -7  671.73   29.90
  -1  -2   7  792.92   37.50
   1  -2  -7  809.42   37.30
   1   2  -7  836.82   37.70
   0  -2   7   74.29    6.50
   0  -2  -7   79.49    6.70
   0   2  -7   75.89    7.00
   0   2   7   72.79    6.90
  -1  -2  -7  861.71   41.20
   1  -2   7  868.51   40.20
  -1   2  -7  907.61   42.50
   2  -2   7  341.67   18.60
  -2  -2  -7  353.36   20.40
  -2   2  -7  333.07   20.70
   2   2   7  317.17   18.40
  -3  -2  -7    4.40    1.80
   3  -2   7    5.20    2.00
   3   2   7    9.00    2.60
  -3   2  -7    4.10    2.00
   4  -2   7   31.60    4.80
  -4  -2  -7   41.00    8.30
  -4   2  -7   36.70   10.30
   4   2   7   31.20    4.60
   5  -2   7   56.69    6.90
  -5  -2  -7   70.99    9.10
   5   2   7   55.29    6.50
  -5   2  -7   45.10    9.00
  -6  -2  -7    0.20    3.70
   6  -2   7    5.70    2.80
   6   2   7    8.40    3.30
   7  -2   7   -0.20    2.20
  -7  -2  -7    4.40    4.30
   7   2   7   -0.10    2.00
   8  -2   7    6.20    3.70
   8   2   7   15.90    5.90
  10  -3  -7    1.50    4.00
  10  -3  -7   12.90    7.20
  10   3  -7   12.70    5.20
   9  -3  -7    7.00    4.10
   9  -3  -7   15.40    5.30
   9   3  -7   11.70    4.60
   8  -3  -7   30.50    7.20
   8  -3  -7   26.20    7.60
  -8  -3   7   44.50    6.60
  -8   3   7   31.30    8.20
   8   3  -7   29.50    6.60
   7  -3  -7  262.07   20.80
   7  -3  -7  310.77   22.40
  -7  -3   7  271.67   19.90
   7   3  -7  265.67   19.30
  -7   3   7  300.27   22.00
   6  -3  -7  424.16   26.70
  -6  -3   7  393.36   24.40
   6   3  -7  392.66   23.80
  -6   3   7  392.86   26.00
   5  -3  -7   73.59    7.60
  -5  -3   7   69.39    7.80
   5  -3  -7   65.69    8.50
   5   3  -7   63.19    5.90
   5   3  -7   65.39    7.30
  -5   3   7   73.19    8.80
  -4  -3   7  531.65   28.40
   4  -3  -7  543.15   27.60
   4  -3  -7  520.85   30.00
  -4   3   7  527.35   30.10
   4   3  -7  550.94   28.40
   4   3  -7  534.15   25.40
   3  -3  -7  774.02   37.20
  -3  -3   7  760.22   38.10
   3   3  -7  821.02   36.20
  -3   3   7  832.52   40.60
  -2  -3   7  174.58   11.80
   2  -3  -7  186.28   11.50
  -2   3   7  191.18   13.70
   2   3  -7  185.38   11.40
  -1  -3   7  367.96   19.30
   1  -3  -7  341.47   18.90
   1   3  -7  375.16   19.60
   0  -3   7  498.65   24.20
   0  -3  -7  488.95   24.50
   0   3   7  457.65   25.30
   0   3  -7  488.05   25.40
  -1  -3  -7  254.07   15.60
  -1   3  -7  250.97   16.50
  -2  -3  -7   29.00    5.80
   2  -3   7   17.30    3.60
  -2   3  -7   19.10    5.10
   2   3   7   13.60    3.00
   3  -3   7  278.87   16.80
  -3  -3  -7  278.47   18.70
  -3   3  -7  276.07   19.60
   3   3   7  274.27   16.50
   4  -3   7   41.50    5.70
  -4  -3  -7   55.89    7.60
   4   3   7   42.00    5.60
   5  -3   7    1.50    1.70
  -5  -3  -7    8.70    3.40
   5   3   7    4.80    2.50
   6  -3   7   57.79    7.60
  -6  -3  -7   41.40    8.10
   6   3   7   50.69    6.90
  -7  -3  -7   -0.50    5.10
   7  -3   7    6.90    3.70
   7   3   7    7.20    2.90
  10  -4  -7    4.30    5.20
  10   4  -7   -2.40    5.10
   9  -4  -7   34.90    9.10
   9  -4  -7   14.10    7.30
   9   4  -7   14.10    5.60
   8  -4  -7   72.69   14.00
   8  -4  -7   77.29   11.60
   8   4  -7   87.19   10.00
   7  -4  -7   46.30    7.80
   7  -4  -7   50.19    9.40
  -7  -4   7   51.39    7.50
  -7   4   7   63.99    9.40
   7   4  -7   63.19    7.60
   6  -4  -7   38.20    8.20
  -6  -4   7   56.69    7.30
   6  -4  -7   53.79    7.50
   6   4  -7   56.39    6.90
  -5  -4   7  396.46   22.60
   5  -4  -7  378.06   22.40
   5  -4  -7  375.16   22.40
   5  -4  -7  371.46   24.70
  -5   4   7  387.36   24.70
   5   4  -7  376.46   21.80
  -4  -4   7  208.78   13.80
   4  -4  -7  202.58   15.60
   4  -4  -7  218.58   13.70
   4   4  -7  166.28   10.90
   4   4  -7  177.18   12.70
  -3  -4   7  160.28   11.20
   3  -4  -7  161.68   10.90
   3  -4  -7  159.38   12.80
   3   4  -7  138.79    9.50
   3   4  -7  146.69   10.70
  -2  -4   7  364.86   18.80
  -2   4   7  331.77   20.60
   2   4  -7  306.77   17.50
  -1  -4   7  248.78   14.70
   1  -4  -7  246.98   14.70
  -1   4   7  267.57   16.90
   0  -4  -7    4.70    1.80
   0  -4   7    3.30    1.60
   0   4   7    3.50    2.30
   0   4  -7    5.90    2.30
  -1  -4  -7  371.56   21.00
   1  -4   7  389.86   20.20
  -1   4  -7  383.06   22.30
   1   4   7  368.76   21.20
   2  -4   7  251.17   14.90
  -2  -4  -7  235.88   16.10
  -3  -4  -7   36.10    5.80
   3  -4   7   33.90    7.50
   3   4   7   29.50    4.70
   4  -4   7   64.79    7.10
   4   4   7   60.69    6.60
   5  -4   7   26.60    6.20
  -5  -4  -7   30.50    6.80
  -6  -4  -7    2.20    3.60
   6  -4   7   -2.50    2.20
   6   4   7    0.50    2.10
   7  -4   7    1.90    2.50
   7   4   7    0.60    2.80
   9  -5  -7    4.40    4.60
   9   5  -7   18.70    5.90
   8  -5  -7   26.50    6.80
   8  -5  -7   54.39   11.50
   8   5  -7   40.10    7.10
   7  -5  -7   97.79   12.20
  -7  -5   7  125.99   11.70
   7   5  -7  113.09   10.30
   6  -5  -7   12.60    4.90
   6  -5  -7   33.90    7.40
  -6  -5   7   24.80    5.30
   6   5  -7   28.60    5.20
   5  -5  -7    3.90    3.00
   5  -5  -7    3.30    2.60
  -5  -5   7    2.10    2.10
  -5   5   7    5.10    3.40
   5   5  -7    2.30    2.40
  -4  -5   7  113.39    9.80
   4  -5  -7  134.99   10.70
   4  -5  -7  113.29   15.50
   4   5  -7  131.29    9.60
  -3  -5   7  546.85   29.50
   3  -5  -7  579.44   28.80
   3  -5  -7  573.94   32.00
   3   5  -7  597.44   28.30
   2  -5  -7  117.19    8.60
  -2  -5   7  100.79   10.20
  -2   5   7  120.99   10.60
   1  -5  -7  365.16   19.30
  -1  -5   7  333.57   21.30
  -1   5   7  369.26   21.70
   0  -5  -7  252.77   15.40
   0   5   7  265.17   16.90
  -1  -5  -7    3.80    2.20
   1  -5   7    0.50    1.40
   2  -5   7    3.90    2.00
   2   5   7    2.70    2.10
  -3  -5  -7   10.40    3.80
   3  -5   7   16.20    4.20
   3   5   7   10.00    3.10
  -4  -5  -7   47.50    7.50
   4  -5   7   57.49    6.70
   5  -5   7    4.30    2.60
  -5  -5  -7    8.00    4.30
   5   5   7    7.10    2.90
  -6  -5  -7   17.70    6.80
   6  -5   7   24.10    5.60
   6   5   7   12.10    3.90
   8  -6  -7   10.70    5.20
   7  -6  -7    7.80    3.70
   7  -6  -7   10.40    4.00
   6  -6  -7    8.90    5.60
   6  -6  -7   24.40    5.50
  -6  -6   7   15.80    4.10
  -5  -6   7  103.29    8.90
   5  -6  -7   99.89    9.50
   5  -6  -7   79.79   10.40
  -5   6   7  102.09   11.30
   4  -6  -7   32.60    6.50
  -4  -6   7   34.40    4.90
   4  -6  -7   35.90    5.40
   3  -6  -7   20.40    4.80
   3  -6  -7   20.30    3.80
  -3  -6   7   17.10    3.70
  -3   6   7   15.00    4.80
   2  -6  -7  129.19   11.90
   2  -6  -7  145.49   10.00
   2   6  -7  141.19    8.90
  -2   6   7  120.49   11.30
   1  -6  -7   92.59    7.70
  -1  -6   7   81.89    7.30
  -1   6   7  101.69    9.40
   0  -6  -7    8.40    2.80
   0   6   7    5.60    3.20
  -1  -6  -7   99.89    8.90
   1   6   7   87.09    8.60
  -2  -6  -7  122.39   10.60
   2  -6   7  119.49    9.30
   2   6   7   89.29    8.90
   3  -6   7   15.20    3.50
  -3  -6  -7   16.40    5.00
   3   6   7   12.00    4.10
   4  -6   7   24.30    4.80
  -4  -6  -7   23.30    6.20
   4   6   7   14.00    4.20
   5  -6   7    0.00    1.90
  -5  -6  -7    5.40    3.60
   5   6   7    5.30    3.70
   7  -7  -7   13.90    5.40
   6  -7  -7    6.20    6.10
   6  -7  -7   21.30    5.10
   5  -7  -7   10.20    4.10
   5  -7  -7    0.30    2.00
   4  -7  -7   43.10    5.80
   4  -7  -7   47.60    7.50
  -4   7   7   46.30    8.10
   3  -7  -7   29.40    5.00
   3  -7  -7   37.20    6.10
  -3  -7   7   25.10    4.10
   2  -7  -7    4.50    2.90
  -2  -7   7    8.60    2.60
   2  -7  -7    6.30    2.40
  -2   7   7    3.80    3.30
   1  -7  -7   52.49    7.20
  -1  -7   7   45.90    5.10
  -1   7   7   51.39    7.70
   0  -7  -7   30.90    4.90
   0  -7   7   28.40    4.00
   0   7   7   33.20    5.80
  -1  -7  -7   24.10    5.00
   1  -7   7   28.00    4.00
  -2  -7  -7    8.10    3.70
   2  -7   7    4.20    2.10
   2   7   7    6.40    4.20
  -3  -7  -7   23.60    5.60
   3   7   7   22.70    5.30
  -4  -7  -7    3.00    4.10
   4  -7   7    7.00    2.80
   4  -8  -7   18.50    5.00
   4  -8  -7   19.30    4.10
   3  -8  -7    4.80    2.70
   3  -8  -7   -5.40    2.50
   2  -8  -7   23.90    4.20
   2  -8  -7   29.10    6.00
   1  -8  -7   24.80    4.40
   1  -8  -7   16.70    4.50
   0  -8  -7   -2.60    2.00
   0  -8   7   -3.00    1.50
   0  -8  -7    1.40    3.00
  -1  -8  -7    2.10    2.70
   1  -8   7    5.70    2.30
  11   0  -8    7.50    5.60
  10   0  -8   -6.20    3.40
  -9   0   8   64.79    9.90
   9   0  -8   53.29   10.70
   8   0  -8  250.87   18.40
   8   0  -8  253.47   20.30
  -8   0   8  236.78   20.40
   7   0  -8  114.59   11.10
   7   0  -8  127.79   13.00
  -7   0   8  149.39   13.90
   6   0  -8  114.79   12.00
  -6   0   8  118.59   12.20
   6   0  -8  153.68   13.00
   5   0  -8 1516.35   67.99
   5   0  -8 1556.54   71.89
  -5   0   8 1530.25   71.69
   4   0  -8  680.23   35.90
   4   0  -8  680.73   32.80
  -3   0   8  108.59   10.60
  -2   0   8  977.40   46.20
   1   0  -8  855.11   44.10
  -1   0   8 1126.69   48.70
   0   0   8   12.30    4.10
   1   0   8  348.47   19.10
  -1   0  -8  329.37   19.90
   2   0   8  485.15   24.90
  -2   0  -8  455.25   26.80
  -3   0  -8   44.80    7.10
   3   0   8   32.50    4.90
  -4   0  -8  115.39   12.80
   4   0   8  147.09   12.60
  -5   0  -8   68.09   10.50
   5   0   8   53.49    6.80
   6   0   8   28.50    8.10
  -6   0  -8   22.70    7.10
  -7   0  -8   -2.60    5.70
  11  -1  -8    4.80    5.20
  11   1  -8    9.10    7.70
  10  -1  -8   79.09   17.00
  10   1  -8   59.99   11.60
   9  -1  -8   37.20    8.10
  -9  -1   8   29.90    7.80
   9  -1  -8   29.90    7.20
  -9   1   8   29.90    8.20
   8  -1  -8   13.20    4.80
  -8  -1   8    4.90    4.20
   8   1  -8   13.80    5.00
   7  -1  -8  271.87   18.90
  -7  -1   8  258.77   20.30
   7  -1  -8  257.17   20.50
   7   1  -8  291.57   21.00
  -7   1   8  307.77   24.00
   6  -1  -8  478.55   25.90
   6  -1  -8  391.86   30.50
   6   1  -8  458.25   25.40
  -6   1   8  478.15   28.70
   6   1  -8  426.26   27.10
   5  -1  -8  112.89   10.30
   5  -1  -8   99.49   10.70
  -5  -1   8   96.79    9.90
   5   1  -8  105.89    8.50
   5   1  -8   89.99    9.90
  -5   1   8  111.79   11.10
   4  -1  -8  499.85   26.50
  -4  -1   8  523.05   29.10
   4  -1  -8  506.35   29.40
   4   1  -8  524.95   29.00
   4   1  -8  572.54   26.60
   3  -1  -8 1643.84   74.09
  -3  -1   8 1715.73   76.29
  -3   1   8 1746.03   77.49
   3   1  -8 1732.43   73.29
  -2  -1   8  396.96   21.90
   2   1  -8  389.86   20.50
  -1  -1   8  326.97   19.50
   1  -1  -8  343.17   19.10
   1   1  -8  372.46   19.60
  -1   1   8  384.36   20.80
   0  -1  -8 1071.49   47.90
   0  -1   8 1025.10   47.10
   0   1   8 1038.10   47.80
   0   1  -8 1012.00   47.90
  -1  -1  -8  712.33   34.60
   1   1   8  649.93   32.90
  -1   1  -8  692.13   35.00
  -2  -1  -8   21.50    5.10
  -2   1  -8   16.70    4.20
   3  -1   8  212.98   14.50
  -3  -1  -8  230.68   18.30
   3   1   8  242.88   15.10
  -3   1  -8  218.18   17.50
   4  -1   8  124.79   10.20
  -4  -1  -8  112.49   12.10
  -4   1  -8  102.49   12.10
   4   1   8  118.69   10.00
   5  -1   8    1.10    1.90
  -5  -1  -8    1.70    3.80
  -5   1  -8   -1.50    3.80
   5   1   8    4.10    2.20
  -6  -1  -8   17.80    6.60
   6  -1   8    3.60    2.70
  -6   1  -8   25.00   11.00
   6   1   8    9.40    4.90
  -7  -1  -8    1.50    6.40
   7  -1   8    3.50    3.00
   7   1   8    5.50    3.00
  11  -2  -8   11.20    7.50
  11   2  -8    4.60    5.90
  10  -2  -8    8.60    4.90
  10  -2  -8    8.00    5.80
  10   2  -8   -0.30    4.10
   9  -2  -8   33.20    9.40
  -9  -2   8   43.70    8.90
   9  -2  -8   32.00    8.30
  -9   2   8   40.30    9.70
   9   2  -8   33.20    8.20
  -8  -2   8  263.47   20.90
   8  -2  -8  269.97   19.80
   8  -2  -8  269.67   21.80
   8   2  -8  241.38   19.80
   7  -2  -8   37.00    7.70
  -7  -2   8   38.60    7.70
  -7   2   8   46.40    9.80
   7   2  -8   26.10    5.90
   6  -2  -8  274.37   20.80
   6  -2  -8  269.37   18.30
  -6   2   8  315.87   21.80
   6   2  -8  266.77   19.20
   6   2  -8  277.17   16.80
   5  -2  -8  544.05   31.80
   5  -2  -8  621.94   33.70
  -5  -2   8  539.75   30.30
   5   2  -8  510.15   26.70
   5   2  -8  501.05   29.80
  -4  -2   8  244.98   16.70
   4  -2  -8  241.48   15.00
   4  -2  -8  264.57   18.00
   4   2  -8  237.98   16.60
  -4   2   8  237.68   17.60
   4   2  -8  232.18   14.00
  -3  -2   8   95.69    8.70
   3  -2  -8   94.29    7.80
   3   2  -8   93.29    7.40
  -3   2   8   88.49    9.30
  -2  -2   8  741.83   37.30
   2  -2  -8  742.23   35.90
   2   2  -8  823.72   36.50
  -2   2   8  794.72   39.30
  -1  -2   8  616.34   29.80
   1  -2  -8  581.34   29.10
  -1   2   8  565.84   30.50
   1   2  -8  619.04   29.70
   0  -2  -8   34.50    4.80
   0   2   8   41.60    5.30
   0   2  -8   44.70    5.60
   1  -2   8  406.46   21.40
  -1  -2  -8  390.06   22.30
  -1   2  -8  376.26   22.90
   1   2   8  412.26   22.10
   2  -2   8  253.17   15.60
  -2  -2  -8  240.78   16.80
   2   2   8  243.08   15.40
  -2   2  -8  281.47   18.70
  -3  -2  -8   16.40    5.20
   3  -2   8   12.90    3.20
  -3   2  -8   19.40    6.00
   3   2   8   12.80    3.50
  -4  -2  -8   20.50    5.00
   4  -2   8   18.40    4.60
  -4   2  -8   23.90    6.40
   4   2   8   17.30    3.80
   5  -2   8   79.79    8.90
  -5  -2  -8   84.89   10.90
   5   2   8   87.09    8.70
   6  -2   8   20.10    5.20
  -6  -2  -8   21.60    6.90
   6   2   8   15.20    4.50
   7  -2   8    7.80    2.60
   7   2   8    2.10    3.00
  10  -3  -8   60.89   11.80
  10   3  -8   64.09   11.70
   9  -3  -8   23.80    7.60
  -9  -3   8   24.60    6.80
   9  -3  -8   14.50    5.20
   9   3  -8   21.20    5.80
   8  -3  -8   32.50    7.70
  -8  -3   8   34.70    7.30
   8   3  -8   44.60    8.40
  -8   3   8   28.30    7.40
  -7  -3   8  102.59   11.40
   7  -3  -8  111.69   12.70
  -7   3   8  115.09   13.00
   7   3  -8  126.79   11.90
   6  -3  -8  216.78   17.90
   6  -3  -8  209.68   15.70
   6   3  -8  220.58   16.40
  -6   3   8  223.08   18.30
   5  -3  -8   46.30    6.50
   5  -3  -8   46.30    7.20
  -5  -3   8   48.50    6.90
   5   3  -8   48.00    6.60
   5   3  -8   50.99    6.00
  -5   3   8   53.09    7.70
   4  -3  -8  225.18   17.20
   4  -3  -8  221.98   14.60
  -4  -3   8  239.98   16.10
   4   3  -8  226.78   15.70
  -4   3   8  226.48   17.20
   4   3  -8  235.38   13.60
   3  -3  -8  662.23   31.70
  -3   3   8  632.74   34.90
   3   3  -8  635.84   30.60
   2  -3  -8  247.98   14.40
  -2  -3   8  243.78   15.30
  -2   3   8  217.08   16.50
   2   3  -8  251.87   14.70
   1  -3  -8  209.88   13.30
  -1  -3   8  220.08   13.70
   1   3  -8  212.18   13.80
   0  -3   8  506.85   24.60
   0  -3  -8  493.45   25.10
   0   3  -8  452.35   25.60
   0   3   8  450.25   25.70
  -1  -3  -8   57.59    6.60
   1  -3   8   53.69    5.80
   1   3   8   52.49    6.10
  -1   3  -8   58.49    7.00
  -2  -3  -8    7.90    3.00
   2  -3   8   10.80    3.20
  -2   3  -8    3.50    2.70
   2   3   8    6.60    2.10
  -3  -3  -8  172.98   14.20
   3  -3   8  165.38   12.00
   3   3   8  156.58   11.80
   4  -3   8   65.09    7.40
  -4  -3  -8   57.09    8.80
   4   3   8   52.99    6.40
   5  -3   8    1.30    2.00
  -5  -3  -8    5.40    4.20
   5   3   8    4.80    2.30
   6  -3   8   11.10    3.20
  -6  -3  -8    3.20    4.90
   6   3   8    6.30    3.40
   7  -3   8   30.50    6.50
   7   3   8   22.30    5.30
  10  -4  -8    2.10    4.80
   9  -4  -8   18.90    8.10
   9  -4  -8   10.50    5.80
   9   4  -8   11.70    5.00
  -8  -4   8   37.20    7.40
   8  -4  -8   27.60    6.40
   8  -4  -8   32.60    8.00
  -8   4   8   49.80    9.50
   8   4  -8   35.20    7.60
   7  -4  -8   81.19    9.20
   7  -4  -8   84.99   11.90
  -7  -4   8   73.89    9.20
  -7   4   8   79.49   10.50
   7   4  -8   83.59    9.40
   6  -4  -8   55.19    9.00
  -6  -4   8   67.79    8.40
   6  -4  -8   59.69    8.00
  -6   4   8   67.99    9.30
   6   4  -8   76.39    8.40
   5  -4  -8  290.67   21.50
   5  -4  -8  305.57   18.80
  -5  -4   8  297.17   19.60
   5   4  -8  294.47   18.80
   4  -4  -8  154.28   13.70
  -4  -4   8  170.98   13.00
   4  -4  -8  157.18   11.60
  -4   4   8  142.39   13.30
   4   4  -8  150.68   11.80
  -3  -4   8   32.50    5.10
   3  -4  -8   34.10    4.60
   3   4  -8   29.80    5.50
  -3   4   8   33.00    7.10
   2  -4  -8  381.26   20.40
  -2  -4   8  381.66   21.30
  -1  -4   8  377.76   20.30
   1  -4  -8  363.86   20.00
  -1   4   8  347.97   22.10
   0  -4   8   87.09    7.40
   0  -4  -8   85.79    7.80
  -1  -4  -8  217.88   15.00
   1  -4   8  226.28   14.10
   1   4   8  214.58   14.90
   2  -4   8  109.99    9.30
  -2  -4  -8  114.09   10.70
   2   4   8  119.59   10.00
  -3  -4  -8    6.70    3.30
   3  -4   8   11.30    3.10
   3   4   8   10.50    2.90
  -4  -4  -8    6.30    3.30
   4  -4   8   -0.70    1.60
   4   4   8    0.40    1.60
  -5  -4  -8   40.10    7.80
   5  -4   8   26.10    6.30
   5   4   8   33.30    6.20
   6  -4   8   -2.70    2.30
   6   4   8    2.90    2.90
   9  -5  -8   27.20    7.30
   9   5  -8   21.50    8.20
   8  -5  -8   -1.70    4.00
  -8  -5   8   -0.90    3.10
   8  -5  -8    1.70    4.00
   8   5  -8   -3.20    4.00
  -7  -5   8   54.59    8.00
   7  -5  -8   63.59    9.00
   7  -5  -8   71.99   10.60
   7   5  -8   78.59    8.40
  -7   5   8   53.29   10.30
   6  -5  -8  152.98   13.40
  -6  -5   8  163.78   13.60
   6  -5  -8  173.38   16.10
  -6   5   8  161.98   15.70
   6   5  -8  167.78   12.80
   5  -5  -8   24.10    4.80
  -5  -5   8   25.60    5.50
   5  -5  -8   25.60    6.40
   5   5  -8   24.50    4.90
   4  -5  -8  152.48   11.60
  -4  -5   8  151.58   11.90
   4  -5  -8  149.79   14.00
   4   5  -8  141.49   10.90
  -4   5   8  158.58   14.00
   3  -5  -8  187.68   13.10
  -3  -5   8  185.98   13.70
   3  -5  -8  204.38   16.20
  -3   5   8  237.18   16.80
   3   5  -8  196.78   13.20
  -2  -5   8   35.10    5.00
   2  -5  -8   49.50    5.50
  -2   5   8   42.50    6.70
   1  -5  -8   21.10    4.00
  -1  -5   8   11.90    2.80
  -1   5   8   15.20    4.30
   0  -5   8  160.78   11.30
   0  -5  -8  175.18   12.30
   0   5   8  162.08   13.20
  -1  -5  -8  149.69   11.80
   1   5   8  144.49   12.10
  -2  -5  -8   25.90    5.30
   2  -5   8   27.90    5.30
   2   5   8   19.60    4.50
   3  -5   8  111.79    9.50
  -3  -5  -8   92.09   10.60
   3   5   8  102.89    9.70
  -4  -5  -8   14.10    4.80
   4  -5   8    6.80    2.80
   4   5   8    8.20    3.10
  -5  -5  -8   -0.40    3.50
   5  -5   8    1.60    2.10
   5   5   8    6.00    3.50
   8  -6  -8   27.40    9.40
   7  -6  -8    8.20    4.20
  -7  -6   8   12.70    3.90
   7  -6  -8   17.60    6.70
   6  -6  -8   23.00    6.00
   6  -6  -8   22.30    6.30
  -6  -6   8   22.20    4.50
   6   6  -8   15.60    4.00
  -6   6   8   27.40    7.00
   5  -6  -8   93.49    9.10
   5  -6  -8   92.49   11.40
  -5  -6   8   95.99    9.30
  -5   6   8   94.79   11.60
   5   6  -8   93.99    7.90
  -4  -6   8   42.80    6.30
   4  -6  -8   60.19    8.70
  -4   6   8   61.29    8.60
   4   6  -8   59.19    5.90
  -3  -6   8   20.20    4.40
   3  -6  -8   18.40    4.50
   3  -6  -8   19.00    4.60
  -3   6   8   13.20    4.80
   3   6  -8   22.50    4.50
   2  -6  -8   76.19    9.30
  -2  -6   8   92.79    8.30
   2   6  -8   85.69    7.30
  -2   6   8   81.19    9.40
  -1  -6   8  129.49   10.30
  -1   6   8  145.29   12.60
   0  -6   8    6.90    2.30
   0  -6  -8   11.70    3.50
   0   6   8    6.40    3.70
   1  -6   8   24.40    4.70
  -1  -6  -8   26.70    5.50
   1   6   8   25.90    5.40
  -2  -6  -8   51.89    7.20
   2  -6   8   46.50    5.60
   2   6   8   41.90    7.10
  -3  -6  -8   14.90    4.80
   3  -6   8   14.00    3.60
   4  -6   8    6.90    3.60
  -4  -6  -8   14.60    5.40
   4   6   8    9.10    4.80
   6  -7  -8    5.40    4.20
   5  -7  -8   20.90    4.60
   5  -7  -8   17.00   10.50
  -5   7   8   18.30    6.20
   4  -7  -8    5.40    4.10
   3  -7  -8  129.59   12.50
  -3  -7   8  115.09    9.40
   3  -7  -8  114.79    9.30
  -3   7   8  113.89   12.30
   2  -7  -8    4.70    3.30
  -2  -7   8    0.70    1.70
   2  -7  -8    4.90    3.20
  -2   7   8    5.80    4.70
   1  -7  -8   57.19    6.30
  -1  -7   8   51.99    6.00
   1  -7  -8   47.50    7.20
  -1   7   8   59.59    8.80
   0  -7  -8   12.70    3.90
   0  -7   8   13.10    3.40
   0   7   8   13.10    5.30
  -1  -7  -8    0.90    3.00
   1  -7   8    4.30    3.30
   1   7   8   -3.10    4.00
  -2  -7  -8    4.20    2.70
   2  -7   8    2.70    1.90
   2   7   8    3.30    4.30
  -3  -7  -8   -0.90    3.40
   3  -7   8    0.40    1.80
   3  -8  -8    3.70    3.50
   3  -8  -8    3.80    2.50
   2  -8  -8    1.10    3.60
  -2  -8   8    6.40    2.30
   1  -8  -8   11.00    4.60
  -1  -8   8    8.00    2.70
   1  -8  -8   15.20    4.20
   0  -8  -8    0.50    2.80
   0  -8   8    3.70    2.40
   0  -8  -8   10.50    3.40
  11   0  -9   40.70   10.60
  10   0  -9   -0.80    4.50
 -10   0   9   10.90    5.40
  -9   0   9   30.80    8.00
   9   0  -9   15.40    5.60
   8   0  -9  191.78   18.00
  -8   0   9  196.88   17.90
   8   0  -9  207.58   16.10
   7   0  -9  155.18   15.00
   7   0  -9  161.78   12.90
  -7   0   9  155.58   15.70
  -6   0   9   14.20    4.10
   6   0  -9   10.70    4.30
   5   0  -9  678.13   32.50
   5   0  -9  635.94   35.90
  -5   0   9  607.94   35.70
   4   0  -9  849.81   39.10
  -4   0   9  792.42   42.40
   3   0  -9   -1.10    0.90
  -3   0   9    2.00    1.60
   2   0  -9  942.11   45.20
  -1   0   9  995.20   52.19
   1   0  -9 1302.17   54.99
   0   0  -9   46.10    5.90
  -1   0  -9  361.36   21.80
  -2   0  -9  338.87   22.10
  -3   0  -9   75.29    9.60
  -4   0  -9   27.30    7.30
   4   0   9   15.80    4.30
  -5   0  -9   14.60    5.80
   5   0   9   15.70    4.00
  -6   0  -9   12.50   10.40
   7   0   9   -1.30    2.60
  11  -1  -9   -2.50    5.30
  11   1  -9   -6.90    5.40
 -10  -1   9   29.60    7.30
  10  -1  -9   28.00    8.40
  10   1  -9   18.90    7.80
 -10   1   9   56.79   16.40
   9  -1  -9  111.09   20.60
   9  -1  -9  102.29   12.80
  -9  -1   9   86.79   12.00
  -9   1   9   99.09   13.50
   9   1  -9  104.09   13.10
  -8  -1   9   13.50    5.00
   8  -1  -9   17.00    5.60
   8  -1  -9   16.70    4.80
   8   1  -9    6.20    4.50
  -8   1   9   16.30    6.10
  -7  -1   9  303.17   22.80
   7  -1  -9  310.97   23.20
   7   1  -9  305.37   19.80
   7   1  -9  332.17   23.40
   6  -1  -9  461.75   28.40
   6  -1  -9  406.16   24.00
  -6  -1   9  408.96   27.00
   6   1  -9  412.76   23.30
  -6   1   9  437.26   28.10
   6   1  -9  414.16   26.90
   5  -1  -9   51.29    7.90
   5   1  -9   42.20    6.00
   5   1  -9   42.30    5.50
  -5   1   9   45.00    7.40
   4  -1  -9   87.59    7.90
  -4  -1   9   97.59    9.80
   4   1  -9   82.99    7.30
  -4   1   9   72.39    8.90
   3  -1  -9  689.23   32.10
  -3  -1   9  655.43   34.40
   3   1  -9  650.53   31.70
  -3   1   9  617.34   34.90
  -2  -1   9  790.82   40.30
   2  -1  -9  831.12   39.00
  -2   1   9  855.61   41.80
   2   1  -9  830.52   39.00
  -1  -1   9   65.29    6.70
   1  -1  -9   54.89    6.10
  -1   1   9   42.20    6.00
   1   1  -9   54.59    6.10
   0  -1  -9  747.13   40.30
   0  -1   9  973.00   43.30
   0   1   9  866.81   41.30
   0   1  -9  833.32   41.40
  -1  -1  -9  208.08   15.10
   1  -1   9  196.08   13.70
  -1   1  -9  263.87   18.50
   1   1   9  208.48   14.20
   2  -1   9   43.50    5.60
  -2  -1  -9   46.50    6.30
  -2   1  -9   41.70    6.70
   2   1   9   35.50    5.20
  -3  -1  -9   47.90    7.40
   3  -1   9   55.29    6.50
  -3   1  -9   54.59    8.70
   3   1   9   61.79    6.80
  -4  -1  -9   77.89    9.60
   4  -1   9   63.39    7.30
  -4   1  -9   59.49    9.50
   4   1   9   61.69    7.50
  -5  -1  -9    4.70    4.90
   5  -1   9    4.70    3.00
   5   1   9    8.60    3.30
  -5   1  -9    0.50    4.30
  -6  -1  -9   31.30    9.20
   6  -1   9   25.60    5.90
   7  -1   9   12.40    6.70
 -10  -2   9    1.00    3.00
  10  -2  -9    7.20    5.40
  10   2  -9   -3.30    4.60
   9  -2  -9   58.39   11.30
  -9  -2   9   70.89   10.60
  -9   2   9   60.89   11.40
   9   2  -9   59.19   11.40
  -8  -2   9   85.19   10.70
   8  -2  -9  110.89   14.80
   8  -2  -9   77.89   10.20
   8   2  -9   74.99   10.40
  -8   2   9   82.69   11.90
  -7  -2   9   67.39   14.90
   7  -2  -9   65.09    8.90
  -7   2   9   75.19   10.20
   7   2  -9   74.29    9.70
   6  -2  -9    6.50    3.30
  -6  -2   9    5.60    3.40
   6  -2  -9   11.50    4.60
   6   2  -9   15.30    4.70
  -5  -2   9  744.03   39.40
   5  -2  -9  736.33   36.40
   5  -2  -9  744.63   40.70
   5   2  -9  732.73   35.00
  -5   2   9  727.63   40.60
   5   2  -9  681.43   38.60
   4  -2  -9  943.21   48.60
   4  -2  -9  907.81   46.90
  -4  -2   9  962.70   47.40
   4   2  -9  922.91   47.10
  -4   2   9  994.80   49.30
   3  -2  -9   83.89    7.50
   3   2  -9   68.09    8.40
  -3   2   9   74.89    8.80
  -2  -2   9  996.70   48.30
   2   2  -9 1046.80   47.30
  -1  -2   9  347.07   19.80
   1  -2  -9  319.77   18.80
   1   2  -9  329.47   19.40
  -1   2   9  341.07   20.60
   0  -2   9   48.90    5.60
   0   2  -9   45.60    7.00
   0   2   9   43.30    5.70
   1  -2   9   67.69    6.90
  -1  -2  -9   62.99    7.30
   1   2   9   61.99    7.10
  -1   2  -9   66.19    7.90
   2  -2   9  295.77   18.20
  -2  -2  -9  292.07   19.80
   2   2   9  321.57   18.60
  -2   2  -9  294.97   20.90
  -3  -2  -9   67.69    8.80
   3  -2   9   68.19    7.40
  -3   2  -9   64.49    9.50
   3   2   9   58.89    7.10
   4  -2   9    2.70    2.40
   4   2   9    8.70    3.10
   5  -2   9   45.40    6.90
  -5  -2  -9   53.59   10.80
   5   2   9   42.60    6.50
   6  -2   9   11.80    3.90
  -6  -2  -9   -0.10    5.50
   6   2   9   22.90    5.30
  10  -3  -9    6.40    7.30
  10  -3  -9    8.10    6.00
  10   3  -9   17.50    6.10
  -9  -3   9   62.19    9.10
   9  -3  -9   47.00   10.00
  -9   3   9   43.30    9.70
   9   3  -9   62.49    9.80
   8  -3  -9   -2.10    3.00
   8  -3  -9    5.50    3.20
  -8  -3   9   -3.50    2.20
   8   3  -9    2.80    3.30
  -8   3   9   -4.00    4.20
  -7  -3   9  168.78   15.40
   7  -3  -9  189.28   14.90
   7  -3  -9  185.48   17.10
   7   3  -9  163.58   15.10
  -7   3   9  150.58   15.90
   6  -3  -9  279.87   22.20
  -6  -3   9  285.97   20.80
   6  -3  -9  294.77   19.20
  -6   3   9  312.87   23.10
   6   3  -9  304.07   20.70
   5  -3  -9   14.70    4.20
  -5  -3   9   23.50    5.70
   5  -3  -9   29.40    5.60
  -5   3   9   12.90    4.70
   5   3  -9   23.20    5.20
  -4  -3   9  255.87   18.10
   4  -3  -9  260.47   19.50
   4   3  -9  286.87   18.70
  -4   3   9  258.77   19.70
   3  -3  -9  306.77   18.20
  -3  -3   9  314.67   19.90
   3   3  -9  341.87   18.20
  -3   3   9  306.07   21.40
   2  -3  -9  188.68   12.60
  -2  -3   9  186.18   13.40
   2   3  -9  180.78   12.40
  -2   3   9  170.18   14.40
   1  -3  -9   41.00    5.60
   1   3  -9   58.29    6.40
  -1   3   9   55.49    7.40
   0  -3   9  454.85   24.00
   0  -3  -9  459.25   24.70
   0   3  -9  440.96   25.60
   0   3   9  425.86   25.40
   1  -3   9  225.58   14.70
  -1  -3  -9  233.38   15.90
   1   3   9  215.38   15.30
  -2  -3  -9   -1.00    1.70
   2  -3   9    1.80    1.60
   2   3   9    2.50    2.30
   3  -3   9   92.99   11.20
  -3  -3  -9   91.99   10.20
   3   3   9   78.89    8.10
   4  -3   9   63.69    7.30
  -4  -3  -9   68.69    9.40
   5  -3   9    0.20    2.60
  -5  -3  -9   -0.10    3.10
   5   3   9   -3.60    2.30
   6  -3   9    1.60    2.70
   6   3   9    9.00    4.10
   9  -4  -9   22.90    7.60
  -9  -4   9   10.80    6.30
  -9   4   9   40.60   10.80
   9   4  -9   46.50    8.20
   8  -4  -9   75.29   11.50
  -8   4   9   67.09   12.30
   8   4  -9   61.59    9.00
   7  -4  -9   44.10    9.30
  -7  -4   9   35.50    7.80
   7  -4  -9   23.30    6.60
  -7   4   9   25.10    6.50
   7   4  -9   31.20    7.10
   6  -4  -9   12.20    4.00
   6  -4  -9   10.50    5.00
   6   4  -9   10.50    3.80
  -6   4   9   22.10    5.80
   5  -4  -9  210.88   18.40
  -5  -4   9  246.48   17.50
   5  -4  -9  233.98   15.90
  -5   4   9  229.58   18.80
   5   4  -9  223.08   16.40
   4  -4  -9  313.97   18.70
  -4  -4   9  294.67   19.80
   4  -4  -9  291.57   21.70
   4   4  -9  304.37   19.60
  -4   4   9  306.57   22.10
   3  -4  -9   55.89    6.30
  -3   4   9   61.79    8.60
  -2  -4   9  288.27   18.30
  -2   4   9  270.77   19.70
   1  -4  -9  252.37   16.30
  -1  -4   9  279.87   17.30
   0  -4  -9   37.30    5.40
   0  -4   9   37.70    5.20
   1  -4   9   38.70    5.20
  -1  -4  -9   34.40    7.10
  -2  -4  -9  165.58   14.10
   2  -4   9  167.88   12.40
  -3  -4  -9    0.60    2.30
   3  -4   9    5.50    2.70
   3   4   9   -0.50    1.60
   4  -4   9   23.60    5.20
  -4  -4  -9   26.40    6.00
  -5  -4  -9    9.30    5.10
   5  -4   9    8.60    2.90
   5   4   9    1.60    3.40
   9  -5  -9   20.50    7.30
   8  -5  -9    6.20    6.20
  -8  -5   9   11.50    3.80
   8  -5  -9    8.30    5.00
   8   5  -9   11.10    5.20
  -8   5   9   11.50    7.00
   7  -5  -9   19.20    6.20
  -7  -5   9   30.10    6.10
   7  -5  -9   38.50    7.70
   7   5  -9   16.90    5.60
  -7   5   9   30.90    8.00
   6  -5  -9   81.09    9.00
  -6  -5   9   90.69    9.50
   6  -5  -9   77.19   10.70
  -6   5   9   92.29   11.70
   6   5  -9   73.69    8.60
  -5  -5   9   42.10    6.30
   5  -5  -9   41.70    9.00
   5  -5  -9   34.30    5.70
  -5   5   9   35.50   13.40
   5   5  -9   39.90    6.30
   4  -5  -9   53.49    6.20
   4  -5  -9   34.00    7.50
  -4  -5   9   40.40    6.20
   4   5  -9   50.19    6.40
   3  -5  -9  172.18   15.60
   3  -5  -9  195.28   13.10
  -3   5   9  181.88   16.00
   3   5  -9  187.98   13.60
  -2  -5   9   81.99    8.30
  -2   5   9  106.89   11.00
  -1  -5   9   22.40    4.70
   1  -5  -9   30.80    5.80
  -1   5   9   19.50    5.20
   0  -5   9  142.09   10.80
   0  -5  -9  143.99   11.60
  -1  -5  -9   67.69    7.90
   1   5   9   50.69    7.60
  -2  -5  -9    6.30    3.60
   2  -5   9    6.80    2.50
   2   5   9    5.10    3.80
   3  -5   9    4.50    2.70
  -3  -5  -9    9.30    4.00
   3   5   9    9.10    3.20
  -4  -5  -9   16.80    6.20
   4  -5   9    9.50    3.80
   4   5   9   13.80    4.90
   5  -5   9    6.80    3.30
  -7  -6   9   18.00    5.00
   7  -6  -9   14.40    5.10
  -7   6   9   14.00    7.20
   6  -6  -9    9.20    3.90
  -6  -6   9    3.80    4.70
  -6   6   9   -4.10    4.50
   6   6  -9    1.00    3.50
   5  -6  -9   51.49    8.30
   5  -6  -9   47.30    7.80
  -5   6   9   35.90    7.70
   5   6  -9   31.10    5.70
   4  -6  -9   64.19    7.20
  -4  -6   9   55.39    7.30
   4  -6  -9   56.09    9.00
   4   6  -9   70.89   12.10
  -4   6   9   76.69   12.10
  -3  -6   9   11.60    4.00
   3  -6  -9   14.70    3.70
   3  -6  -9   22.20    5.80
   3   6  -9   17.90    4.30
  -2  -6   9   18.40    4.20
  -2  -6   9   18.30    4.20
   2  -6  -9   29.70    6.30
   2  -6  -9   21.10    4.10
   2   6  -9   33.50    5.60
  -2   6   9   22.80    5.80
  -1  -6   9   63.39    7.10
   1  -6  -9   59.69    6.60
  -1   6   9   65.19    9.00
   0  -6   9    7.00    2.30
   0  -6  -9   14.00    3.80
   0   6   9    7.90    4.10
  -1  -6  -9   13.40    3.50
   1  -6   9   20.50    4.30
   1   6   9   16.30    5.80
  -2  -6  -9   18.60    4.70
   2   6   9   34.90    6.90
  -3  -6  -9   13.80    5.50
   3  -6   9   15.70    4.40
   3   6   9    9.10    4.80
   5  -7  -9    4.20    4.20
  -5  -7   9   -1.80    2.50
   4  -7  -9    9.90    4.50
   4  -7  -9   15.00    3.90
  -4  -7   9   14.10    3.70
  -4   7   9   11.60    5.20
   3  -7  -9   12.30    5.70
   3  -7  -9   10.60    3.30
  -3  -7   9    7.90    3.40
  -3   7   9   11.60    5.70
  -2  -7   9   30.20    7.00
   2  -7  -9   38.70   10.90
   2  -7  -9   28.40    5.00
  -2   7   9   35.60    7.80
   1  -7  -9   11.70    4.00
  -1  -7   9    2.00    2.00
  -1   7   9    5.10    5.40
   0  -7   9   38.00    5.50
   0  -7  -9   42.60    6.10
   0   7   9   44.60    8.50
   1  -7   9   29.80    4.80
  -1  -7  -9   27.20    5.30
   1   7   9   20.80    6.80
 -10   0  10   16.40    6.10
  10   0 -10   13.80    6.40
   9   0 -10    4.80    5.00
  -9   0  10   12.30    5.50
   8   0 -10  157.28   16.70
  -8   0  10  163.48   16.70
   7   0 -10  168.48   16.80
   7   0 -10  176.38   13.80
  -7   0  10  167.38   16.00
   6   0 -10   10.00    4.50
   6   0 -10   16.70    6.00
  -6   0  10   10.60    4.10
   5   0 -10  282.77   17.50
  -5   0  10  271.27   20.80
   5   0 -10  287.37   21.00
  -4   0  10  494.15   29.30
   4   0 -10  457.55   24.80
  -3   0  10  144.89   13.00
   2   0 -10  368.46   22.20
   1   0 -10 1049.09   49.40
  -1   0  10 1055.69   50.29
   0   0 -10  151.68   12.30
   0   0  10  157.88   12.30
   1   0  10  149.88   11.60
  -1   0 -10  135.89   16.70
   2   0  10  105.79    9.60
  -2   0 -10  101.29   10.90
  -3   0 -10   51.79   10.20
   3   0  10   57.29    6.90
   4   0  10    2.80    2.50
  -4   0 -10   -0.30    4.80
  -5   0 -10   32.50    9.80
   5   0  10   43.20    6.80
   6   0  10    5.40    3.80
 -10  -1  10   50.59   10.30
  10  -1 -10   74.79   13.40
  10   1 -10   55.29   11.70
 -10   1  10   48.40   11.30
  -9  -1  10   42.50    9.00
   9  -1 -10   38.00    9.10
   9   1 -10   23.30    6.80
  -9   1  10   22.70    7.60
   8  -1 -10   15.10    9.40
  -8  -1  10   15.90    5.20
   8  -1 -10    9.00    4.10
   8   1 -10    7.60    4.50
  -8   1  10   11.10    6.30
   7  -1 -10   66.59    8.70
  -7  -1  10   63.99    9.80
   7  -1 -10   63.09    9.80
   7   1 -10   40.10    8.40
   6  -1 -10  421.16   29.30
  -6  -1  10  360.96   25.10
   6  -1 -10  348.27   21.40
  -6   1  10  327.67   25.10
   6   1 -10  342.07   24.50
  -5  -1  10  212.18   17.50
   5  -1 -10  216.28   17.90
   5  -1 -10  212.08   14.80
   5   1 -10  231.38   14.70
  -5   1  10  238.88   18.90
   5   1 -10  224.08   17.80
  -4   1  10  286.37   21.00
   3  -1 -10  692.63   34.70
   3   1 -10  724.83   34.80
   2  -1 -10  142.49   10.70
   2   1 -10  132.09   10.40
  -2   1  10  129.29   12.00
  -1  -1  10   32.50    5.40
  -1   1  10   68.39   11.80
   1   1 -10   37.20    5.50
   0  -1 -10  158.48   12.50
   0  -1  10  172.68   12.60
   0   1 -10  153.48   12.70
   0   1  10  156.18   12.50
   1  -1  10  265.97   17.20
  -1  -1 -10  314.57   21.50
   1   1  10  275.07   17.80
  -2  -1 -10   13.50    3.20
   2  -1  10   30.70    5.90
  -2   1 -10   17.00    4.30
  -2   1 -10   16.90    4.30
  -3  -1 -10  138.69   13.30
   3  -1  10  112.89   10.30
  -3   1 -10  107.09   13.20
   3   1  10  123.99   10.80
   4  -1  10   84.49    9.30
  -4   1 -10   79.29   14.80
   5  -1  10    0.50    2.40
  -5  -1 -10  -10.00    5.00
   5   1  10    4.50    3.00
   6  -1  10   12.70    5.30
   6   1  10   -0.60    2.80
 -10  -2  10   16.60    6.50
  10  -2 -10    1.80    6.50
 -10   2  10   16.50    7.80
  10   2 -10    7.30    4.70
  -9  -2  10   -3.30    3.20
   9  -2 -10    1.10    4.20
   9  -2 -10    0.90    4.60
  -9  -2  10   -3.10    3.00
   9   2 -10    1.30    4.00
  -9   2  10   -5.40    4.40
   8  -2 -10  214.28   17.80
  -8  -2  10  221.68   19.80
   8  -2 -10  237.48   21.10
  -8   2  10  209.88   20.10
   8   2 -10  202.08   18.80
   7  -2 -10  201.78   19.30
   7  -2 -10  233.18   17.00
  -7   2  10  252.47   20.90
   7   2 -10  220.28   18.60
   6  -2 -10   26.00    4.90
   6  -2 -10   24.20    6.30
  -6  -2  10   36.40    7.80
   6   2 -10   33.80    6.80
  -6   2  10   21.60    7.00
   5  -2 -10  350.36   24.50
  -5  -2  10  333.87   23.20
   5   2 -10  333.97   23.10
  -5   2  10  359.56   25.10
  -4  -2  10  441.36   26.80
   4  -2 -10  432.86   23.60
  -4   2  10  417.66   27.50
   4   2 -10  411.46   22.70
  -3  -2  10  165.28   13.60
  -3   2  10  176.88   15.20
   3   2 -10  157.18   11.60
  -2  -2  10  170.78   13.60
   2  -2 -10  175.68   15.00
  -2   2  10  214.88   17.60
   2   2 -10  197.68   13.40
  -1  -2  10  769.12   39.30
   1  -2 -10  737.13   38.30
   1   2 -10  763.92   39.30
  -1   2  10  939.91   45.10
   0  -2 -10  131.59   11.10
   0  -2  10  139.99   11.00
   0   2 -10  142.29   12.00
   0   2  10  149.29   12.10
  -1  -2 -10   87.99    9.40
   1  -2  10   86.19    8.30
   1   2  10   96.29    9.30
  -1   2 -10   87.69    9.90
  -2  -2 -10  208.28   19.30
   2   2  10  194.28   14.30
   3  -2  10    8.80    3.00
  -3  -2 -10    5.40    4.80
  -4  -2 -10    5.70    4.10
   4  -2  10    2.80    2.60
   4   2  10    5.70    2.80
  -5  -2 -10   13.90    6.30
   6  -2  10   14.50    5.10
   6   2  10    9.80    4.00
 -10  -3  10   22.30    6.20
  10  -3 -10   22.70    8.50
 -10   3  10   22.70    8.50
  -9  -3  10   64.09   11.60
   9  -3 -10   81.09   15.00
   9   3 -10   70.69   10.80
   8  -3 -10    6.90    4.20
   8  -3 -10    8.70    4.60
  -8  -3  10    3.60    3.70
   8   3 -10    7.30    4.00
  -8   3  10   14.80    5.90
   7  -3 -10   69.29    8.40
   7  -3 -10   67.99   11.10
   7   3 -10   71.49    9.80
  -7   3  10   76.19   11.60
   6  -3 -10  270.37   18.20
   6  -3 -10  250.47   21.20
  -6  -3  10  240.28   19.80
   6   3 -10  271.17   20.40
  -6   3  10  284.27   22.30
  -5  -3  10  130.19   12.70
   5  -3 -10  136.49   14.20
   5  -3 -10  134.29   12.20
  -5   3  10  128.39   13.70
   5   3 -10  146.39   13.20
   4  -3 -10   92.19    8.70
   4  -3 -10   91.49   11.00
  -4   3  10   99.19   11.10
   4   3 -10   91.29   10.00
  -3  -3  10  470.15   27.40
   3  -3 -10  463.35   25.00
  -3   3  10  460.65   29.10
   2  -3 -10  146.39   11.10
  -2  -3  10  136.69   11.70
  -1  -3  10   14.20    4.10
   1  -3 -10   11.00    2.80
  -1   3  10   11.50    3.90
   0  -3  10  155.88   11.90
   0  -3 -10  163.78   12.70
   0   3  10  167.88   13.50
  -1  -3 -10  105.59   10.30
   1  -3  10  123.19   13.40
   1   3  10  112.59   10.60
   2  -3  10   49.99    6.40
   2   3  10   55.69    7.50
   3  -3  10    5.20    3.00
  -3  -3 -10    6.60    4.50
   3   3  10    8.40    3.40
   4  -3  10   59.09    7.40
  -4  -3 -10   48.70    9.40
   4   3  10   45.50    6.70
   5  -3  10    1.50    2.30
   5   3  10    1.40    2.60
   9  -4 -10    5.90    4.90
  -9  -4  10    5.10    2.90
  -9   4  10   -1.60    6.00
   8  -4 -10   92.29   11.10
  -8  -4  10   84.49   11.50
   8  -4 -10   92.79   13.30
  -8   4  10   82.19   13.20
   8   4 -10   79.99   11.60
   7  -4 -10   27.50    5.30
  -7  -4  10   39.50    8.10
   7  -4 -10   30.70    8.10
  -7   4  10   55.69   11.50
   7   4 -10   43.70    7.90
   6  -4 -10   11.70    3.70
  -6  -4  10    5.70    3.90
   6  -4 -10   15.00    5.60
   6   4 -10   15.40    5.20
  -5  -4  10  118.89   11.70
   5  -4 -10   97.79    9.50
   5  -4 -10  113.69   12.70
  -5   4  10   91.49   12.70
   5   4 -10  117.29   11.30
   4  -4 -10  221.38   14.90
  -4  -4  10  206.18   16.50
   4  -4 -10  206.28   18.70
  -4   4  10  235.58   18.80
   4   4 -10  201.68   16.00
  -3  -4  10   51.69    7.30
  -3   4  10   64.89    9.00
   2  -4 -10   87.19    8.50
  -2  -4  10   90.69    9.10
  -2   4  10   93.79   10.60
  -1  -4  10  243.68   16.00
   1  -4 -10  239.08   15.70
  -1   4  10  210.48   17.60
   0  -4 -10   44.10    6.10
   0  -4  10   32.60    5.10
  -1  -4 -10   18.10    4.90
   1  -4  10   11.90    3.20
   1   4  10    5.50    4.30
  -2  -4 -10   69.79    9.20
   2   4  10   64.89    9.00
  -3  -4 -10   25.50    6.50
   3  -4  10   27.00    5.90
   4  -4  10    0.30    2.30
  -4  -4 -10    4.40    4.50
   4   4  10   -1.30    2.30
   5  -4  10    7.30    3.00
   8  -5 -10    3.40    4.50
  -8   5  10    0.10    5.60
   7  -5 -10   23.60    4.80
   7  -5 -10   21.80    7.80
  -7  -5  10   21.30    8.40
   7   5 -10   39.40    7.30
  -7   5  10   19.00    6.80
   6  -5 -10   90.49   12.00
   6  -5 -10   82.89    9.10
  -6   5  10   97.59   12.50
   6   5 -10   64.09    9.30
   5  -5 -10   21.40    4.80
  -5  -5  10   25.50    5.70
   5  -5 -10   31.10    8.50
   5   5 -10   39.30    6.40
  -5   5  10   19.10    6.60
   4  -5 -10    5.10    3.40
  -4  -5  10    8.20    3.00
   4  -5 -10   15.80    3.80
   4   5 -10    9.20    4.00
  -3  -5  10   95.99   10.30
   3  -5 -10  111.39    9.90
   3  -5 -10  134.69   13.30
   3   5 -10  140.09   11.50
  -3   5  10   87.09   11.20
  -2  -5  10   85.49    9.10
   2  -5 -10   98.49    8.90
  -2   5  10   84.39   10.90
  -1  -5  10   16.20    4.00
   1  -5 -10   13.90    3.70
  -1   5  10   23.50    6.30
   0  -5  10   60.49    7.10
   0  -5 -10   73.89    8.00
   0   5  10   48.80    8.10
   1  -5  10   79.09    7.60
  -1  -5 -10   55.39    8.50
   1   5  10   61.29    8.80
   2  -5  10    6.40    2.70
  -2  -5 -10   -0.30    3.20
   2   5  10    4.80    3.80
   3  -5  10   13.10    3.80
  -3  -5 -10   29.00    7.20
   3   5  10   12.00    4.30
   4  -5  10    9.30    4.10
  -7  -6  10    9.50    4.30
   7  -6 -10   18.70    6.10
   6  -6 -10    7.40    4.50
  -6  -6  10    7.80    4.60
   6   6 -10    1.70    4.30
  -6   6  10   13.80    6.30
   5  -6 -10   16.40    5.80
  -5  -6  10   19.20    5.10
   5   6 -10   20.80    5.70
  -5   6  10   21.20    6.00
   4  -6 -10   37.10    8.20
  -4  -6  10   52.99    7.00
   4  -6 -10   34.70    7.80
  -4   6  10   50.89   10.10
   4   6 -10   48.20   11.50
  -3  -6  10    3.20    3.20
   3   6 -10    2.70    3.70
  -3   6  10   -1.50    4.50
   2  -6 -10   38.60    5.20
  -2  -6  10   27.40    5.80
  -2   6  10   41.70    8.30
   1  -6 -10   62.89    7.00
  -1  -6  10   56.39    7.10
  -1   6  10   37.60    7.90
   0  -6 -10   14.70    4.10
   0  -6  10   12.70    3.20
   0   6  10   21.20    5.90
   1  -6  10    7.50    2.60
  -1  -6 -10    3.60    3.10
   1   6  10    2.80    4.10
   2  -6  10   13.00    3.50
  -4  -7  10    7.80    3.90
   4  -7 -10   16.40    5.40
   3  -7 -10   39.10    8.40
  -3  -7  10   36.00    6.00
   2  -7 -10   16.10    4.30
   2  -7 -10   16.20    5.60
  -2  -7  10    9.80    3.90
   1  -7 -10    8.00    4.30
   0  -7  10    4.40    3.00
  10   0 -11   16.60    7.50
 -10   0  11   14.10    7.10
   9   0 -11   11.60    6.10
  -9   0  11   11.60    6.20
   8   0 -11   69.79   11.50
  -7   0  11  123.79   14.70
   7   0 -11  135.09   15.00
  -6   0  11   39.60    8.60
   6   0 -11   33.60    8.00
   6   0 -11   27.70    5.90
   5   0 -11  246.08   20.00
   5   0 -11  265.37   16.70
  -5   0  11  249.38   20.20
  -4   0  11  539.55   32.60
   4   0 -11  529.15   28.20
   3   0 -11   37.00    5.50
   2   0 -11  114.99    9.70
  -2   0  11  101.99   10.80
  -1   0  11  237.08   17.00
   1   0 -11  238.88   16.30
   0   0 -11  206.58   15.50
   1   0  11    6.40    2.60
  -1   0 -11    9.50    4.20
   2   0  11  180.58   13.60
  -2   0 -11  159.88   15.50
   3   0  11   76.89    8.70
  -3   0 -11   66.49   10.30
   4   0  11    1.40    3.50
  -4   0 -11    0.30    5.90
   5   0  11    1.20    3.00
 -10  -1  11   24.30    7.40
  10  -1 -11   17.40    8.10
  10   1 -11   30.30   10.10
 -10   1  11   37.00   10.70
   9  -1 -11   57.99   11.50
  -9  -1  11   61.09   12.70
  -9   1  11   80.19   12.90
   9   1 -11   74.19   13.10
   8  -1 -11   22.60    8.50
   8   1 -11   23.60    7.30
  -7  -1  11  125.99   14.20
  -7   1  11  135.69   15.20
   7   1 -11  132.19   15.00
  -6  -1  11  386.56   27.80
   6  -1 -11  408.76   28.70
  -6   1  11  432.26   29.30
   6   1 -11  382.56   27.60
   5  -1 -11  156.28   15.20
  -5  -1  11  162.98   15.00
   5  -1 -11  143.99   11.70
   5   1 -11  138.39   14.00
  -5   1  11  144.09   14.90
   4  -1 -11   51.09    6.50
  -4  -1  11   59.29    8.30
  -4   1  11   69.59    9.30
   4   1 -11   52.69    6.50
   3  -1 -11  378.96   21.60
   3   1 -11  357.16   21.00
  -3   1  11  361.46   24.80
  -2  -1  11  345.17   22.10
   2  -1 -11  337.77   20.50
  -2   1  11  357.46   23.30
   2   1 -11  359.06   20.90
  -1  -1  11   23.10    4.50
  -1   1  11   22.70    4.80
   0  -1 -11  277.67   18.60
   0  -1  11  274.67   18.10
   0   1  11  272.07   18.50
   1  -1  11  256.17   17.20
  -1  -1 -11  267.47   20.90
   1   1  11  265.07   18.00
  -1   1 -11  244.38   18.80
  -2  -1 -11   -0.40    2.20
   2  -1  11    4.00    2.70
   2   1  11    4.90    2.80
  -2   1 -11    6.20    4.30
   3  -1  11    9.70    3.50
   3   1  11   14.60    4.60
  -4  -1 -11   13.50    6.50
   4  -1  11   15.50    4.10
   4   1  11   22.70    5.90
   5  -1  11   17.30    4.90
   5   1  11   16.00    4.50
 -10  -2  11   44.90   12.20
  10  -2 -11   29.20   20.00
 -10   2  11   17.50    7.10
  -9  -2  11    5.80    5.00
   9  -2 -11   10.00    6.50
   9   2 -11   11.20    5.00
  -9   2  11   10.30    6.40
   8  -2 -11   84.09   10.30
   8  -2 -11  104.69   14.00
   8   2 -11  103.59   13.10
  -7  -2  11  135.39   14.80
   7  -2 -11  133.99   15.80
   7  -2 -11  141.59   12.80
   7   2 -11  148.59   15.00
  -7   2  11  132.69   15.90
  -6  -2  11   29.20    7.70
   6  -2 -11   33.80    6.50
  -6   2  11   31.10    8.20
   6   2 -11   23.20    6.20
   5  -2 -11  127.59   15.60
   5  -2 -11  119.19   12.00
  -5  -2  11   66.49   14.90
  -5   2  11  152.28   16.90
   5   2 -11   96.99   11.40
   4  -2 -11  373.36   21.90
  -4  -2  11  388.86   25.40
  -4   2  11  376.46   27.70
   3  -2 -11  173.68   12.90
  -3  -2  11  181.58   15.00
  -3   2  11  166.68   15.60
  -2  -2  11  128.19   11.60
   2  -2 -11  115.39   10.00
  -2   2  11  117.69   12.00
   1  -2 -11  258.17   17.30
  -1  -2  11  261.87   17.80
   0  -2  11   51.39    6.50
   0  -2 -11   45.80    6.30
   0   2  11   47.70    6.90
   1  -2  11    2.60    2.20
  -1  -2 -11    0.20    1.90
   1   2  11    2.80    2.20
  -2  -2 -11   51.09    9.80
   2  -2  11   68.29    9.80
  -3  -2 -11   44.40    9.00
   3  -2  11   53.59    7.30
   3   2  11   58.89    7.40
   4  -2  11    2.00    2.80
  -4  -2 -11    1.50    4.80
   4   2  11    5.00    2.70
   5  -2  11    3.10    2.90
   5   2  11   11.20    4.30
   9  -3 -11   60.09   12.80
   9  -3 -11   46.50   12.10
   9  -3 -11   57.79   15.00
   9   3 -11   53.09   10.70
  -9   3  11   92.79   16.00
  -8  -3  11   20.90    5.90
   8  -3 -11   21.00    6.60
  -8   3  11   26.90    8.00
   8   3 -11   27.30    6.70
   7  -3 -11   32.30   10.80
   7  -3 -11   10.60    4.00
   7   3 -11   17.30    6.10
   6  -3 -11  145.99   16.10
   6  -3 -11  172.88   13.70
  -6  -3  11  180.78   16.20
  -6   3  11  160.18   17.30
   6   3 -11  165.88   15.10
   5  -3 -11  113.99   10.30
  -5  -3  11   97.29   11.60
   5  -3 -11  100.99   12.70
   5   3 -11  127.89   12.70
  -5   3  11  139.59   14.70
  -4  -3  11    6.70    3.30
   4  -3 -11    5.50    2.90
  -4   3  11   15.00    5.50
  -3  -3  11  223.98   17.30
  -3   3  11  235.68   19.40
   2  -3 -11  254.77   16.70
  -2  -3  11  255.77   17.90
   1  -3 -11   28.20    5.70
  -1  -3  11   27.60    6.10
  -1   3  11   24.20    5.80
   0  -3  11  154.58   12.10
   0  -3 -11  139.09   12.00
   0   3  11  130.89   12.50
   1  -3  11   59.59    7.30
  -1  -3 -11   55.59    7.80
   1   3  11   64.49    8.20
   2  -3  11   11.70    3.90
  -2  -3 -11   -0.50    2.40
   2   3  11    3.10    2.50
  -3  -3 -11    7.10    3.90
   3  -3  11    8.80    3.50
   3   3  11   19.80    4.80
   4  -3  11   16.10    4.20
   4   3  11    1.00    3.20
   8  -4 -11   29.00    8.50
  -8  -4  11   25.40    6.50
  -8   4  11   20.90    8.80
   8   4 -11   35.70    8.70
  -7  -4  11   65.99   10.30
   7  -4 -11   76.19   12.20
   7  -4 -11   85.09    9.80
   7   4 -11   79.39   11.30
   6  -4 -11   18.50    6.60
  -6  -4  11    7.20    4.10
   6  -4 -11    7.30    4.30
   6   4 -11    7.50    4.80
  -6   4  11    0.90    4.50
   5  -4 -11   87.69    8.80
  -5  -4  11   71.99   10.10
   5  -4 -11   67.99   10.00
   5   4 -11   86.19   10.50
  -5   4  11   86.79   12.40
   4  -4 -11  174.18   16.90
  -4   4  11  194.58   18.20
   4   4 -11  180.18   15.40
  -3  -4  11   47.60    7.10
   3  -4 -11   39.50    5.50
  -3   4  11   50.39   10.30
   2  -4 -11   35.80    6.50
  -2  -4  11   22.10    5.60
  -2   4  11   24.60    6.30
  -1  -4  11  100.39   10.00
   1  -4 -11  120.29   10.60
  -1   4  11  107.89   12.30
   0  -4 -11   65.39    8.00
   0  -4  11   66.29    7.70
  -1  -4 -11    3.60    2.90
   1  -4  11    5.40    2.60
   1   4  11    8.40    3.90
   2  -4  11   25.20    5.60
  -2  -4 -11   32.60    7.30
   2   4  11   32.70    6.50
   3  -4  11   22.40    5.90
   3   4  11   33.70    7.50
   7  -5 -11   11.90    5.20
   7   5 -11    8.70    7.00
  -7   5  11    6.70    6.90
   6  -5 -11   72.59    8.60
   6  -5 -11   62.19   12.50
  -6  -5  11   32.20   10.60
  -6   5  11   70.39   13.20
   6   5 -11   55.69    9.60
   5  -5 -11   61.69   12.20
   5  -5 -11   46.20    6.70
  -5  -5  11   35.70    7.20
   5   5 -11   59.99   10.40
  -5   5  11   47.50   10.50
  -4  -5  11    1.90    2.60
   4  -5 -11   -2.60    2.10
   4  -5 -11   -2.30    3.40
   4   5 -11    9.30    4.20
  -4   5  11    0.60    4.70
  -3  -5  11   90.19    9.80
   3  -5 -11   78.99    8.10
  -2  -5  11   67.99    8.40
   2  -5 -11   59.19    7.00
   1  -5 -11   10.40    3.40
  -1  -5  11    3.50    3.00
  -1   5  11   10.10    4.40
   0  -5  11   32.80    5.40
   0  -5 -11   37.00    5.60
   0   5  11   19.80    5.60
  -1  -5 -11   54.69    7.60
   1   5  11   43.50    8.80
   2  -5  11   16.10    5.40
   5  -6 -11   28.00    8.60
  -5  -6  11   37.90    7.50
  -5   6  11   45.20   16.40
   5   6 -11   34.40    7.50
   4  -6 -11   26.20   10.90
  -4  -6  11   38.60    7.90
   4   6 -11   35.40   10.70
  -4   6  11   47.80    9.80
   3  -6 -11    7.90    3.20
  -3  -6  11    6.90    2.90
   3  -6 -11    7.40    3.60
  -3   6  11   18.60    6.70
   3   6 -11    5.60    4.50
  -2  -6  11    7.20    3.90
   2  -6 -11    5.30    3.10
  -2   6  11    0.40    5.50
   1  -6 -11   41.10    7.00
  -1  -6  11   38.80    7.20
  -1   6  11   23.00    7.90
   0  -6  11   62.49    7.80
   1  -6  11    1.90    2.10
   9   0 -12    3.20    5.80
  -9   0  12    5.40    5.20
   8   0 -12  107.59   14.10
  -8   0  12   82.49   13.80
  -7   0  12   64.99   12.10
   7   0 -12   60.89   12.10
   6   0 -12   11.40    4.00
  -6   0  12    6.10    4.00
   5   0 -12   87.49    8.50
  -5   0  12   69.69   10.50
   5   0 -12   88.69   11.20
   4   0 -12  379.76   22.50
   3   0 -12  167.08   13.00
  -2   0  12   11.30    4.10
   2   0 -12    9.50    2.90
   1   0 -12  298.77   19.70
  -1   0  12  306.27   20.80
   0   0  12   99.59   10.00
   0   0 -12  103.29   10.70
  -1   0 -12   -0.50    3.50
   1   0  12   -1.40    2.20
   2   0  12    7.80    3.20
  -2   0 -12    5.30    4.10
   4   0  12    2.80    3.30
  -9  -1  12  101.99   14.60
   9  -1 -12  109.29   15.80
   9   1 -12  147.49   17.00
  -9   1  12  114.09   16.10
   8  -1 -12   75.09   14.00
  -8   1  12   81.09   16.00
   8   1 -12   76.49   12.50
   7  -1 -12   33.80    9.50
  -7  -1  12   39.40    9.80
   7  -1 -12   37.80    8.90
  -7   1  12   68.39   10.90
   7   1 -12   39.70    8.90
   6  -1 -12  240.08   16.80
   6  -1 -12  231.98   20.80
  -6  -1  12  233.68   20.40
  -6   1  12  245.68   21.90
   6   1 -12  219.48   20.10
   5  -1 -12  191.28   17.00
  -5  -1  12  205.38   18.50
   5  -1 -12  216.88   18.70
   5   1 -12  205.68   18.10
  -5   1  12  193.48   18.50
  -4  -1  12   20.10    6.10
   4  -1 -12   16.70    4.30
  -4   1  12   25.40    9.10
  -3   1  12  252.87   20.30
  -2  -1  12  273.37   18.80
   2  -1 -12  239.28   16.60
   2   1 -12  224.18   20.10
  -1  -1  12   15.20    3.60
   1  -1 -12   11.20    4.20
   1   1 -12   21.20    6.40
  -1   1  12   12.20    4.20
   0  -1  12   17.10    4.40
   0  -1 -12   30.50    6.40
   0   1  12   27.50    6.60
  -1  -1 -12  123.89   12.70
   1  -1  12  120.09   11.10
  -2  -1 -12   35.20    8.10
   2  -1  12   28.80    6.00
   2   1  12   34.50    6.20
   2   1  12   35.30    6.40
  -3  -1 -12    5.10    4.90
   3   1  12    8.50    3.50
   4   1  12   18.70    4.90
   9  -2 -12    0.70    6.30
  -9  -2  12   -3.00    3.50
   9   2 -12   -0.50    4.00
  -9   2  12   21.30    7.70
   8  -2 -12   17.90    6.90
  -8  -2  12   20.70    6.30
   8  -2 -12   37.80    8.40
  -8   2  12   14.90    6.50
   8   2 -12   12.80    6.30
   7  -2 -12  106.49   15.20
   7  -2 -12  125.89   12.40
  -7  -2  12  141.59   15.90
   7   2 -12  134.99   15.50
  -7   2  12  122.99   16.10
  -6  -2  12   56.79    9.10
   6   2 -12   54.49   11.10
  -6   2  12   67.89   12.60
  -5  -2  12  125.49   13.60
   5  -2 -12  119.19   10.80
   5  -2 -12  118.69   13.90
  -5   2  12   99.69   13.10
   5   2 -12  101.69   12.50
  -4  -2  12  266.97   20.80
  -4   2  12  247.18   21.10
   3  -2 -12   62.79    7.60
  -3  -2  12   57.79    8.70
  -3   2  12   58.59    9.30
   2  -2 -12   34.40    5.70
  -2  -2  12   50.19    7.70
   1  -2 -12  172.58   14.00
  -1  -2  12  196.48   15.40
  -1   2  12  180.58   15.90
   0  -2 -12  127.59   11.40
   0  -2  12  118.59   11.10
   0   2  12  124.99   12.00
  -1  -2 -12   -1.60    3.20
   1  -2  12   -1.00    1.90
   1   2  12    1.40    2.90
   2  -2  12   56.79    7.40
  -2  -2 -12   32.70    6.80
   2   2  12   54.49   11.10
  -3  -2 -12   21.70    9.00
   3  -2  12   27.50    5.30
   3   2  12   37.90    7.20
   4   2  12    2.40    2.80
   8  -3 -12   16.70    5.60
  -8  -3  12   11.20    5.70
   8  -3 -12   30.00    9.80
   8   3 -12   21.90    7.40
  -8   3  12    9.90    6.50
   7  -3 -12    8.40    4.90
   7  -3 -12    7.60    4.10
  -7  -3  12   16.10    6.20
   7   3 -12    4.70    5.60
   6  -3 -12  115.89   14.00
  -6  -3  12  103.39   13.00
  -6   3  12  105.89   14.50
   5  -3 -12  107.39   17.10
  -5  -3  12  120.79   13.50
   5  -3 -12  137.29   12.00
  -5   3  12  161.48   16.60
  -4  -3  12    9.20    3.70
   4  -3 -12   15.90    4.40
  -4   3  12    6.70    4.70
   3  -3 -12  168.98   13.30
  -3  -3  12  150.38   14.20
  -3   3  12  166.98   16.30
  -2  -3  12  157.58   13.80
   2  -3 -12  156.78   12.70
   1  -3 -12   54.49    7.20
  -1  -3  12   58.79    7.60
   0  -3 -12   43.40    7.00
   0  -3  12   49.60    7.20
   0   3  12   49.40    7.70
  -1  -3 -12  102.99   11.00
   1  -3  12  106.79   10.50
   1   3  12  111.59   11.40
  -2  -3 -12   -1.10    4.40
   2  -3  12    6.80    2.80
   2   3  12    4.40    3.60
   3  -3  12   17.20    4.50
   3   3  12   13.70    5.30
   7  -4 -12  126.79   16.20
   7   4 -12   83.69   12.80
  -6  -4  12   18.10    6.70
   6  -4 -12   17.30    4.30
   6  -4 -12   18.40    7.50
   6   4 -12   13.30    6.10
   5  -4 -12   50.79    8.40
   5  -4 -12   55.49   11.80
  -5  -4  12   35.40    7.60
   5   4 -12   35.10    7.80
  -5   4  12   50.09    9.90
   4  -4 -12   52.39   11.10
   4  -4 -12   49.60    7.60
  -4  -4  12   52.19    8.20
   4   4 -12   50.29    9.60
  -4   4  12   54.19   10.40
  -3  -4  12   59.99    8.50
  -3  -4  12   59.99    8.60
   3  -4 -12   63.39    7.90
  -3   4  12   39.70    8.80
   2  -4 -12    6.80    2.60
  -2   4  12    8.60    4.20
   1  -4 -12   68.69    8.10
  -1  -4  12   59.49    7.90
  -1   4  12   63.79   10.40
   0  -4 -12   35.90    6.10
   0   4  12   54.99   10.60
   1  -4  12    6.80    3.10
   1   4  12   14.60    4.80
   2  -4  12   13.90    4.00
   2   4  12   11.50    5.40
   6  -5 -12   40.00    9.70
  -6  -5  12   39.80    8.00
  -5  -5  12   30.50    7.50
   5  -5 -12   41.10   10.00
  -5   5  12   38.60    9.90
   5   5 -12   26.50    8.20
   4  -5 -12    7.50    4.00
  -4  -5  12    1.50    2.90
   4  -5 -12    2.00    3.80
   4   5 -12    8.00    4.80
  -4   5  12    5.00    5.50
  -3  -5  12   27.50    8.20
   3  -5 -12   30.30    5.40
  -3   5  12   31.90    8.60
  -2  -5  12   97.69   12.50
   2  -5 -12   70.79    8.30
  -2   5  12   44.90   16.00
   1  -5 -12    9.70    4.10
  -1  -5  12    8.40    5.60
   0   5  12   13.00    6.90
   1  -5  12   45.40    6.70
  -8   0  13   78.69   14.50
   8   0 -13   63.79   14.40
  -7   0  13  227.48   22.20
   7   0 -13  211.08   21.70
  -6   0  13   15.40    6.30
   6   0 -13   18.40    5.70
   5   0 -13   60.19    9.60
  -5   0  13   63.69   10.50
  -4   0  13  222.18   19.60
   3   0 -13  104.99   13.10
  -3   0  13  101.69   13.50
  -2   0  13    3.30    2.70
   2   0 -13    4.80    3.40
   1   0 -13   72.99    9.10
  -1   0  13   71.89    9.30
   0   0  13  104.79   11.20
   2   0  13    6.70    3.00
   3   0  13    5.90    4.20
   8  -1 -13   51.19   11.40
   8   1 -13   36.90   10.80
  -7  -1  13    1.90    4.20
   7  -1 -13   11.70    5.40
   7   1 -13    4.70    5.30
  -7   1  13   15.90    7.90
   6  -1 -13   98.79   13.40
  -6  -1  13   76.59   12.50
  -6   1  13  110.09   15.10
   6   1 -13  125.59   14.50
   5  -1 -13  137.19   12.50
  -5  -1  13  157.58   16.20
   5  -1 -13  143.19   15.80
  -5   1  13  176.18   19.70
   5   1 -13  146.59   15.30
  -4  -1  13   11.20    4.60
   4  -1 -13    7.40    3.20
  -4   1  13    9.90    5.20
  -3  -1  13   97.19   12.70
  -3   1  13  104.39   12.60
   2  -1 -13  153.88   15.70
  -2  -1  13  172.38   15.20
  -2   1  13  162.28   15.40
   1  -1 -13    9.70    5.10
  -1  -1  13    4.60    3.20
  -1   1  13   12.80    4.50
   0  -1  13    8.90    4.00
   0  -1 -13    4.70    3.60
   0   1  13    1.80    2.60
   1  -1  13   42.40    7.90
  -1  -1 -13   36.20    6.70
   1   1  13   43.00    8.30
   2  -1  13   47.30    7.10
  -2  -1 -13   23.90    6.30
   2   1  13   38.10    7.20
   3  -1  13    0.20    3.20
   3   1  13    2.60    3.50
   8  -2 -13   36.60   14.60
  -8  -2  13   28.30    8.00
   8   2 -13   44.40   10.00
  -8   2  13   49.20   11.90
  -7  -2  13   81.49   11.70
   7  -2 -13   48.10    9.30
   7  -2 -13   67.19   13.80
  -7   2  13   88.49   15.50
   7   2 -13   76.29   12.20
  -6  -2  13   31.60    7.60
   6  -2 -13   31.90    8.80
   6   2 -13   31.00    7.30
  -6   2  13   26.40    9.30
  -5  -2  13   42.20    9.50
   5  -2 -13   29.70    8.90
   5  -2 -13   29.60    8.50
   5   2 -13   44.20    9.80
  -5   2  13   49.40   10.40
   4  -2 -13  141.39   12.80
  -4  -2  13  189.38   17.00
  -4   2  13  156.18   16.60
   3  -2 -13  186.78   15.00
  -3   2  13  219.68   19.00
   2  -2 -13   17.90    5.00
  -2   2  13   23.20    5.40
  -1  -2  13  191.08   15.80
   1  -2 -13  201.18   15.60
  -1   2  13  200.38   17.60
   0  -2  13   95.89   10.60
   0  -2 -13  102.09   10.80
   0   2  13  103.29   11.60
   1  -2  13    0.10    2.20
  -1  -2 -13   -2.00    3.60
   1   2  13   -0.40    3.00
   2  -2  13    1.00    2.60
   2   2  13    4.20    3.10
  -7  -3  13   14.40    6.30
   7  -3 -13    8.30    5.20
  -7   3  13   13.70    8.20
   6  -3 -13  105.69   11.10
  -6  -3  13  108.29   13.10
   6  -3 -13   65.69   13.50
  -6   3  13  101.19   18.30
  -5  -3  13  169.98   17.00
   5  -3 -13  161.08   17.40
   5   3 -13  134.19   20.00
  -5   3  13  166.88   18.80
   4  -3 -13   13.10    4.20
  -4  -3  13    3.60    3.30
  -3  -3  13   69.09    9.50
   3  -3 -13   63.39    7.70
  -3   3  13   50.79   10.00
   2  -3 -13   77.99    9.10
   1  -3 -13   56.99    7.70
  -1  -3  13   50.89    7.90
  -1   3  13   44.80    8.90
   0  -3  13    7.80    3.60
   0  -3 -13    1.60    3.40
   0   3  13    5.20    4.40
   1  -3  13   58.29    8.30
   1   3  13   34.40    7.20
   2  -3  13   10.10    3.40
   2   3  13   19.30    6.00
  -6  -4  13   22.30    7.20
   6  -4 -13   14.40    5.30
   5  -4 -13   17.60    7.50
  -5  -4  13   14.10    8.00
  -5   4  13   44.10   11.40
   5   4 -13   20.30    7.00
  -4  -4  13   86.09   11.90
   4  -4 -13   81.99   10.60
   4  -4 -13   89.89   12.20
   4   4 -13  105.79   13.20
  -4   4  13  100.59   14.50
  -3  -4  13   54.39    8.40
   3  -4 -13   45.50    7.20
  -3   4  13   28.50    7.70
  -2  -4  13   18.20    5.50
   2  -4 -13   18.10    4.90
  -2   4  13   12.70    5.80
  -1  -4  13   52.19    8.10
  -1   4  13   71.29   13.60
   0  -4  13   17.00    5.60
   0   4  13   27.60    8.00
   1  -4  13    5.10    3.00
  -4  -5  13   10.90    4.80
   4  -5 -13    4.90    7.10
  -3  -5  13   20.00    5.80
   7   0 -14   74.19   15.90
  -7   0  14  113.09   15.10
  -6   0  14   48.10   10.30
   6   0 -14   56.89   12.70
  -5   0  14    9.60    5.60
   5   0 -14   10.40    5.60
  -4   0  14  133.49   17.10
  -2   0  14    0.80    3.50
  -1   0  14   58.79    8.90
   0   0  14   61.39   11.80
   1   0  14    1.50    2.70
  -7  -1  14   12.10    6.60
   7  -1 -14    7.70    5.90
   7   1 -14   -2.00    4.00
  -7   1  14   -1.70    6.40
   6  -1 -14   91.59   16.90
  -6  -1  14   77.29   13.70
  -6   1  14   97.89   14.20
   6   1 -14  126.99   15.30
  -5  -1  14  141.59   15.90
   5  -1 -14  153.08   16.50
   5   1 -14  153.88   16.90
  -5   1  14  130.59   16.50
  -4  -1  14   10.40    4.90
  -4   1  14   13.50    8.50
   3  -1 -14   51.59   12.20
  -2  -1  14  159.28   15.60
   2  -1 -14  177.38   17.10
  -2   1  14  137.19   15.10
  -1  -1  14   47.80    9.80
   1  -1 -14   51.59    9.40
  -1   1  14   54.79   10.20
   0  -1  14   10.90    5.80
   0   1  14   22.90    6.00
   1  -1  14   13.20    5.40
   1   1  14   24.40    6.00
   7  -2 -14  117.29   15.90
  -7  -2  14   88.19   14.50
   7   2 -14   82.79   15.10
  -7   2  14   82.29   15.60
  -6  -2  14   33.10    9.50
   6  -2 -14   29.40    8.60
  -6   2  14   44.00   11.30
   6   2 -14   29.30    8.20
   5  -2 -14   30.00    6.00
  -5  -2  14   28.60    6.60
  -5   2  14   38.50   10.00
   5   2 -14   35.10    9.10
  -4  -2  14   72.69   10.60
  -4   2  14   76.39   12.20
  -3  -2  14   73.79   10.20
   3  -2 -14   72.99    9.40
  -3   2  14   63.49   11.90
   2  -2 -14   30.40    8.60
  -2  -2  14   23.90    6.00
  -2   2  14   45.70   10.50
  -1  -2  14   29.60    6.20
   1  -2 -14   55.29   11.70
   0  -2  14   89.19   10.40
   0   2  14   82.69   11.80
   1  -2  14   11.30    3.60
   1   2  14   14.20    6.30
  -6  -3  14   22.90    7.50
  -6   3  14   15.50    8.60
  -5  -3  14   82.59   12.40
   5  -3 -14  101.49   14.80
   5   3 -14  119.39   14.40
  -5   3  14  124.99   16.50
  -4  -3  14   64.19   10.60
  -4   3  14   55.49   13.00
  -3  -3  14   46.20   10.20
  -3   3  14   16.60    6.60
  -2  -3  14   48.40    8.90
  -2   3  14   52.89   10.40
  -1  -3  14   10.70    3.90
  -1   3  14    6.80    5.30
   0  -3  14    4.40    3.80
  -3  -4  14   41.30    9.20
  -6   0  15   90.29   14.60
   6   0 -15   97.99   16.10
  -5   0  15   17.10    9.10
   5   0 -15    1.60    6.00
  -4   0  15   16.30    6.00
  -3   0  15   67.39   13.00
  -2   0  15    6.30    5.40
  -5  -1  15  102.39   14.10
   5  -1 -15  100.19   14.60
   5   1 -15   92.39   15.10
  -5   1  15   96.89   16.10
  -4  -1  15   47.00   10.50
  -4   1  15   35.40    8.70
  -3  -1  15   -4.30    3.20
  -3   1  15    5.50    4.80
  -2   1  15  103.09   13.20
  -1   1  15   44.80   10.20
  -4  -2  15   83.29   12.50
  -4   2  15   96.89   14.80
  -3  -2  15   66.59   10.50
  -3   2  15   45.20   10.30
  -2  -2  15   -4.90    3.20
  -2   2  15   -0.50    5.00
   0   0   0    0.00    0.00

_computing_structure_solution     'SHELXT 2014/5 (Sheldrick, 2014)'
;
_shelx_hkl_checksum              74568
_olex2_submission_special_instructions 'No special instructions were received'
loop_
_space_group_symop_operation_xyz
'x, y, z'
'-x, y+1/2, -z'
loop_
_atom_site_label
_atom_site_type_symbol
_atom_site_fract_x
_atom_site_fract_y
_atom_site_fract_z
_atom_site_U_iso_or_equiv
_atom_site_adp_type
_atom_site_occupancy
_atom_site_site_symmetry_order
_atom_site_calc_flag
_atom_site_refinement_flags_posn
I1 I 0.34967(5) 0.14425(12) 0.03371(4) 0.0722(2) Uani 1 1 d .
O1 O 0.2201(8) 0.9163(7) 0.4328(6) 0.0744(15) Uani 1 1 d .
C2 C 0.3482(8) 0.6834(10) 0.2477(6) 0.057(2) Uani 1 1 d .
H2 H 0.4059 0.8162 0.2519 0.068 Uiso 1 1 calc R
C1 C 0.2347(6) 0.6385(14) 0.3286(4) 0.0451(11) Uani 1 1 d .
C3 C 0.2198(8) 0.7549(11) 0.4310(7) 0.0561(17) Uani 1 1 d .
C4 C 0.2077(6) 0.6242(13) 0.5242(5) 0.0457(14) Uani 1 1 d .
C5 C 0.1915(8) 0.6824(10) 0.6317(7) 0.058(2) Uani 1 1 d .
H5 H 0.1795 0.8054 0.6460 0.070 Uiso 1 1 calc R
C6 C 0.1937(9) 0.5545(11) 0.7149(7) 0.0635(19) Uani 1 1 d .
H6 H 0.1864 0.5908 0.7880 0.076 Uiso 1 1 calc R
C7 C 0.2067(8) 0.3707(11) 0.6920(6) 0.0599(18) Uani 1 1 d .
H7 H 0.2066 0.2849 0.7495 0.072 Uiso 1 1 calc R
C8 C 0.2200(8) 0.3128(9) 0.5837(6) 0.0501(15) Uani 1 1 d .
H8 H 0.2265 0.1891 0.5684 0.060 Uiso 1 1 calc R
C9 C 0.2234(7) 0.4413(9) 0.4993(6) 0.0427(13) Uani 1 1 d .
B6 B 0.1499(10) 0.6781(13) 0.1821(7) 0.059(2) Uani 1 1 d .
H6A H 0.0775 0.7961 0.1449 0.071 Uiso 1 1 calc R
B11 B 0.2855(11) 0.5784(11) 0.1164(7) 0.059(2) Uani 1 1 d .
H11 H 0.3001 0.6322 0.0339 0.071 Uiso 1 1 calc R
B7 B 0.4451(9) 0.4948(12) 0.2281(7) 0.0543(19) Uani 1 1 d .
H7A H 0.5612 0.4945 0.2175 0.065 Uiso 1 1 calc R
B3 B 0.4124(9) 0.5387(11) 0.3649(7) 0.0496(17) Uani 1 1 d .
H3 H 0.5074 0.5688 0.4438 0.060 Uiso 1 1 calc R
B5 B 0.0878(8) 0.5004(10) 0.2585(7) 0.0475(16) Uani 1 1 d .
H5A H -0.0283 0.5034 0.2691 0.057 Uiso 1 1 calc R
B10 B 0.1179(9) 0.4567(11) 0.1217(7) 0.0532(18) Uani 1 1 d .
H10 H 0.0230 0.4299 0.0422 0.064 Uiso 1 1 calc R
B12 B 0.2977(9) 0.3446(11) 0.1513(7) 0.0496(17) Uani 1 1 d .
B8 B 0.3778(9) 0.3185(11) 0.3063(6) 0.0487(17) Uani 1 1 d .
H8A H 0.4505 0.2022 0.3464 0.058 Uiso 1 1 calc R
B4 B 0.2444(8) 0.4187(10) 0.3728(6) 0.0409(15) Uani 1 1 d .
B9 B 0.1759(8) 0.2921(10) 0.2401(6) 0.0451(16) Uani 1 1 d .
H9 H 0.1192 0.1589 0.2374 0.054 Uiso 1 1 calc R
loop_
_atom_site_aniso_label
_atom_site_aniso_U_11
_atom_site_aniso_U_22
_atom_site_aniso_U_33
_atom_site_aniso_U_23
_atom_site_aniso_U_13
_atom_site_aniso_U_12
I1 0.0926(3) 0.0796(3) 0.0542(3) -0.0125(3) 0.0367(2) -0.0008(4)
O1 0.109(5) 0.037(3) 0.078(4) -0.006(3) 0.028(4) -0.004(3)
C2 0.070(4) 0.058(6) 0.048(3) 0.001(3) 0.025(3) -0.012(3)
C1 0.054(3) 0.039(3) 0.043(3) -0.001(4) 0.016(2) -0.005(4)
C3 0.055(4) 0.053(5) 0.058(4) -0.001(3) 0.014(3) -0.003(3)
C4 0.047(3) 0.042(4) 0.049(3) -0.006(3) 0.016(2) -0.002(3)
C5 0.061(4) 0.051(6) 0.068(4) -0.012(3) 0.026(3) 0.001(3)
C6 0.072(5) 0.079(5) 0.050(4) -0.005(4) 0.033(4) 0.003(4)
C7 0.058(4) 0.079(5) 0.048(4) 0.008(4) 0.024(3) 0.003(3)
C8 0.060(4) 0.043(4) 0.052(4) 0.003(3) 0.024(3) 0.003(3)
C9 0.040(3) 0.052(4) 0.038(3) -0.002(3) 0.014(3) 0.002(3)
B6 0.071(5) 0.055(7) 0.047(4) 0.009(4) 0.011(3) 0.000(4)
B11 0.077(5) 0.062(5) 0.041(4) 0.008(3) 0.023(4) -0.006(4)
B7 0.058(5) 0.064(5) 0.048(4) -0.002(3) 0.027(4) -0.014(4)
B3 0.047(4) 0.064(5) 0.040(4) -0.005(3) 0.016(3) -0.008(3)
B5 0.046(4) 0.045(4) 0.050(4) 0.005(3) 0.011(3) 0.000(3)
B10 0.058(5) 0.054(5) 0.044(4) 0.005(3) 0.007(3) -0.002(3)
B12 0.059(4) 0.052(4) 0.043(4) -0.002(3) 0.023(3) 0.000(3)
B8 0.055(4) 0.056(5) 0.039(4) 0.005(3) 0.020(3) 0.005(3)
B4 0.046(4) 0.041(4) 0.040(4) 0.001(3) 0.018(3) -0.002(3)
B9 0.051(4) 0.045(4) 0.044(4) 0.003(3) 0.020(3) -0.002(3)
loop_
_atom_type_symbol
_atom_type_description
_atom_type_scat_dispersion_real
_atom_type_scat_dispersion_imag
_atom_type_scat_source
C C 0.0033 0.0016 'International Tables Vol C Tables 4.2.6.8 and 6.1.1.4'
H H 0.0000 0.0000 'International Tables Vol C Tables 4.2.6.8 and 6.1.1.4'
B B 0.0013 0.0007 'International Tables Vol C Tables 4.2.6.8 and 6.1.1.4'
I I -0.4742 1.8119 'International Tables Vol C Tables 4.2.6.8 and 6.1.1.4'
O O 0.0106 0.0060 'International Tables Vol C Tables 4.2.6.8 and 6.1.1.4'
loop_
_geom_angle_atom_site_label_1
_geom_angle_atom_site_label_2
_geom_angle_atom_site_label_3
_geom_angle
C1 C2 H2 121.7
C1 C2 B6 60.8(4)
C1 C2 B11 110.5(6)
C1 C2 B7 111.1(6)
C1 C2 B3 61.5(4)
B6 C2 H2 117.2
B11 C2 H2 118.4
B11 C2 B6 63.0(5)
B11 C2 B7 63.3(5)
B11 C2 B3 114.6(6)
B7 C2 H2 117.9
B7 C2 B6 115.7(6)
B7 C2 B3 62.5(4)
B3 C2 H2 117.6
B3 C2 B6 114.6(5)
C2 C1 B6 62.9(4)
C2 C1 B3 61.6(4)
C2 C1 B5 111.9(5)
C2 C1 B4 112.9(6)
C3 C1 C2 125.1(7)
C3 C1 B6 126.9(7)
C3 C1 B3 109.3(5)
C3 C1 B5 119.3(5)
C3 C1 B4 107.0(5)
B3 C1 B6 116.4(5)
B5 C1 B6 62.6(4)
B5 C1 B3 115.1(7)
B4 C1 B6 116.5(6)
B4 C1 B3 63.5(5)
B4 C1 B5 63.1(5)
O1 C3 C1 124.9(8)
O1 C3 C4 128.9(8)
C4 C3 C1 106.1(7)
C5 C4 C3 122.3(8)
C9 C4 C3 115.2(6)
C9 C4 C5 122.3(7)
C4 C5 H5 120.9
C6 C5 C4 118.3(7)
C6 C5 H5 120.9
C5 C6 H6 119.6
C5 C6 C7 120.7(7)
C7 C6 H6 119.6
C6 C7 H7 119.6
C6 C7 C8 120.8(7)
C8 C7 H7 119.6
C7 C8 H8 120.3
C9 C8 C7 119.3(7)
C9 C8 H8 120.3
C4 C9 B4 110.6(6)
C8 C9 C4 118.5(6)
C8 C9 B4 130.9(6)
C2 B6 H6A 125.8
C2 B6 B11 56.8(5)
C2 B6 B5 103.2(5)
C2 B6 B10 103.3(6)
C1 B6 C2 56.3(4)
C1 B6 H6A 125.8
C1 B6 B11 102.1(6)
C1 B6 B5 58.1(4)
C1 B6 B10 103.4(6)
B11 B6 H6A 123.5
B5 B6 H6A 122.8
B5 B6 B11 106.6(6)
B10 B6 H6A 123.3
B10 B6 B11 60.1(5)
B10 B6 B5 59.6(5)
C2 B11 B6 60.2(5)
C2 B11 H11 124.6
C2 B11 B7 58.4(5)
C2 B11 B10 105.1(6)
C2 B11 B12 104.1(5)
B6 B11 H11 121.1
B7 B11 B6 109.4(6)
B7 B11 H11 120.7
B7 B11 B10 109.0(5)
B10 B11 B6 59.0(5)
B10 B11 H11 122.3
B12 B11 B6 107.3(6)
B12 B11 H11 123.0
B12 B11 B7 60.2(5)
B12 B11 B10 60.1(4)
C2 B7 B11 58.2(5)
C2 B7 H7A 125.0
C2 B7 B3 59.5(4)
C2 B7 B12 103.3(6)
C2 B7 B8 104.3(5)
B11 B7 H7A 121.5
B11 B7 B8 108.0(5)
B3 B7 B11 108.0(6)
B3 B7 H7A 121.9
B3 B7 B12 106.6(5)
B3 B7 B8 58.8(4)
B12 B7 B11 59.5(5)
B12 B7 H7A 123.3
B12 B7 B8 60.1(4)
B8 B7 H7A 122.6
C2 B3 B7 58.1(4)
C2 B3 H3 124.7
C2 B3 B8 105.4(5)
C2 B3 B4 104.4(5)
C1 B3 C2 57.0(4)
C1 B3 B7 104.0(5)
C1 B3 H3 125.7
C1 B3 B8 104.1(6)
C1 B3 B4 57.6(4)
B7 B3 H3 121.5
B7 B3 B4 109.4(5)
B8 B3 B7 61.6(4)
B8 B3 H3 122.2
B8 B3 B4 60.6(4)
B4 B3 H3 121.9
C1 B5 B6 59.3(4)
C1 B5 H5A 125.5
C1 B5 B10 104.7(5)
C1 B5 B4 58.4(4)
C1 B5 B9 104.8(5)
B6 B5 H5A 120.2
B10 B5 B6 60.0(5)
B10 B5 H5A 121.4
B10 B5 B4 110.2(5)
B10 B5 B9 62.0(4)
B4 B5 B6 109.7(5)
B4 B5 H5A 120.5
B9 B5 B6 110.4(5)
B9 B5 H5A 121.1
B9 B5 B4 60.5(4)
B6 B10 B11 60.8(5)
B6 B10 H10 120.8
B6 B10 B12 108.1(6)
B6 B10 B9 108.5(6)
B11 B10 H10 121.8
B11 B10 B9 107.4(5)
B5 B10 B6 60.4(4)
B5 B10 B11 107.8(5)
B5 B10 H10 122.4
B5 B10 B12 106.3(5)
B5 B10 B9 59.3(4)
B12 B10 B11 59.3(4)
B12 B10 H10 122.7
B12 B10 B9 59.5(4)
B9 B10 H10 122.0
B11 B12 I1 121.1(5)
B11 B12 B7 60.3(5)
B11 B12 B10 60.7(5)
B11 B12 B8 109.1(6)
B11 B12 B9 110.1(6)
B7 B12 I1 118.6(5)
B7 B12 B10 109.5(6)
B7 B12 B8 60.7(4)
B7 B12 B9 109.7(5)
B10 B12 I1 123.0(5)
B10 B12 B8 109.5(5)
B10 B12 B9 61.4(4)
B8 B12 I1 119.5(5)
B9 B12 I1 121.6(5)
B9 B12 B8 60.2(4)
B7 B8 H8A 121.9
B3 B8 B7 59.7(4)
B3 B8 B12 106.6(5)
B3 B8 H8A 121.6
B3 B8 B4 60.8(4)
B3 B8 B9 108.6(5)
B12 B8 B7 59.2(4)
B12 B8 H8A 123.1
B12 B8 B9 59.7(4)
B4 B8 B7 108.0(6)
B4 B8 B12 106.6(5)
B4 B8 H8A 121.8
B4 B8 B9 59.8(4)
B9 B8 B7 108.0(5)
B9 B8 H8A 121.4
C1 B4 B3 59.0(4)
C1 B4 B5 58.6(4)
C1 B4 B8 103.6(5)
C1 B4 B9 104.3(5)
C9 B4 C1 100.8(5)
C9 B4 B3 109.8(5)
C9 B4 B5 113.9(5)
C9 B4 B8 138.5(6)
C9 B4 B9 142.3(6)
B5 B4 B3 107.8(5)
B5 B4 B8 107.4(5)
B5 B4 B9 59.7(4)
B8 B4 B3 58.6(4)
B9 B4 B3 107.2(5)
B9 B4 B8 60.2(4)
B5 B9 B10 58.7(4)
B5 B9 B12 105.6(5)
B5 B9 B8 107.3(5)
B5 B9 B4 59.8(4)
B5 B9 H9 123.0
B10 B9 H9 122.5
B12 B9 B10 59.1(4)
B12 B9 B8 60.1(4)
B12 B9 B4 107.1(5)
B12 B9 H9 122.8
B8 B9 B10 107.6(5)
B8 B9 H9 121.5
B4 B9 B10 106.9(5)
B4 B9 B8 60.0(4)
B4 B9 H9 122.0
loop_
_geom_bond_atom_site_label_1
_geom_bond_atom_site_label_2
_geom_bond_distance
I1 B12 2.172(7)
O1 C3 1.183(9)
C2 H2 1.1000
C2 C1 1.636(8)
C2 B6 1.749(11)
C2 B11 1.687(11)
C2 B7 1.691(11)
C2 B3 1.716(10)
C1 C3 1.525(11)
C1 B6 1.716(9)
C1 B3 1.715(10)
C1 B5 1.693(10)
C1 B4 1.688(12)
C3 C4 1.493(11)
C4 C5 1.396(9)
C4 C9 1.389(11)
C5 H5 0.9300
C5 C6 1.358(10)
C6 H6 0.9300
C6 C7 1.386(11)
C7 H7 0.9300
C7 C8 1.394(9)
C8 H8 0.9300
C8 C9 1.383(9)
C9 B4 1.580(9)
B6 H6A 1.1000
B6 B11 1.796(13)
B6 B5 1.771(11)
B6 B10 1.764(13)
B11 H11 1.1000
B11 B7 1.773(12)
B11 B10 1.784(12)
B11 B12 1.759(11)
B7 H7A 1.1000
B7 B3 1.767(10)
B7 B12 1.773(11)
B7 B8 1.800(11)
B3 H3 1.1000
B3 B8 1.750(11)
B3 B4 1.790(10)
B5 H5A 1.1000
B5 B10 1.756(11)
B5 B4 1.768(10)
B5 B9 1.767(11)
B10 H10 1.1000
B10 B12 1.774(11)
B10 B9 1.815(10)
B12 B8 1.788(10)
B12 B9 1.780(9)
B8 H8A 1.1000
B8 B4 1.786(10)
B8 B9 1.790(11)
B4 B9 1.782(10)
B9 H9 1.1000
loop_
_geom_torsion_atom_site_label_1
_geom_torsion_atom_site_label_2
_geom_torsion_atom_site_label_3
_geom_torsion_atom_site_label_4
_geom_torsion
I1 B12 B8 B7 108.3(6)
I1 B12 B8 B3 146.0(5)
I1 B12 B8 B4 -150.3(5)
I1 B12 B8 B9 -111.8(6)
I1 B12 B9 B5 -150.4(5)
I1 B12 B9 B10 -113.1(6)
I1 B12 B9 B8 108.3(6)
I1 B12 B9 B4 147.0(5)
O1 C3 C4 C5 1.3(11)
O1 C3 C4 C9 -174.9(8)
C2 C1 C3 O1 39.4(11)
C2 C1 C3 C4 -139.8(7)
C2 C1 B6 B11 35.4(5)
C2 C1 B6 B5 137.6(6)
C2 C1 B6 B10 97.2(6)
C2 C1 B3 B7 -35.7(5)
C2 C1 B3 B8 -99.4(6)
C2 C1 B3 B4 -140.0(5)
C2 C1 B5 B6 -40.3(6)
C2 C1 B5 B10 0.5(8)
C2 C1 B5 B4 105.5(7)
C2 C1 B5 B9 64.9(7)
C2 C1 B4 C9 144.6(5)
C2 C1 B4 B3 37.9(5)
C2 C1 B4 B5 -103.9(5)
C2 C1 B4 B8 -1.6(6)
C2 C1 B4 B9 -63.9(6)
C2 B6 B11 B7 32.8(5)
C2 B6 B11 B10 133.9(6)
C2 B6 B11 B12 96.6(6)
C2 B6 B5 C1 35.2(5)
C2 B6 B5 B10 -97.9(6)
C2 B6 B5 B4 4.6(7)
C2 B6 B5 B9 -60.3(7)
C2 B6 B10 B11 -38.3(5)
C2 B6 B10 B5 97.6(5)
C2 B6 B10 B12 -1.3(7)
C2 B6 B10 B9 61.7(6)
C2 B11 B7 B3 33.9(5)
C2 B11 B7 B12 132.8(6)
C2 B11 B7 B8 96.0(6)
C2 B11 B10 B6 40.4(5)
C2 B11 B10 B5 1.0(7)
C2 B11 B10 B12 -97.8(6)
C2 B11 B10 B9 -61.5(7)
C2 B11 B12 I1 -147.5(5)
C2 B11 B12 B7 -40.1(5)
C2 B11 B12 B10 99.5(6)
C2 B11 B12 B8 -2.7(8)
C2 B11 B12 B9 61.7(7)
C2 B7 B3 C1 35.2(5)
C2 B7 B3 B8 133.9(6)
C2 B7 B3 B4 95.3(6)
C2 B7 B12 I1 151.3(5)
C2 B7 B12 B11 39.8(5)
C2 B7 B12 B10 3.0(7)
C2 B7 B12 B8 -99.0(5)
C2 B7 B12 B9 -62.6(7)
C2 B7 B8 B3 -39.9(5)
C2 B7 B8 B12 97.4(6)
C2 B7 B8 B4 -1.6(7)
C2 B7 B8 B9 61.6(7)
C2 B3 B8 B7 39.4(5)
C2 B3 B8 B12 1.9(7)
C2 B3 B8 B4 -98.1(5)
C2 B3 B8 B9 -61.0(6)
C2 B3 B4 C1 -33.8(4)
C2 B3 B4 C9 -124.8(6)
C2 B3 B4 B5 -0.1(6)
C2 B3 B4 B8 99.8(5)
C2 B3 B4 B9 62.8(6)
C1 C2 B6 B11 -137.4(6)
C1 C2 B6 B5 -36.0(6)
C1 C2 B6 B10 -97.4(6)
C1 C2 B11 B6 39.1(6)
C1 C2 B11 B7 -104.0(6)
C1 C2 B11 B10 -0.7(8)
C1 C2 B11 B12 -63.0(8)
C1 C2 B7 B11 103.1(6)
C1 C2 B7 B3 -38.9(5)
C1 C2 B7 B12 62.6(6)
C1 C2 B7 B8 0.6(7)
C1 C2 B3 B7 138.2(6)
C1 C2 B3 B8 97.0(6)
C1 C2 B3 B4 34.1(5)
C1 C3 C4 C5 -179.6(5)
C1 C3 C4 C9 4.2(7)
C1 B6 B11 C2 -35.2(5)
C1 B6 B11 B7 -2.4(8)
C1 B6 B11 B10 98.7(6)
C1 B6 B11 B12 61.4(7)
C1 B6 B5 B10 -133.1(6)
C1 B6 B5 B4 -30.6(5)
C1 B6 B5 B9 -95.5(6)
C1 B6 B10 B11 -96.4(6)
C1 B6 B10 B5 39.6(5)
C1 B6 B10 B12 -59.3(6)
C1 B6 B10 B9 3.7(7)
C1 B3 B8 B7 98.5(6)
C1 B3 B8 B12 61.0(6)
C1 B3 B8 B4 -39.1(4)
C1 B3 B8 B9 -1.9(6)
C1 B3 B4 C9 -90.9(5)
C1 B3 B4 B5 33.7(5)
C1 B3 B4 B8 133.6(5)
C1 B3 B4 B9 96.6(5)
C1 B5 B10 B6 -40.5(5)
C1 B5 B10 B11 -0.9(7)
C1 B5 B10 B12 61.3(6)
C1 B5 B10 B9 99.2(6)
C1 B5 B4 C9 88.2(6)
C1 B5 B4 B3 -33.8(5)
C1 B5 B4 B8 -95.6(5)
C1 B5 B4 B9 -133.8(5)
C1 B5 B9 B10 -99.0(5)
C1 B5 B9 B12 -61.5(6)
C1 B5 B9 B8 1.4(6)
C1 B5 B9 B4 39.5(4)
C1 B4 B9 B5 -39.5(4)
C1 B4 B9 B10 -3.2(6)
C1 B4 B9 B12 58.9(6)
C1 B4 B9 B8 97.7(5)
C3 C1 B6 C2 115.0(8)
C3 C1 B6 B11 150.4(6)
C3 C1 B6 B5 -107.4(7)
C3 C1 B6 B10 -147.8(7)
C3 C1 B3 C2 -120.1(7)
C3 C1 B3 B7 -155.8(6)
C3 C1 B3 B8 140.5(6)
C3 C1 B3 B4 99.9(6)
C3 C1 B5 B6 119.0(8)
C3 C1 B5 B10 159.8(7)
C3 C1 B5 B4 -95.3(7)
C3 C1 B5 B9 -135.8(7)
C3 C1 B4 C9 3.1(6)
C3 C1 B4 B3 -103.5(5)
C3 C1 B4 B5 114.7(5)
C3 C1 B4 B8 -143.0(5)
C3 C1 B4 B9 154.7(5)
C3 C4 C5 C6 -174.8(6)
C3 C4 C9 C8 177.3(6)
C3 C4 C9 B4 -2.1(7)
C4 C5 C6 C7 -2.1(11)
C4 C9 B4 C1 -0.7(6)
C4 C9 B4 B3 60.0(7)
C4 C9 B4 B5 -61.0(7)
C4 C9 B4 B8 124.6(8)
C4 C9 B4 B9 -131.8(9)
C5 C4 C9 C8 1.1(9)
C5 C4 C9 B4 -178.3(5)
C5 C6 C7 C8 0.9(12)
C6 C7 C8 C9 1.4(10)
C7 C8 C9 C4 -2.3(9)
C7 C8 C9 B4 177.0(6)
C8 C9 B4 C1 179.9(6)
C8 C9 B4 B3 -119.3(7)
C8 C9 B4 B5 119.7(7)
C8 C9 B4 B8 -54.8(12)
C8 C9 B4 B9 48.8(13)
C9 C4 C5 C6 1.1(10)
C9 B4 B9 B5 90.7(9)
C9 B4 B9 B10 127.0(9)
C9 B4 B9 B12 -170.9(8)
C9 B4 B9 B8 -132.1(10)
B6 C2 C1 C3 -117.6(8)
B6 C2 C1 B3 147.8(6)
B6 C2 C1 B5 40.2(6)
B6 C2 C1 B4 109.1(6)
B6 C2 B11 B7 -143.1(6)
B6 C2 B11 B10 -39.8(5)
B6 C2 B11 B12 -102.1(6)
B6 C2 B7 B11 36.4(6)
B6 C2 B7 B3 -105.6(6)
B6 C2 B7 B12 -4.1(7)
B6 C2 B7 B8 -66.1(7)
B6 C2 B3 C1 -30.8(6)
B6 C2 B3 B7 107.4(6)
B6 C2 B3 B8 66.2(7)
B6 C2 B3 B4 3.3(7)
B6 C1 C3 O1 -40.8(11)
B6 C1 C3 C4 140.0(7)
B6 C1 B3 C2 32.0(6)
B6 C1 B3 B7 -3.7(9)
B6 C1 B3 B8 -67.4(8)
B6 C1 B3 B4 -108.0(7)
B6 C1 B5 B10 40.9(5)
B6 C1 B5 B4 145.8(6)
B6 C1 B5 B9 105.2(6)
B6 C1 B4 C9 -145.5(5)
B6 C1 B4 B3 107.9(6)
B6 C1 B4 B5 -33.9(5)
B6 C1 B4 B8 68.4(6)
B6 C1 B4 B9 6.1(7)
B6 B11 B7 C2 -33.5(5)
B6 B11 B7 B3 0.4(8)
B6 B11 B7 B12 99.3(6)
B6 B11 B7 B8 62.5(7)
B6 B11 B10 B5 -39.4(5)
B6 B11 B10 B12 -138.2(6)
B6 B11 B10 B9 -101.9(6)
B6 B11 B12 I1 149.8(5)
B6 B11 B12 B7 -102.8(6)
B6 B11 B12 B10 36.8(5)
B6 B11 B12 B8 -65.4(7)
B6 B11 B12 B9 -1.0(8)
B6 B5 B10 B11 39.6(5)
B6 B5 B10 B12 101.8(6)
B6 B5 B10 B9 139.7(6)
B6 B5 B4 C1 30.9(5)
B6 B5 B4 C9 119.2(6)
B6 B5 B4 B3 -2.9(7)
B6 B5 B4 B8 -64.7(7)
B6 B5 B4 B9 -102.9(6)
B6 B5 B9 B10 -36.7(5)
B6 B5 B9 B12 0.8(7)
B6 B5 B9 B8 63.7(6)
B6 B5 B9 B4 101.8(6)
B6 B10 B12 I1 -147.7(5)
B6 B10 B12 B11 -37.7(5)
B6 B10 B12 B7 -1.1(7)
B6 B10 B12 B8 63.8(7)
B6 B10 B12 B9 101.3(6)
B6 B10 B9 B5 36.4(5)
B6 B10 B9 B12 -100.5(6)
B6 B10 B9 B8 -63.5(7)
B6 B10 B9 B4 -0.3(7)
B11 C2 C1 C3 -157.7(7)
B11 C2 C1 B6 -40.1(6)
B11 C2 C1 B3 107.7(6)
B11 C2 C1 B5 0.1(9)
B11 C2 C1 B4 69.0(7)
B11 C2 B6 C1 137.4(6)
B11 C2 B6 B5 101.4(6)
B11 C2 B6 B10 40.0(5)
B11 C2 B7 B3 -142.0(6)
B11 C2 B7 B12 -40.5(5)
B11 C2 B7 B8 -102.5(6)
B11 C2 B3 C1 -100.9(7)
B11 C2 B3 B7 37.2(6)
B11 C2 B3 B8 -3.9(8)
B11 C2 B3 B4 -66.8(7)
B11 B6 B5 C1 94.1(6)
B11 B6 B5 B10 -39.0(5)
B11 B6 B5 B4 63.5(7)
B11 B6 B5 B9 -1.4(7)
B11 B6 B10 B5 136.0(6)
B11 B6 B10 B12 37.1(5)
B11 B6 B10 B9 100.0(6)
B11 B7 B3 C2 -33.4(5)
B11 B7 B3 C1 1.8(7)
B11 B7 B3 B8 100.5(6)
B11 B7 B3 B4 61.9(7)
B11 B7 B12 I1 111.5(6)
B11 B7 B12 B10 -36.8(5)
B11 B7 B12 B8 -138.8(6)
B11 B7 B12 B9 -102.5(6)
B11 B7 B8 B3 -100.6(6)
B11 B7 B8 B12 36.6(5)
B11 B7 B8 B4 -62.3(7)
B11 B7 B8 B9 0.9(7)
B11 B10 B12 I1 -110.0(6)
B11 B10 B12 B7 36.7(5)
B11 B10 B12 B8 101.5(6)
B11 B10 B12 B9 139.0(6)
B11 B10 B9 B5 100.7(6)
B11 B10 B9 B12 -36.2(5)
B11 B10 B9 B8 0.8(7)
B11 B10 B9 B4 63.9(7)
B11 B12 B8 B7 -37.2(6)
B11 B12 B8 B3 0.5(7)
B11 B12 B8 B4 64.2(7)
B11 B12 B8 B9 102.7(6)
B11 B12 B9 B5 0.2(7)
B11 B12 B9 B10 37.5(6)
B11 B12 B9 B8 -101.1(6)
B11 B12 B9 B4 -62.4(7)
B7 C2 C1 C3 133.9(7)
B7 C2 C1 B6 -108.4(7)
B7 C2 C1 B3 39.3(6)
B7 C2 C1 B5 -68.2(7)
B7 C2 C1 B4 0.7(7)
B7 C2 B6 C1 100.9(7)
B7 C2 B6 B11 -36.5(6)
B7 C2 B6 B5 64.9(7)
B7 C2 B6 B10 3.5(7)
B7 C2 B11 B6 143.1(6)
B7 C2 B11 B10 103.3(6)
B7 C2 B11 B12 41.0(5)
B7 C2 B3 C1 -138.2(6)
B7 C2 B3 B8 -41.1(5)
B7 C2 B3 B4 -104.1(6)
B7 B11 B10 B6 101.7(6)
B7 B11 B10 B5 62.3(7)
B7 B11 B10 B12 -36.5(5)
B7 B11 B10 B9 -0.2(7)
B7 B11 B12 I1 -107.4(6)
B7 B11 B12 B10 139.6(6)
B7 B11 B12 B8 37.4(5)
B7 B11 B12 B9 101.8(6)
B7 B3 B8 B12 -37.5(5)
B7 B3 B8 B4 -137.6(6)
B7 B3 B8 B9 -100.4(5)
B7 B3 B4 C1 -94.6(6)
B7 B3 B4 C9 174.5(6)
B7 B3 B4 B5 -60.9(7)
B7 B3 B4 B8 39.0(5)
B7 B3 B4 B9 2.0(7)
B7 B12 B8 B3 37.7(5)
B7 B12 B8 B4 101.5(6)
B7 B12 B8 B9 140.0(6)
B7 B12 B9 B5 64.7(7)
B7 B12 B9 B10 102.0(6)
B7 B12 B9 B8 -36.6(6)
B7 B12 B9 B4 2.2(7)
B7 B8 B4 C1 1.9(6)
B7 B8 B4 C9 -122.5(8)
B7 B8 B4 B3 -37.8(5)
B7 B8 B4 B5 62.8(6)
B7 B8 B4 B9 100.8(6)
B7 B8 B9 B5 -62.9(6)
B7 B8 B9 B10 -1.0(7)
B7 B8 B9 B12 35.5(5)
B7 B8 B9 B4 -100.8(6)
B3 C2 C1 C3 94.6(7)
B3 C2 C1 B6 -147.8(6)
B3 C2 C1 B5 -107.6(7)
B3 C2 C1 B4 -38.7(5)
B3 C2 B6 C1 31.0(6)
B3 C2 B6 B11 -106.4(6)
B3 C2 B6 B5 -5.0(8)
B3 C2 B6 B10 -66.4(7)
B3 C2 B11 B6 106.2(6)
B3 C2 B11 B7 -36.9(6)
B3 C2 B11 B10 66.4(7)
B3 C2 B11 B12 4.1(8)
B3 C2 B7 B11 142.0(6)
B3 C2 B7 B12 101.5(5)
B3 C2 B7 B8 39.5(5)
B3 C1 C3 O1 107.7(9)
B3 C1 C3 C4 -71.5(7)
B3 C1 B6 C2 -31.6(6)
B3 C1 B6 B11 3.8(9)
B3 C1 B6 B5 106.0(8)
B3 C1 B6 B10 65.7(8)
B3 C1 B5 B6 -108.1(6)
B3 C1 B5 B10 -67.2(6)
B3 C1 B5 B4 37.7(5)
B3 C1 B5 B9 -2.9(7)
B3 C1 B4 C9 106.7(5)
B3 C1 B4 B5 -141.8(5)
B3 C1 B4 B8 -39.5(4)
B3 C1 B4 B9 -101.7(5)
B3 B7 B12 I1 -147.0(5)
B3 B7 B12 B11 101.5(6)
B3 B7 B12 B10 64.7(7)
B3 B7 B12 B8 -37.3(5)
B3 B7 B12 B9 -0.9(8)
B3 B7 B8 B12 137.2(6)
B3 B7 B8 B4 38.3(5)
B3 B7 B8 B9 101.5(6)
B3 B8 B4 C1 39.7(5)
B3 B8 B4 C9 -84.7(9)
B3 B8 B4 B5 100.6(6)
B3 B8 B4 B9 138.5(6)
B3 B8 B9 B5 0.3(6)
B3 B8 B9 B10 62.2(6)
B3 B8 B9 B12 98.7(6)
B3 B8 B9 B4 -37.6(5)
B3 B4 B9 B5 -100.9(6)
B3 B4 B9 B10 -64.7(6)
B3 B4 B9 B12 -2.5(7)
B3 B4 B9 B8 36.3(5)
B5 C1 C3 O1 -116.9(9)
B5 C1 C3 C4 63.9(8)
B5 C1 B6 C2 -137.6(6)
B5 C1 B6 B11 -102.2(6)
B5 C1 B6 B10 -40.4(5)
B5 C1 B3 C2 102.5(5)
B5 C1 B3 B7 66.8(7)
B5 C1 B3 B8 3.1(6)
B5 C1 B3 B4 -37.5(5)
B5 C1 B4 C9 -111.6(5)
B5 C1 B4 B3 141.8(5)
B5 C1 B4 B8 102.3(5)
B5 C1 B4 B9 40.0(5)
B5 B6 B11 C2 -95.1(6)
B5 B6 B11 B7 -62.3(7)
B5 B6 B11 B10 38.7(5)
B5 B6 B11 B12 1.5(7)
B5 B6 B10 B11 -136.0(6)
B5 B6 B10 B12 -98.9(6)
B5 B6 B10 B9 -35.9(5)
B5 B10 B12 I1 148.8(5)
B5 B10 B12 B11 -101.3(6)
B5 B10 B12 B7 -64.6(6)
B5 B10 B12 B8 0.3(7)
B5 B10 B12 B9 37.8(5)
B5 B10 B9 B12 -136.9(6)
B5 B10 B9 B8 -99.9(6)
B5 B10 B9 B4 -36.7(5)
B5 B4 B9 B10 36.3(5)
B5 B4 B9 B12 98.4(6)
B5 B4 B9 B8 137.2(5)
B10 B6 B11 C2 -133.9(6)
B10 B6 B11 B7 -101.0(6)
B10 B6 B11 B12 -37.2(5)
B10 B6 B5 C1 133.1(6)
B10 B6 B5 B4 102.5(6)
B10 B6 B5 B9 37.6(5)
B10 B11 B7 C2 -96.4(6)
B10 B11 B7 B3 -62.5(7)
B10 B11 B7 B12 36.5(5)
B10 B11 B7 B8 -0.4(8)
B10 B11 B12 I1 113.0(6)
B10 B11 B12 B7 -139.6(6)
B10 B11 B12 B8 -102.1(6)
B10 B11 B12 B9 -37.8(5)
B10 B5 B4 C1 95.2(5)
B10 B5 B4 C9 -176.5(5)
B10 B5 B4 B3 61.4(6)
B10 B5 B4 B8 -0.4(7)
B10 B5 B4 B9 -38.6(5)
B10 B5 B9 B12 37.5(5)
B10 B5 B9 B8 100.5(5)
B10 B5 B9 B4 138.5(5)
B10 B12 B8 B7 -102.0(6)
B10 B12 B8 B3 -64.2(7)
B10 B12 B8 B4 -0.5(7)
B10 B12 B8 B9 38.0(5)
B10 B12 B9 B5 -37.3(5)
B10 B12 B9 B8 -138.6(6)
B10 B12 B9 B4 -99.9(6)
B12 B11 B7 C2 -132.8(6)
B12 B11 B7 B3 -99.0(6)
B12 B11 B7 B8 -36.9(5)
B12 B11 B10 B6 138.2(6)
B12 B11 B10 B5 98.8(6)
B12 B11 B10 B9 36.3(5)
B12 B7 B3 C2 -96.0(6)
B12 B7 B3 C1 -60.8(7)
B12 B7 B3 B8 37.9(5)
B12 B7 B3 B4 -0.7(8)
B12 B7 B8 B3 -137.2(6)
B12 B7 B8 B4 -98.9(6)
B12 B7 B8 B9 -35.7(5)
B12 B10 B9 B5 136.9(6)
B12 B10 B9 B8 37.0(5)
B12 B10 B9 B4 100.1(6)
B12 B8 B4 C1 -60.4(6)
B12 B8 B4 C9 175.2(7)
B12 B8 B4 B3 -100.1(6)
B12 B8 B4 B5 0.5(7)
B12 B8 B4 B9 38.5(5)
B12 B8 B9 B5 -98.4(5)
B12 B8 B9 B10 -36.5(5)
B12 B8 B9 B4 -136.3(6)
B8 B7 B3 C2 -133.9(6)
B8 B7 B3 C1 -98.7(6)
B8 B7 B3 B4 -38.6(5)
B8 B7 B12 I1 -109.7(6)
B8 B7 B12 B11 138.8(6)
B8 B7 B12 B10 102.0(6)
B8 B7 B12 B9 36.4(5)
B8 B3 B4 C1 -133.6(5)
B8 B3 B4 C9 135.5(6)
B8 B3 B4 B5 -99.9(5)
B8 B3 B4 B9 -37.0(5)
B8 B12 B9 B5 101.3(6)
B8 B12 B9 B10 138.6(6)
B8 B12 B9 B4 38.8(5)
B8 B4 B9 B5 -137.2(5)
B8 B4 B9 B10 -100.9(5)
B8 B4 B9 B12 -38.8(5)
B4 C1 C3 O1 174.9(7)
B4 C1 C3 C4 -4.3(6)
B4 C1 B6 C2 -103.5(6)
B4 C1 B6 B11 -68.1(7)
B4 C1 B6 B5 34.1(5)
B4 C1 B6 B10 -6.3(7)
B4 C1 B3 C2 140.0(5)
B4 C1 B3 B7 104.3(6)
B4 C1 B3 B8 40.6(4)
B4 C1 B5 B6 -145.8(6)
B4 C1 B5 B10 -104.9(5)
B4 C1 B5 B9 -40.6(4)
B4 B3 B8 B7 137.6(6)
B4 B3 B8 B12 100.0(6)
B4 B3 B8 B9 37.1(5)
B4 B5 B10 B6 -101.7(6)
B4 B5 B10 B11 -62.2(7)
B4 B5 B10 B12 0.1(7)
B4 B5 B10 B9 37.9(5)
B4 B5 B9 B10 -138.5(5)
B4 B5 B9 B12 -101.0(6)
B4 B5 B9 B8 -38.0(4)
B4 B8 B9 B5 37.9(5)
B4 B8 B9 B10 99.8(6)
B4 B8 B9 B12 136.3(6)
B9 B5 B10 B6 -139.7(6)
B9 B5 B10 B11 -100.1(6)
B9 B5 B10 B12 -37.8(5)
B9 B5 B4 C1 133.8(5)
B9 B5 B4 C9 -138.0(6)
B9 B5 B4 B3 99.9(5)
B9 B5 B4 B8 38.1(5)
B9 B10 B12 I1 111.0(6)
B9 B10 B12 B11 -139.0(6)
B9 B10 B12 B7 -102.4(6)
B9 B10 B12 B8 -37.5(5)
B9 B12 B8 B7 -140.0(6)
B9 B12 B8 B3 -102.2(6)
B9 B12 B8 B4 -38.5(5)
B9 B8 B4 C1 -98.8(5)
B9 B8 B4 C9 136.7(9)
B9 B8 B4 B3 -138.5(6)
B9 B8 B4 B5 -37.9(5)
