#------------------------------------------------------------------------------
#$Date: 2019-11-25 23:32:23 +0200 (Mon, 25 Nov 2019) $
#$Revision: 242068 $
#$URL: file:///home/coder/svn-repositories/cod/cif/4/13/20/4132026.cif $
#------------------------------------------------------------------------------
#
# This file is available in the Crystallography Open Database (COD),
# http://www.crystallography.net/
#
# All data on this site have been placed in the public domain by the
# contributors.
#
data_4132026
loop_
_publ_author_name
'Xiong, Peng'
'Xu, He-Huan'
'Song, Jinshuai'
'Xu, Hai-Chao'
_publ_section_title
;
 Electrochemical Difluoromethylarylation of Alkynes.
;
_journal_issue                   7
_journal_name_full               'Journal of the American Chemical Society'
_journal_page_first              2460
_journal_page_last               2464
_journal_paper_doi               10.1021/jacs.8b00391
_journal_volume                  140
_journal_year                    2018
_chemical_formula_moiety         'C19 H14 F5 N O'
_chemical_formula_sum            'C19 H14 F5 N O'
_chemical_formula_weight         367.31
_chemical_name_systematic        x0918
_space_group_crystal_system      triclinic
_space_group_IT_number           2
_space_group_name_Hall           '-P 1'
_space_group_name_H-M_alt        'P -1'
_atom_sites_solution_hydrogens   geom
_atom_sites_solution_primary     iterative
_audit_creation_date             2017-09-28
_audit_creation_method
;
Olex2 1.2
(compiled 2017.08.10 svn.r3458 for OlexSys, GUI svn.r5381)
;
_cell_angle_alpha                84.008(5)
_cell_angle_beta                 79.819(5)
_cell_angle_gamma                79.127(5)
_cell_formula_units_Z            2
_cell_length_a                   7.923(2)
_cell_length_b                   9.918(3)
_cell_length_c                   10.534(3)
_cell_measurement_reflns_used    3821
_cell_measurement_temperature    173.15
_cell_measurement_theta_max      28.88
_cell_measurement_theta_min      2.65
_cell_volume                     797.9(4)
_computing_cell_refinement       'SAINT v6.28A (Bruker, 2002)'
_computing_data_reduction        'SAINT v6.28A (Bruker, 2002)'
_computing_molecular_graphics    'Olex2 (Dolomanov et al., 2009)'
_computing_publication_material  'Olex2 (Dolomanov et al., 2009)'
_computing_structure_refinement  'ShelXL (Sheldrick, 2015)'
_computing_structure_solution    'olex2.solve (Bourhis et al., 2015)'
_diffrn_ambient_temperature      173.15
_diffrn_measured_fraction_theta_full 0.980
_diffrn_measured_fraction_theta_max 0.877
_diffrn_measurement_device_type  'CCD area detector'
_diffrn_measurement_method       'phi and omega scans'
_diffrn_radiation_monochromator  graphite
_diffrn_radiation_type           MoK\a
_diffrn_radiation_wavelength     0.71073
_diffrn_reflns_av_R_equivalents  0.0197
_diffrn_reflns_av_unetI/netI     0.0303
_diffrn_reflns_Laue_measured_fraction_full 0.980
_diffrn_reflns_Laue_measured_fraction_max 0.877
_diffrn_reflns_limit_h_max       10
_diffrn_reflns_limit_h_min       -10
_diffrn_reflns_limit_k_max       13
_diffrn_reflns_limit_k_min       -12
_diffrn_reflns_limit_l_max       13
_diffrn_reflns_limit_l_min       -13
_diffrn_reflns_number            7048
_diffrn_reflns_point_group_measured_fraction_full 0.980
_diffrn_reflns_point_group_measured_fraction_max 0.877
_diffrn_reflns_theta_full        25.242
_diffrn_reflns_theta_max         28.884
_diffrn_reflns_theta_min         1.969
_exptl_absorpt_coefficient_mu    0.135
_exptl_absorpt_correction_T_max  0.958
_exptl_absorpt_correction_T_min  0.846753
_exptl_absorpt_correction_type   multi-scan
_exptl_absorpt_process_details
;
SADABS v.2.03 (Bruker,200?) was used for absorption correction.
R(int) was 0.1075 before and 0.0227 after correction.
The Ratio of minimum to maximum transmission is 0.8468.
The \l/2 correction factor is 0.0015.
;
_exptl_crystal_colour            'clear light colourless'
_exptl_crystal_colour_lustre     clear
_exptl_crystal_colour_modifier   light
_exptl_crystal_colour_primary    colourless
_exptl_crystal_density_diffrn    1.529
_exptl_crystal_description       block
_exptl_crystal_F_000             376
_exptl_crystal_size_max          0.87
_exptl_crystal_size_mid          0.45
_exptl_crystal_size_min          0.32
_refine_diff_density_max         0.346
_refine_diff_density_min         -0.260
_refine_diff_density_rms         0.056
_refine_ls_extinction_method     none
_refine_ls_goodness_of_fit_ref   1.074
_refine_ls_hydrogen_treatment    constr
_refine_ls_matrix_type           full
_refine_ls_number_parameters     236
_refine_ls_number_reflns         3689
_refine_ls_number_restraints     0
_refine_ls_restrained_S_all      1.074
_refine_ls_R_factor_all          0.0618
_refine_ls_R_factor_gt           0.0532
_refine_ls_shift/su_max          0.000
_refine_ls_shift/su_mean         0.000
_refine_ls_structure_factor_coef Fsqd
_refine_ls_weighting_details
'w=1/[\s^2^(Fo^2^)+(0.0734P)^2^+0.2863P] where P=(Fo^2^+2Fc^2^)/3'
_refine_ls_weighting_scheme      calc
_refine_ls_wR_factor_gt          0.1397
_refine_ls_wR_factor_ref         0.1459
_reflns_Friedel_coverage         0.000
_reflns_number_gt                3154
_reflns_number_total             3689
_reflns_threshold_expression     'I > 2\s(I)'
_iucr_refine_instructions_details
;
TITL
CELL 0.71073 7.9232 9.9184 10.5341 84.008 79.819 79.127
ZERR 2 0.0023 0.0029 0.003 0.005 0.005 0.005
LATT 1
SFAC C H F N O
UNIT 38 28 10 2 2
 
L.S. 10
PLAN  20
SIZE 0.32 0.45 0.87
TEMP -100
fmap 2
acta
REM <olex2.extras>
REM <HklSrc "%.\\x0918m.hkl">
REM </olex2.extras>
 
WGHT    0.073400    0.286300
FVAR       0.34456
F1    3   -0.020687    1.132696    0.718893    11.00000    0.06660    0.05262 =
         0.05958    0.01739   -0.02159    0.00905
F2    3    0.272844    0.605674    0.390827    11.00000    0.08018    0.06400 =
         0.03300   -0.01223   -0.01159   -0.01124
F3    3    0.410896    0.760163    0.425084    11.00000    0.04911    0.07318 =
         0.03824    0.01511   -0.00435   -0.01895
F5    3    0.247718    1.127216    0.703967    11.00000    0.08210    0.05825 =
         0.07571    0.02404   -0.02910   -0.03939
F7    3    0.156095    0.983149    0.612754    11.00000    0.11243    0.05007 =
         0.03643   -0.00086    0.00467   -0.02750
O6    5    0.222135    0.977888    0.915682    11.00000    0.05441    0.03834 =
         0.05613    0.00333   -0.02852   -0.01134
N4    4    0.042369    0.854750    0.858220    11.00000    0.03197    0.02753 =
         0.02817   -0.00195   -0.00698   -0.00046
C8    1    0.215898    0.566866    0.830087    11.00000    0.02419    0.02950 =
         0.02741    0.00239   -0.00483   -0.00480
C9    1    0.135423    0.955160    0.841237    11.00000    0.03236    0.02550 =
         0.03819   -0.00350   -0.00833    0.00209
C10   1    0.162432    0.622191    0.948861    11.00000    0.02666    0.02896 =
         0.02681    0.00153   -0.00439   -0.00654
C11   1    0.317547    0.436792    0.825165    11.00000    0.02839    0.03035 =
         0.03065    0.00006   -0.00399   -0.00368
AFIX  43
H11   2    0.351384    0.397429    0.744112    11.00000   -1.20000
AFIX   0
C12   1    0.318779    0.420048    1.049116    11.00000    0.03758    0.03523 =
         0.03364    0.01076   -0.01094   -0.00955
AFIX  43
H12   2    0.354742    0.371411    1.125086    11.00000   -1.20000
AFIX   0
C13   1   -0.065007    0.827092    0.772829    11.00000    0.02755    0.03117 =
         0.02881    0.00223   -0.00534   -0.00447
C14   1    0.174721    0.639224    0.706248    11.00000    0.02904    0.02719 =
         0.02502   -0.00210   -0.00693   -0.00173
C15   1    0.051022    0.759679    0.972521    11.00000    0.03541    0.03263 =
         0.02506   -0.00068   -0.00321   -0.00102
AFIX  23
H15A  2   -0.068527    0.745503    1.010178    11.00000   -1.20000
H15B  2    0.096283    0.802531    1.037337    11.00000   -1.20000
AFIX   0
C16   1    0.215310    0.546504    1.056881    11.00000    0.03720    0.03602 =
         0.02532    0.00347   -0.00481   -0.00849
AFIX  43
H16   2    0.178651    0.583482    1.138893    11.00000   -1.20000
AFIX   0
C17   1   -0.002646    0.716181    0.700300    11.00000    0.02695    0.03116 =
         0.02551    0.00240   -0.00456   -0.00337
C18   1    0.483356    0.224526    0.921676    11.00000    0.03948    0.03154 =
         0.05077    0.00639   -0.01051    0.00120
AFIX 137
H18A  2    0.410504    0.154973    0.921384    11.00000   -1.50000
H18B  2    0.546565    0.202854    0.995300    11.00000   -1.50000
H18C  2    0.566800    0.224851    0.841037    11.00000   -1.50000
AFIX   0
C19   1    0.272374    0.699747    0.475024    11.00000    0.03540    0.04535 =
         0.02718   -0.00199   -0.00207   -0.00265
AFIX  13
H19   2    0.162221    0.768913    0.481031    11.00000   -1.20000
AFIX   0
C20   1   -0.227418    0.903518    0.769735    11.00000    0.03310    0.03658 =
         0.04245    0.00218   -0.00437    0.00237
AFIX  43
H20   2   -0.269589    0.978275    0.822929    11.00000   -1.20000
AFIX   0
C21   1    0.295889    0.631838    0.602546    11.00000    0.03060    0.03407 =
         0.02969   -0.00048   -0.00565    0.00157
AFIX  43
H21   2    0.406716    0.578471    0.611221    11.00000   -1.20000
AFIX   0
C22   1   -0.107200    0.682910    0.621444    11.00000    0.03494    0.04142 =
         0.03080    0.00119   -0.00800   -0.00896
AFIX  43
H22   2   -0.067715    0.605598    0.571131    11.00000   -1.20000
AFIX   0
C23   1    0.371246    0.362612    0.932778    11.00000    0.02670    0.02868 =
         0.04052    0.00523   -0.00723   -0.00531
C24   1    0.130017    1.049876    0.716315    11.00000    0.04848    0.03107 =
         0.04240    0.00144   -0.01300   -0.00684
C25   1   -0.327908    0.870235    0.688591    11.00000    0.02645    0.05273 =
         0.05118    0.01074   -0.01082    0.00086
AFIX  43
H25   2   -0.439743    0.923662    0.683514    11.00000   -1.20000
AFIX   0
C26   1   -0.268204    0.760913    0.615182    11.00000    0.03279    0.05761 =
         0.04079    0.00761   -0.01558   -0.01398
AFIX  43
H26   2   -0.338745    0.738447    0.559083    11.00000   -1.20000
AFIX   0
HKLF 4
 
REM
REM R1 =  0.0532 for    3154 Fo > 4sig(Fo)  and  0.0618 for all    3689 data
REM    236 parameters refined using      0 restraints
 
END  
     
WGHT      0.0733      0.2858 

REM Highest difference peak  0.346,  deepest hole -0.260,  1-sigma level  0.056
Q1    1   0.0049  1.0739  0.6610  11.00000  0.05    0.35
Q2    1   0.0884  0.6810  0.7080  11.00000  0.05    0.34
Q3    1   0.1560  0.5824  0.8907  11.00000  0.05    0.32
Q4    1   0.3077  0.3799  0.9924  11.00000  0.05    0.29
Q5    1   0.1118  0.6907  0.9558  11.00000  0.05    0.29
Q6    1  -0.0132  0.7846  0.7193  11.00000  0.05    0.28
Q7    1   0.2290  0.4884  0.8375  11.00000  0.05    0.28
Q8    1   0.2787  0.9310  0.8623  11.00000  0.05    0.27
Q9    1  -0.2570  0.9069  0.7089  11.00000  0.05    0.26
Q10   1   0.4235  0.2962  0.9265  11.00000  0.05    0.25
Q11   1   0.3063  0.5179  0.8225  11.00000  0.05    0.25
Q12   1  -0.0165  0.8497  0.8132  11.00000  0.05    0.25
Q13   1   0.1641  0.5678  1.0058  11.00000  0.05    0.25
Q14   1   0.4865  0.1628  0.8393  11.00000  0.05    0.25
Q15   1  -0.0359  0.7147  0.6318  11.00000  0.05    0.25
Q16   1   0.2201  0.6006  0.6404  11.00000  0.05    0.24
Q17   1   0.2534  1.0534  0.6472  11.00000  0.05    0.23
Q18   1   0.1317  1.1635  0.7255  11.00000  0.05    0.23
Q19   1   0.1262  0.8761  0.8179  11.00000  0.05    0.23
Q20   1   0.1892  0.6119  0.7735  11.00000  0.05    0.23

  REM The information below was added by Olex2.
  REM
  REM R1 = 0.0532 for 3154 Fo > 4sig(Fo) and 0.0618 for all 7048 data
  REM n/a parameters refined using n/a restraints
  REM Highest difference peak 0.35, deepest hole -0.26
  REM Mean Shift 0, Max Shift 0.000.

  REM +++ Tabular Listing of Refinement Information +++
  REM R1_all = 0.0618
  REM R1_gt = 0.0532
  REM wR_ref = 0.1459
  REM GOOF = 1.074
  REM Shift_max = 0.000
  REM Shift_mean = 0
  REM Reflections_all = 7048
  REM Reflections_gt = 3154
  REM Parameters = n/a
  REM Hole = -0.26
  REM Peak = 0.35
  REM Flack = n/a

  
;
_cod_data_source_file            ja8b00391_si_002.cif
_cod_data_source_block           x0918m
_cod_original_cell_volume        798.0(4)
_cod_database_code               4132026
_shelxl_version_number           2014-3
_shelx_space_group_comment
;
The symmetry employed for this shelxl refinement is uniquely defined
by the following loop, which should always be used as a source of
symmetry information in preference to the above space-group names.
They are only intended as comments.
;
_shelx_estimated_absorpt_t_max   0.958
_shelx_estimated_absorpt_t_min   0.892
_olex2_refinement_description
;
1. Fixed Uiso
 At 1.2 times of:
  All C(H) groups, All C(H,H) groups
 At 1.5 times of:
  All C(H,H,H) groups
2.a Ternary CH refined with riding coordinates:
 C19(H19)
2.b Secondary CH2 refined with riding coordinates:
 C15(H15A,H15B)
2.c Aromatic/amide H refined with riding coordinates:
 C11(H11), C12(H12), C16(H16), C20(H20), C21(H21), C22(H22), C25(H25), C26(H26)
2.d Idealised Me refined as rotating group:
 C18(H18A,H18B,H18C)
;
_olex2_submission_special_instructions 'No special instructions were received'
loop_
_space_group_symop_operation_xyz
'x, y, z'
'-x, -y, -z'
loop_
_atom_site_label
_atom_site_type_symbol
_atom_site_fract_x
_atom_site_fract_y
_atom_site_fract_z
_atom_site_U_iso_or_equiv
_atom_site_adp_type
_atom_site_occupancy
_atom_site_site_symmetry_order
_atom_site_calc_flag
_atom_site_refinement_flags_posn
F1 F -0.02069(19) 1.13270(14) 0.71889(13) 0.0623(4) Uani 1 1 d .
F2 F 0.2728(2) 0.60567(14) 0.39083(11) 0.0583(4) Uani 1 1 d .
F3 F 0.41090(16) 0.76016(15) 0.42508(11) 0.0541(3) Uani 1 1 d .
F5 F 0.2477(2) 1.12722(15) 0.70397(15) 0.0685(4) Uani 1 1 d .
F7 F 0.1561(2) 0.98315(14) 0.61275(12) 0.0668(4) Uani 1 1 d .
O6 O 0.2221(2) 0.97789(14) 0.91568(15) 0.0473(4) Uani 1 1 d .
N4 N 0.04237(18) 0.85475(14) 0.85822(13) 0.0296(3) Uani 1 1 d .
C8 C 0.2159(2) 0.56687(16) 0.83009(15) 0.0273(3) Uani 1 1 d .
C9 C 0.1354(2) 0.95516(17) 0.84124(17) 0.0325(4) Uani 1 1 d .
C10 C 0.1624(2) 0.62219(16) 0.94886(15) 0.0275(3) Uani 1 1 d .
C11 C 0.3175(2) 0.43679(17) 0.82517(16) 0.0302(3) Uani 1 1 d .
H11 H 0.3514 0.3974 0.7441 0.036 Uiso 1 1 calc R
C12 C 0.3188(2) 0.42005(19) 1.04912(17) 0.0354(4) Uani 1 1 d .
H12 H 0.3547 0.3714 1.1251 0.042 Uiso 1 1 calc R
C13 C -0.0650(2) 0.82709(17) 0.77283(16) 0.0295(3) Uani 1 1 d .
C14 C 0.1747(2) 0.63922(16) 0.70625(15) 0.0272(3) Uani 1 1 d .
C15 C 0.0510(2) 0.75968(18) 0.97252(16) 0.0320(4) Uani 1 1 d .
H15A H -0.0685 0.7455 1.0102 0.038 Uiso 1 1 calc R
H15B H 0.0963 0.8025 1.0373 0.038 Uiso 1 1 calc R
C16 C 0.2153(2) 0.54650(18) 1.05688(16) 0.0330(4) Uani 1 1 d .
H16 H 0.1787 0.5835 1.1389 0.040 Uiso 1 1 calc R
C17 C -0.0026(2) 0.71618(17) 0.70030(15) 0.0284(3) Uani 1 1 d .
C18 C 0.4834(3) 0.22453(19) 0.9217(2) 0.0419(4) Uani 1 1 d .
H18A H 0.4105 0.1550 0.9214 0.063 Uiso 1 1 calc GR
H18B H 0.5466 0.2029 0.9953 0.063 Uiso 1 1 calc GR
H18C H 0.5668 0.2249 0.8410 0.063 Uiso 1 1 calc GR
C19 C 0.2724(2) 0.6997(2) 0.47502(17) 0.0370(4) Uani 1 1 d .
H19 H 0.1622 0.7689 0.4810 0.044 Uiso 1 1 calc R
C20 C -0.2274(2) 0.9035(2) 0.76974(19) 0.0391(4) Uani 1 1 d .
H20 H -0.2696 0.9783 0.8229 0.047 Uiso 1 1 calc R
C21 C 0.2959(2) 0.63184(18) 0.60255(16) 0.0324(4) Uani 1 1 d .
H21 H 0.4067 0.5785 0.6112 0.039 Uiso 1 1 calc R
C22 C -0.1072(2) 0.6829(2) 0.62144(17) 0.0354(4) Uani 1 1 d .
H22 H -0.0677 0.6056 0.5711 0.042 Uiso 1 1 calc R
C23 C 0.3712(2) 0.36261(17) 0.93278(18) 0.0322(4) Uani 1 1 d .
C24 C 0.1300(3) 1.04988(19) 0.71632(19) 0.0403(4) Uani 1 1 d .
C25 C -0.3279(2) 0.8702(2) 0.6886(2) 0.0450(5) Uani 1 1 d .
H25 H -0.4397 0.9237 0.6835 0.054 Uiso 1 1 calc R
C26 C -0.2682(2) 0.7609(2) 0.61518(19) 0.0425(5) Uani 1 1 d .
H26 H -0.3387 0.7384 0.5591 0.051 Uiso 1 1 calc R
loop_
_atom_site_aniso_label
_atom_site_aniso_U_11
_atom_site_aniso_U_22
_atom_site_aniso_U_33
_atom_site_aniso_U_23
_atom_site_aniso_U_13
_atom_site_aniso_U_12
F1 0.0666(9) 0.0526(8) 0.0596(8) 0.0174(6) -0.0216(7) 0.0090(6)
F2 0.0802(9) 0.0640(8) 0.0330(6) -0.0122(6) -0.0116(6) -0.0112(7)
F3 0.0491(7) 0.0732(9) 0.0382(6) 0.0151(6) -0.0043(5) -0.0190(6)
F5 0.0821(10) 0.0582(8) 0.0757(10) 0.0240(7) -0.0291(8) -0.0394(8)
F7 0.1124(13) 0.0501(8) 0.0364(7) -0.0009(6) 0.0047(7) -0.0275(8)
O6 0.0544(9) 0.0383(7) 0.0561(9) 0.0033(6) -0.0285(7) -0.0113(6)
N4 0.0320(7) 0.0275(7) 0.0282(7) -0.0019(5) -0.0070(5) -0.0005(5)
C8 0.0242(7) 0.0295(8) 0.0274(8) 0.0024(6) -0.0048(6) -0.0048(6)
C9 0.0324(8) 0.0255(8) 0.0382(9) -0.0035(7) -0.0083(7) 0.0021(6)
C10 0.0267(7) 0.0290(8) 0.0268(7) 0.0015(6) -0.0044(6) -0.0065(6)
C11 0.0284(8) 0.0304(8) 0.0306(8) 0.0001(6) -0.0040(6) -0.0037(6)
C12 0.0376(9) 0.0352(9) 0.0336(9) 0.0108(7) -0.0109(7) -0.0095(7)
C13 0.0276(8) 0.0312(8) 0.0288(8) 0.0022(6) -0.0053(6) -0.0045(6)
C14 0.0290(8) 0.0272(7) 0.0250(7) -0.0021(6) -0.0069(6) -0.0017(6)
C15 0.0354(9) 0.0326(8) 0.0251(8) -0.0007(6) -0.0032(6) -0.0010(7)
C16 0.0372(9) 0.0360(9) 0.0253(8) 0.0035(7) -0.0048(7) -0.0085(7)
C17 0.0270(8) 0.0312(8) 0.0255(7) 0.0024(6) -0.0046(6) -0.0034(6)
C18 0.0395(10) 0.0315(9) 0.0508(11) 0.0064(8) -0.0105(8) 0.0012(7)
C19 0.0354(9) 0.0453(10) 0.0272(8) -0.0020(7) -0.0021(7) -0.0027(7)
C20 0.0331(9) 0.0366(9) 0.0425(10) 0.0022(8) -0.0044(7) 0.0024(7)
C21 0.0306(8) 0.0341(9) 0.0297(8) -0.0005(7) -0.0056(6) 0.0016(6)
C22 0.0349(9) 0.0414(10) 0.0308(8) 0.0012(7) -0.0080(7) -0.0090(7)
C23 0.0267(8) 0.0287(8) 0.0405(9) 0.0052(7) -0.0072(7) -0.0053(6)
C24 0.0485(11) 0.0311(9) 0.0424(10) 0.0014(8) -0.0130(8) -0.0068(8)
C25 0.0264(9) 0.0527(12) 0.0512(11) 0.0107(9) -0.0108(8) 0.0009(8)
C26 0.0328(9) 0.0576(12) 0.0408(10) 0.0076(9) -0.0156(8) -0.0140(8)
loop_
_atom_type_symbol
_atom_type_description
_atom_type_scat_dispersion_real
_atom_type_scat_dispersion_imag
_atom_type_scat_source
C C 0.0033 0.0016 'International Tables Vol C Tables 4.2.6.8 and 6.1.1.4'
H H 0.0000 0.0000 'International Tables Vol C Tables 4.2.6.8 and 6.1.1.4'
F F 0.0171 0.0103 'International Tables Vol C Tables 4.2.6.8 and 6.1.1.4'
N N 0.0061 0.0033 'International Tables Vol C Tables 4.2.6.8 and 6.1.1.4'
O O 0.0106 0.0060 'International Tables Vol C Tables 4.2.6.8 and 6.1.1.4'
loop_
_geom_angle_atom_site_label_1
_geom_angle_atom_site_label_2
_geom_angle_atom_site_label_3
_geom_angle
C9 N4 C13 126.31(14)
C9 N4 C15 118.66(15)
C13 N4 C15 115.01(14)
C10 C8 C11 118.55(14)
C10 C8 C14 124.06(14)
C11 C8 C14 117.37(14)
O6 C9 N4 125.04(17)
O6 C9 C24 117.59(17)
N4 C9 C24 117.37(15)
C8 C10 C15 125.83(14)
C16 C10 C8 118.53(15)
C16 C10 C15 115.64(15)
C23 C11 C8 122.62(16)
C16 C12 C23 120.59(16)
C17 C13 N4 116.93(15)
C20 C13 N4 120.96(16)
C20 C13 C17 121.99(17)
C17 C14 C8 119.33(14)
C21 C14 C8 119.58(15)
C21 C14 C17 121.08(15)
N4 C15 C10 114.73(13)
C12 C16 C10 121.82(16)
C13 C17 C14 119.43(15)
C13 C17 C22 118.24(16)
C22 C17 C14 122.31(15)
F2 C19 C21 110.47(16)
F3 C19 F2 104.54(14)
F3 C19 C21 109.52(15)
C25 C20 C13 118.76(18)
C14 C21 C19 124.90(16)
C26 C22 C17 120.19(18)
C11 C23 C18 120.45(17)
C12 C23 C11 117.86(16)
C12 C23 C18 121.69(16)
F1 C24 C9 111.39(16)
F5 C24 F1 106.81(16)
F5 C24 F7 108.06(18)
F5 C24 C9 109.85(16)
F7 C24 F1 107.14(17)
F7 C24 C9 113.32(15)
C26 C25 C20 120.21(17)
C25 C26 C22 120.57(18)
loop_
_geom_bond_atom_site_label_1
_geom_bond_atom_site_label_2
_geom_bond_distance
F1 C24 1.313(2)
F2 C19 1.352(2)
F3 C19 1.349(2)
F5 C24 1.297(2)
F7 C24 1.300(2)
O6 C9 1.193(2)
N4 C9 1.327(2)
N4 C13 1.421(2)
N4 C15 1.453(2)
C8 C10 1.384(2)
C8 C11 1.387(2)
C8 C14 1.480(2)
C9 C24 1.537(3)
C10 C15 1.497(2)
C10 C16 1.380(2)
C11 C23 1.373(2)
C12 C16 1.364(3)
C12 C23 1.369(3)
C13 C17 1.369(2)
C13 C20 1.369(2)
C14 C17 1.476(2)
C14 C21 1.319(2)
C17 C22 1.374(2)
C18 C23 1.489(2)
C19 C21 1.465(2)
C20 C25 1.368(3)
C22 C26 1.370(3)
C25 C26 1.360(3)
loop_
_refln_index_h
_refln_index_k
_refln_index_l
_refln_F_squared_meas
_refln_F_squared_sigma
-1 0 0 307.84 10
-1 0 0 327.55 9.65
2 0 0 402.17 12.53
-2 0 0 382.75 12.31
-2 0 0 400.61 11.92
-3 0 0 15.29 0.51
3 0 0 15.29 0.55
-3 0 0 14.4 0.51
-4 0 0 57.26 1.93
-4 0 0 62.56 1.89
4 0 0 60.94 2
-5 0 0 1.84 0.14
5 0 0 2.06 0.17
-5 0 0 2.05 0.15
6 0 0 0.23 0.1
-6 0 0 0.26 0.09
-6 0 0 0.38 0.09
-7 0 0 1.06 0.16
7 0 0 2.07 0.2
8 0 0 0.03 0.11
9 0 0 0.03 0.09
9 -1 0 1.01 0.19
8 -1 0 3.59 0.28
7 -1 0 2.21 0.21
6 -1 0 11.99 0.53
-6 1 0 11.94 0.49
-6 1 0 12.49 0.47
-5 1 0 0.6 0.09
5 -1 0 0.98 0.13
-5 1 0 0.59 0.1
-4 1 0 26.66 0.96
4 -1 0 28.7 1
-4 1 0 30 0.92
-3 1 0 59.32 1.92
-3 1 0 61.51 1.84
3 -1 0 58.44 1.96
2 -1 0 17.75 0.63
-2 1 0 19.66 0.59
-2 1 0 18.14 0.62
-1 1 0 141.16 4.43
-1 1 0 144.18 4.39
1 -1 0 139.62 4.51
0 1 0 29 0.88
0 -1 0 26.85 0.89
0 -1 0 26.78 0.87
1 1 0 287.96 8.85
-1 -1 0 268.17 8.41
-2 -1 0 241.4 7.54
-2 -1 0 236.14 7.22
-3 -1 0 16.24 0.58
3 1 0 17.06 0.62
-3 -1 0 18.31 0.57
-4 -1 0 12.56 0.44
-4 -1 0 12.55 0.46
4 1 0 12.78 0.51
-5 -1 0 15.82 0.54
5 1 0 14.41 0.61
-5 -1 0 15.33 0.56
-6 -1 0 0.04 0.08
6 1 0 0.03 0.09
-7 -1 0 3.19 0.23
7 1 0 3.46 0.25
-8 -1 0 38.04 1.32
8 1 0 37.83 1.41
9 1 0 0.41 0.15
10 1 0 2.65 0.26
9 -2 0 1.8 0.21
8 -2 0 0.26 0.12
-7 2 0 1.9 0.19
7 -2 0 1.65 0.19
-6 2 0 0 0.07
6 -2 0 0 0.08
-5 2 0 9.76 0.42
-5 2 0 10.15 0.37
5 -2 0 9.55 0.43
4 -2 0 63.15 2.09
-4 2 0 65.02 1.94
-4 2 0 59.85 2.04
3 -2 0 632.79 20.05
-3 2 0 611.92 19.68
-3 2 0 654.35 19.08
2 -2 0 252.44 8.55
-2 2 0 278.24 8.4
-2 2 0 276.32 8.16
-1 2 0 468.23 14.81
1 -2 0 484.31 15.09
0 -2 0 6.06 0.21
0 -2 0 6.11 0.23
0 2 0 6.33 0.23
-1 -2 0 243.76 7.91
-1 -2 0 251.58 7.53
1 2 0 252.13 7.81
2 2 0 649.25 20.61
-2 -2 0 652.41 19.6
-3 -2 0 49.21 1.57
3 2 0 50.52 1.67
-4 -2 0 10.38 0.4
4 2 0 10.35 0.44
-5 -2 0 7.54 0.33
5 2 0 6.87 0.35
6 2 0 22.66 0.87
-6 -2 0 22.07 0.81
-7 -2 0 1.16 0.16
7 2 0 0.79 0.16
8 2 0 0.23 0.13
-8 -2 0 0.28 0.13
9 2 0 14.01 0.66
-9 -2 0 13.35 0.61
10 2 0 1.53 0.22
9 -3 0 1.25 0.2
8 -3 0 1.49 0.2
-7 3 0 5.35 0.32
7 -3 0 5.75 0.34
-6 3 0 1.53 0.17
6 -3 0 1.32 0.15
5 -3 0 5.26 0.29
-5 3 0 4.95 0.28
4 -3 0 6.9 0.33
-4 3 0 6.9 0.33
-4 3 0 6.96 0.25
3 -3 0 8.52 0.36
-3 3 0 8.05 0.28
-3 3 0 8.79 0.37
2 -3 0 539.21 17.28
-2 3 0 551.77 16.98
1 -3 0 0.52 0.06
-1 3 0 0.66 0.08
0 3 0 36.15 1.18
0 -3 0 35.7 1.2
0 -3 0 36.74 1.12
-1 -3 0 12.9 0.48
-1 -3 0 14.15 0.46
1 3 0 13.72 0.46
2 3 0 3.86 0.15
-2 -3 0 4.43 0.19
2 3 0 4.39 0.22
3 3 0 257.99 8.06
-3 -3 0 245.68 7.64
4 3 0 136.14 4.3
-4 -3 0 128.46 4.07
5 3 0 0.28 0.1
-5 -3 0 0 0.07
-6 -3 0 3.35 0.23
6 3 0 3.32 0.25
-7 -3 0 18.6 0.71
7 3 0 17.46 0.76
8 3 0 6.88 0.41
-8 -3 0 6.79 0.38
-9 -3 0 0.52 0.14
9 3 0 0.09 0.12
10 3 0 0.28 0.12
-10 -3 0 0.55 0.15
8 -4 0 0.38 0.15
7 -4 0 2 0.21
-7 4 0 2.19 0.22
-6 4 0 0.48 0.13
6 -4 0 0.72 0.14
5 -4 0 2.89 0.22
-5 4 0 3.14 0.23
4 -4 0 20.55 0.75
-4 4 0 18.53 0.74
-3 4 0 32.08 1.11
3 -4 0 31.62 1.11
2 -4 0 69.73 2.31
-2 4 0 70.93 2.28
1 -4 0 11.28 0.44
-1 4 0 11.22 0.43
0 -4 0 63.45 1.89
0 -4 0 59.4 2.01
-1 -4 0 4.53 0.2
-1 -4 0 4.69 0.22
1 4 0 4.7 0.2
-2 -4 0 9.1 0.34
2 4 0 8.66 0.31
-2 -4 0 8.68 0.36
-3 -4 0 117.64 3.59
3 4 0 115.41 3.8
4 4 0 1.59 0.16
-4 -4 0 1.47 0.15
-5 -4 0 0.48 0.11
5 4 0 0.66 0.14
6 4 0 28 1.05
-6 -4 0 26.98 0.98
-7 -4 0 9.43 0.46
7 4 0 10.14 0.5
8 4 0 6 0.39
-8 -4 0 5.49 0.34
9 4 0 0.1 0.12
-9 -4 0 0.19 0.14
-10 -4 0 0.39 0.16
-8 5 0 0.29 0.16
8 -5 0 0.38 0.13
-7 5 0 4.32 0.31
7 -5 0 3.41 0.28
-6 5 0 3.38 0.25
6 -5 0 3.15 0.25
-5 5 0 1.45 0.18
5 -5 0 2.82 0.21
4 -5 0 1.92 0.17
-4 5 0 1.4 0.17
3 -5 0 22.22 0.83
-3 5 0 22.49 0.83
-2 5 0 16.72 0.63
2 -5 0 16.18 0.63
-1 5 0 50.92 1.66
1 -5 0 49.38 1.68
0 -5 0 86.62 2.88
0 -5 0 91.43 2.7
0 5 0 86.97 2.82
1 5 0 1.4 0.12
-1 -5 0 1.6 0.13
-1 -5 0 2.01 0.12
-2 -5 0 20.54 0.67
2 5 0 18.76 0.66
-2 -5 0 19.11 0.71
3 5 0 6.88 0.26
3 5 0 7.52 0.37
-3 -5 0 7.32 0.32
-4 -5 0 77.07 2.39
4 5 0 74 2.55
5 5 0 0.23 0.11
-5 -5 0 0.23 0.1
-6 -5 0 30.33 1.09
6 5 0 31.19 1.17
-7 -5 0 17.99 0.73
7 5 0 18.52 0.79
8 5 0 21.58 0.91
-8 -5 0 20.39 0.84
9 5 0 4.25 0.34
-9 -5 0 4.1 0.32
-10 -5 0 0.62 0.19
8 -6 0 0.5 0.15
-8 6 0 0.53 0.2
-7 6 0 1.36 0.23
7 -6 0 1.31 0.2
-6 6 0 4.82 0.34
6 -6 0 4.36 0.3
-5 6 0 6.69 0.38
5 -6 0 6.45 0.37
-4 6 0 0.69 0.14
4 -6 0 0.78 0.14
3 -6 0 2.29 0.19
-3 6 0 2.14 0.2
-2 6 0 0.96 0.14
2 -6 0 1.2 0.14
1 -6 0 4.35 0.25
-1 6 0 4.38 0.25
0 -6 0 8.82 0.33
0 -6 0 8.74 0.39
0 6 0 9.26 0.38
1 6 0 228.8 7.13
-1 -6 0 222.95 7.28
-1 -6 0 229.78 6.9
2 6 0 16.68 0.6
-2 -6 0 17.17 0.66
-2 -6 0 17.3 0.61
-4 -6 0 16.24 0.63
4 6 0 17.06 0.71
5 6 0 5.11 0.33
-5 -6 0 4.47 0.27
-6 -6 0 4.22 0.28
6 6 0 4.53 0.32
-7 -6 0 0.23 0.13
7 6 0 0.48 0.15
-8 -6 0 0.95 0.2
8 6 0 1.1 0.22
-9 -6 0 3.42 0.29
9 6 0 3.29 0.31
7 -7 0 0.68 0.16
-7 7 0 0.94 0.2
-6 7 0 0.14 0.13
6 -7 0 0.09 0.1
-5 7 0 1.22 0.2
5 -7 0 1.05 0.18
4 -7 0 26.66 1.02
-4 7 0 26.55 1.02
3 -7 0 77.24 2.58
-3 7 0 75.35 2.54
2 -7 0 0.07 0.08
-2 7 0 0.29 0.11
1 -7 0 4.9 0.28
-1 7 0 4.55 0.28
0 -7 0 27.81 1.02
0 7 0 28.09 1
-1 -7 0 57.62 1.81
1 7 0 58.64 1.9
-1 -7 0 56.75 1.95
-2 -7 0 4.84 0.24
2 7 0 3.92 0.23
-2 -7 0 4.63 0.26
-3 -7 0 3.56 0.22
3 7 0 3.82 0.28
-4 -7 0 5.21 0.28
4 7 0 5.65 0.35
5 7 0 1.71 0.21
-5 -7 0 1.66 0.18
6 7 0 0.84 0.18
-6 -7 0 0.94 0.16
-7 -7 0 1.84 0.2
7 7 0 1.72 0.23
8 7 0 4.94 0.36
-8 -7 0 4.46 0.33
9 7 0 13.36 0.67
-9 -7 0 12.23 0.62
6 -8 0 0.83 0.17
-6 8 0 0.95 0.2
-5 8 0 0.29 0.14
5 -8 0 0.27 0.12
-4 8 0 3.63 0.3
4 -8 0 3.85 0.29
-3 8 0 7.4 0.41
3 -8 0 7.06 0.39
2 -8 0 0.47 0.14
-2 8 0 0.67 0.15
1 -8 0 5.08 0.31
-1 8 0 4.81 0.3
0 8 0 23.5 0.87
0 -8 0 23.16 0.89
-1 -8 0 5.36 0.31
1 8 0 5.66 0.3
-2 -8 0 0.63 0.11
-2 -8 0 0.74 0.14
2 8 0 0.95 0.12
-3 -8 0 0.44 0.11
-4 -8 0 0.48 0.12
4 8 0 0.58 0.17
-5 -8 0 12.07 0.53
5 8 0 12.53 0.61
6 8 0 -0.02 0.11
-6 -8 0 0.18 0.13
-7 -8 0 0 0.13
7 8 0 0.18 0.15
-8 -8 0 0.1 0.14
8 8 0 0.22 0.12
-5 9 0 0.42 0.15
5 -9 0 0.11 0.1
4 -9 0 1.26 0.19
-4 9 0 1.23 0.22
3 -9 0 3.48 0.28
-3 9 0 4.22 0.32
-2 9 0 20.54 0.84
2 -9 0 20.41 0.85
1 -9 0 23.24 0.93
-1 9 0 23.77 0.91
0 9 0 1.71 0.18
0 -9 0 1.8 0.19
1 9 0 0.3 0.1
-1 -9 0 0.25 0.11
-2 -9 0 2.17 0.2
-3 -9 0 1.93 0.17
-3 -9 0 1.68 0.19
4 9 0 2.37 0.26
-4 -9 0 2.33 0.2
5 9 0 0 0.13
-5 -9 0 0.1 0.11
6 9 0 0.24 0.15
-6 -9 0 0.2 0.12
-7 -9 0 0.31 0.12
7 9 0 0.24 0.15
-8 -9 0 0.27 0.15
8 9 0 0.43 0.16
4 -10 0 2.09 0.23
-4 10 0 2.44 0.27
3 -10 0 2.31 0.24
-3 10 0 2.41 0.26
2 -10 0 4.3 0.31
-2 10 0 4.45 0.33
1 -10 0 0.23 0.12
-1 10 0 0.26 0.14
0 -10 0 8.82 0.47
0 10 0 9.24 0.46
-1 -10 0 4.13 0.29
1 10 0 4.04 0.28
-2 -10 0 0.77 0.16
-3 -10 0 3.81 0.29
4 10 0 -0.04 0.14
-4 -10 0 -0.02 0.11
-5 -10 0 0.26 0.12
5 10 0 0.09 0.15
6 10 0 7.46 0.48
-6 -10 0 7.17 0.41
-7 -10 0 0.16 0.13
7 10 0 -0.03 0.12
-3 11 0 0.72 0.19
3 -11 0 0.28 0.13
2 -11 0 2.26 0.23
-2 11 0 2.44 0.27
1 -11 0 4.17 0.31
-1 11 0 4.14 0.32
0 11 0 1.35 0.2
0 -11 0 1.32 0.2
-1 -11 0 2.45 0.24
-2 -11 0 1.56 0.22
-3 -11 0 1.09 0.19
4 11 0 0.17 0.15
5 11 0 1.3 0.24
-5 -11 0 0.89 0.16
6 11 0 0.54 0.2
-6 -11 0 0.58 0.16
-7 -11 0 0.21 0.14
-2 12 0 0.36 0.15
1 -12 0 0.77 0.17
-1 12 0 0.89 0.19
0 -12 0 3.73 0.31
0 12 0 4.35 0.33
-1 -12 0 0.09 0.11
-2 -12 0 5.47 0.37
4 12 0 5.6 0.45
4 12 -1 0.69 0.22
3 12 -1 0.58 0.22
-2 -12 1 0.21 0.12
-1 -12 1 3.05 0.27
0 -12 1 1.93 0.23
-1 12 -1 0.08 0.13
1 -12 1 0.08 0.11
-2 12 -1 1.67 0.24
6 11 -1 0.52 0.2
-6 -11 1 0.47 0.16
-5 -11 1 2.01 0.22
5 11 -1 2.62 0.3
4 11 -1 5.55 0.43
-2 -11 1 0.25 0.13
-1 -11 1 0.73 0.17
0 -11 1 0.15 0.12
0 11 -1 0.23 0.13
1 -11 1 0.25 0.13
-1 11 -1 0.25 0.15
2 -11 1 5.61 0.37
-2 11 -1 5.33 0.38
3 -11 1 0.3 0.14
-3 11 -1 0.34 0.16
7 10 -1 1.01 0.22
-7 -10 1 0.67 0.18
6 10 -1 0.72 0.2
-6 -10 1 0.51 0.15
5 10 -1 0.55 0.19
-5 -10 1 0.73 0.15
4 10 -1 0.5 0.16
-4 -10 1 0.58 0.16
-2 -10 1 0.2 0.11
-1 -10 1 1.89 0.2
0 10 -1 10.02 0.5
0 -10 1 10.31 0.51
1 -10 1 24.65 1
-1 10 -1 25.14 0.99
-2 10 -1 8.8 0.48
2 -10 1 7.68 0.44
3 -10 1 1.04 0.19
-3 10 -1 1.11 0.21
-4 10 -1 3.68 0.33
4 -10 1 3.78 0.3
-8 -9 1 0.25 0.16
-7 -9 1 0.11 0.13
7 9 -1 0.13 0.14
6 9 -1 1.76 0.25
-6 -9 1 1.37 0.19
-5 -9 1 1.02 0.17
5 9 -1 1.03 0.2
-4 -9 1 6.16 0.34
4 9 -1 5.88 0.4
3 9 -1 0.68 0.16
-3 -9 1 0.61 0.12
-2 -9 1 0.03 0.09
-2 -9 1 0.09 0.1
1 9 -1 0.16 0.09
-1 -9 1 0.29 0.11
0 -9 1 1.09 0.17
0 9 -1 1.44 0.17
1 -9 1 6.65 0.37
-1 9 -1 6.57 0.38
2 -9 1 10.83 0.54
-2 9 -1 11.91 0.56
-3 9 -1 0.4 0.16
3 -9 1 0.42 0.14
4 -9 1 0.58 0.15
-4 9 -1 0.75 0.19
5 -9 1 1.66 0.2
-5 9 -1 1.92 0.25
6 -9 1 2.43 0.25
8 8 -1 0.21 0.15
-8 -8 1 0.23 0.15
7 8 -1 1.09 0.21
-7 -8 1 0.95 0.18
6 8 -1 1.21 0.21
-6 -8 1 1.23 0.19
5 8 -1 0.11 0.13
-5 -8 1 0.12 0.11
-4 -8 1 3.95 0.26
4 8 -1 3.76 0.3
-3 -8 1 2.71 0.21
3 8 -1 2.8 0.26
-2 -8 1 10.04 0.47
-2 -8 1 10.44 0.43
-1 -8 1 2 0.19
1 8 -1 1.94 0.18
-1 -8 1 2.64 0.17
0 -8 1 0.03 0.09
0 8 -1 0.09 0.09
-1 8 -1 7.5 0.39
1 -8 1 7.32 0.38
-2 8 -1 34.06 1.25
2 -8 1 34.34 1.26
-3 8 -1 0.53 0.16
3 -8 1 0.7 0.14
-4 8 -1 0.01 0.13
4 -8 1 0.05 0.09
-5 8 -1 1.98 0.24
5 -8 1 1.73 0.21
6 -8 1 0.25 0.12
-6 8 -1 0.47 0.16
-9 -7 1 -0.08 0.14
8 7 -1 3.68 0.32
-8 -7 1 4.03 0.31
-7 -7 1 0.56 0.16
7 7 -1 0.4 0.15
6 7 -1 10.26 0.53
-6 -7 1 9.64 0.47
-5 -7 1 3.19 0.23
5 7 -1 2.89 0.26
4 7 -1 0.95 0.17
-4 -7 1 0.79 0.15
3 7 -1 13.36 0.61
-3 -7 1 12.71 0.52
-2 -7 1 4.2 0.25
2 7 -1 4.1 0.22
-2 -7 1 4.6 0.24
-1 -7 1 6.35 0.33
-1 -7 1 6.94 0.3
1 7 -1 6.93 0.32
0 -7 1 8 0.38
0 7 -1 8.24 0.38
0 -7 1 8.63 0.33
-1 7 -1 -0.03 0.08
1 -7 1 0.07 0.09
-2 7 -1 0.01 0.08
2 -7 1 -0.02 0.08
-3 7 -1 1.07 0.17
3 -7 1 1.06 0.16
4 -7 1 1.04 0.17
-4 7 -1 1.15 0.19
5 -7 1 2.63 0.23
-5 7 -1 2.64 0.25
6 -7 1 0.11 0.11
-6 7 -1 0.13 0.12
-7 7 -1 0.05 0.12
7 -7 1 0.28 0.11
-9 -6 1 4.02 0.33
9 6 -1 4.05 0.34
8 6 -1 0.1 0.14
-8 -6 1 0.1 0.13
7 6 -1 3.83 0.3
-7 -6 1 3.53 0.27
6 6 -1 16.22 0.72
-6 -6 1 15.68 0.65
-5 -6 1 3.18 0.23
5 6 -1 3.56 0.27
-4 -6 1 21.09 0.77
4 6 -1 20.83 0.85
3 6 -1 2.53 0.22
-3 -6 1 2.67 0.19
2 6 -1 0.47 0.08
-2 -6 1 0.66 0.12
-2 -6 1 0.42 0.09
1 6 -1 35.94 1.22
-1 -6 1 38 1.19
-1 -6 1 35.75 1.27
0 -6 1 2.71 0.15
0 -6 1 2.74 0.19
0 6 -1 2.61 0.18
1 -6 1 22.8 0.75
1 -6 1 23.3 0.86
-1 6 -1 23.62 0.85
-2 6 -1 28.38 1.04
2 -6 1 29.5 1.04
-3 6 -1 4.1 0.27
3 -6 1 4.13 0.25
4 -6 1 0.67 0.13
-4 6 -1 0.34 0.12
-5 6 -1 7.01 0.4
5 -6 1 7.22 0.38
6 -6 1 0.15 0.11
-6 6 -1 0.08 0.13
7 -6 1 1.42 0.18
-7 6 -1 1.47 0.23
-8 6 -1 0.3 0.18
8 -6 1 0.37 0.12
-9 -5 1 2.66 0.26
9 5 -1 2.89 0.28
8 5 -1 11.25 0.58
-8 -5 1 10.47 0.52
7 5 -1 6.88 0.41
-7 -5 1 7.25 0.39
6 5 -1 1.1 0.17
-6 -5 1 1.4 0.16
-5 -5 1 34.12 1.18
5 5 -1 34.42 1.27
-4 -5 1 63.24 2.17
4 5 -1 72.88 2.33
-3 -5 1 20.85 0.74
3 5 -1 20.81 0.81
-2 -5 1 16.47 0.57
-2 -5 1 14.87 0.59
2 5 -1 15.12 0.54
1 5 -1 0.84 0.1
-1 -5 1 0.95 0.11
-1 -5 1 1.24 0.1
0 -5 1 32.4 1.03
0 -5 1 31.9 1.11
0 5 -1 32.22 1.09
1 -5 1 9.9 0.35
-1 5 -1 10.02 0.42
1 -5 1 10.42 0.42
2 -5 1 0.29 0.08
-2 5 -1 0.17 0.08
-4 5 -1 5.68 0.32
4 -5 1 5.31 0.29
-5 5 -1 0.09 0.09
5 -5 1 0.02 0.08
-6 5 -1 0.46 0.14
6 -5 1 0.45 0.13
-7 5 -1 2.33 0.24
7 -5 1 1.84 0.2
8 -5 1 2.91 0.25
-8 5 -1 3.72 0.3
-10 -4 1 0.43 0.15
9 4 -1 2.17 0.25
-9 -4 1 2.19 0.23
-8 -4 1 2.85 0.26
8 4 -1 2.84 0.28
7 4 -1 0.64 0.16
-7 -4 1 0.64 0.15
6 4 -1 0.73 0.15
-6 -4 1 0.63 0.13
5 4 -1 8.12 0.41
-5 -4 1 8.85 0.39
-4 -4 1 55.64 1.8
4 4 -1 55.99 1.91
3 4 -1 0.32 0.09
-3 -4 1 0.33 0.08
-2 -4 1 112.82 3.41
2 4 -1 107.81 3.47
2 4 -1 110.66 3.61
-1 -4 1 3.59 0.17
1 4 -1 3.6 0.17
0 -4 1 38.61 1.21
0 4 -1 39.72 1.26
0 -4 1 36.93 1.29
1 -4 1 0.24 0.06
-1 4 -1 0.18 0.06
1 -4 1 0.27 0.04
-2 4 -1 1.29 0.13
2 -4 1 1.37 0.12
3 -4 1 3.23 0.15
3 -4 1 3.55 0.2
-3 4 -1 3.53 0.22
-4 4 -1 40.63 1.36
4 -4 1 37.77 1.35
-5 4 -1 0.38 0.12
5 -4 1 0.39 0.1
6 -4 1 8.54 0.42
-6 4 -1 8.43 0.42
-7 4 -1 0.08 0.12
7 -4 1 0.2 0.09
-8 4 -1 1 0.18
8 -4 1 0.62 0.15
9 -4 1 4.45 0.33
-10 -3 1 0.31 0.15
9 3 -1 0.49 0.16
-9 -3 1 0.61 0.17
-8 -3 1 2 0.22
8 3 -1 1.79 0.22
7 3 -1 22.49 0.91
-7 -3 1 21.5 0.83
-6 -3 1 1.88 0.18
6 3 -1 1.84 0.2
-5 -3 1 78.99 2.5
-4 -3 1 159.19 4.96
4 3 -1 163.49 5.23
-3 -3 1 67.24 2.08
3 3 -1 64.63 2.19
2 3 -1 11.11 0.45
2 3 -1 11.22 0.38
-2 -3 1 11.87 0.42
-1 -3 1 314.94 10.32
1 3 -1 337.78 10.14
-1 -3 1 323.26 9.83
0 -3 1 65.56 2.02
0 -3 1 64 2.13
0 3 -1 67.41 2.09
-1 3 -1 4.02 0.2
1 -3 1 4.01 0.16
1 -3 1 4.41 0.19
-2 3 -1 5.25 0.25
2 -3 1 5.13 0.23
2 -3 1 5.46 0.2
-3 3 -1 36.46 1.23
3 -3 1 36.53 1.23
3 -3 1 35.52 1.14
-4 3 -1 1.91 0.17
4 -3 1 1.96 0.16
5 -3 1 1.85 0.16
-5 3 -1 1.87 0.18
6 -3 1 0 0.08
-6 3 -1 0.06 0.1
7 -3 1 0.43 0.13
-7 3 -1 0.33 0.12
8 -3 1 0.63 0.14
9 -3 1 0.08 0.09
-9 -2 1 2.79 0.25
9 2 -1 2.63 0.26
-8 -2 1 -0.05 0.1
8 2 -1 -0.02 0.11
7 2 -1 0.39 0.14
-7 -2 1 0.43 0.12
6 2 -1 11.27 0.51
-6 -2 1 10.5 0.45
4 2 -1 65.98 2.14
-4 -2 1 61.94 2.02
-3 -2 1 0.87 0.1
3 2 -1 1.18 0.12
-2 -2 1 986.8 29.9
2 2 -1 1000 31.43
1 2 -1 129.62 4.14
-1 -2 1 128.77 3.93
1 2 -1 128.4 4.04
0 -2 1 75.84 2.39
0 -2 1 79.42 2.51
0 2 -1 79.64 2.47
1 -2 1 74.12 2.19
1 -2 1 68.78 2.3
-1 2 -1 71.5 2.27
-2 2 -1 0.08 0.05
2 -2 1 0.06 0.04
2 -2 1 0.14 0.03
-3 2 -1 157.52 4.65
-3 2 -1 149.47 4.84
-4 2 -1 71.41 2.13
-4 2 -1 68.87 2.25
4 -2 1 66.85 2.28
-6 2 -1 10.71 0.46
6 -2 1 10.17 0.47
7 -2 1 5.22 0.33
-7 2 -1 5.87 0.32
8 -2 1 1.59 0.19
9 -2 1 1.57 0.2
9 1 -1 1.81 0.24
-8 -1 1 3.97 0.28
8 1 -1 4.41 0.32
-7 -1 1 9.97 0.44
7 1 -1 9.36 0.48
-6 -1 1 4.58 0.26
6 1 -1 4.63 0.28
5 1 -1 4.7 0.28
-5 -1 1 5.3 0.26
-5 -1 1 5.77 0.23
-4 -1 1 54.15 1.68
-4 -1 1 53.84 1.68
4 1 -1 50.28 1.78
3 1 -1 2.94 0.17
-3 -1 1 3.15 0.13
-3 -1 1 3.08 0.16
-2 -1 1 57.17 1.8
-2 -1 1 58.5 1.83
2 1 -1 57.98 1.89
1 1 -1 56.37 1.82
-1 -1 1 58.51 1.77
1 1 -1 57.15 1.86
0 1 -1 22.83 0.75
0 -1 1 24.12 0.77
0 -1 1 23.23 0.74
1 -1 1 442.13 13
-1 1 -1 414.53 13.34
1 -1 1 429.92 13.61
2 -1 1 15.45 0.54
-2 1 -1 16.69 0.5
-2 1 -1 14.33 0.53
-3 1 -1 0.59 0.08
-3 1 -1 0.56 0.06
4 -1 1 0.04 0.05
-4 1 -1 0.04 0.06
-4 1 -1 0.01 0.04
-5 1 -1 11.25 0.41
-5 1 -1 10.43 0.44
5 -1 1 11.01 0.46
-6 1 -1 39.65 1.36
6 -1 1 37.34 1.39
-6 1 -1 41.87 1.3
7 -1 1 7.52 0.4
-7 1 -1 8.27 0.39
8 -1 1 0.49 0.13
9 -1 1 0.21 0.12
10 -1 1 0.66 0.17
9 0 -1 0.37 0.13
8 0 -1 2.97 0.26
7 0 -1 45.36 1.62
-7 0 1 45.09 1.5
6 0 -1 13.85 0.59
-6 0 1 14.16 0.54
-4 0 1 36.64 1.15
4 0 -1 35.32 1.23
-4 0 1 34.94 1.17
3 0 -1 2 0.13
-3 0 1 1.68 0.11
-3 0 1 1.59 0.1
-2 0 1 14.85 0.48
2 0 -1 13.66 0.51
-2 0 1 14.41 0.48
1 0 -1 28.15 0.92
-1 0 1 27.27 0.87
1 0 -1 28.48 0.89
0 0 -1 8.97 0.32
0 0 -1 8.6 0.3
0 0 1 9.42 0.3
1 0 1 152.11 4.89
-1 0 -1 150.52 4.78
-1 0 -1 155.4 4.63
-2 0 -1 247.02 7.6
2 0 1 257.02 8
-2 0 -1 251.06 7.85
-3 0 -1 53.35 1.62
3 0 1 52.05 1.72
-3 0 -1 51.31 1.67
-4 0 -1 41.43 1.37
-4 0 -1 43.38 1.34
4 0 1 41.03 1.41
-5 0 -1 3.69 0.2
5 0 1 3.79 0.22
-5 0 -1 3.61 0.2
6 0 1 7.52 0.37
-6 0 -1 7.19 0.34
-6 0 -1 7.78 0.34
-7 0 -1 20.98 0.74
7 0 1 19.47 0.8
-8 0 -1 0.23 0.11
8 0 1 -0.04 0.1
9 0 1 1.27 0.19
10 0 1 1.64 0.2
9 -1 -1 6.76 0.42
8 -1 -1 1.43 0.2
7 -1 -1 6.83 0.38
-6 1 1 6.71 0.31
6 -1 -1 7.09 0.37
-6 1 1 6.78 0.32
5 -1 -1 1.77 0.17
-5 1 1 1.87 0.15
-5 1 1 1.72 0.15
-4 1 1 23.48 0.83
-4 1 1 24.96 0.8
4 -1 -1 24.01 0.87
-3 1 1 0.08 0.04
-3 1 1 0.03 0.04
3 -1 -1 0.05 0.05
2 -1 -1 368.12 12.16
-2 1 1 390.86 11.94
-2 1 1 391.92 11.59
-1 1 1 87.45 2.61
-1 1 1 87.97 2.69
1 -1 -1 80.14 2.73
0 -1 -1 155.86 4.86
0 -1 -1 155 4.96
1 1 1 141.29 4.33
-1 -1 -1 127.93 4.09
-1 -1 -1 136.1 4.24
-2 -1 -1 928.11 27.45
-2 -1 -1 901.54 28.4
2 1 1 906.44 28.86
-3 -1 -1 1.71 0.11
3 1 1 1.8 0.12
-3 -1 -1 1.83 0.09
-4 -1 -1 31.7 1.04
4 1 1 30.97 1.1
-4 -1 -1 32.63 1.04
-5 -1 -1 0.38 0.07
-5 -1 -1 0.39 0.09
5 1 1 0.3 0.09
7 1 1 0.14 0.11
-7 -1 -1 0.29 0.11
8 1 1 5.44 0.34
-8 -1 -1 5.35 0.32
-9 -1 -1 1.9 0.2
9 1 1 1.79 0.22
10 1 1 1.06 0.19
9 -2 -1 1.54 0.23
8 -2 -1 -0.06 0.11
7 -2 -1 12.99 0.59
-6 2 1 3.53 0.23
6 -2 -1 3.44 0.25
-5 2 1 24.53 0.88
-5 2 1 25.48 0.82
5 -2 -1 23.26 0.9
4 -2 -1 10.3 0.45
-4 2 1 10.8 0.44
-4 2 1 11.38 0.39
-3 2 1 0.56 0.09
3 -2 -1 0.57 0.09
-3 2 1 0.64 0.07
-2 2 1 18.63 0.59
2 -2 -1 18.85 0.66
-2 2 1 19.15 0.66
-1 2 1 434.01 13.3
1 -2 -1 420.6 13.54
0 -2 -1 169.67 5.46
0 2 1 172.97 5.37
0 -2 -1 172.46 5.22
-1 -2 -1 731.68 23.42
-1 -2 -1 752.76 23.03
-1 -2 -1 735.19 22.29
-2 -2 -1 312.71 9.5
2 2 1 312.11 10
-2 -2 -1 318.86 9.82
-3 -2 -1 14.69 0.51
-3 -2 -1 14.3 0.47
3 2 1 14.19 0.54
4 2 1 149.55 4.76
-4 -2 -1 147.1 4.52
-4 -2 -1 146.07 4.61
-5 -2 -1 32.23 1.04
5 2 1 31.89 1.14
-5 -2 -1 31.42 1.07
-6 -2 -1 15.56 0.61
6 2 1 16.34 0.66
-7 -2 -1 7.72 0.37
7 2 1 7.03 0.39
8 2 1 9.61 0.5
-8 -2 -1 10.14 0.47
9 2 1 2.38 0.25
-9 -2 -1 2.2 0.23
10 2 1 7.98 0.47
9 -3 -1 0.06 0.1
8 -3 -1 2.67 0.25
-7 3 1 0.45 0.12
7 -3 -1 0.46 0.13
6 -3 -1 0.37 0.12
-6 3 1 0.24 0.11
-5 3 1 12.41 0.52
5 -3 -1 11.86 0.52
4 -3 -1 58.19 2.12
-4 3 1 68.59 2.1
3 -3 -1 6.83 0.32
-3 3 1 7.36 0.32
2 -3 -1 53.97 1.77
-2 3 1 53.42 1.75
-1 3 1 25.26 0.84
1 -3 -1 24.2 0.84
0 3 1 61.05 1.95
0 -3 -1 60.08 1.98
0 -3 -1 62.19 1.87
-1 -3 -1 59.31 1.93
-1 -3 -1 60.27 1.83
1 3 1 58.66 1.89
-2 -3 -1 103.07 3.26
2 3 1 104.39 3.38
-2 -3 -1 105.21 3.19
-3 -3 -1 210.65 6.48
3 3 1 207.04 6.65
-3 -3 -1 204.93 6.31
-4 -3 -1 96.39 3.05
4 3 1 99.85 3.22
-5 -3 -1 2.51 0.19
5 3 1 2.68 0.2
6 3 1 4.89 0.3
-6 -3 -1 4.66 0.27
-7 -3 -1 2.68 0.23
7 3 1 3.06 0.24
8 3 1 5.96 0.38
-8 -3 -1 6.03 0.36
9 3 1 -0.05 0.11
-9 -3 -1 0.15 0.11
10 3 1 0.45 0.15
-10 -3 -1 0.55 0.15
8 -4 -1 0.42 0.13
-7 4 1 5.65 0.35
7 -4 -1 5.77 0.36
6 -4 -1 1.45 0.17
-5 4 1 0.56 0.13
5 -4 -1 0.64 0.12
4 -4 -1 2.07 0.17
-4 4 1 2.13 0.19
3 -4 -1 4.59 0.25
-3 4 1 4.74 0.26
-2 4 1 0.99 0.12
2 -4 -1 0.76 0.1
1 -4 -1 2.92 0.17
-1 4 1 3.2 0.18
0 4 1 52.17 1.74
0 -4 -1 55.36 1.65
0 -4 -1 54.02 1.78
-1 -4 -1 2.84 0.16
-1 -4 -1 2.91 0.14
-2 -4 -1 3.08 0.17
2 4 1 2.99 0.15
-2 -4 -1 3.39 0.16
3 4 1 34.65 1.1
3 4 1 35.31 1.21
-3 -4 -1 32.8 1.12
-4 -4 -1 91.59 2.91
4 4 1 94.91 3.08
5 4 1 24.94 0.94
-6 -4 -1 31.17 1.1
6 4 1 32.09 1.17
-7 -4 -1 6.28 0.35
7 4 1 6.38 0.38
8 4 1 17.25 0.76
-8 -4 -1 16.8 0.71
-9 -4 -1 0.17 0.13
9 4 1 0.2 0.13
-10 -4 -1 2.96 0.27
10 4 1 2.51 0.26
8 -5 -1 1.43 0.21
-8 5 1 1.14 0.19
7 -5 -1 0.54 0.14
-7 5 1 0.4 0.14
6 -5 -1 0.01 0.09
-6 5 1 -0.03 0.09
5 -5 -1 6.74 0.36
-5 5 1 6.15 0.35
-4 5 1 1.1 0.17
4 -5 -1 1.54 0.15
3 -5 -1 6.81 0.34
-3 5 1 6.62 0.34
-2 5 1 3.89 0.23
2 -5 -1 3.73 0.22
1 -5 -1 64.96 2.17
-1 5 1 66.19 2.14
0 -5 -1 34.24 1.19
0 -5 -1 35.49 1.08
0 5 1 34.22 1.17
1 5 1 29.26 0.97
-1 -5 -1 28.22 1
-1 -5 -1 28.84 0.93
-2 -5 -1 53.47 1.87
-2 -5 -1 58 1.78
2 5 1 57.82 1.82
3 5 1 10.14 0.45
-3 -5 -1 9.46 0.38
3 5 1 9.15 0.35
-4 -5 -1 39.95 1.33
4 5 1 40.54 1.43
5 5 1 22.6 0.88
-5 -5 -1 22.26 0.81
-6 -5 -1 24.94 0.92
6 5 1 25.24 0.98
-7 -5 -1 1.88 0.2
7 5 1 2.09 0.22
8 5 1 17.81 0.79
-8 -5 -1 17.59 0.74
-9 -5 -1 0.21 0.13
9 5 1 0.31 0.14
10 5 1 0.54 0.17
-10 -5 -1 0.38 0.14
-8 6 1 0.02 0.15
-7 6 1 0.03 0.13
7 -6 -1 0.07 0.09
6 -6 -1 1.23 0.19
-6 6 1 1.06 0.19
-5 6 1 2.22 0.22
5 -6 -1 2.26 0.21
-4 6 1 3.54 0.26
4 -6 -1 3.1 0.23
3 -6 -1 16.88 0.68
-3 6 1 16.93 0.68
2 -6 -1 2.33 0.18
-2 6 1 1.8 0.18
1 -6 -1 20.5 0.8
-1 6 1 22.66 0.8
0 -6 -1 14.09 0.56
0 6 1 13.76 0.55
0 -6 -1 14.71 0.48
-1 -6 -1 13.74 0.55
1 6 1 13.9 0.53
-1 -6 -1 14.42 0.49
-2 -6 -1 39.42 1.36
-2 -6 -1 40.62 1.27
2 6 1 37.76 1.29
3 6 1 0.45 0.12
-3 -6 -1 0.38 0.09
3 6 1 0.61 0.08
4 6 1 10.44 0.49
5 6 1 4.95 0.32
-5 -6 -1 5.1 0.29
-6 -6 -1 8.54 0.42
6 6 1 8.86 0.46
7 6 1 0.25 0.14
-7 -6 -1 0.16 0.12
-8 -6 -1 15.36 0.68
8 6 1 16.06 0.74
9 6 1 2.53 0.27
-9 -6 -1 2.33 0.24
-7 7 1 2.36 0.27
7 -7 -1 2.53 0.25
6 -7 -1 0.39 0.13
-6 7 1 0.32 0.16
-5 7 1 1.74 0.22
5 -7 -1 1.85 0.2
-4 7 1 5.24 0.35
4 -7 -1 5.89 0.34
3 -7 -1 8.51 0.43
-3 7 1 8.96 0.44
2 -7 -1 5.3 0.3
-2 7 1 5.18 0.31
-1 7 1 18.47 0.73
1 -7 -1 18.92 0.74
0 -7 -1 12.77 0.54
0 7 1 13.35 0.54
-1 -7 -1 1.85 0.17
-1 -7 -1 1.94 0.13
1 7 1 1.91 0.16
2 7 1 23.35 0.83
-2 -7 -1 24.14 0.89
-2 -7 -1 23.67 0.81
-3 -7 -1 0.47 0.1
-3 -7 -1 0.42 0.11
-4 -7 -1 1.7 0.16
4 7 1 1.95 0.21
-5 -7 -1 10.5 0.47
5 7 1 11.12 0.54
6 7 1 5.26 0.36
-6 -7 -1 5.45 0.32
-7 -7 -1 5.58 0.34
7 7 1 5.65 0.38
-8 -7 -1 17.2 0.75
8 7 1 18.05 0.81
-9 -7 -1 0.7 0.19
9 7 1 0.61 0.19
-6 8 1 2.93 0.29
6 -8 -1 2.93 0.27
-5 8 1 -0.02 0.12
5 -8 -1 0.07 0.1
-4 8 1 0.84 0.17
4 -8 -1 0.73 0.17
-3 8 1 5.2 0.34
3 -8 -1 5.56 0.34
2 -8 -1 2.02 0.2
-2 8 1 2.08 0.22
-1 8 1 0.41 0.13
1 -8 -1 0.48 0.13
0 8 1 9.62 0.45
0 -8 -1 10.02 0.46
1 8 1 0.18 0.09
-1 -8 -1 0.19 0.09
2 8 1 5.66 0.29
-2 -8 -1 5.37 0.31
-3 -8 -1 0.24 0.09
-3 -8 -1 0.03 0.09
4 8 1 7.19 0.43
-4 -8 -1 7.77 0.37
-5 -8 -1 0.08 0.11
5 8 1 -0.02 0.12
6 8 1 1.32 0.22
-6 -8 -1 1.68 0.2
7 8 1 0.56 0.17
-7 -8 -1 0.47 0.13
8 8 1 0.74 0.18
-8 -8 -1 0.84 0.18
9 8 1 0.38 0.17
-5 9 1 1.06 0.21
5 -9 -1 1.37 0.21
4 -9 -1 1.33 0.2
-4 9 1 1.37 0.22
3 -9 -1 6.74 0.4
-3 9 1 7.23 0.42
2 -9 -1 0.97 0.18
-2 9 1 1.02 0.18
1 -9 -1 4.68 0.3
-1 9 1 3.8 0.28
0 9 1 0.57 0.13
0 -9 -1 0.44 0.13
1 9 1 0.43 0.11
-1 -9 -1 0.73 0.15
-2 -9 -1 0.21 0.11
2 9 1 0.35 0.1
-3 -9 -1 4.86 0.27
-3 -9 -1 5.23 0.32
4 9 1 33.43 1.3
-4 -9 -1 31.61 1.14
5 9 1 15.56 0.74
-5 -9 -1 15.77 0.65
-6 -9 -1 0.51 0.15
6 9 1 0.4 0.17
-7 -9 -1 0.51 0.16
7 9 1 0.51 0.17
8 9 1 0.7 0.19
-8 -9 -1 0.97 0.21
-4 10 1 0.15 0.16
4 -10 -1 0.29 0.14
-3 10 1 0.41 0.15
3 -10 -1 0.49 0.14
-2 10 1 5.35 0.36
2 -10 -1 5.27 0.36
1 -10 -1 1.12 0.19
-1 10 1 1.21 0.19
0 -10 -1 1.68 0.2
0 10 1 1.54 0.2
1 10 1 4.97 0.31
-1 -10 -1 5.54 0.35
-2 -10 -1 0.11 0.12
-3 -10 -1 0.38 0.12
4 10 1 2.52 0.3
-4 -10 -1 2.82 0.22
5 10 1 3.43 0.33
-5 -10 -1 3.79 0.27
6 10 1 2.81 0.3
-6 -10 -1 2.6 0.25
-7 -10 -1 0.03 0.12
7 10 1 0.12 0.15
3 -11 -1 0.18 0.13
-3 11 1 0.14 0.14
-2 11 1 0.79 0.19
2 -11 -1 1.06 0.19
-1 11 1 -0.04 0.13
1 -11 -1 -0.03 0.09
0 11 1 0.09 0.13
0 -11 -1 0.1 0.1
-1 -11 -1 -0.06 0.13
-2 -11 -1 10.09 0.53
-3 -11 -1 0.37 0.16
4 11 1 -0.1 0.13
5 11 1 2.32 0.29
-5 -11 -1 2.71 0.25
6 11 1 6.92 0.49
-6 -11 -1 7.91 0.44
-7 -11 -1 0.17 0.15
-2 12 1 3.2 0.31
1 -12 -1 1.97 0.23
-1 12 1 2.04 0.25
0 12 1 2.38 0.25
0 -12 -1 2.18 0.24
-1 -12 -1 4.45 0.34
-2 -12 -1 0.42 0.16
-3 -12 -1 1.98 0.24
4 12 1 1.43 0.27
5 12 1 0.87 0.23
3 12 -2 -0.02 0.14
-2 -12 2 0.29 0.15
-1 -12 2 0.06 0.13
0 -12 2 0.56 0.15
-1 12 -2 0.04 0.12
1 -12 2 0.34 0.14
-2 12 -2 0.31 0.16
-6 -11 2 0.83 0.19
5 11 -2 0.19 0.17
-5 -11 2 0.23 0.12
4 11 -2 0.78 0.2
3 11 -2 3.03 0.32
-2 -11 2 0.76 0.17
-1 -11 2 5.1 0.35
0 11 -2 0.29 0.15
0 -11 2 -0.06 0.1
1 -11 2 9.5 0.51
-1 11 -2 9.17 0.51
-2 11 -2 8.29 0.48
2 -11 2 7.94 0.46
3 -11 2 0.93 0.19
-3 11 -2 1.05 0.21
-7 -10 2 0.09 0.14
6 10 -2 0.67 0.2
-6 -10 2 0.8 0.18
-5 -10 2 0.14 0.11
5 10 -2 0.12 0.12
4 10 -2 0.8 0.22
-4 -10 2 0.69 0.17
3 10 -2 1.74 0.26
-2 -10 2 8.48 0.45
-1 -10 2 3.64 0.28
0 -10 2 2.83 0.25
0 10 -2 3.38 0.27
1 -10 2 0.24 0.13
-1 10 -2 0.27 0.15
-2 10 -2 0.01 0.12
2 -10 2 0.01 0.09
-3 10 -2 -0.03 0.12
3 -10 2 0.03 0.09
4 -10 2 0.4 0.14
-4 10 -2 0.17 0.15
5 -10 2 1.84 0.22
-7 -9 2 -0.03 0.11
7 9 -2 0.17 0.14
-6 -9 2 1.01 0.17
6 9 -2 1.08 0.22
-5 -9 2 0.39 0.14
5 9 -2 0.35 0.16
4 9 -2 2.07 0.24
-4 -9 2 2.32 0.21
-3 -9 2 3.92 0.27
3 9 -2 3.86 0.33
-2 -9 2 41.44 1.53
-2 -9 2 44.16 1.44
1 9 -2 18.28 0.72
-1 -9 2 18.46 0.76
0 -9 2 1.03 0.17
0 9 -2 0.9 0.15
-1 9 -2 6.65 0.38
1 -9 2 6.85 0.38
2 -9 2 16.22 0.69
-2 9 -2 15.87 0.7
-3 9 -2 0.05 0.13
3 -9 2 0.07 0.11
4 -9 2 0.42 0.15
-4 9 -2 0.21 0.14
-5 9 -2 1.06 0.21
5 -9 2 1.37 0.19
6 -9 2 0.28 0.13
8 8 -2 0.43 0.18
-8 -8 2 0.49 0.17
7 8 -2 1.8 0.25
-7 -8 2 1.67 0.22
6 8 -2 5.1 0.37
-6 -8 2 4.68 0.32
-5 -8 2 7.44 0.4
5 8 -2 7.58 0.46
4 8 -2 2.8 0.27
-4 -8 2 2.67 0.22
-3 -8 2 5.88 0.31
3 8 -2 4.63 0.34
-2 -8 2 5.43 0.29
-2 -8 2 5.1 0.31
-1 -8 2 1.35 0.17
1 8 -2 1.04 0.14
-1 -8 2 1.52 0.15
0 -8 2 28.6 1.04
0 8 -2 26.79 1.01
-1 8 -2 0.07 0.1
1 -8 2 -0.03 0.08
-2 8 -2 4 0.29
2 -8 2 3.77 0.26
3 -8 2 0.84 0.15
-3 8 -2 0.86 0.17
4 -8 2 0.43 0.13
-4 8 -2 0.21 0.14
5 -8 2 0.25 0.11
-5 8 -2 0 0.13
6 -8 2 2.85 0.25
-6 8 -2 2.73 0.28
-8 -7 2 0.5 0.14
8 7 -2 0.16 0.14
7 7 -2 1.4 0.23
-7 -7 2 1.15 0.2
6 7 -2 0.68 0.17
-6 -7 2 0.37 0.13
5 7 -2 9.59 0.51
-5 -7 2 9.95 0.47
4 7 -2 3.67 0.29
-4 -7 2 3.77 0.26
3 7 -2 1.62 0.21
-3 -7 2 1.41 0.16
-2 -7 2 4.05 0.24
2 7 -2 4.04 0.23
-2 -7 2 3.96 0.25
-1 -7 2 4.09 0.25
1 7 -2 3.9 0.24
-1 -7 2 4.84 0.25
0 -7 2 31.17 1.14
0 -7 2 32.36 1.06
0 7 -2 31.79 1.12
1 -7 2 0.17 0.09
-1 7 -2 0.16 0.1
-2 7 -2 12.73 0.56
2 -7 2 12.43 0.54
-3 7 -2 21.94 0.88
3 -7 2 22.4 0.86
4 -7 2 0.03 0.08
-4 7 -2 0.11 0.13
-5 7 -2 0.37 0.14
5 -7 2 0.57 0.14
-6 7 -2 0.06 0.12
6 -7 2 0.01 0.1
7 -7 2 2.06 0.21
-7 7 -2 2.02 0.27
-9 -6 2 4.11 0.33
9 6 -2 4.31 0.36
-8 -6 2 11.6 0.57
8 6 -2 12.25 0.63
-7 -6 2 2.39 0.23
7 6 -2 2.62 0.25
-6 -6 2 0.29 0.12
6 6 -2 0.29 0.12
-5 -6 2 0.45 0.13
4 6 -2 8.41 0.43
-4 -6 2 7.26 0.37
-3 -6 2 0.6 0.12
3 6 -2 0.83 0.16
-2 -6 2 7.25 0.33
2 6 -2 6.97 0.3
1 6 -2 0.04 0.07
-1 -6 2 0.22 0.07
-1 -6 2 0.07 0.08
0 -6 2 6.67 0.32
0 6 -2 6.42 0.31
0 -6 2 6.45 0.28
-1 6 -2 1.27 0.15
1 -6 2 1.2 0.11
1 -6 2 1.24 0.14
-2 6 -2 47.18 1.61
2 -6 2 46.81 1.61
3 -6 2 19.23 0.75
-3 6 -2 20.25 0.78
4 -6 2 1.94 0.18
-4 6 -2 1.8 0.19
5 -6 2 0.26 0.11
-5 6 -2 0.41 0.15
-6 6 -2 0.02 0.1
6 -6 2 0.39 0.11
-7 6 -2 0.2 0.14
7 -6 2 0.22 0.11
-8 6 -2 0.14 0.16
8 -6 2 0.13 0.11
-9 -5 2 1.41 0.21
9 5 -2 1.53 0.24
8 5 -2 2.47 0.27
-8 -5 2 2.55 0.25
-7 -5 2 1.66 0.21
7 5 -2 1.8 0.21
6 5 -2 1.2 0.18
-6 -5 2 1.22 0.17
-5 -5 2 0.55 0.12
5 5 -2 0.44 0.12
4 5 -2 6.04 0.36
-4 -5 2 7.05 0.34
-3 -5 2 66.7 2.14
3 5 -2 67.36 2.28
2 5 -2 0.91 0.14
2 5 -2 1 0.1
-2 -5 2 1.08 0.12
1 5 -2 11.06 0.42
-1 -5 2 11.02 0.44
-1 -5 2 11.04 0.42
0 5 -2 82.46 2.61
0 -5 2 80.9 2.51
0 -5 2 79.45 2.65
-1 5 -2 0.72 0.11
1 -5 2 0.67 0.1
1 -5 2 0.96 0.09
2 -5 2 28.2 0.94
2 -5 2 29.31 1.02
-2 5 -2 29.5 1.03
3 -5 2 45.94 1.51
-3 5 -2 41.88 1.5
4 -5 2 11.41 0.48
-4 5 -2 10.75 0.5
5 -5 2 7.68 0.39
-5 5 -2 8.34 0.42
6 -5 2 0.16 0.08
-6 5 -2 0.16 0.12
-7 5 -2 0.65 0.16
7 -5 2 0.46 0.13
-8 5 -2 0.03 0.12
8 -5 2 0.07 0.09
-9 -4 2 1.29 0.21
9 4 -2 1.79 0.25
8 4 -2 1.02 0.21
-8 -4 2 1.06 0.19
7 4 -2 0.79 0.16
-7 -4 2 0.54 0.15
-6 -4 2 3.01 0.23
6 4 -2 2.95 0.24
-5 -4 2 2.31 0.2
5 4 -2 2.4 0.21
3 4 -2 8.01 0.37
-3 -4 2 6.67 0.32
2 4 -2 0.78 0.08
-2 -4 2 0.8 0.1
2 4 -2 0.83 0.12
1 4 -2 0.4 0.06
-1 -4 2 0.64 0.09
-1 -4 2 0.34 0.07
0 -4 2 126.78 4.03
0 4 -2 126.08 3.95
0 -4 2 122.46 3.83
1 -4 2 0.29 0.06
-1 4 -2 0.25 0.07
1 -4 2 0.3 0.06
-2 4 -2 24.24 0.84
2 -4 2 22.51 0.82
2 -4 2 23.69 0.77
3 -4 2 1.34 0.11
-3 4 -2 1.08 0.14
3 -4 2 1.04 0.12
-4 4 -2 10.9 0.48
4 -4 2 11.2 0.46
-5 4 -2 4.41 0.27
5 -4 2 3.65 0.24
-6 4 -2 1.22 0.17
6 -4 2 1.17 0.15
-7 4 -2 2.8 0.25
7 -4 2 2.03 0.2
-8 4 -2 0.06 0.13
8 -4 2 0.09 0.09
9 -4 2 1.91 0.21
-10 -3 2 0.25 0.14
9 3 -2 0.38 0.14
-9 -3 2 0.28 0.14
-8 -3 2 2.22 0.22
8 3 -2 2.66 0.25
-7 -3 2 3.56 0.26
7 3 -2 4.22 0.3
-6 -3 2 9.52 0.44
6 3 -2 10.12 0.48
5 3 -2 13.39 0.57
-5 -3 2 12.58 0.52
-4 -3 2 91.16 2.85
4 3 -2 89.91 3
-3 -3 2 0.71 0.1
3 3 -2 0.69 0.11
2 3 -2 53.54 1.74
2 3 -2 50.57 1.64
-2 -3 2 50.95 1.64
1 3 -2 144.95 4.49
-1 -3 2 142.96 4.58
-1 -3 2 141.26 4.37
0 3 -2 401.64 12.66
0 -3 2 414.8 12.89
0 -3 2 403.23 12.28
-1 3 -2 42.5 1.39
1 -3 2 41.71 1.33
1 -3 2 42.74 1.4
2 -3 2 37.29 1.3
-2 3 -2 40.32 1.31
2 -3 2 39.63 1.24
-3 3 -2 56.6 1.9
3 -3 2 57.08 1.8
3 -3 2 59.14 1.9
-4 3 -2 79.62 2.61
4 -3 2 80.41 2.63
-5 3 -2 0.16 0.1
5 -3 2 0.1 0.08
6 -3 2 0.84 0.14
-6 3 -2 1.14 0.16
-7 3 -2 7.52 0.41
7 -3 2 7.24 0.39
-8 3 -2 4.21 0.3
8 -3 2 3.92 0.29
9 -3 2 0.12 0.1
-9 -2 2 0.22 0.13
9 2 -2 0.52 0.16
-8 -2 2 0.34 0.13
8 2 -2 0.16 0.13
-7 -2 2 4.63 0.28
7 2 -2 4.69 0.31
-6 -2 2 3.08 0.24
6 2 -2 4.72 0.29
5 2 -2 15.66 0.64
-4 -2 2 0.16 0.08
4 2 -2 0.69 0.11
-3 -2 2 65.94 2.07
3 2 -2 64.66 2.17
3 2 -2 66.04 2.06
2 2 -2 13.62 0.46
-2 -2 2 14.42 0.5
2 2 -2 13.87 0.52
-1 -2 2 834.84 25.25
1 2 -2 825.28 26.54
1 2 -2 855.91 26.07
0 -2 2 13.31 0.46
0 -2 2 12.94 0.45
0 2 -2 13.1 0.46
1 -2 2 0.02 0.03
-1 2 -2 -0.02 0.03
-2 2 -2 24.1 0.85
2 -2 2 25.8 0.84
2 -2 2 24.9 0.81
-3 2 -2 0.13 0.06
3 -2 2 0.21 0.04
3 -2 2 0.15 0.05
-4 2 -2 11.24 0.38
-4 2 -2 9.74 0.43
4 -2 2 9.91 0.41
5 -2 2 9.67 0.41
-5 2 -2 9.66 0.36
-5 2 -2 8.9 0.42
6 -2 2 -0.07 0.06
-6 2 -2 0.01 0.09
-6 2 -2 0 0.05
-7 2 -2 0.69 0.14
7 -2 2 0.36 0.12
8 -2 2 1.44 0.19
9 -2 2 0.69 0.15
9 1 -2 1.25 0.2
8 1 -2 1.56 0.22
-8 -1 2 1.39 0.19
-7 -1 2 5.04 0.29
7 1 -2 5.38 0.33
-6 -1 2 9.95 0.43
6 1 -2 10.14 0.48
5 1 -2 40.67 1.45
-5 -1 2 41.6 1.36
-4 -1 2 0.87 0.11
-4 -1 2 0.75 0.08
-3 -1 2 24.29 0.81
-3 -1 2 24.55 0.79
3 1 -2 22.73 0.84
2 1 -2 44.86 1.36
-2 -1 2 40.03 1.35
2 1 -2 43.57 1.42
-1 -1 2 253.3 7.73
1 1 -2 254.56 7.96
1 1 -2 258.37 8.12
0 -1 2 322.82 10.22
0 1 -2 323.79 10
0 -1 2 317.02 9.71
1 -1 2 276.82 8.64
1 -1 2 294.61 9.09
2 -1 2 0.3 0.04
-2 1 -2 0.23 0.05
2 -1 2 0.31 0.05
-3 1 -2 1.24 0.11
-3 1 -2 1.03 0.08
3 -1 2 0.93 0.09
4 -1 2 0.4 0.07
-4 1 -2 0.47 0.07
-4 1 -2 0.52 0.09
5 -1 2 8.19 0.36
-5 1 -2 7.96 0.37
-5 1 -2 8.35 0.33
-6 1 -2 0.83 0.14
-6 1 -2 0.69 0.1
6 -1 2 0.54 0.11
7 -1 2 3.5 0.25
-7 1 -2 3.68 0.21
-7 1 -2 3.79 0.25
8 -1 2 5.29 0.33
9 -1 2 0.21 0.1
10 -1 2 0.12 0.11
9 0 -2 9.06 0.5
8 0 -2 0.58 0.15
-7 0 2 0.27 0.11
7 0 -2 0.23 0.12
5 0 -2 22.26 0.83
-5 0 2 21.82 0.76
-5 0 2 21.01 0.76
4 0 -2 36.27 1.26
-4 0 2 36.87 1.2
-4 0 2 35.79 1.18
3 0 -2 41.74 1.44
-3 0 2 43.68 1.38
-3 0 2 42.49 1.36
-2 0 2 3.69 0.17
2 0 -2 3.8 0.15
2 0 -2 3.93 0.18
1 0 -2 776.19 25.46
1 0 -2 835.91 24.99
-1 0 2 800.18 24.23
0 0 -2 16.34 0.54
0 0 2 16.17 0.54
0 0 -2 16.43 0.54
1 0 2 1.72 0.1
-1 0 -2 1.9 0.1
1 0 2 2.08 0.07
2 0 2 52.23 1.67
-2 0 -2 49.43 1.65
-2 0 -2 53.55 1.6
-3 0 -2 3.07 0.15
3 0 2 3.27 0.16
-3 0 -2 2.94 0.16
-4 0 -2 0.3 0.06
-4 0 -2 0.11 0.06
4 0 2 0.16 0.06
-5 0 -2 6.6 0.28
-5 0 -2 5.97 0.28
5 0 2 5.95 0.29
-6 0 -2 0.83 0.13
-6 0 -2 1.14 0.13
6 0 2 0.77 0.13
7 0 2 1.09 0.15
-7 0 -2 0.65 0.12
-8 0 -2 -0.04 0.08
8 0 2 0.02 0.1
9 0 2 0.67 0.16
10 0 2 0.56 0.15
9 -1 -2 1.09 0.2
8 -1 -2 0.63 0.16
7 -1 -2 1.44 0.19
6 -1 -2 3.2 0.24
-6 1 2 3.97 0.23
-6 1 2 3.29 0.21
-5 1 2 37.21 1.22
5 -1 -2 36.59 1.31
-5 1 2 37.85 1.26
-4 1 2 14.11 0.5
4 -1 -2 12.96 0.55
-4 1 2 14.74 0.53
-3 1 2 12.98 0.46
-3 1 2 13.77 0.48
3 -1 -2 12.43 0.5
-2 1 2 12.75 0.47
-2 1 2 13.37 0.45
2 -1 -2 13.27 0.48
-1 1 2 271.01 8.02
1 -1 -2 255.1 8.41
1 -1 -2 269.24 8.26
0 1 2 349.09 10.49
0 -1 -2 344.05 11.04
0 -1 -2 348.16 10.8
-1 -1 -2 7.2 0.25
-1 -1 -2 6.85 0.25
-3 -1 -2 18.71 0.62
-3 -1 -2 18.79 0.63
3 1 2 18.47 0.65
-4 -1 -2 1.03 0.1
-4 -1 -2 0.46 0.07
5 1 2 4.21 0.24
-5 -1 -2 4.11 0.22
-5 -1 -2 4.17 0.21
6 1 2 17.69 0.7
-6 -1 -2 17.47 0.66
-6 -1 -2 18.71 0.66
-7 -1 -2 0.05 0.08
7 1 2 0.12 0.09
-8 -1 -2 1.24 0.18
8 1 2 1.44 0.19
9 1 2 0 0.09
-9 -1 -2 0.03 0.09
10 1 2 8.68 0.48
9 -2 -2 2.7 0.26
8 -2 -2 4.4 0.32
7 -2 -2 0.27 0.12
-6 2 2 0.2 0.1
6 -2 -2 0.32 0.1
-5 2 2 3.45 0.22
5 -2 -2 3.4 0.23
-5 2 2 3.37 0.18
-4 2 2 7.37 0.29
4 -2 -2 6.83 0.34
-4 2 2 7.24 0.33
-3 2 2 19.84 0.66
3 -2 -2 20.62 0.73
-3 2 2 19.85 0.72
-2 2 2 31.4 0.94
2 -2 -2 27.02 1
-2 2 2 30.49 1
1 -2 -2 58.98 1.85
-1 2 2 59.33 1.79
1 -2 -2 56.24 1.89
0 -2 -2 319 10.49
0 -2 -2 323.14 10.29
0 2 2 350.44 10.01
-2 -2 -2 34.25 1.14
2 2 2 38.24 1.21
-2 -2 -2 36.41 1.16
3 2 2 87.89 2.83
-3 -2 -2 89.64 2.75
-3 -2 -2 84.35 2.69
4 2 2 7.3 0.32
-4 -2 -2 6.96 0.3
-4 -2 -2 6.99 0.27
-5 -2 -2 -0.04 0.04
5 2 2 0.06 0.07
-5 -2 -2 -0.04 0.06
6 2 2 30.65 1.13
-6 -2 -2 31.31 1.06
-7 -2 -2 1.39 0.17
7 2 2 1.14 0.17
8 2 2 19.44 0.81
-8 -2 -2 19.62 0.76
-9 -2 -2 0.23 0.13
9 2 2 0.19 0.12
10 2 2 1.66 0.2
-10 -2 -2 1.62 0.22
8 -3 -2 0.11 0.11
-7 3 2 3.67 0.26
7 -3 -2 3.63 0.28
-6 3 2 0.26 0.1
-5 3 2 1.4 0.17
5 -3 -2 1.47 0.15
-4 3 2 0.33 0.1
4 -3 -2 0.35 0.09
-3 3 2 199.27 6.01
-3 3 2 192.47 6.25
3 -3 -2 203.76 6.38
-2 3 2 3.01 0.18
2 -3 -2 2.61 0.16
-1 3 2 74.36 2.39
-1 3 2 77.46 2.28
1 -3 -2 71.37 2.41
0 -3 -2 1.19 0.09
0 -3 -2 1.16 0.08
-2 -3 -2 7.55 0.3
-2 -3 -2 8.58 0.29
-3 -3 -2 7.36 0.31
-3 -3 -2 7.65 0.27
3 3 2 7.65 0.33
4 3 2 68.71 2.29
-4 -3 -2 69.13 2.17
-4 -3 -2 68.78 2.17
5 3 2 3.82 0.24
-5 -3 -2 4.07 0.17
-5 -3 -2 4.28 0.24
-6 -3 -2 7.45 0.36
6 3 2 7.78 0.38
7 3 2 38.99 1.45
-7 -3 -2 41.39 1.38
8 3 2 38.78 1.43
-8 -3 -2 38.33 1.35
9 3 2 0.19 0.11
-9 -3 -2 0.14 0.11
-10 -3 -2 0.08 0.11
10 3 2 0.07 0.1
8 -4 -2 2.44 0.24
-7 4 2 0.35 0.13
7 -4 -2 0.16 0.12
6 -4 -2 0.59 0.14
-6 4 2 0.44 0.13
-5 4 2 -0.08 0.09
5 -4 -2 0.02 0.09
4 -4 -2 32.6 1.17
-3 4 2 53.8 1.8
3 -4 -2 53.8 1.82
-2 4 2 28.7 0.96
2 -4 -2 25.45 0.95
-1 4 2 16.45 0.6
1 -4 -2 16.03 0.6
0 -4 -2 263.1 7.74
0 4 2 252.96 8.02
0 -4 -2 252.28 8.15
-1 -4 -2 120.72 3.85
-1 -4 -2 120.26 3.64
-1 -4 -2 117.91 3.76
-2 -4 -2 7.94 0.31
-2 -4 -2 7.85 0.33
-2 -4 -2 8.48 0.3
-3 -4 -2 24.49 0.74
3 4 2 22 0.82
-3 -4 -2 21.12 0.76
4 4 2 3.98 0.23
-4 -4 -2 3.72 0.15
-4 -4 -2 3.43 0.21
-5 -4 -2 58.74 1.9
5 4 2 58.61 2
6 4 2 29.08 1.11
-6 -4 -2 30.82 1.06
-7 -4 -2 18.94 0.75
7 4 2 19.72 0.8
8 4 2 1.8 0.21
-8 -4 -2 1.83 0.22
-9 -4 -2 0.01 0.11
9 4 2 0.18 0.14
-10 -4 -2 0.41 0.15
10 4 2 0.12 0.13
8 -5 -2 0.14 0.11
7 -5 -2 0.02 0.09
-7 5 2 0.09 0.12
6 -5 -2 0.63 0.16
-6 5 2 0.68 0.16
-5 5 2 0.15 0.11
5 -5 -2 0.35 0.12
-4 5 2 61.9 2.09
4 -5 -2 62.42 2.12
3 -5 -2 8.11 0.38
-2 5 2 10.36 0.46
2 -5 -2 10.94 0.46
-1 5 2 0.87 0.12
0 5 2 62.56 2.09
0 -5 -2 64.58 2.13
0 -5 -2 65.83 1.97
1 5 2 69.22 2.23
-1 -5 -2 70.24 2.13
-1 -5 -2 67.91 2.27
-2 -5 -2 -0.07 0.05
-2 -5 -2 0.06 0.06
2 5 2 0.09 0.05
3 5 2 0.68 0.11
-3 -5 -2 0.95 0.1
-3 -5 -2 1.08 0.08
-4 -5 -2 19.47 0.72
4 5 2 20.63 0.78
-4 -5 -2 19.86 0.66
-5 -5 -2 19.85 0.75
5 5 2 21.11 0.81
-6 -5 -2 30.1 1.07
6 5 2 30.15 1.13
-7 -5 -2 0.45 0.13
7 5 2 0.4 0.14
-8 -5 -2 2.06 0.23
8 5 2 2.5 0.24
9 5 2 0.66 0.17
-9 -5 -2 0.43 0.15
-10 -5 -2 0.66 0.17
10 5 2 0.46 0.15
-8 6 2 0.42 0.16
-7 6 2 0.26 0.12
7 -6 -2 0.19 0.12
-6 6 2 2.13 0.22
6 -6 -2 1.88 0.21
-5 6 2 0.73 0.17
5 -6 -2 0.97 0.17
4 -6 -2 1.02 0.16
-4 6 2 1.01 0.17
-3 6 2 18.05 0.71
3 -6 -2 17.1 0.71
2 -6 -2 22.41 0.84
-1 6 2 8.32 0.37
1 -6 -2 6.09 0.33
0 -6 -2 8.53 0.39
0 6 2 8.96 0.4
0 -6 -2 9.51 0.32
-1 -6 -2 72.31 2.47
1 6 2 74.71 2.43
-1 -6 -2 77.61 2.32
-2 -6 -2 2.17 0.17
2 6 2 2.39 0.16
-2 -6 -2 2.3 0.15
-3 -6 -2 19.65 0.69
3 6 2 18.99 0.68
4 6 2 20.33 0.81
-4 -6 -2 19.94 0.73
-5 -6 -2 0.24 0.11
5 6 2 0.15 0.1
6 6 2 1.44 0.2
-6 -6 -2 1.46 0.17
-7 -6 -2 0.27 0.12
7 6 2 0.04 0.09
8 6 2 1.91 0.24
-8 -6 -2 1.31 0.21
9 6 2 0.07 0.12
-9 -6 -2 0 0.12
10 6 2 1.55 0.25
7 -7 -2 1.34 0.22
-7 7 2 1.21 0.23
-6 7 2 2.66 0.25
6 -7 -2 2.77 0.26
-5 7 2 1.33 0.2
5 -7 -2 1.65 0.21
-4 7 2 12.47 0.59
4 -7 -2 13.16 0.59
-3 7 2 3.56 0.27
3 -7 -2 3.5 0.26
-2 7 2 16.33 0.68
2 -7 -2 17 0.69
1 -7 -2 1.9 0.17
0 7 2 1.8 0.17
0 -7 -2 2.75 0.2
-1 -7 -2 0.01 0.05
1 7 2 -0.07 0.06
-1 -7 -2 0.02 0.08
2 7 2 6.38 0.3
-2 -7 -2 6.21 0.32
-2 -7 -2 6.25 0.28
3 7 2 20.56 0.72
-3 -7 -2 19.79 0.72
-3 -7 -2 19.69 0.77
4 7 2 1.03 0.18
-4 -7 -2 1 0.14
-5 -7 -2 0.61 0.13
5 7 2 0.56 0.15
-6 -7 -2 0.17 0.13
6 7 2 0.04 0.11
7 7 2 6.25 0.4
-7 -7 -2 6.22 0.37
8 7 2 4.03 0.32
-8 -7 -2 3.96 0.31
-9 -7 -2 0.73 0.18
9 7 2 1.09 0.21
6 -8 -2 1.13 0.2
-6 8 2 1.26 0.24
-5 8 2 0.19 0.13
5 -8 -2 0.13 0.1
-4 8 2 4.68 0.33
4 -8 -2 4.28 0.31
3 -8 -2 2.37 0.22
-3 8 2 2.43 0.24
2 -8 -2 9.38 0.46
-2 8 2 8.96 0.46
1 -8 -2 0.04 0.1
-1 8 2 0.14 0.11
0 -8 -2 11.29 0.51
-1 -8 -2 0.02 0.08
1 8 2 0.03 0.08
-2 -8 -2 5 0.29
-2 -8 -2 5.06 0.25
2 8 2 4.42 0.26
-3 -8 -2 0.27 0.09
-3 -8 -2 0.55 0.13
-4 -8 -2 19.19 0.73
4 8 2 19.61 0.84
5 8 2 3.15 0.28
-5 -8 -2 3.13 0.23
6 8 2 3.45 0.3
-6 -8 -2 3.1 0.25
7 8 2 0.82 0.19
-7 -8 -2 0.95 0.18
8 8 2 0.32 0.14
-8 -8 -2 0.57 0.16
9 8 2 0.74 0.18
5 -9 -2 0.3 0.14
-5 9 2 0.54 0.19
-4 9 2 0.82 0.17
4 -9 -2 0.63 0.16
3 -9 -2 0.04 0.11
-3 9 2 -0.03 0.12
2 -9 -2 1.29 0.19
-2 9 2 1.15 0.2
-1 9 2 0.41 0.14
1 -9 -2 0.55 0.15
0 9 2 0.96 0.16
0 -9 -2 1.01 0.17
1 9 2 0.15 0.09
-1 -9 -2 0.1 0.11
-2 -9 -2 2.04 0.2
2 9 2 1.66 0.16
-3 -9 -2 0.2 0.09
-3 -9 -2 0.18 0.1
-4 -9 -2 -0.11 0.1
4 9 2 0.22 0.14
-5 -9 -2 0.01 0.11
5 9 2 0.06 0.14
-6 -9 -2 0.52 0.15
6 9 2 0.54 0.17
7 9 2 0.1 0.12
-7 -9 -2 0.04 0.12
-8 -9 -2 2.59 0.27
8 9 2 2.62 0.28
-4 10 2 0.47 0.16
4 -10 -2 0.46 0.14
3 -10 -2 0.01 0.13
-3 10 2 -0.14 0.12
-2 10 2 0.63 0.18
2 -10 -2 0.44 0.16
-1 10 2 0.33 0.14
1 -10 -2 0.44 0.14
0 -10 -2 0.23 0.11
0 10 2 0.17 0.12
1 10 2 0.1 0.12
-1 -10 -2 0.49 0.15
-2 -10 -2 0.64 0.16
-3 -10 -2 17.01 0.73
-4 -10 -2 10.17 0.46
4 10 2 9.86 0.58
5 10 2 10.78 0.6
-5 -10 -2 11.14 0.51
6 10 2 1.6 0.25
-6 -10 -2 1.45 0.2
-7 -10 -2 0.15 0.11
7 10 2 0.09 0.12
-3 11 2 2.74 0.28
3 -11 -2 2.67 0.28
-2 11 2 4.6 0.35
2 -11 -2 4.7 0.35
-1 11 2 1.31 0.21
1 -11 -2 1.19 0.2
0 11 2 0.11 0.13
0 -11 -2 0.28 0.14
-1 -11 -2 0.71 0.18
1 11 2 0.52 0.15
-2 -11 -2 0.28 0.15
-3 -11 -2 7.17 0.43
4 11 2 7.39 0.5
5 11 2 0.22 0.16
6 11 2 1 0.22
-6 -11 -2 0.99 0.17
-7 -11 -2 0.31 0.14
1 -12 -2 2.28 0.27
-1 12 2 2.41 0.26
0 12 2 2.63 0.25
0 -12 -2 2.49 0.28
-1 -12 -2 0.78 0.2
-2 -12 -2 0.4 0.17
-3 -12 -2 0.69 0.19
4 12 2 0.41 0.2
5 12 2 3.39 0.34
3 12 -3 0.11 0.17
-1 -12 3 0.53 0.17
0 -12 3 2.75 0.26
1 -12 3 8.26 0.47
5 11 -3 4.3 0.39
-5 -11 3 4.52 0.34
4 11 -3 7.83 0.52
3 11 -3 5.57 0.44
-1 -11 3 0.76 0.17
0 -11 3 0.21 0.12
1 -11 3 4.82 0.34
-1 11 -3 4.88 0.36
-2 11 -3 2.34 0.26
2 -11 3 2.23 0.22
-3 11 -3 3.58 0.33
3 -11 3 2.88 0.26
6 10 -3 0.06 0.14
-6 -10 3 0.13 0.13
5 10 -3 0.23 0.16
-5 -10 3 0.18 0.14
4 10 -3 7.95 0.51
-4 -10 3 8.49 0.45
3 10 -3 9.7 0.57
-3 -10 3 10.76 0.5
-2 -10 3 3.55 0.28
-1 -10 3 0.25 0.14
0 10 -3 9.8 0.49
0 -10 3 9.9 0.5
1 -10 3 29.15 1.15
-1 10 -3 30.45 1.16
2 -10 3 3.82 0.29
-2 10 -3 4.45 0.34
-3 10 -3 0.12 0.14
3 -10 3 0.04 0.09
-4 10 -3 6.82 0.44
4 -10 3 6.14 0.39
5 -10 3 0.2 0.13
7 9 -3 0.59 0.19
-7 -9 3 0.64 0.17
6 9 -3 0.99 0.21
-6 -9 3 0.97 0.19
5 9 -3 1.17 0.23
-5 -9 3 1.4 0.21
4 9 -3 4.62 0.37
-4 -9 3 5.25 0.33
3 9 -3 0.53 0.16
-3 -9 3 0.57 0.13
-2 -9 3 0.16 0.12
-2 -9 3 0.25 0.11
-1 -9 3 21.94 0.87
0 -9 3 7.87 0.42
0 9 -3 8.13 0.42
-1 9 -3 6.54 0.39
1 -9 3 6.57 0.37
2 -9 3 0.93 0.15
-2 9 -3 0.86 0.18
3 -9 3 0 0.09
-3 9 -3 0.06 0.13
4 -9 3 5.96 0.37
-4 9 -3 5.61 0.39
5 -9 3 0.4 0.13
-5 9 -3 0.47 0.18
6 -9 3 3.27 0.27
-7 -8 3 5.86 0.38
7 8 -3 6.41 0.43
6 8 -3 1 0.22
-6 -8 3 1.07 0.2
-5 -8 3 11.36 0.53
5 8 -3 10.56 0.57
4 8 -3 0.3 0.13
-4 -8 3 0.27 0.13
3 8 -3 6.97 0.42
-3 -8 3 7.15 0.37
-2 -8 3 52.23 1.73
-1 -8 3 14.76 0.62
1 8 -3 15.06 0.6
-1 -8 3 14.49 0.58
0 -8 3 95.59 3.2
0 8 -3 96.66 3.14
1 -8 3 16.75 0.69
-1 8 -3 16.72 0.69
-2 8 -3 1.27 0.19
2 -8 3 1.24 0.15
-3 8 -3 1.32 0.2
3 -8 3 1.39 0.17
-4 8 -3 4.01 0.31
4 -8 3 3.57 0.27
5 -8 3 0.36 0.12
-5 8 -3 0.17 0.12
-6 8 -3 4 0.34
6 -8 3 3.56 0.28
7 -8 3 0.16 0.13
-8 -7 3 0.66 0.18
8 7 -3 0.73 0.21
-7 -7 3 1.37 0.21
7 7 -3 1.26 0.23
6 7 -3 -0.01 0.12
-6 -7 3 0.15 0.11
-5 -7 3 1.99 0.2
5 7 -3 1.75 0.22
4 7 -3 1.08 0.18
-4 -7 3 0.58 0.14
3 7 -3 26.43 1.06
-3 -7 3 27.99 0.99
2 7 -3 24.5 0.98
-2 -7 3 24.53 0.89
-1 -7 3 0.69 0.12
-1 -7 3 0.76 0.12
1 7 -3 0.63 0.12
0 -7 3 0.55 0.1
0 7 -3 0.39 0.11
0 -7 3 0.49 0.11
1 -7 3 4.28 0.26
-1 7 -3 4.32 0.27
2 -7 3 29.58 1.1
-2 7 -3 30.8 1.12
3 -7 3 2.54 0.2
-3 7 -3 2.46 0.23
4 -7 3 2.72 0.22
-4 7 -3 2.66 0.25
5 -7 3 0.95 0.16
-5 7 -3 1.16 0.2
-6 7 -3 0.68 0.17
6 -7 3 0.73 0.15
-7 7 -3 0.2 0.15
7 -7 3 0.45 0.12
8 6 -3 0.34 0.16
-8 -6 3 0.38 0.14
-7 -6 3 1.79 0.23
7 6 -3 2.11 0.23
6 6 -3 4.07 0.3
-6 -6 3 3.26 0.27
5 6 -3 6.62 0.39
-5 -6 3 6.05 0.35
-4 -6 3 4.96 0.31
4 6 -3 5.19 0.33
3 6 -3 69.53 2.44
-3 -6 3 73.33 2.31
-2 -6 3 14.42 0.57
2 6 -3 14.59 0.54
-1 -6 3 0.41 0.09
-1 -6 3 0.24 0.09
1 6 -3 0.32 0.09
0 -6 3 0.13 0.08
0 -6 3 0.12 0.06
0 6 -3 0.02 0.08
1 -6 3 3.09 0.21
1 -6 3 3.3 0.19
-3 6 -3 5.3 0.32
3 -6 3 5.57 0.3
4 -6 3 0.95 0.15
-4 6 -3 0.93 0.16
-5 6 -3 0.07 0.11
5 -6 3 0.04 0.09
6 -6 3 -0.01 0.09
-6 6 -3 0.3 0.15
-7 6 -3 0.14 0.14
7 -6 3 0.09 0.1
8 -6 3 0.37 0.14
-8 6 -3 0.25 0.17
-9 -5 3 5.47 0.37
9 5 -3 6.09 0.43
8 5 -3 1.56 0.23
-8 -5 3 1.32 0.2
7 5 -3 0.4 0.14
-7 -5 3 0.19 0.13
6 5 -3 4.78 0.32
-6 -5 3 4.75 0.31
5 5 -3 0.69 0.15
-5 -5 3 0.65 0.15
4 5 -3 0.93 0.16
-4 -5 3 1.2 0.16
-3 -5 3 7.78 0.37
3 5 -3 8.2 0.41
2 5 -3 180.34 5.51
2 5 -3 169.08 5.69
-2 -5 3 177.25 5.4
-1 -5 3 8.23 0.36
-1 -5 3 8.32 0.36
1 5 -3 8.36 0.35
0 -5 3 1.86 0.15
0 -5 3 1.97 0.15
0 5 -3 1.78 0.15
1 -5 3 2.22 0.15
1 -5 3 1.75 0.14
-1 5 -3 1.91 0.17
-2 5 -3 0.23 0.09
2 -5 3 0.2 0.08
2 -5 3 0.16 0.06
3 -5 3 0.79 0.12
-3 5 -3 1.23 0.17
-4 5 -3 58.46 2
4 -5 3 59.45 1.99
5 -5 3 14.46 0.61
-5 5 -3 15.25 0.65
6 -5 3 5.19 0.31
-6 5 -3 5.91 0.37
-7 5 -3 2.79 0.25
7 -5 3 2.22 0.21
8 -5 3 0 0.09
-8 5 -3 0.22 0.15
-9 -4 3 0.22 0.13
9 4 -3 0.18 0.15
-8 -4 3 0.39 0.15
8 4 -3 0.91 0.2
7 4 -3 2.91 0.25
-7 -4 3 2.58 0.24
-6 -4 3 0.94 0.17
6 4 -3 1 0.17
5 4 -3 -0.04 0.08
-5 -4 3 -0.02 0.08
4 4 -3 4.56 0.28
-4 -4 3 4.27 0.26
3 4 -3 5.26 0.3
-3 -4 3 5.22 0.28
3 4 -3 5.39 0.2
2 4 -3 0.27 0.06
2 4 -3 0.45 0.1
-2 -4 3 0.52 0.1
1 4 -3 12.14 0.46
-1 -4 3 12.31 0.48
-1 -4 3 13.2 0.48
0 -4 3 0.32 0.07
0 4 -3 0.37 0.08
0 -4 3 0.53 0.08
-1 4 -3 63.78 2.03
1 -4 3 60.2 1.95
1 -4 3 62.32 2.04
-2 4 -3 136.2 4.2
2 -4 3 128.24 4.23
2 -4 3 130.3 4.04
3 -4 3 58.25 1.97
3 -4 3 60.55 1.88
-4 4 -3 -0.06 0.09
-5 4 -3 1.72 0.2
5 -4 3 1.63 0.16
6 -4 3 35.65 1.35
-6 4 -3 40.94 1.4
7 -4 3 6.04 0.35
-7 4 -3 7.16 0.4
-8 4 -3 0.43 0.15
8 -4 3 0.42 0.13
9 -4 3 0.04 0.1
-9 -3 3 1.03 0.19
9 3 -3 0.98 0.21
-8 -3 3 0.15 0.11
8 3 -3 0.19 0.13
7 3 -3 7.78 0.44
-7 -3 3 7.45 0.4
6 3 -3 0.82 0.15
-6 -3 3 0.68 0.15
5 3 -3 10.86 0.5
-5 -3 3 10.49 0.47
-4 -3 3 0.1 0.08
4 3 -3 0.09 0.08
-3 -3 3 0.8 0.11
-2 -3 3 84 2.58
2 3 -3 80.73 2.59
2 3 -3 82.17 2.71
1 3 -3 0.56 0.09
-1 -3 3 0.88 0.1
1 3 -3 0.98 0.09
0 3 -3 177.25 5.5
0 -3 3 172.39 5.35
0 -3 3 176.25 5.59
-1 3 -3 78.52 2.43
1 -3 3 75.6 2.44
1 -3 3 72.33 2.35
-2 3 -3 83.9 2.74
2 -3 3 85.4 2.64
2 -3 3 86.29 2.75
3 -3 3 20.08 0.69
-3 3 -3 19.39 0.75
3 -3 3 21.16 0.72
4 -3 3 52.68 1.68
5 -3 3 1.14 0.12
-5 3 -3 1.13 0.16
5 -3 3 0.99 0.12
-6 3 -3 19.53 0.76
6 -3 3 17.94 0.72
-7 3 -3 0.61 0.15
7 -3 3 0.47 0.12
-8 3 -3 4.97 0.32
8 -3 3 4.07 0.29
9 -3 3 0.04 0.1
9 2 -3 1.15 0.22
-9 -2 3 1.15 0.19
-8 -2 3 0.99 0.16
8 2 -3 1 0.2
7 2 -3 1.12 0.17
-7 -2 3 0.92 0.16
-6 -2 3 0.79 0.14
6 2 -3 0.96 0.17
5 2 -3 23.9 0.93
-5 -2 3 24.5 0.87
4 2 -3 41.06 1.45
-4 -2 3 40.96 1.38
-4 -2 3 42.9 1.34
-3 -2 3 2.6 0.18
3 2 -3 2.46 0.17
3 2 -3 2.43 0.11
2 2 -3 5.61 0.26
2 2 -3 5.58 0.21
-2 -2 3 5.73 0.26
-1 -2 3 190.11 5.78
1 2 -3 185.5 6.05
1 2 -3 192.75 5.92
0 2 -3 1.77 0.11
0 -2 3 1.67 0.1
0 -2 3 1.68 0.13
1 -2 3 310.45 9.74
-1 2 -3 312.81 9.58
1 -2 3 297.52 9.29
2 -2 3 15.04 0.54
-2 2 -3 15.11 0.56
2 -2 3 15.98 0.54
-3 2 -3 15.78 0.61
3 -2 3 17 0.58
3 -2 3 15.91 0.57
4 -2 3 0.84 0.1
-4 2 -3 0.59 0.11
4 -2 3 0.79 0.1
5 -2 3 8.52 0.37
6 -2 3 6.57 0.34
-6 2 -3 7.09 0.3
-6 2 -3 6.99 0.36
-7 2 -3 0.06 0.1
7 -2 3 0.21 0.08
8 -2 3 11.86 0.55
9 -2 3 2.22 0.22
10 -2 3 0.3 0.11
9 1 -3 0.78 0.2
8 1 -3 1 0.19
-8 -1 3 1.16 0.18
7 1 -3 1.78 0.19
-7 -1 3 1.62 0.17
6 1 -3 0.07 0.09
-6 -1 3 0.18 0.09
-4 -1 3 1.81 0.12
-4 -1 3 1.74 0.15
3 1 -3 65.83 2.08
-3 -1 3 67.3 2.08
3 1 -3 63.99 2.18
2 1 -3 67.28 2.1
2 1 -3 66.65 2.18
-2 -1 3 66.05 2.09
-1 -1 3 99.77 3.02
1 1 -3 95.65 3.15
1 1 -3 98.54 3.08
0 1 -3 3.56 0.16
0 1 -3 4.24 0.18
0 -1 3 4.45 0.19
1 -1 3 859.98 27.18
-1 1 -3 859.19 26.54
1 -1 3 845.71 25.75
-2 1 -3 6.46 0.28
2 -1 3 6.96 0.25
2 -1 3 6.66 0.27
-3 1 -3 4.13 0.22
3 -1 3 4.3 0.21
3 -1 3 4.9 0.2
-4 1 -3 15.45 0.53
-4 1 -3 14.13 0.57
4 -1 3 16.03 0.56
5 -1 3 2.15 0.16
-5 1 -3 2.39 0.15
-5 1 -3 2.18 0.18
6 -1 3 4.52 0.25
-6 1 -3 4.13 0.26
-7 1 -3 0.33 0.09
-7 1 -3 0.35 0.11
7 -1 3 0.46 0.11
8 -1 3 6.67 0.37
9 -1 3 2.47 0.24
10 -1 3 3.18 0.28
9 0 -3 1.73 0.24
8 0 -3 0.7 0.16
7 0 -3 2.09 0.21
-7 0 3 1.83 0.18
6 0 -3 1.18 0.17
-6 0 3 1.19 0.14
-5 0 3 0.02 0.07
5 0 -3 0.05 0.08
-5 0 3 0.02 0.08
-4 0 3 0.19 0.08
4 0 -3 0.2 0.08
-4 0 3 0.27 0.08
-3 0 3 8.56 0.35
3 0 -3 8.85 0.32
3 0 -3 8.42 0.37
2 0 -3 52.87 1.76
-2 0 3 53.49 1.68
2 0 -3 53.74 1.7
1 0 -3 71.63 2.19
1 0 -3 67.07 2.24
-1 0 3 69.28 2.15
0 0 3 251.48 7.62
0 0 -3 250.19 7.83
0 0 -3 252.23 8.03
-1 0 -3 2.26 0.12
1 0 3 2.32 0.13
2 0 3 39.54 1.21
-2 0 -3 35.57 1.21
2 0 3 36.24 1.19
-3 0 -3 47.01 1.45
-3 0 -3 44.71 1.5
3 0 3 46.38 1.51
-4 0 -3 5.97 0.26
4 0 3 5.37 0.25
-4 0 -3 5.4 0.24
-5 0 -3 0.4 0.08
-5 0 -3 0.43 0.09
5 0 3 0.5 0.08
7 0 3 25.17 0.97
-7 0 -3 26.18 0.95
-7 0 -3 27.07 0.92
8 0 3 -0.05 0.07
-8 0 -3 -0.02 0.07
9 0 3 2.37 0.22
10 0 3 0.14 0.1
9 -1 -3 3.43 0.31
8 -1 -3 1.19 0.2
7 -1 -3 16.19 0.7
-6 1 3 8.03 0.39
6 -1 -3 10.66 0.47
5 -1 -3 0.4 0.1
-5 1 3 0.19 0.09
-5 1 3 0.27 0.1
4 -1 -3 1.54 0.15
-4 1 3 1.35 0.14
-4 1 3 1.28 0.13
-3 1 3 2.99 0.17
-3 1 3 3.35 0.18
3 -1 -3 3.05 0.18
2 -1 -3 45.5 1.44
-2 1 3 44.42 1.41
2 -1 -3 43.93 1.48
1 -1 -3 432.74 13.29
-1 1 3 426.15 12.91
1 -1 -3 423.71 13.55
0 1 3 16.94 0.56
0 -1 -3 15.87 0.55
0 -1 -3 16.69 0.56
-1 -1 -3 23.72 0.81
-1 -1 -3 24.97 0.8
1 1 3 25.15 0.81
-2 -1 -3 94.77 2.99
2 1 3 95.94 3.04
-2 -1 -3 94.01 2.9
3 1 3 14.9 0.52
-3 -1 -3 14.57 0.51
-3 -1 -3 14.03 0.5
-4 -1 -3 0.33 0.07
-4 -1 -3 0.24 0.06
-5 -1 -3 33.06 1.1
5 1 3 32.14 1.13
5 1 3 32.26 1.13
-5 -1 -3 32.53 1.08
-6 -1 -3 9.77 0.4
-6 -1 -3 9.71 0.39
6 1 3 7.81 0.4
-7 -1 -3 1.59 0.16
7 1 3 1.5 0.17
8 1 3 1.79 0.2
-8 -1 -3 1.9 0.19
-9 -1 -3 -0.02 0.09
9 1 3 0.08 0.1
10 1 3 2.59 0.24
8 -2 -3 1.64 0.23
7 -2 -3 11.37 0.56
6 -2 -3 2.61 0.23
-6 2 3 2.87 0.22
-5 2 3 20.72 0.75
5 -2 -3 18.94 0.77
-4 2 3 0.29 0.09
-4 2 3 0.21 0.07
4 -2 -3 0.15 0.08
-3 2 3 8.73 0.34
-3 2 3 9.22 0.38
3 -2 -3 8.98 0.38
2 -2 -3 0.71 0.09
-2 2 3 1.06 0.09
1 -2 -3 71.1 2.27
-1 2 3 72.89 2.17
1 -2 -3 66.18 2.22
0 2 3 107.44 3.18
0 -2 -3 100.85 3.26
0 -2 -3 103.09 3.32
-1 -2 -3 109.72 3.52
-1 -2 -3 116.38 3.59
1 2 3 110.61 3.44
-2 -2 -3 0.06 0.03
-2 -2 -3 -0.01 0.03
2 2 3 0.15 0.04
-3 -2 -3 8.14 0.32
-3 -2 -3 9 0.32
3 2 3 8.45 0.34
4 2 3 201.01 6.41
-4 -2 -3 197.74 6.1
-4 -2 -3 201.6 6.26
5 2 3 10.14 0.43
-5 -2 -3 10.39 0.4
-5 -2 -3 10.61 0.42
6 2 3 1.27 0.15
-6 -2 -3 2.24 0.15
-6 -2 -3 1.78 0.16
7 2 3 25.08 0.96
-7 -2 -3 25.87 0.92
-8 -2 -3 11.91 0.53
8 2 3 11.75 0.55
-9 -2 -3 1.01 0.17
9 2 3 1.33 0.19
10 2 3 0.07 0.1
-10 -2 -3 0.04 0.12
8 -3 -3 1.98 0.23
7 -3 -3 1.97 0.21
-6 3 3 -0.05 0.1
5 -3 -3 6.74 0.35
-5 3 3 6.24 0.34
-4 3 3 15.18 0.59
4 -3 -3 14.18 0.59
-3 3 3 26.3 0.92
-3 3 3 24.84 0.83
3 -3 -3 25.94 0.93
2 -3 -3 0.05 0.05
-2 3 3 0.38 0.06
-2 3 3 -0.01 0.06
0 3 3 11.53 0.4
0 -3 -3 10.71 0.41
0 -3 -3 11.62 0.41
-1 -3 -3 175.93 5.53
-1 -3 -3 186.49 5.71
-1 -3 -3 185.14 5.82
-2 -3 -3 87.1 2.69
-2 -3 -3 88.22 2.76
-2 -3 -3 87.41 2.82
3 3 3 149.82 4.84
-3 -3 -3 152.26 4.72
-3 -3 -3 149.77 4.6
4 3 3 63.82 2.08
-4 -3 -3 59.37 1.97
-4 -3 -3 64.35 1.99
5 3 3 2.48 0.18
-6 -3 -3 1.64 0.16
6 3 3 2.04 0.18
7 3 3 15.43 0.66
-7 -3 -3 15.25 0.62
-8 -3 -3 -0.05 0.11
8 3 3 0.14 0.12
9 3 3 1.62 0.2
-9 -3 -3 1.52 0.2
10 3 3 1.93 0.21
-10 -3 -3 1.78 0.21
8 -4 -3 2.7 0.27
-7 4 3 2.12 0.23
7 -4 -3 1.76 0.22
-6 4 3 2.21 0.21
6 -4 -3 2.18 0.22
-5 4 3 1.6 0.2
5 -4 -3 1.91 0.2
4 -4 -3 30.49 1.1
-4 4 3 29.56 1.08
-3 4 3 41.93 1.49
3 -4 -3 45.27 1.51
2 -4 -3 7.27 0.33
-2 4 3 6.56 0.25
-2 4 3 7.36 0.34
-1 4 3 25.01 0.9
1 -4 -3 25.13 0.89
-1 4 3 25.83 0.81
0 -4 -3 75.7 2.57
0 4 3 81.79 2.44
0 -4 -3 79.61 2.52
-1 -4 -3 0.66 0.07
-1 -4 -3 0.72 0.08
-1 -4 -3 0.68 0.07
-2 -4 -3 158.01 4.9
-2 -4 -3 160.83 5.04
-2 -4 -3 163.58 5.15
-3 -4 -3 7.44 0.31
3 4 3 6.97 0.33
-3 -4 -3 7.29 0.28
-4 -4 -3 5.21 0.21
-4 -4 -3 5.15 0.25
4 4 3 4.71 0.26
5 4 3 10.34 0.48
-5 -4 -3 11.37 0.4
-5 -4 -3 11.42 0.46
6 4 3 8.53 0.41
-6 -4 -3 7.85 0.38
7 4 3 1.52 0.19
-7 -4 -3 1.17 0.17
8 4 3 7.17 0.41
-8 -4 -3 6.94 0.39
-9 -4 -3 0.15 0.11
9 4 3 0.37 0.14
10 4 3 0.19 0.1
-10 -4 -3 0.1 0.13
7 -5 -3 0.34 0.15
-7 5 3 0.27 0.12
6 -5 -3 1.39 0.2
-6 5 3 1.19 0.2
-5 5 3 0.24 0.12
5 -5 -3 0.36 0.11
-4 5 3 0.08 0.11
-3 5 3 5.35 0.31
3 -5 -3 5.23 0.3
-2 5 3 0.06 0.09
2 -5 -3 0.02 0.08
-1 5 3 5.89 0.3
1 -5 -3 5.67 0.28
-1 5 3 5.55 0.22
0 5 3 0.75 0.08
0 5 3 0.65 0.11
0 -5 -3 0.69 0.1
-1 -5 -3 3.06 0.15
-1 -5 -3 3 0.17
-1 -5 -3 3.12 0.19
-2 -5 -3 7.35 0.31
-2 -5 -3 7.82 0.34
-2 -5 -3 8.2 0.31
-3 -5 -3 0.27 0.08
3 5 3 0.22 0.09
-4 -5 -3 22.82 0.81
-4 -5 -3 23.52 0.77
4 5 3 23 0.87
5 5 3 3.1 0.24
-5 -5 -3 4.34 0.25
6 5 3 1.04 0.16
-6 -5 -3 1.22 0.17
7 5 3 4.4 0.3
-7 -5 -3 4.52 0.28
-8 -5 -3 2.79 0.25
8 5 3 3.32 0.27
-9 -5 -3 0.94 0.18
9 5 3 0.69 0.18
10 5 3 0.17 0.13
-10 -5 -3 0.12 0.12
7 -6 -3 4.7 0.36
-7 6 3 5.29 0.37
-6 6 3 0.08 0.12
6 -6 -3 0.2 0.12
5 -6 -3 0.81 0.15
-5 6 3 0.9 0.18
4 -6 -3 10.13 0.5
-4 6 3 10.48 0.51
3 -6 -3 0.22 0.11
-3 6 3 0.32 0.12
2 -6 -3 8.19 0.37
-2 6 3 5.82 0.35
1 -6 -3 87.72 2.9
0 -6 -3 0.66 0.12
0 6 3 0.24 0.09
0 6 3 0.35 0.08
-1 -6 -3 44.25 1.53
1 6 3 43.69 1.51
-1 -6 -3 46.92 1.42
2 6 3 0.61 0.1
-2 -6 -3 0.66 0.11
-2 -6 -3 0.8 0.1
-3 -6 -3 9.46 0.41
-3 -6 -3 9.65 0.38
-3 -6 -3 8.89 0.36
4 6 3 0.09 0.09
-4 -6 -3 -0.07 0.07
-4 -6 -3 0.03 0.04
5 6 3 13.13 0.57
-5 -6 -3 12.17 0.52
-6 -6 -3 0.97 0.16
6 6 3 1.16 0.17
7 6 3 0.64 0.16
-7 -6 -3 0.41 0.13
8 6 3 4.95 0.35
-8 -6 -3 4.8 0.32
-9 -6 -3 0.18 0.13
9 6 3 0.21 0.13
10 6 3 0.04 0.11
-7 7 3 0.1 0.15
6 -7 -3 0.43 0.16
-6 7 3 0.46 0.17
5 -7 -3 0.18 0.12
-5 7 3 0.26 0.13
4 -7 -3 1.19 0.19
-4 7 3 1.35 0.21
3 -7 -3 2.4 0.22
-3 7 3 1.98 0.22
2 -7 -3 3.87 0.26
-2 7 3 3.74 0.27
-1 7 3 8.51 0.42
1 -7 -3 8.49 0.41
0 7 3 15.34 0.62
0 -7 -3 15.36 0.63
-1 -7 -3 0.24 0.1
1 7 3 0.2 0.09
-1 -7 -3 0.19 0.06
2 7 3 7.31 0.35
-2 -7 -3 7.29 0.36
-2 -7 -3 8.11 0.32
-3 -7 -3 16.49 0.61
-3 -7 -3 16.91 0.66
3 7 3 16.27 0.63
4 7 3 0.17 0.11
-4 -7 -3 0.18 0.09
5 7 3 0.06 0.12
-5 -7 -3 -0.01 0.09
6 7 3 4.53 0.33
-6 -7 -3 4.56 0.29
7 7 3 1.21 0.19
-7 -7 -3 0.99 0.18
-8 -7 -3 -0.1 0.13
8 7 3 0.16 0.12
9 7 3 0.7 0.17
-9 -7 -3 0.49 0.16
-6 8 3 0.43 0.17
6 -8 -3 0.21 0.16
5 -8 -3 0.35 0.15
-5 8 3 0.27 0.15
4 -8 -3 0.07 0.09
-4 8 3 -0.05 0.09
-3 8 3 5.96 0.37
3 -8 -3 5.5 0.35
2 -8 -3 2.21 0.22
-2 8 3 2.02 0.22
-1 8 3 0.02 0.09
1 -8 -3 -0.04 0.08
0 -8 -3 1.48 0.17
0 8 3 1.5 0.17
1 8 3 3.62 0.25
-1 -8 -3 3.23 0.23
-2 -8 -3 3.5 0.19
-2 -8 -3 3.13 0.23
3 8 3 17.78 0.68
-3 -8 -3 18.2 0.66
-3 -8 -3 17.73 0.72
4 8 3 6.6 0.41
-4 -8 -3 6.1 0.32
-5 -8 -3 18.22 0.71
5 8 3 17.91 0.79
6 8 3 0.86 0.2
-6 -8 -3 0.94 0.16
7 8 3 3.54 0.31
-7 -8 -3 4.11 0.28
-8 -8 -3 2.37 0.24
8 8 3 2.45 0.26
9 8 3 2.1 0.25
-5 9 3 1.24 0.23
5 -9 -3 0.89 0.21
4 -9 -3 2.43 0.26
-4 9 3 2.45 0.28
3 -9 -3 0.49 0.15
-3 9 3 0.45 0.17
-2 9 3 0.54 0.16
2 -9 -3 0.51 0.15
-1 9 3 5.1 0.34
1 -9 -3 5.78 0.35
0 -9 -3 5.26 0.33
0 9 3 5.21 0.33
-1 -9 -3 1.45 0.18
1 9 3 1.52 0.18
2 9 3 11.53 0.5
-2 -9 -3 10.8 0.52
-3 -9 -3 0.94 0.16
-3 -9 -3 1.23 0.14
-4 -9 -3 24.63 0.89
4 9 3 24 1.02
-5 -9 -3 2.27 0.22
5 9 3 2.6 0.27
-6 -9 -3 0.84 0.17
6 9 3 0.88 0.21
-7 -9 -3 0.06 0.12
7 9 3 0.21 0.14
-8 -9 -3 0.38 0.16
8 9 3 0.59 0.17
-4 10 3 1.06 0.22
4 -10 -3 1.09 0.22
3 -10 -3 0.06 0.12
-3 10 3 0.26 0.14
-2 10 3 0.62 0.18
2 -10 -3 0.69 0.17
-1 10 3 0.38 0.16
1 -10 -3 0.35 0.15
0 10 3 5.26 0.34
0 -10 -3 4.89 0.34
-1 -10 -3 8.28 0.44
1 10 3 7.62 0.42
2 10 3 4.07 0.28
-2 -10 -3 3.89 0.29
-3 -10 -3 0.19 0.12
4 10 3 9.33 0.56
-5 -10 -3 3.01 0.25
5 10 3 3.23 0.33
-6 -10 -3 3.44 0.26
6 10 3 3.48 0.33
-7 -10 -3 1.44 0.2
7 10 3 1.67 0.25
8 10 3 0.64 0.17
-3 11 3 0.44 0.18
2 -11 -3 0.25 0.14
-2 11 3 0.19 0.13
-1 11 3 2.7 0.27
1 -11 -3 2.64 0.27
0 -11 -3 0.01 0.14
0 11 3 0.02 0.12
-1 -11 -3 6.11 0.4
1 11 3 6.25 0.37
-2 -11 -3 1.57 0.23
-3 -11 -3 0.29 0.16
4 11 3 0.14 0.15
5 11 3 0.14 0.16
6 11 3 0.79 0.21
-6 -11 -3 1.03 0.18
-7 -11 -3 0.18 0.13
7 11 3 0.14 0.14
-1 12 3 0.44 0.18
1 -12 -3 0.19 0.17
0 -12 -3 0.27 0.17
0 12 3 0.19 0.14
-1 -12 -3 4.26 0.34
-2 -12 -3 6.27 0.41
-3 -12 -3 0.54 0.17
4 12 3 1.12 0.25
5 12 3 0.37 0.16
0 13 3 0.27 0.14
2 12 -4 0.05 0.15
-1 -12 4 0.21 0.12
0 -12 4 0.2 0.12
1 -12 4 0.34 0.15
-5 -11 4 8.05 0.48
4 11 -4 0.24 0.19
3 11 -4 3.18 0.33
2 11 -4 -0.15 0.14
-1 -11 4 0.81 0.17
0 -11 4 1.82 0.21
1 -11 4 5.52 0.36
-1 11 -4 5.96 0.39
-2 11 -4 0.21 0.15
2 -11 4 0.3 0.11
3 -11 4 3.3 0.28
6 10 -4 1.52 0.27
-6 -10 4 1.18 0.23
5 10 -4 0.55 0.2
-5 -10 4 0.72 0.17
-4 -10 4 1.1 0.21
4 10 -4 1.11 0.22
-3 -10 4 34.5 1.23
3 10 -4 32.33 1.35
2 10 -4 3.26 0.32
-1 -10 4 11.89 0.57
0 -10 4 -0.07 0.09
-1 10 -4 1.04 0.2
1 -10 4 1.08 0.18
-2 10 -4 1.89 0.25
2 -10 4 1.9 0.2
-3 10 -4 0.73 0.19
3 -10 4 0.66 0.15
4 -10 4 4.05 0.3
-4 10 -4 4.3 0.36
6 9 -4 0.42 0.18
-6 -9 4 0.91 0.2
-5 -9 4 0.38 0.14
5 9 -4 0.72 0.2
4 9 -4 0.37 0.17
-4 -9 4 0.42 0.15
-3 -9 4 5.18 0.33
3 9 -4 4.72 0.36
2 9 -4 0.02 0.12
-2 -9 4 -0.02 0.1
-1 -9 4 0.4 0.12
0 9 -4 4.98 0.32
0 -9 4 4.88 0.31
1 -9 4 1 0.16
-1 9 -4 0.72 0.18
2 -9 4 1.36 0.18
-2 9 -4 1.06 0.2
-3 9 -4 0.87 0.2
3 -9 4 0.78 0.17
4 -9 4 0.02 0.11
-4 9 -4 0.02 0.12
-5 9 -4 3.2 0.31
5 -9 4 3.45 0.28
7 8 -4 3.29 0.32
-7 -8 4 3.07 0.29
-6 -8 4 0.45 0.15
6 8 -4 0.14 0.14
-5 -8 4 0.47 0.16
5 8 -4 0.42 0.15
4 8 -4 12.62 0.64
-4 -8 4 13.26 0.59
3 8 -4 1.01 0.19
-3 -8 4 1.19 0.17
-2 -8 4 4.35 0.28
2 8 -4 4.2 0.32
-1 -8 4 55.87 1.81
1 8 -4 53.97 1.84
-1 -8 4 54.13 1.89
0 -8 4 0.62 0.13
0 8 -4 0.61 0.14
1 -8 4 33.21 1.23
-1 8 -4 34.4 1.24
-2 8 -4 2 0.22
2 -8 4 2.29 0.2
3 -8 4 0.04 0.09
-3 8 -4 0.14 0.12
4 -8 4 0.04 0.09
-4 8 -4 0.2 0.14
-5 8 -4 0.36 0.17
5 -8 4 0.44 0.13
-6 8 -4 5.73 0.41
6 -8 4 5.45 0.36
8 7 -4 0.39 0.17
7 7 -4 2.01 0.25
-7 -7 4 1.89 0.22
-6 -7 4 0.19 0.13
6 7 -4 0.26 0.15
5 7 -4 8.85 0.5
-5 -7 4 9.68 0.48
-4 -7 4 18.9 0.77
4 7 -4 19.56 0.83
3 7 -4 14.09 0.66
-3 -7 4 15 0.62
2 7 -4 16.45 0.73
-2 -7 4 16.99 0.67
1 7 -4 0.43 0.11
-1 -7 4 0.38 0.11
-1 -7 4 0.56 0.13
0 -7 4 7.33 0.35
0 7 -4 7.34 0.37
0 -7 4 6.96 0.36
1 -7 4 47.83 1.67
-1 7 -4 48.85 1.67
2 -7 4 7.94 0.39
-2 7 -4 8.34 0.42
3 -7 4 13.89 0.59
-3 7 -4 13.93 0.63
-4 7 -4 14.33 0.64
4 -7 4 13.21 0.59
-5 7 -4 -0.06 0.11
5 -7 4 -0.01 0.08
-6 7 -4 1.21 0.21
6 -7 4 0.95 0.16
-7 7 -4 0.39 0.18
8 6 -4 0.2 0.16
-8 -6 4 0.06 0.13
-7 -6 4 0.34 0.14
7 6 -4 0.42 0.15
-6 -6 4 1.3 0.2
6 6 -4 1.54 0.21
-5 -6 4 29.72 1.11
5 6 -4 30.48 1.18
-4 -6 4 5.05 0.32
4 6 -4 5.37 0.35
3 6 -4 0.05 0.11
-3 -6 4 0.05 0.1
2 6 -4 18.22 0.67
2 6 -4 18.23 0.77
-2 -6 4 19.44 0.72
-1 -6 4 19.92 0.75
-1 -6 4 20.12 0.76
1 6 -4 20.38 0.74
0 -6 4 1.29 0.14
0 -6 4 0.63 0.11
1 -6 4 21.66 0.82
1 -6 4 22.11 0.8
-1 6 -4 23.18 0.85
-2 6 -4 3.64 0.26
-3 6 -4 18.48 0.75
3 -6 4 17.78 0.7
4 -6 4 24.64 0.92
-4 6 -4 24.77 0.97
-5 6 -4 4.13 0.3
5 -6 4 3.53 0.25
6 -6 4 9.16 0.45
-6 6 -4 9.49 0.51
-7 6 -4 0.64 0.17
7 -6 4 0.71 0.16
-8 -5 4 1.35 0.21
8 5 -4 1.22 0.22
7 5 -4 0.32 0.13
-7 -5 4 0.16 0.12
6 5 -4 4.55 0.32
-6 -5 4 4.07 0.3
5 5 -4 12.73 0.58
-5 -5 4 12.39 0.56
-4 -5 4 7.64 0.39
4 5 -4 7.72 0.41
-3 -5 4 11.65 0.5
3 5 -4 11.32 0.52
1 5 -4 0.76 0.11
-1 -5 4 0.91 0.13
0 5 -4 11.88 0.48
0 -5 4 11.71 0.47
0 -5 4 11.67 0.47
1 -5 4 0.63 0.1
1 -5 4 0.81 0.12
-1 5 -4 0.66 0.12
-2 5 -4 139.48 4.46
2 -5 4 136.37 4.3
2 -5 4 142.05 4.5
3 -5 4 140.46 4.51
3 -5 4 137.4 4.3
-3 5 -4 140.46 4.49
-4 5 -4 51.69 1.8
4 -5 4 52.39 1.77
-5 5 -4 9.69 0.48
5 -5 4 9.39 0.43
-6 5 -4 0.15 0.1
6 -5 4 0.09 0.08
-7 5 -4 0.38 0.16
7 -5 4 0.43 0.12
-8 5 -4 3.15 0.3
-9 -4 4 0.28 0.13
-8 -4 4 0.04 0.11
8 4 -4 -0.03 0.12
-7 -4 4 6.64 0.4
7 4 -4 7.22 0.43
6 4 -4 0.38 0.13
-6 -4 4 0.2 0.11
-5 -4 4 0.32 0.13
5 4 -4 0.48 0.13
4 4 -4 22.83 0.89
-4 -4 4 22.87 0.85
3 4 -4 0 0.09
-3 -4 4 0.11 0.09
-2 -4 4 52.63 1.7
2 4 -4 50.92 1.67
2 4 -4 51.65 1.77
1 4 -4 19.06 0.68
1 4 -4 19.56 0.74
-1 -4 4 19.23 0.7
0 -4 4 9.09 0.37
0 4 -4 9.27 0.38
0 -4 4 9.25 0.39
1 -4 4 0.37 0.09
1 -4 4 0.31 0.07
-1 4 -4 0.45 0.1
2 -4 4 0.12 0.06
-2 4 -4 0.03 0.08
2 -4 4 0.55 0.1
3 -4 4 14.27 0.53
-3 4 -4 13.61 0.58
3 -4 4 13.9 0.53
-4 4 -4 32.37 1.18
4 -4 4 33.33 1.14
4 -4 4 32.16 1.1
-5 4 -4 5.19 0.33
5 -4 4 5.21 0.28
6 -4 4 4.89 0.29
-6 4 -4 5.65 0.34
-7 4 -4 0.16 0.14
7 -4 4 0.2 0.09
-8 4 -4 0.99 0.19
8 -4 4 0.94 0.15
9 3 -4 3.59 0.32
-9 -3 4 3.18 0.27
-8 -3 4 2.65 0.26
8 3 -4 3.96 0.31
7 3 -4 0.08 0.12
-7 -3 4 0.01 0.11
-6 -3 4 12.81 0.57
6 3 -4 13.03 0.6
-5 -3 4 23.26 0.86
5 3 -4 22.91 0.9
-4 -3 4 2.55 0.2
4 3 -4 2.64 0.21
-3 -3 4 46.4 1.53
3 3 -4 46.12 1.59
3 3 -4 46.1 1.48
2 3 -4 10.47 0.44
-2 -3 4 10.2 0.43
2 3 -4 10.63 0.38
1 3 -4 687.77 21.18
-1 -3 4 682.68 20.57
1 3 -4 674.43 21.6
0 3 -4 269.88 8.32
0 -3 4 263.42 8.45
0 -3 4 264.29 8.09
1 -3 4 70.52 2.27
-1 3 -4 70.68 2.27
1 -3 4 69.14 2.21
-2 3 -4 5.08 0.27
2 -3 4 4.79 0.25
2 -3 4 4.93 0.22
3 -3 4 35.95 1.2
3 -3 4 36.17 1.22
-3 3 -4 36.33 1.25
4 -3 4 0.07 0.05
-4 3 -4 -0.09 0.09
4 -3 4 0.06 0.07
-5 3 -4 10.3 0.47
5 -3 4 9.67 0.42
5 -3 4 10.63 0.43
-6 3 -4 28.04 1.02
6 -3 4 25.33 0.97
7 -3 4 0.06 0.09
-7 3 -4 0.09 0.12
-8 3 -4 6.2 0.38
8 -3 4 5.59 0.34
9 2 -4 -0.04 0.13
-8 -2 4 1.6 0.21
8 2 -4 1.9 0.22
-7 -2 4 1.8 0.2
7 2 -4 1.6 0.19
-6 -2 4 11.35 0.52
6 2 -4 12.2 0.56
5 2 -4 0.77 0.15
-5 -2 4 0.74 0.14
3 2 -4 2.92 0.19
-3 -2 4 2.7 0.19
3 2 -4 2.77 0.13
2 2 -4 53.31 1.82
2 2 -4 55.44 1.74
-2 -2 4 55.26 1.76
1 2 -4 94.15 3.09
-1 -2 4 95.9 2.97
1 2 -4 95.86 3.01
0 2 -4 344.93 10.55
0 2 -4 335.27 10.76
0 -2 4 335.33 10.26
1 -2 4 410.97 12.94
1 -2 4 399.83 12.35
-1 2 -4 413.62 12.72
2 -2 4 150.3 4.62
-2 2 -4 148.96 4.76
2 -2 4 152.5 4.8
3 -2 4 2.37 0.13
3 -2 4 2.17 0.16
-3 2 -4 1.99 0.16
4 -2 4 27.32 0.95
4 -2 4 28.97 0.96
-4 2 -4 27.35 1
5 -2 4 1.85 0.14
-5 2 -4 1.46 0.17
-6 2 -4 0.81 0.14
6 -2 4 0.45 0.1
6 -2 4 0.56 0.09
7 -2 4 14.35 0.6
-7 2 -4 14.51 0.62
-8 2 -4 0.11 0.12
8 -2 4 0.08 0.09
9 1 -4 5.92 0.42
8 1 -4 0.85 0.18
7 1 -4 3.98 0.29
-7 -1 4 3.83 0.27
6 1 -4 4.14 0.29
-6 -1 4 4.48 0.27
-5 -1 4 13.38 0.55
5 1 -4 13.68 0.58
-4 -1 4 0.11 0.09
4 1 -4 0.1 0.08
-3 -1 4 160.47 4.98
3 1 -4 160.8 5.06
3 1 -4 164.23 5.22
-2 -1 4 2.18 0.17
2 1 -4 2.71 0.13
2 1 -4 2.84 0.16
-1 -1 4 134.6 4.06
1 1 -4 134.41 4.13
1 1 -4 126.27 4.22
0 1 -4 13.83 0.48
0 1 -4 12.83 0.46
0 -1 4 13.46 0.5
1 -1 4 32.76 1.07
-1 1 -4 33.57 1.1
1 -1 4 32.78 1.09
2 -1 4 33.56 1.11
-2 1 -4 33.69 1.13
2 -1 4 34.06 1.1
3 -1 4 8.63 0.32
-3 1 -4 8.63 0.36
3 -1 4 8.44 0.35
-4 1 -4 1.05 0.13
4 -1 4 0.98 0.12
4 -1 4 0.91 0.09
5 -1 4 22.62 0.84
-5 1 -4 22.7 0.86
5 -1 4 26.05 0.86
-6 1 -4 4.8 0.28
-6 1 -4 4.84 0.25
7 -1 4 3.51 0.23
-7 1 -4 3.31 0.21
-7 1 -4 3.47 0.25
8 -1 4 19.88 0.8
9 -1 4 1.32 0.18
8 0 -4 4.58 0.33
7 0 -4 1.46 0.21
-6 0 4 0.12 0.09
6 0 -4 0.07 0.09
-5 0 4 0.07 0.08
-5 0 4 -0.02 0.07
5 0 -4 0.16 0.09
-4 0 4 41.33 1.35
4 0 -4 39.92 1.4
-4 0 4 39.31 1.33
-3 0 4 -0.05 0.06
3 0 -4 0.06 0.07
3 0 -4 0.03 0.04
2 0 -4 21.48 0.77
-2 0 4 21.93 0.76
2 0 -4 22.07 0.73
1 0 -4 3.37 0.16
1 0 -4 3.74 0.16
-1 0 4 3.39 0.19
0 0 -4 64.45 2.05
0 0 -4 64.63 2.06
0 0 4 63.7 2.02
1 0 4 167.44 5.08
-1 0 -4 165.15 5.21
-2 0 -4 75.89 2.42
2 0 4 74.52 2.37
2 0 4 76.87 2.43
3 0 4 13.77 0.53
-3 0 -4 14.51 0.53
3 0 4 14.47 0.49
-4 0 -4 30.08 1.07
4 0 4 32.35 1.06
-4 0 -4 31.31 1.02
5 0 4 40.32 1.36
-5 0 -4 39.32 1.36
-5 0 -4 40.46 1.31
6 0 4 5.75 0.28
-6 0 -4 5.74 0.27
-6 0 -4 4.3 0.27
-7 0 -4 25.11 0.88
-7 0 -4 24.74 0.92
7 0 4 24.85 0.93
8 0 4 1.2 0.16
-8 0 -4 1.33 0.15
9 0 4 1.46 0.18
8 -1 -4 7.94 0.46
7 -1 -4 3.62 0.28
6 -1 -4 5.61 0.34
5 -1 -4 20.52 0.78
-5 1 4 18.83 0.72
3 -1 -4 60.68 1.99
3 -1 -4 60.52 1.92
-3 1 4 57.46 1.89
-2 1 4 0.15 0.06
2 -1 -4 0.28 0.06
2 -1 -4 0.26 0.06
1 -1 -4 13.81 0.49
1 -1 -4 13.51 0.48
-1 1 4 14 0.5
0 -1 -4 1.73 0.1
0 -1 -4 1.78 0.09
0 1 4 1.57 0.12
-1 -1 -4 24.11 0.82
1 1 4 25.44 0.83
3 1 4 26.02 0.89
-3 -1 -4 27.08 0.9
-3 -1 -4 26.77 0.88
-4 -1 -4 29.53 1
-4 -1 -4 29.21 0.97
4 1 4 29.63 1
-5 -1 -4 0.13 0.06
5 1 4 0.06 0.06
-5 -1 -4 0.01 0.06
6 1 4 15.57 0.61
-6 -1 -4 15.08 0.59
-6 -1 -4 15.52 0.58
7 1 4 19.94 0.77
-7 -1 -4 19.82 0.74
-8 -1 -4 0.41 0.12
8 1 4 0.15 0.11
-9 -1 -4 0.21 0.12
9 1 4 0.29 0.13
8 -2 -4 0.07 0.14
7 -2 -4 6.08 0.38
6 -2 -4 4.19 0.29
-6 2 4 4.45 0.28
5 -2 -4 0.79 0.14
-5 2 4 0.79 0.13
4 -2 -4 0.08 0.08
-4 2 4 0 0.08
-4 2 4 -0.01 0.07
-3 2 4 27.76 1
-3 2 4 27.93 0.95
3 -2 -4 29.88 1.02
2 -2 -4 29.59 1
-2 2 4 28.95 0.97
2 -2 -4 30.5 1.03
1 -2 -4 167.02 5.25
1 -2 -4 164.22 5.15
-1 2 4 161.68 5.01
0 -2 -4 26.59 0.91
0 2 4 27.83 0.91
0 -2 -4 28.14 0.91
-1 -2 -4 68.2 2.23
-1 -2 -4 71.56 2.25
1 2 4 70.02 2.19
-2 -2 -4 12.57 0.46
2 2 4 12.73 0.46
2 2 4 13.25 0.48
-3 -2 -4 64.3 2.07
-3 -2 -4 65.48 2.02
3 2 4 63.81 2.1
4 2 4 25.43 0.88
-4 -2 -4 26.45 0.87
-4 -2 -4 24.2 0.85
5 2 4 6.25 0.3
-6 -2 -4 0.48 0.09
-6 -2 -4 0.23 0.09
6 2 4 0.47 0.11
-7 -2 -4 11.07 0.47
7 2 4 10.84 0.49
-8 -2 -4 1.13 0.17
8 2 4 1.24 0.17
9 2 4 1.22 0.18
-9 -2 -4 1.04 0.17
-10 -2 -4 0.5 0.13
8 -3 -4 2.97 0.29
7 -3 -4 1.24 0.2
-6 3 4 17.43 0.71
6 -3 -4 16.86 0.73
-5 3 4 68.54 2.27
5 -3 -4 67.09 2.31
4 -3 -4 13.26 0.55
-4 3 4 12.74 0.55
-3 3 4 0.92 0.1
3 -3 -4 0.94 0.13
-3 3 4 0.77 0.13
-2 3 4 42.75 1.36
2 -3 -4 42.89 1.45
-1 3 4 36.75 1.19
1 -3 -4 36.23 1.25
1 -3 -4 38.29 1.23
0 3 4 4.4 0.2
0 -3 -4 3.74 0.19
0 -3 -4 3.51 0.18
-1 -3 -4 14.27 0.51
1 3 4 15 0.52
-1 -3 -4 13.98 0.51
-2 -3 -4 14.1 0.49
-2 -3 -4 13.14 0.48
-2 -3 -4 13.9 0.49
3 3 4 33.61 1.14
-3 -3 -4 33.5 1.09
-3 -3 -4 33.48 1.1
-4 -3 -4 0.35 0.07
-4 -3 -4 0.32 0.08
4 3 4 0.42 0.08
-5 -3 -4 4.16 0.2
-5 -3 -4 3.92 0.23
5 3 4 3.99 0.23
6 3 4 1.49 0.15
-6 -3 -4 1.6 0.15
7 3 4 12.78 0.57
-7 -3 -4 13.31 0.55
-8 -3 -4 1.59 0.2
8 3 4 1.7 0.19
9 3 4 1.6 0.21
-9 -3 -4 1.58 0.21
10 3 4 0.07 0.11
-10 -3 -4 0.1 0.1
8 -4 -4 0.48 0.17
7 -4 -4 0.72 0.17
6 -4 -4 0.46 0.16
-6 4 4 0.26 0.13
5 -4 -4 62.09 2.16
-5 4 4 62.45 2.11
-4 4 4 63.33 2.15
4 -4 -4 64.61 2.18
3 -4 -4 8.68 0.41
-3 4 4 9.26 0.43
2 -4 -4 20.12 0.75
-2 4 4 20.32 0.67
-2 4 4 20.07 0.77
1 -4 -4 4.78 0.24
-1 4 4 4.68 0.22
1 -4 -4 4.9 0.23
0 -4 -4 19.06 0.67
0 -4 -4 19.1 0.69
0 4 4 19.23 0.66
-1 -4 -4 20.14 0.71
-1 -4 -4 20.31 0.73
1 4 4 21.77 0.72
-2 -4 -4 26.48 0.93
-2 -4 -4 27.55 0.91
-2 -4 -4 27.39 0.89
-3 -4 -4 168.57 5.23
-3 -4 -4 165.02 5.1
-4 -4 -4 0.44 0.09
4 4 4 0.44 0.09
-4 -4 -4 0.69 0.08
-5 -4 -4 3.99 0.19
5 4 4 3.8 0.23
-5 -4 -4 3.55 0.22
6 4 4 1.85 0.18
-6 -4 -4 1.94 0.18
7 4 4 11.64 0.54
-7 -4 -4 12.34 0.53
-8 -4 -4 2.81 0.25
8 4 4 2.79 0.25
9 4 4 4.75 0.33
-9 -4 -4 4.67 0.32
-10 -4 -4 0.55 0.16
10 4 4 0.72 0.16
-7 5 4 6.87 0.41
7 -5 -4 6.33 0.41
-6 5 4 0.06 0.11
6 -5 -4 0.23 0.13
-5 5 4 10.54 0.5
5 -5 -4 9.41 0.49
4 -5 -4 42.37 1.53
-4 5 4 43.44 1.52
-3 5 4 62.42 2.08
3 -5 -4 60.24 2.08
-2 5 4 8.24 0.4
-1 5 4 4.75 0.22
1 -5 -4 5.14 0.26
-1 5 4 4.36 0.27
0 5 4 110.42 3.35
0 -5 -4 108.44 3.53
0 -5 -4 106.98 3.46
-1 -5 -4 1.26 0.12
-1 -5 -4 1.35 0.12
-2 -5 -4 1.08 0.1
-2 -5 -4 1.03 0.1
-2 -5 -4 1.06 0.11
-3 -5 -4 67.37 2.13
-3 -5 -4 67.69 2.16
4 5 4 9.57 0.43
-4 -5 -4 8.1 0.38
-4 -5 -4 9.94 0.36
-5 -5 -4 6.75 0.34
5 5 4 7.35 0.37
6 5 4 26.89 1.03
-6 -5 -4 27.85 0.98
7 5 4 0.75 0.15
-7 -5 -4 0.53 0.15
-8 -5 -4 0.12 0.13
8 5 4 0.31 0.14
9 5 4 0.43 0.14
-9 -5 -4 0.45 0.15
10 5 4 4.17 0.32
-10 -5 -4 4.42 0.33
-7 6 4 0.23 0.16
7 -6 -4 0.24 0.15
-6 6 4 2.07 0.24
6 -6 -4 2.27 0.23
5 -6 -4 7.56 0.43
-5 6 4 8.1 0.44
-4 6 4 0 0.09
4 -6 -4 0.13 0.11
-3 6 4 20.55 0.81
3 -6 -4 19.87 0.81
-2 6 4 3.55 0.26
2 -6 -4 3.22 0.24
-1 6 4 8.36 0.42
1 -6 -4 8.65 0.4
0 -6 -4 4.22 0.25
0 6 4 3.86 0.26
0 6 4 4.4 0.22
-1 -6 -4 53.67 1.81
-2 -6 -4 1.91 0.14
-2 -6 -4 1.86 0.15
-2 -6 -4 1.72 0.13
-3 -6 -4 7.27 0.32
-3 -6 -4 7.25 0.31
-3 -6 -4 7.38 0.34
-4 -6 -4 6.95 0.29
-4 -6 -4 6.92 0.33
5 6 4 28.93 1.08
-5 -6 -4 28.62 1.01
-6 -6 -4 26.5 0.94
6 6 4 25.13 0.99
-7 -6 -4 15.32 0.63
7 6 4 14.71 0.66
8 6 4 1.35 0.2
-8 -6 -4 0.93 0.19
-9 -6 -4 1.32 0.2
9 6 4 1.44 0.21
10 6 4 0.28 0.13
-6 7 4 4.74 0.35
6 -7 -4 4.52 0.35
5 -7 -4 3.86 0.3
-5 7 4 3.88 0.32
4 -7 -4 1.78 0.21
-4 7 4 1.29 0.21
3 -7 -4 12.97 0.58
-3 7 4 12.68 0.59
-2 7 4 9.03 0.45
2 -7 -4 8.49 0.43
-1 7 4 7.13 0.39
1 -7 -4 7.13 0.37
0 -7 -4 3.86 0.25
0 7 4 3.67 0.26
1 7 4 13.09 0.56
-1 -7 -4 13.64 0.47
-1 -7 -4 12.66 0.54
-2 -7 -4 4.97 0.28
-2 -7 -4 4.98 0.24
-3 -7 -4 9.43 0.4
-3 -7 -4 7.02 0.35
4 7 4 0.86 0.17
-4 -7 -4 0.98 0.14
5 7 4 3.78 0.28
-5 -7 -4 3.82 0.25
-6 -7 -4 4.7 0.29
6 7 4 4.53 0.32
7 7 4 3.5 0.29
-7 -7 -4 3.84 0.28
-8 -7 -4 0.58 0.16
8 7 4 0.64 0.16
9 7 4 1.29 0.22
-9 -7 -4 0.98 0.19
10 7 4 0.27 0.14
-6 8 4 0.3 0.17
-5 8 4 2.05 0.26
5 -8 -4 2.02 0.24
4 -8 -4 0.01 0.12
-4 8 4 0.03 0.12
3 -8 -4 0.19 0.11
-3 8 4 0.05 0.13
2 -8 -4 17.11 0.7
-2 8 4 15.04 0.69
-1 8 4 2.35 0.23
1 -8 -4 2.61 0.22
0 -8 -4 5.78 0.33
0 8 4 5.83 0.34
-1 -8 -4 18.39 0.72
1 8 4 17.21 0.71
-2 -8 -4 0.22 0.1
2 8 4 0.27 0.1
-2 -8 -4 0.2 0.08
-3 -8 -4 21.48 0.83
4 8 4 44.41 1.64
-4 -8 -4 45.37 1.5
-5 -8 -4 0.22 0.12
5 8 4 0.4 0.16
6 8 4 2.15 0.25
-6 -8 -4 2.37 0.22
7 8 4 0.49 0.16
-7 -8 -4 0.15 0.1
-8 -8 -4 1.92 0.22
8 8 4 2.12 0.24
9 8 4 0.65 0.17
5 -9 -4 2.33 0.27
-5 9 4 2.6 0.29
4 -9 -4 1.89 0.25
-4 9 4 1.75 0.26
3 -9 -4 5.05 0.35
-3 9 4 5.27 0.37
2 -9 -4 0.22 0.14
-2 9 4 0.11 0.13
1 -9 -4 3.35 0.27
-1 9 4 2.45 0.25
0 -9 -4 0.34 0.13
0 9 4 0.19 0.13
1 9 4 10.98 0.52
-1 -9 -4 11.54 0.53
-2 -9 -4 3.94 0.28
2 9 4 4.19 0.28
-3 -9 -4 13.64 0.6
4 9 4 1.74 0.25
-4 -9 -4 1.55 0.19
5 9 4 0.11 0.15
-5 -9 -4 0.16 0.09
6 9 4 0.71 0.19
-6 -9 -4 0.67 0.16
7 9 4 0.58 0.18
-7 -9 -4 0.42 0.15
8 9 4 2.01 0.24
-8 -9 -4 1.79 0.24
9 9 4 0.33 0.15
-3 10 4 0.73 0.19
3 -10 -4 0.6 0.18
-2 10 4 0.22 0.15
2 -10 -4 0.23 0.15
1 -10 -4 0.2 0.12
-1 10 4 0.05 0.12
0 -10 -4 0.47 0.16
0 10 4 0.53 0.14
1 10 4 1.72 0.21
-1 -10 -4 2.29 0.23
-2 -10 -4 0.3 0.14
2 10 4 0.2 0.13
-3 -10 -4 6.32 0.37
4 10 4 20.82 0.94
5 10 4 9.56 0.56
-5 -10 -4 10.04 0.47
6 10 4 0.14 0.15
-6 -10 -4 0.17 0.12
-7 -10 -4 1.93 0.21
7 10 4 1.85 0.26
8 10 4 0.65 0.17
2 -11 -4 -0.02 0.15
-2 11 4 0.18 0.15
-1 11 4 0.42 0.16
1 -11 -4 0.18 0.14
0 11 4 0.07 0.14
0 -11 -4 0.01 0.13
1 11 4 0.68 0.17
-1 -11 -4 0.7 0.18
-2 -11 -4 1.25 0.21
-3 -11 -4 3.37 0.29
5 11 4 6.69 0.47
6 11 4 0.46 0.17
-6 -11 -4 0.54 0.14
7 11 4 1.28 0.23
-7 -11 -4 1.58 0.21
-1 12 4 0.51 0.17
0 12 4 0.13 0.13
0 -12 -4 0.33 0.16
-1 -12 -4 2.17 0.25
1 12 4 2.02 0.24
-2 -12 -4 0.46 0.17
-3 -12 -4 1.79 0.25
4 12 4 0.17 0.17
5 12 4 0.59 0.19
0 -12 5 12.34 0.62
-4 -11 5 2.79 0.29
4 11 -5 2.33 0.32
3 11 -5 3.86 0.37
2 11 -5 0.04 0.15
0 -11 5 0.98 0.18
1 -11 5 0.28 0.12
-2 11 -5 0.5 0.16
5 10 -5 0.11 0.15
-5 -10 5 0.1 0.15
4 10 -5 2.58 0.29
-4 -10 5 2.66 0.27
3 10 -5 0.24 0.15
-3 -10 5 0.2 0.12
2 10 -5 1.12 0.22
0 -10 5 1.29 0.19
1 -10 5 0.76 0.16
-1 10 -5 0.61 0.17
-2 10 -5 0.52 0.17
2 -10 5 0.8 0.17
-3 10 -5 0.37 0.17
6 9 -5 0.23 0.16
-6 -9 5 0.14 0.16
-5 -9 5 0.31 0.15
5 9 -5 0.31 0.16
4 9 -5 1.04 0.21
-4 -9 5 1.37 0.22
-3 -9 5 5.8 0.36
3 9 -5 5 0.38
2 9 -5 1.1 0.22
-2 -9 5 1.57 0.21
0 -9 5 3.82 0.27
0 9 -5 3.54 0.28
1 -9 5 2 0.21
-1 9 -5 1.92 0.23
-2 9 -5 1.46 0.22
2 -9 5 1.34 0.19
-3 9 -5 0.69 0.18
-4 9 -5 0.65 0.17
7 8 -5 0.2 0.15
6 8 -5 3.25 0.31
-6 -8 5 3.24 0.3
-5 -8 5 2.33 0.24
5 8 -5 2.11 0.25
4 8 -5 3.15 0.28
-4 -8 5 3.32 0.28
-3 -8 5 1.06 0.19
3 8 -5 0.86 0.18
-2 -8 5 1.61 0.2
2 8 -5 1.36 0.2
-1 -8 5 29.45 1.07
0 8 -5 1.92 0.2
0 -8 5 1.86 0.19
1 -8 5 0.32 0.11
-1 8 -5 0.26 0.13
-2 8 -5 4.68 0.32
2 -8 5 4.13 0.27
3 -8 5 0.54 0.13
-3 8 -5 0.56 0.16
-4 8 -5 0.88 0.19
-5 8 -5 0.51 0.17
7 7 -5 0.28 0.15
-7 -7 5 0.22 0.14
6 7 -5 1.14 0.22
-6 -7 5 1.09 0.2
5 7 -5 4.63 0.34
-5 -7 5 4.8 0.34
4 7 -5 9.71 0.52
-4 -7 5 10.14 0.5
3 7 -5 0.82 0.17
-3 -7 5 1.13 0.18
-2 -7 5 17.62 0.71
2 7 -5 17.04 0.75
-1 -7 5 7.15 0.37
1 7 -5 6.26 0.34
0 -7 5 15.74 0.63
0 7 -5 15.38 0.63
0 -7 5 15.02 0.62
1 -7 5 20.42 0.77
-1 7 -5 20.73 0.81
1 -7 5 20.16 0.78
2 -7 5 0.07 0.08
-2 7 -5 0.03 0.11
-3 7 -5 5.16 0.34
3 -7 5 5.7 0.31
4 -7 5 5.5 0.32
-4 7 -5 5.54 0.37
-5 7 -5 0.16 0.14
-6 7 -5 0.8 0.2
8 6 -5 1.52 0.25
-7 -6 5 0.06 0.12
7 6 -5 -0.02 0.12
6 6 -5 0.76 0.18
-6 -6 5 0.5 0.17
-5 -6 5 0.65 0.15
5 6 -5 0.67 0.17
4 6 -5 14.62 0.66
-4 -6 5 14.21 0.63
-3 -6 5 3.97 0.28
3 6 -5 3.71 0.28
2 6 -5 19.94 0.82
-2 -6 5 20.53 0.79
1 6 -5 12.91 0.52
0 6 -5 1.64 0.17
0 -6 5 1.7 0.18
0 -6 5 1.71 0.16
-1 6 -5 33.99 1.2
1 -6 5 33.98 1.16
1 -6 5 32.78 1.18
-2 6 -5 0.16 0.12
2 -6 5 0.35 0.1
2 -6 5 0.13 0.07
3 -6 5 25.71 0.94
-3 6 -5 25.75 0.99
-4 6 -5 5.08 0.35
4 -6 5 5.74 0.3
-5 6 -5 4 0.31
-6 6 -5 2.27 0.26
-7 6 -5 0.74 0.19
-8 -5 5 0.69 0.17
8 5 -5 0.62 0.19
-7 -5 5 2.66 0.26
7 5 -5 3.06 0.28
6 5 -5 1.5 0.19
-6 -5 5 1.6 0.22
-5 -5 5 7.75 0.43
5 5 -5 8.28 0.44
4 5 -5 2.75 0.24
-4 -5 5 2.64 0.23
3 5 -5 303.12 9.8
-3 -5 5 306.73 9.34
2 5 -5 23.42 0.9
2 5 -5 22.42 0.81
-2 -5 5 24.05 0.87
-1 -5 5 0.27 0.1
1 5 -5 0.08 0.08
1 5 -5 0.67 0.13
0 -5 5 38.09 1.31
0 5 -5 38.53 1.32
0 -5 5 38.81 1.31
1 -5 5 26.99 0.98
-1 5 -5 28.33 1
1 -5 5 28.34 0.98
2 -5 5 14.56 0.54
2 -5 5 12.66 0.54
-2 5 -5 13.14 0.57
3 -5 5 8.01 0.36
3 -5 5 8.06 0.38
-3 5 -5 7.79 0.41
-4 5 -5 14.17 0.62
4 -5 5 13.99 0.56
-5 5 -5 0.06 0.11
5 -5 5 0.1 0.08
-6 5 -5 0.61 0.16
-7 5 -5 0.37 0.14
-8 5 -5 1.09 0.22
-8 -4 5 0.83 0.18
8 4 -5 0.88 0.2
-7 -4 5 2.02 0.23
7 4 -5 2 0.23
6 4 -5 3.18 0.26
-6 -4 5 2.78 0.25
5 4 -5 0.12 0.11
-5 -4 5 0.31 0.13
4 4 -5 1.68 0.19
-4 -4 5 1.9 0.2
3 4 -5 0.62 0.13
-3 -4 5 0.9 0.15
2 4 -5 0.04 0.06
2 4 -5 0.13 0.09
-2 -4 5 0.22 0.1
1 4 -5 3.97 0.21
1 4 -5 3.97 0.24
-1 -4 5 3.81 0.25
0 -4 5 13.28 0.49
0 4 -5 12.63 0.51
0 -4 5 13.12 0.53
1 -4 5 0.19 0.06
1 -4 5 0.25 0.09
-1 4 -5 0.14 0.09
2 -4 5 8.2 0.38
-2 4 -5 8.18 0.39
2 -4 5 8.4 0.35
3 -4 5 10.94 0.46
3 -4 5 11.2 0.44
-3 4 -5 10.64 0.49
4 -4 5 10.32 0.46
4 -4 5 12.2 0.45
-4 4 -5 9.75 0.49
-5 4 -5 153.53 4.86
5 -4 5 147.16 4.86
-6 4 -5 2.41 0.23
-7 4 -5 2.48 0.24
-8 4 -5 2.17 0.25
-9 4 -5 0.12 0.15
-9 -3 5 0.7 0.17
8 3 -5 0.31 0.14
-8 -3 5 0.06 0.11
7 3 -5 0.19 0.14
-7 -3 5 0.3 0.12
-6 -3 5 16.07 0.69
6 3 -5 16.55 0.72
5 3 -5 21.02 0.85
-5 -3 5 21.14 0.82
-4 -3 5 2.66 0.22
4 3 -5 2.71 0.22
-3 -3 5 34.93 1.2
3 3 -5 34.38 1.13
3 3 -5 34.45 1.23
2 3 -5 21.61 0.81
-2 -3 5 22 0.8
2 3 -5 21.98 0.75
1 3 -5 10.66 0.41
-1 -3 5 11.05 0.46
1 3 -5 10.64 0.44
0 3 -5 19.06 0.7
0 -3 5 18.91 0.71
0 3 -5 19.4 0.69
1 -3 5 36.29 1.21
1 -3 5 35.68 1.22
-1 3 -5 37 1.24
2 -3 5 1.25 0.1
-2 3 -5 1.18 0.14
2 -3 5 1.1 0.13
-3 3 -5 63.62 2.21
3 -3 5 67.53 2.15
3 -3 5 70.26 2.19
4 -3 5 0.08 0.06
-4 3 -5 0.13 0.1
4 -3 5 0.03 0.08
-5 3 -5 4.94 0.31
5 -3 5 5.16 0.26
5 -3 5 4.9 0.28
-6 3 -5 43.59 1.54
-7 3 -5 22.08 0.89
-8 3 -5 1.03 0.17
-8 -2 5 0.13 0.13
8 2 -5 -0.01 0.1
7 2 -5 0.43 0.14
-7 -2 5 0.41 0.14
6 2 -5 2.25 0.22
-6 -2 5 2.15 0.21
5 2 -5 4.06 0.28
-5 -2 5 3.6 0.26
-4 -2 5 0.8 0.15
4 2 -5 0.92 0.14
3 2 -5 6.58 0.27
-2 -2 5 4.52 0.26
2 2 -5 4.3 0.23
1 2 -5 4.99 0.24
1 2 -5 5.87 0.24
-1 -2 5 5.24 0.28
0 -2 5 16.9 0.64
0 2 -5 16.61 0.61
0 2 -5 18.34 0.62
1 -2 5 53.35 1.72
-1 2 -5 54.36 1.75
1 -2 5 51.78 1.72
-2 2 -5 59.86 1.94
2 -2 5 55.87 1.89
2 -2 5 61.18 1.91
3 -2 5 1.2 0.14
4 -2 5 13.95 0.56
4 -2 5 14.89 0.52
-4 2 -5 13.77 0.58
-5 2 -5 33.08 1.16
5 -2 5 34.21 1.12
5 -2 5 29.2 1.11
6 -2 5 6.58 0.34
-6 2 -5 6.81 0.37
-7 2 -5 11.51 0.54
-8 2 -5 13.86 0.63
8 1 -5 0.31 0.13
-7 -1 5 0.89 0.18
7 1 -5 1.43 0.2
6 1 -5 2.07 0.21
-6 -1 5 2.15 0.2
-5 -1 5 0.04 0.09
5 1 -5 0.09 0.08
-4 -1 5 18.45 0.71
4 1 -5 19.39 0.65
4 1 -5 18.2 0.73
-3 -1 5 0.22 0.09
3 1 -5 0.18 0.06
3 1 -5 0.59 0.11
2 1 -5 2.22 0.14
-2 -1 5 1.29 0.15
-1 -1 5 24.99 0.88
1 1 -5 25.36 0.85
1 1 -5 24.9 0.86
0 1 -5 207.43 6.8
0 1 -5 220.11 6.7
0 -1 5 213.81 6.54
1 -1 5 3.15 0.19
-1 1 -5 3.06 0.17
2 -1 5 18.53 0.65
-2 1 -5 17.03 0.64
-3 1 -5 137.09 4.49
3 -1 5 145.12 4.51
3 -1 5 141.88 4.37
4 -1 5 15.35 0.6
4 -1 5 16.25 0.56
-4 1 -5 15.05 0.6
-5 1 -5 2.62 0.2
5 -1 5 2.8 0.17
6 -1 5 4.62 0.28
6 -1 5 4.78 0.25
-6 1 -5 3.99 0.27
7 -1 5 0.18 0.11
-7 1 -5 0.34 0.13
-8 1 -5 13.98 0.61
8 0 -5 3.48 0.3
7 0 -5 0.53 0.16
-6 0 5 3.81 0.26
6 0 -5 4.34 0.29
-5 0 5 0.1 0.1
-4 0 5 2.38 0.19
4 0 -5 2.65 0.16
4 0 -5 2.7 0.2
3 0 -5 1.1 0.13
3 0 -5 0.88 0.09
-3 0 5 0.89 0.13
2 0 -5 10.62 0.4
2 0 -5 10.35 0.42
-2 0 5 10.9 0.44
1 0 -5 8.47 0.33
1 0 -5 8.39 0.33
-1 0 5 8.8 0.37
0 0 -5 2.41 0.14
0 0 5 2.48 0.17
0 0 -5 2.31 0.11
1 0 5 57 1.82
-1 0 -5 56.85 1.84
-2 0 -5 17.6 0.63
2 0 5 17.72 0.64
3 0 5 0.19 0.04
-3 0 -5 0.3 0.08
3 0 5 0.26 0.08
-4 0 -5 34.29 1.22
4 0 5 38.19 1.19
4 0 5 35.06 1.21
5 0 5 62.2 2.09
5 0 5 66.68 2.12
6 0 5 39.36 1.32
-6 0 -5 37.65 1.33
-7 0 -5 0.27 0.1
-7 0 -5 0.13 0.09
-8 0 -5 3.57 0.24
8 -1 -5 10.09 0.54
7 -1 -5 0.37 0.11
6 -1 -5 0.17 0.11
5 -1 -5 4.13 0.27
-5 1 5 4.34 0.26
-4 1 5 5.07 0.27
3 -1 -5 0.31 0.08
-3 1 5 0.18 0.08
3 -1 -5 0.46 0.09
-2 1 5 220.21 6.7
2 -1 -5 222.21 6.87
2 -1 -5 216.12 7.01
-1 1 5 15.34 0.57
1 -1 -5 15.6 0.55
1 -1 -5 15.61 0.55
0 1 5 0.62 0.1
0 -1 -5 0.65 0.08
-1 -1 -5 5.83 0.25
1 1 5 6.14 0.28
-2 -1 -5 23.42 0.83
2 1 5 24.93 0.84
3 1 5 103.43 3.21
-3 -1 -5 98.38 3.26
3 1 5 105.85 3.28
4 1 5 36.89 1.27
-4 -1 -5 36.8 1.26
4 1 5 38.85 1.25
5 1 5 17.23 0.62
-5 -1 -5 16.84 0.64
-6 -1 -5 0.94 0.13
-6 -1 -5 0.91 0.13
6 1 5 1.06 0.13
-7 -1 -5 0.45 0.11
-7 -1 -5 0.9 0.13
7 1 5 0.62 0.11
-8 -1 -5 0.25 0.11
-9 -1 -5 7.29 0.38
8 -2 -5 1.41 0.23
7 -2 -5 9.19 0.5
6 -2 -5 45.31 1.64
-5 2 5 1 0.15
5 -2 -5 1.52 0.17
-4 2 5 8.07 0.38
4 -2 -5 7.64 0.38
-4 2 5 7.51 0.35
3 -2 -5 2.24 0.17
3 -2 -5 2.18 0.15
-3 2 5 1.97 0.16
2 -2 -5 2.83 0.17
-2 2 5 2.9 0.18
2 -2 -5 2.82 0.17
1 -2 -5 44.14 1.45
1 -2 -5 43.31 1.43
-1 2 5 43.46 1.41
0 -2 -5 28.71 0.99
0 -2 -5 29.3 0.98
0 2 5 30.73 1
-1 -2 -5 1.03 0.09
-1 -2 -5 0.84 0.06
1 2 5 0.89 0.11
2 2 5 2.59 0.17
2 2 5 2.72 0.13
-2 -2 -5 2.42 0.15
3 2 5 24.01 0.82
3 2 5 22.54 0.77
-3 -2 -5 21.94 0.79
-4 -2 -5 5.6 0.26
4 2 5 6.3 0.26
-4 -2 -5 4.92 0.26
5 2 5 19.69 0.72
-5 -2 -5 19.91 0.71
-5 -2 -5 19.3 0.7
-6 -2 -5 41.58 1.4
6 2 5 42.22 1.45
-6 -2 -5 42.7 1.42
7 2 5 11.07 0.47
-7 -2 -5 10.53 0.47
-8 -2 -5 0.13 0.1
-9 -2 -5 0.59 0.14
-10 -2 -5 0.47 0.13
8 -3 -5 0.06 0.14
7 -3 -5 0.06 0.11
6 -3 -5 0.19 0.12
-6 3 5 0.23 0.12
-5 3 5 1.14 0.17
5 -3 -5 0.92 0.16
4 -3 -5 5.59 0.32
-4 3 5 6.11 0.33
-3 3 5 4.64 0.23
-3 3 5 4.54 0.28
2 -3 -5 0.28 0.08
-2 3 5 0.38 0.09
2 -3 -5 0.3 0.09
1 -3 -5 13.06 0.49
-1 3 5 13.17 0.49
1 -3 -5 13.1 0.49
0 -3 -5 0.68 0.08
0 -3 -5 0.8 0.09
0 3 5 0.83 0.11
1 3 5 333.71 10.16
-1 -3 -5 322.98 10.44
-1 -3 -5 347.8 10.63
2 3 5 33.86 1.1
-2 -3 -5 32.42 1.07
-2 -3 -5 30.46 1.07
-3 -3 -5 6.18 0.27
3 3 5 6.13 0.27
-3 -3 -5 5.79 0.27
-4 -3 -5 10 0.38
-4 -3 -5 8.61 0.38
4 3 5 9.81 0.39
5 3 5 0.17 0.07
-5 -3 -5 0.12 0.06
-5 -3 -5 0.16 0.08
6 3 5 0.41 0.1
-6 -3 -5 0.25 0.09
-6 -3 -5 0.2 0.07
7 3 5 5.7 0.32
-7 -3 -5 5.56 0.31
-8 -3 -5 1.25 0.17
-9 -3 -5 2.38 0.22
-10 -3 -5 0.67 0.16
7 -4 -5 -0.03 0.12
6 -4 -5 0.06 0.12
-6 4 5 0.3 0.12
5 -4 -5 12.81 0.6
-5 4 5 13.79 0.6
4 -4 -5 92.58 3.01
-4 4 5 87.15 2.96
3 -4 -5 0.29 0.1
-3 4 5 0.32 0.12
2 -4 -5 0.29 0.09
-2 4 5 0.33 0.08
1 -4 -5 41.76 1.39
1 -4 -5 39.84 1.36
-1 4 5 40.44 1.32
0 -4 -5 38.93 1.31
0 4 5 39.95 1.28
0 -4 -5 38.52 1.32
-1 -4 -5 3.16 0.18
-1 -4 -5 3.77 0.18
1 4 5 3.29 0.2
-2 -4 -5 22.04 0.78
2 4 5 21.69 0.79
-2 -4 -5 23.42 0.78
3 4 5 26.09 0.92
-3 -4 -5 25.34 0.88
-3 -4 -5 25.65 0.87
-4 -4 -5 2.14 0.14
-4 -4 -5 2.16 0.16
4 4 5 2.24 0.17
-5 -4 -5 -0.12 0.06
-5 -4 -5 -0.04 0.05
5 4 5 -0.01 0.07
-6 -4 -5 4.35 0.26
7 4 5 25.52 0.98
-7 -4 -5 25.9 0.94
-8 -4 -5 0.17 0.11
-9 -4 -5 1.98 0.21
-10 -4 -5 1.12 0.18
7 -5 -5 2.21 0.26
-6 5 5 2.95 0.27
6 -5 -5 2.39 0.25
-5 5 5 1.61 0.2
5 -5 -5 1.29 0.19
4 -5 -5 14.04 0.6
-4 5 5 12.69 0.59
3 -5 -5 21.59 0.84
-3 5 5 21.76 0.85
2 -5 -5 69.53 2.31
-2 5 5 67.89 2.31
1 -5 -5 0.67 0.11
-1 -5 -5 1.31 0.13
1 5 5 1.37 0.15
-1 -5 -5 1.26 0.12
-2 -5 -5 0.89 0.1
-2 -5 -5 0.8 0.11
-3 -5 -5 2.38 0.15
-3 -5 -5 2.24 0.16
-4 -5 -5 4.61 0.22
4 5 5 4.7 0.27
-4 -5 -5 4.61 0.25
-5 -5 -5 0.35 0.07
-5 -5 -5 0.26 0.09
5 5 5 0.11 0.09
6 5 5 0.55 0.11
-6 -5 -5 0.51 0.13
-7 -5 -5 20.62 0.8
7 5 5 20.69 0.83
-8 -5 -5 4.9 0.32
8 5 5 5.62 0.34
-9 -5 -5 0.2 0.1
-7 6 5 2.14 0.26
6 -6 -5 3.88 0.32
-6 6 5 4.47 0.33
-5 6 5 1.9 0.25
5 -6 -5 2.43 0.23
-4 6 5 11.95 0.57
4 -6 -5 12.03 0.57
-3 6 5 0.98 0.17
3 -6 -5 0.67 0.15
2 -6 -5 24.29 0.91
-2 6 5 23.44 0.93
1 -6 -5 30.52 1.11
-1 6 5 31.46 1.14
0 -6 -5 29.22 1.05
1 6 5 5.51 0.28
-1 -6 -5 6.09 0.29
-1 -6 -5 5.46 0.28
-2 -6 -5 2.13 0.15
-2 -6 -5 2.14 0.17
-2 -6 -5 2.19 0.15
-3 -6 -5 2.01 0.16
-3 -6 -5 2.01 0.15
-4 -6 -5 33.22 1.12
-4 -6 -5 33.06 1.12
-5 -6 -5 38 1.3
5 6 5 38.55 1.38
6 6 5 0.14 0.11
-6 -6 -5 0.06 0.1
-7 -6 -5 0.13 0.11
7 6 5 0.23 0.11
-8 -6 -5 1.43 0.2
8 6 5 1.44 0.2
-9 -6 -5 0.17 0.12
6 -7 -5 2.09 0.26
-6 7 5 2 0.28
-5 7 5 2.32 0.25
5 -7 -5 2.81 0.26
4 -7 -5 0.2 0.12
-4 7 5 0.27 0.14
3 -7 -5 17.71 0.75
-3 7 5 17.64 0.76
2 -7 -5 10.39 0.49
-2 7 5 10.04 0.51
1 -7 -5 41.92 1.44
-1 7 5 38.88 1.44
0 7 5 3.96 0.28
0 -7 -5 3.84 0.26
1 7 5 18.06 0.72
-1 -7 -5 17.53 0.7
-2 -7 -5 0.35 0.08
-3 -7 -5 36.72 1.18
-3 -7 -5 34.28 1.2
-3 -7 -5 34.81 1.25
-4 -7 -5 67.31 2.15
-4 -7 -5 65.96 2.17
4 7 5 67.45 2.31
5 7 5 14.12 0.64
-5 -7 -5 14.82 0.58
-6 -7 -5 0.53 0.14
6 7 5 0.65 0.16
7 7 5 3.52 0.28
-7 -7 -5 3.36 0.26
8 7 5 -0.03 0.12
-8 -7 -5 0.02 0.11
-9 -7 -5 0.22 0.13
5 -8 -5 0.87 0.21
-5 8 5 0.87 0.23
4 -8 -5 2.89 0.27
-4 8 5 2.52 0.25
3 -8 -5 3.9 0.29
-3 8 5 3.74 0.3
-2 8 5 1.24 0.2
2 -8 -5 1.1 0.19
1 -8 -5 7.97 0.42
-1 8 5 7.65 0.43
0 -8 -5 0.03 0.11
0 8 5 0.25 0.13
1 8 5 43.65 1.54
-1 -8 -5 43.47 1.54
2 8 5 3.15 0.25
-2 -8 -5 4.12 0.26
-3 -8 -5 11.33 0.46
3 8 5 10.65 0.5
-3 -8 -5 10.93 0.49
4 8 5 1 0.18
-4 -8 -5 0.84 0.14
-5 -8 -5 5.23 0.3
5 8 5 5.28 0.35
6 8 5 1.23 0.2
-6 -8 -5 0.98 0.16
-7 -8 -5 12.71 0.57
7 8 5 11.67 0.59
8 8 5 0.38 0.16
-8 -8 -5 0.44 0.15
-4 9 5 7.09 0.47
4 -9 -5 8.37 0.48
3 -9 -5 0.51 0.17
-3 9 5 0.51 0.18
-2 9 5 1.05 0.21
2 -9 -5 0.93 0.19
-1 9 5 1.59 0.22
1 -9 -5 1.6 0.22
0 9 5 6.52 0.41
0 -9 -5 8.29 0.42
1 9 5 0.8 0.17
2 9 5 0.61 0.14
-2 -9 -5 0.59 0.14
-3 -9 -5 19.07 0.78
3 9 5 19.24 0.77
-4 -9 -5 1.91 0.18
4 9 5 1.59 0.23
-5 -9 -5 1.28 0.18
5 9 5 1.29 0.22
-6 -9 -5 0.28 0.13
6 9 5 0.34 0.14
-7 -9 -5 0.21 0.1
7 9 5 0.12 0.11
-8 -9 -5 0.69 0.16
8 9 5 0.94 0.2
3 -10 -5 9.92 0.56
-3 10 5 9.89 0.56
-2 10 5 2.65 0.27
2 -10 -5 2.77 0.27
1 -10 -5 1.41 0.22
-1 10 5 1.43 0.22
0 -10 -5 4.02 0.3
0 10 5 3.98 0.31
1 10 5 4.97 0.35
-1 -10 -5 5.63 0.35
-2 -10 -5 3.51 0.28
2 10 5 3.47 0.28
-3 -10 -5 5.53 0.35
-5 -10 -5 0.58 0.13
5 10 5 0.41 0.16
-6 -10 -5 1.06 0.18
6 10 5 0.83 0.21
-7 -10 -5 0.84 0.17
7 10 5 0.83 0.2
8 10 5 0.54 0.16
2 -11 -5 0.86 0.22
-2 11 5 0.85 0.21
1 -11 -5 1.31 0.23
-1 11 5 1.3 0.22
0 -11 -5 0.1 0.11
0 11 5 0.16 0.13
-1 -11 -5 -0.06 0.11
1 11 5 0.17 0.12
-2 -11 -5 0.21 0.15
2 11 5 0.15 0.14
-3 -11 -5 3.81 0.31
5 11 5 16.13 0.8
6 11 5 0.66 0.2
7 11 5 0.62 0.19
-7 -11 -5 0.76 0.19
0 12 5 1.36 0.23
0 -12 -5 1.12 0.23
-1 -12 -5 0.31 0.18
1 12 5 0.55 0.15
-2 -12 -5 0.2 0.14
-3 -12 -5 0.1 0.13
5 12 5 2.63 0.31
3 11 -6 0.94 0.23
5 10 -6 2.24 0.3
-4 -10 6 0.93 0.23
4 10 -6 1.06 0.23
3 10 -6 0.55 0.17
-3 -10 6 0.47 0.16
2 10 -6 1.15 0.22
-1 10 -6 0.69 0.18
-2 10 -6 1.43 0.22
-3 10 -6 1.72 0.25
6 9 -6 0.23 0.15
-5 -9 6 0.7 0.2
5 9 -6 0.75 0.2
-4 -9 6 0.42 0.17
4 9 -6 0.47 0.17
3 9 -6 0.52 0.19
-3 -9 6 0.38 0.16
-2 -9 6 0.96 0.2
2 9 -6 1.32 0.2
1 9 -6 0 0.13
-1 9 -6 4.96 0.34
-2 9 -6 0.16 0.14
-3 9 -6 1.99 0.25
-4 9 -6 0.95 0.21
-6 -8 6 0.16 0.16
6 8 -6 0.25 0.15
-5 -8 6 0.9 0.2
5 8 -6 0.69 0.18
-4 -8 6 1.55 0.24
4 8 -6 1.74 0.24
-3 -8 6 12.52 0.58
3 8 -6 11.1 0.59
-2 -8 6 0.51 0.15
2 8 -6 0.62 0.17
-1 -8 6 0.49 0.15
1 8 -6 0.64 0.17
0 8 -6 5.21 0.33
0 -8 6 5.7 0.34
0 -8 6 5.93 0.32
-1 8 -6 5.56 0.35
-2 8 -6 2.29 0.24
-3 8 -6 0.65 0.18
-4 8 -6 1.55 0.24
-5 8 -6 1.58 0.24
7 7 -6 0.3 0.16
-6 -7 6 0.28 0.15
6 7 -6 0.28 0.13
5 7 -6 0.61 0.17
-5 -7 6 0.72 0.18
-4 -7 6 0.22 0.13
4 7 -6 0.09 0.14
3 7 -6 6.72 0.42
-3 -7 6 7.83 0.42
-2 -7 6 1.93 0.22
2 7 -6 2.08 0.22
-1 -7 6 0.92 0.16
1 7 -6 0.78 0.13
1 7 -6 0.84 0.16
0 -7 6 4.86 0.3
0 7 -6 4.26 0.29
0 -7 6 4.78 0.27
-1 7 -6 4.33 0.3
1 -7 6 4.4 0.28
-2 7 -6 1.73 0.21
-3 7 -6 1.77 0.21
-4 7 -6 6.73 0.42
-5 7 -6 3.22 0.3
-6 7 -6 1.36 0.23
-7 -6 6 5.13 0.37
7 6 -6 5.07 0.38
-6 -6 6 3.75 0.31
6 6 -6 4.11 0.33
5 6 -6 0.08 0.12
-5 -6 6 -0.01 0.11
4 6 -6 0.01 0.1
-4 -6 6 0.01 0.11
-3 -6 6 21.2 0.84
3 6 -6 20 0.84
-2 -6 6 8.43 0.43
2 6 -6 8.39 0.44
1 6 -6 12.22 0.53
1 6 -6 13.5 0.59
-1 -6 6 13.9 0.58
0 -6 6 0.12 0.1
0 6 -6 0.09 0.09
1 -6 6 0.91 0.15
-1 6 -6 0.87 0.16
1 -6 6 0.85 0.12
2 -6 6 -0.01 0.09
-2 6 -6 -0.05 0.09
-3 6 -6 30.7 1.15
-4 6 -6 2.57 0.24
-5 6 -6 0.25 0.13
-6 6 -6 0.09 0.14
-7 6 -6 -0.08 0.12
-7 -5 6 0.13 0.12
7 5 -6 0.25 0.15
6 5 -6 2.96 0.27
-6 -5 6 3.03 0.28
-5 -5 6 1.54 0.23
5 5 -6 1.95 0.21
4 5 -6 0.3 0.13
-4 -5 6 0.39 0.13
-3 -5 6 10.63 0.52
3 5 -6 11.38 0.52
2 5 -6 0.18 0.1
-2 -5 6 0.26 0.12
1 5 -6 2.3 0.2
1 5 -6 1.73 0.16
-1 -5 6 2.01 0.2
0 5 -6 10.39 0.47
0 -5 6 10.6 0.47
0 5 -6 9.73 0.44
-1 5 -6 0.5 0.12
1 -5 6 0.4 0.13
1 -5 6 0.48 0.09
-2 5 -6 0.23 0.12
2 -5 6 0.28 0.11
-3 5 -6 2.55 0.23
3 -5 6 2.68 0.22
-4 5 -6 30.06 1.13
-5 5 -6 0.11 0.1
-6 5 -6 4.11 0.32
-7 5 -6 4.4 0.33
-8 5 -6 2.17 0.27
8 4 -6 0.91 0.21
-8 -4 6 1.06 0.2
7 4 -6 0.41 0.17
-7 -4 6 0.53 0.16
-6 -4 6 6.77 0.41
6 4 -6 7.24 0.42
5 4 -6 27.95 1.08
-5 -4 6 27.54 1.05
4 4 -6 0.29 0.11
-4 -4 6 0.12 0.12
-3 -4 6 0.33 0.13
3 4 -6 0.37 0.11
2 4 -6 41.28 1.38
2 4 -6 42.35 1.46
-2 -4 6 40.91 1.43
-1 -4 6 1.92 0.2
1 4 -6 1.97 0.18
0 4 -6 0.47 0.1
0 4 -6 0.55 0.1
0 -4 6 0.54 0.13
-2 4 -6 0.3 0.12
2 -4 6 0.36 0.11
-3 4 -6 0.13 0.11
3 -4 6 0.13 0.09
4 -4 6 2.69 0.22
-4 4 -6 2.29 0.22
-5 4 -6 4.34 0.3
-6 4 -6 2.36 0.24
-7 4 -6 2.26 0.24
-8 4 -6 0.06 0.13
-8 -3 6 0.26 0.13
8 3 -6 0.16 0.15
-7 -3 6 0.47 0.16
7 3 -6 0.37 0.15
-6 -3 6 3.26 0.27
6 3 -6 3.37 0.29
-5 -3 6 1.68 0.19
5 3 -6 1.8 0.2
-4 -3 6 4.26 0.29
4 3 -6 4.22 0.27
3 3 -6 7.1 0.37
-3 -3 6 7.94 0.39
2 3 -6 9.95 0.44
2 3 -6 10.92 0.41
-2 -3 6 10.19 0.47
-1 -3 6 4.71 0.29
1 3 -6 5.11 0.26
1 3 -6 4.75 0.24
0 3 -6 9.83 0.41
0 -3 6 10.02 0.45
0 3 -6 10.22 0.42
1 -3 6 53.59 1.75
-1 3 -6 52.74 1.77
2 -3 6 21.61 0.79
-2 3 -6 20.91 0.79
3 -3 6 37.45 1.29
-3 3 -6 37.74 1.32
4 -3 6 16.91 0.67
-4 3 -6 17.46 0.7
-5 3 -6 14.25 0.62
5 -3 6 13.85 0.58
-6 3 -6 1.71 0.22
-7 3 -6 10.1 0.52
-8 3 -6 5.81 0.38
-8 -2 6 2.13 0.25
8 2 -6 2.36 0.27
7 2 -6 0.25 0.14
-7 -2 6 0.19 0.14
6 2 -6 2.77 0.24
-6 -2 6 2.48 0.23
-5 -2 6 14.44 0.64
5 2 -6 16.11 0.67
4 2 -6 6.17 0.33
-4 -2 6 5.33 0.33
3 2 -6 0.49 0.08
3 2 -6 0.56 0.11
-3 -2 6 0.52 0.13
2 2 -6 0.82 0.11
-2 -2 6 0.46 0.12
-1 -2 6 0.01 0.08
1 2 -6 0.11 0.06
1 2 -6 0.1 0.06
0 2 -6 39.96 1.28
0 2 -6 35.82 1.26
0 -2 6 38.6 1.3
-1 2 -6 17.17 0.64
-1 2 -6 17.26 0.59
1 -2 6 16.75 0.65
-2 2 -6 2.72 0.19
2 -2 6 2.61 0.2
3 -2 6 0.34 0.1
-3 2 -6 0.56 0.12
4 -2 6 0.07 0.09
-4 2 -6 0 0.09
5 -2 6 0.7 0.14
-5 2 -6 0.52 0.14
6 -2 6 0.15 0.09
-6 2 -6 -0.06 0.1
-7 2 -6 1.11 0.18
-8 2 -6 0.2 0.14
8 1 -6 0.08 0.15
7 1 -6 0.68 0.18
-7 -1 6 0.47 0.15
-6 -1 6 0.74 0.15
6 1 -6 0.92 0.16
5 1 -6 0.84 0.16
-5 -1 6 0.99 0.16
-4 -1 6 0.12 0.11
4 1 -6 0.17 0.09
3 1 -6 4.61 0.22
3 1 -6 4.78 0.26
-3 -1 6 4.79 0.28
2 1 -6 6.89 0.29
2 1 -6 7.26 0.32
-2 -1 6 6.74 0.34
1 1 -6 0.3 0.07
-1 -1 6 0.64 0.12
1 1 -6 0.33 0.07
0 1 -6 26.64 0.89
0 1 -6 24.19 0.85
0 -1 6 26.14 0.91
1 -1 6 3.48 0.23
-1 1 -6 4.03 0.21
-2 1 -6 23.05 0.82
2 -1 6 22.59 0.82
-3 1 -6 0.4 0.1
3 -1 6 0.46 0.11
-4 1 -6 6.57 0.32
4 -1 6 5.95 0.32
5 -1 6 39.88 1.38
-5 1 -6 40.74 1.4
6 -1 6 11.32 0.51
-6 1 -6 11.11 0.51
7 -1 6 14.2 0.63
-7 1 -6 15.45 0.64
-8 1 -6 -0.03 0.11
8 0 -6 2.16 0.25
7 0 -6 0.93 0.19
-6 0 6 1.5 0.19
6 0 -6 1.54 0.19
-5 0 6 0.77 0.14
5 0 -6 0.81 0.15
-4 0 6 0.69 0.13
4 0 -6 0.73 0.1
4 0 -6 0.82 0.13
3 0 -6 1.68 0.13
-3 0 6 1.15 0.16
3 0 -6 2.04 0.16
2 0 -6 16.11 0.58
-2 0 6 15.21 0.61
2 0 -6 15.69 0.57
1 0 -6 54.23 1.79
-1 0 6 56.45 1.79
1 0 -6 53.49 1.78
0 0 -6 61.43 1.93
0 0 6 59.53 1.94
0 0 -6 59.04 1.94
1 0 6 0.98 0.13
-1 0 -6 1.17 0.11
-2 0 -6 5.82 0.28
2 0 6 6.3 0.31
-3 0 -6 44.17 1.51
3 0 6 45.8 1.5
-4 0 -6 1.44 0.15
4 0 6 1.83 0.17
-5 0 -6 24.68 0.91
5 0 6 25.12 0.92
-6 0 -6 9.15 0.41
6 0 6 8.46 0.44
-7 0 -6 10.22 0.47
7 0 6 10.49 0.51
8 0 6 0.13 0.13
8 -1 -6 2.7 0.28
7 -1 -6 0.13 0.13
6 -1 -6 2.4 0.23
5 -1 -6 0.2 0.08
-5 1 6 0.05 0.09
4 -1 -6 3.82 0.24
-4 1 6 3.57 0.23
4 -1 -6 3.33 0.2
-3 1 6 6.28 0.33
3 -1 -6 6.77 0.3
3 -1 -6 6.66 0.32
2 -1 -6 0.32 0.08
2 -1 -6 0.44 0.09
-2 1 6 0.31 0.1
-1 1 6 18.95 0.69
1 -1 -6 18.08 0.66
1 -1 -6 18.5 0.65
0 -1 -6 48.88 1.63
0 1 6 49.96 1.63
0 -1 -6 50.31 1.61
-1 -1 -6 9.25 0.37
1 1 6 9.13 0.4
-2 -1 -6 54.84 1.83
2 1 6 57.19 1.82
3 1 6 9.82 0.43
-3 -1 -6 10.03 0.41
-4 -1 -6 5.07 0.27
4 1 6 4.97 0.29
5 1 6 0.09 0.09
-5 -1 -6 -0.03 0.07
-6 -1 -6 26.65 0.95
6 1 6 25.39 0.97
-7 -1 -6 5.25 0.3
-8 -1 -6 1.47 0.16
7 -2 -6 0.19 0.11
6 -2 -6 4.05 0.3
-5 2 6 9.04 0.43
5 -2 -6 8.35 0.43
-4 2 6 18.92 0.74
-4 2 6 18.04 0.7
4 -2 -6 19.11 0.74
-3 2 6 0.06 0.09
3 -2 -6 0.44 0.1
3 -2 -6 0.19 0.08
2 -2 -6 0.57 0.09
2 -2 -6 0.67 0.1
-2 2 6 0.39 0.11
-1 2 6 51.35 1.64
1 -2 -6 50.01 1.65
1 -2 -6 49.73 1.66
0 -2 -6 18.29 0.66
0 -2 -6 18.54 0.63
0 2 6 18.11 0.67
1 2 6 42.15 1.37
-1 -2 -6 39.66 1.37
-1 -2 -6 42.36 1.34
-2 -2 -6 99.97 3.27
2 2 6 105.44 3.23
3 2 6 1.31 0.15
-3 -2 -6 0.99 0.11
-4 -2 -6 27.87 0.96
4 2 6 27.38 0.99
-5 -2 -6 10.71 0.44
-6 -2 -6 0.75 0.12
-6 -2 -6 0.72 0.13
-7 -2 -6 3.4 0.23
-7 -2 -6 3.87 0.24
-8 -2 -6 0.35 0.12
-9 -2 -6 0.63 0.14
-10 -2 -6 0.49 0.13
7 -3 -6 0.46 0.16
6 -3 -6 19.39 0.83
-5 3 6 2.68 0.23
5 -3 -6 2.47 0.23
-4 3 6 9.35 0.45
4 -3 -6 8.72 0.43
-3 3 6 1.57 0.15
3 -3 -6 1.46 0.16
3 -3 -6 1.18 0.14
-2 3 6 0.09 0.08
2 -3 -6 0.23 0.08
2 -3 -6 0.19 0.08
-1 3 6 5.04 0.26
1 -3 -6 4.52 0.24
0 -3 -6 6.16 0.28
0 -3 -6 5.79 0.26
0 3 6 5.91 0.29
-1 -3 -6 0.15 0.05
-1 -3 -6 0.37 0.08
1 3 6 0.2 0.09
-2 -3 -6 12.75 0.5
-2 -3 -6 13.51 0.47
2 3 6 13.32 0.53
-3 -3 -6 7.48 0.32
3 3 6 7.56 0.37
3 3 6 6.65 0.29
-4 -3 -6 8.25 0.35
-5 -3 -6 0.5 0.09
-5 -3 -6 0.49 0.1
-6 -3 -6 0.07 0.07
-6 -3 -6 0.06 0.08
-7 -3 -6 3.09 0.23
-8 -3 -6 0.05 0.1
-9 -3 -6 2.51 0.22
-10 -3 -6 0.52 0.13
7 -4 -6 0.09 0.15
-6 4 6 2.13 0.23
6 -4 -6 1.84 0.24
5 -4 -6 -0.05 0.1
-5 4 6 0.06 0.11
-4 4 6 0.07 0.11
4 -4 -6 0.18 0.09
3 -4 -6 13.69 0.59
-3 4 6 14.71 0.62
2 -4 -6 0.56 0.11
-2 4 6 0.51 0.11
2 -4 -6 0.42 0.1
1 -4 -6 6.34 0.3
1 -4 -6 6.3 0.3
-1 4 6 6.38 0.31
0 -4 -6 4.38 0.23
0 4 6 4.34 0.25
0 -4 -6 4.2 0.22
-1 -4 -6 40.47 1.36
-1 -4 -6 39.87 1.36
1 4 6 42.04 1.36
-2 -4 -6 12.45 0.46
2 4 6 12.41 0.51
-2 -4 -6 12.06 0.48
-4 -4 -6 0.44 0.09
4 4 6 0.33 0.08
-4 -4 -6 0.29 0.09
-5 -4 -6 0.74 0.12
-5 -4 -6 0.76 0.1
-6 -4 -6 0.98 0.14
-6 -4 -6 0.83 0.11
-7 -4 -6 -0.02 0.09
-8 -4 -6 0.2 0.11
-9 -4 -6 1.77 0.2
6 -5 -6 0.4 0.15
-6 5 6 0.25 0.14
-5 5 6 2.9 0.27
5 -5 -6 2.74 0.25
-4 5 6 6.22 0.38
4 -5 -6 5.8 0.35
-3 5 6 0.33 0.13
3 -5 -6 0.31 0.11
-2 5 6 7.54 0.41
2 -5 -6 7.97 0.38
1 -5 -6 0.42 0.1
1 -5 -6 0.41 0.1
0 -5 -6 34.98 1.22
0 5 6 36.58 1.19
0 -5 -6 35.18 1.23
1 5 6 2.69 0.2
-1 -5 -6 2.51 0.17
-1 -5 -6 2.68 0.18
-2 -5 -6 43.86 1.58
-2 -5 -6 50.35 1.61
2 5 6 49.43 1.59
-3 -5 -6 0.4 0.08
-4 -5 -6 1.09 0.13
4 5 6 1.18 0.13
-4 -5 -6 1.37 0.12
-5 -5 -6 1.03 0.11
5 5 6 0.7 0.12
-5 -5 -6 1 0.14
-6 -5 -6 3.66 0.25
-7 -5 -6 1.06 0.16
-8 -5 -6 0.04 0.1
-9 -5 -6 10.41 0.51
-6 6 6 -0.02 0.12
6 -6 -6 0.15 0.14
5 -6 -6 2.49 0.25
-5 6 6 2.71 0.27
4 -6 -6 0.94 0.17
-4 6 6 1.06 0.2
-3 6 6 0.16 0.13
3 -6 -6 0.41 0.12
2 -6 -6 1.06 0.16
-2 6 6 1.32 0.19
1 -6 -6 14.02 0.58
-1 6 6 14.17 0.63
0 -6 -6 1.23 0.14
0 -6 -6 1.49 0.15
1 6 6 10.39 0.44
-1 -6 -6 9.61 0.42
-1 -6 -6 9.39 0.42
-2 -6 -6 9.14 0.4
-2 -6 -6 10.14 0.42
-3 -6 -6 0.27 0.08
-3 -6 -6 0.21 0.08
-4 -6 -6 5.73 0.29
4 6 6 5.04 0.3
-4 -6 -6 5.49 0.27
-5 -6 -6 15.21 0.61
5 6 6 15.9 0.64
-5 -6 -6 14.84 0.57
-6 -6 -6 23.82 0.89
-7 -6 -6 0.37 0.12
-8 -6 -6 1.37 0.19
-9 -6 -6 0.13 0.11
-6 7 6 4.73 0.38
5 -7 -6 3.24 0.28
-5 7 6 2.9 0.28
-4 7 6 4.9 0.35
4 -7 -6 4.74 0.33
-3 7 6 1.05 0.19
3 -7 -6 1.05 0.18
-2 7 6 3.81 0.3
2 -7 -6 3.94 0.27
-1 7 6 5.53 0.36
1 -7 -6 5.36 0.32
0 7 6 6.85 0.39
0 -7 -6 7.65 0.38
-1 -7 -6 1.71 0.16
-1 -7 -6 1.81 0.17
-2 -7 -6 0.44 0.1
2 7 6 0.18 0.1
-2 -7 -6 0.59 0.12
-3 -7 -6 12.34 0.49
-3 -7 -6 12.06 0.49
-3 -7 -6 11.97 0.51
-4 -7 -6 4.17 0.23
4 7 6 3.93 0.28
-4 -7 -6 4.49 0.26
-5 -7 -6 0.13 0.09
5 7 6 0.21 0.11
-6 -7 -6 4.03 0.27
-7 -7 -6 0.59 0.14
-8 -7 -6 1.6 0.2
-5 8 6 1.15 0.23
5 -8 -6 0.86 0.2
4 -8 -6 0.08 0.14
-4 8 6 0.22 0.15
3 -8 -6 1.2 0.2
-3 8 6 1.57 0.23
-2 8 6 1.04 0.2
2 -8 -6 1.22 0.19
-1 8 6 0.53 0.16
1 -8 -6 0.42 0.14
0 -8 -6 12.58 0.56
0 8 6 12.36 0.59
1 8 6 4.25 0.31
-1 -8 -6 4.91 0.3
-2 -8 -6 31.96 1.16
-3 -8 -6 51.78 1.73
-3 -8 -6 51.66 1.78
-3 -8 -6 51.03 1.68
-4 -8 -6 9.94 0.43
-4 -8 -6 9.86 0.42
4 8 6 9.32 0.5
5 8 6 8.11 0.45
-5 -8 -6 8.47 0.41
-6 -8 -6 2.63 0.23
-7 -8 -6 0.87 0.17
-8 -8 -6 0.19 0.14
-4 9 6 4.86 0.38
4 -9 -6 4.74 0.36
3 -9 -6 2.77 0.27
-3 9 6 2.77 0.28
-2 9 6 2.62 0.28
2 -9 -6 2.96 0.26
-1 9 6 0.67 0.18
1 -9 -6 0.84 0.16
0 -9 -6 0.32 0.15
0 9 6 0.26 0.14
1 9 6 3.06 0.27
-1 -9 -6 3.33 0.26
-2 -9 -6 1.29 0.18
2 9 6 1.4 0.21
3 9 6 20 0.83
-3 -9 -6 20.89 0.82
4 9 6 1.57 0.23
-4 -9 -6 1.35 0.17
-5 -9 -6 2.58 0.22
5 9 6 2.38 0.26
-6 -9 -6 0.09 0.09
-7 -9 -6 0.71 0.16
-8 -9 -6 0.41 0.15
3 -10 -6 0.34 0.17
2 -10 -6 2.71 0.27
-2 10 6 2.3 0.27
-1 10 6 3.81 0.33
1 -10 -6 4.24 0.32
0 -10 -6 5.5 0.36
0 10 6 4.89 0.37
-1 -10 -6 1.67 0.23
1 10 6 1.44 0.21
-2 -10 -6 7.58 0.41
2 10 6 6.88 0.42
-3 -10 -6 0.25 0.13
-5 -10 -6 0.29 0.12
5 10 6 0.12 0.13
-6 -10 -6 1.48 0.2
-7 -10 -6 0.14 0.14
2 -11 -6 6.18 0.44
-1 11 6 0.41 0.16
1 -11 -6 0.33 0.16
0 11 6 1.6 0.24
0 -11 -6 1.64 0.25
1 11 6 1.27 0.22
-1 -11 -6 1.25 0.22
-2 -11 -6 0.03 0.12
2 11 6 0.13 0.12
-3 -11 -6 3.63 0.3
5 11 6 3.69 0.35
0 -12 -6 0.51 0.18
1 12 6 0.9 0.2
-1 -12 -6 0.7 0.2
-2 -12 -6 0.05 0.15
-3 -12 -6 0.27 0.14
5 12 6 0.56 0.18
-3 -10 7 7.01 0.47
-2 10 -7 0.22 0.14
-4 -9 7 2.49 0.3
-3 -9 7 10.11 0.56
-2 -9 7 2.16 0.25
-1 9 -7 1.18 0.2
-2 9 -7 0.96 0.2
-3 9 -7 2.78 0.28
6 8 -7 0.96 0.21
-5 -8 7 0.2 0.16
5 8 -7 0.19 0.16
4 8 -7 11.38 0.6
-4 -8 7 11.38 0.59
-3 -8 7 9.93 0.53
-2 -8 7 0.28 0.14
-1 -8 7 0.19 0.12
0 8 -7 7.39 0.4
0 -8 7 7.55 0.42
-1 8 -7 3.72 0.28
-2 8 -7 0.41 0.15
-3 8 -7 2.74 0.27
-4 8 -7 0.31 0.15
6 7 -7 0.48 0.16
-6 -7 7 0.14 0.16
-5 -7 7 0.09 0.14
5 7 -7 0.12 0.13
4 7 -7 8.56 0.49
-4 -7 7 9.55 0.51
-3 -7 7 6.94 0.43
3 7 -7 6.8 0.42
-2 -7 7 13.55 0.63
-1 -7 7 0.24 0.11
0 -7 7 1.86 0.2
0 7 -7 1.7 0.19
1 -7 7 0.09 0.1
-1 7 -7 0.17 0.1
-2 7 -7 0.66 0.16
-3 7 -7 0.88 0.19
-4 7 -7 2.13 0.24
-5 7 -7 7.73 0.47
7 6 -7 0.45 0.15
-6 -6 7 0.81 0.2
6 6 -7 1.26 0.22
5 6 -7 0.26 0.14
-5 -6 7 0.09 0.13
-4 -6 7 0.52 0.17
4 6 -7 0.63 0.15
-3 -6 7 14.6 0.67
3 6 -7 15.32 0.67
-2 -6 7 12.04 0.57
-1 -6 7 18.34 0.76
1 6 -7 18.02 0.7
0 -6 7 0.09 0.1
0 6 -7 0.09 0.1
1 -6 7 17.11 0.7
-1 6 -7 16.04 0.68
-2 6 -7 0.13 0.1
2 -6 7 0.14 0.12
-3 6 -7 1.39 0.2
-4 6 -7 4.21 0.32
-5 6 -7 1.96 0.23
-6 6 -7 1.34 0.23
7 5 -7 2.27 0.26
-7 -5 7 1.66 0.25
-6 -5 7 14.14 0.68
6 5 -7 14.53 0.69
-5 -5 7 1.07 0.2
5 5 -7 1.18 0.19
4 5 -7 5.93 0.36
-4 -5 7 6.45 0.39
-3 -5 7 0.1 0.13
3 5 -7 0.03 0.1
2 5 -7 0.21 0.1
-2 -5 7 0.4 0.13
-1 -5 7 1.47 0.2
1 5 -7 1.22 0.13
0 5 -7 5.81 0.31
0 -5 7 6.32 0.36
1 -5 7 0.2 0.11
-1 5 -7 0.17 0.11
2 -5 7 7.67 0.41
-2 5 -7 7.78 0.4
3 -5 7 0.51 0.13
-3 5 -7 0.2 0.13
-4 5 -7 0.01 0.11
-5 5 -7 0.2 0.14
-6 5 -7 0.11 0.11
-7 5 -7 1.51 0.24
-7 -4 7 0.23 0.14
7 4 -7 0.18 0.14
-6 -4 7 0.17 0.14
6 4 -7 0.42 0.16
-5 -4 7 0.43 0.15
5 4 -7 0.56 0.12
-4 -4 7 62.51 2.1
4 4 -7 61.22 2.14
3 4 -7 2.06 0.19
-3 -4 7 1.1 0.19
-2 -4 7 43.82 1.52
2 4 -7 43.6 1.52
-1 -4 7 0.48 0.14
1 4 -7 0.03 0.07
0 4 -7 17.45 0.68
0 -4 7 18.04 0.72
1 -4 7 15.3 0.64
-1 4 -7 14.91 0.61
-2 4 -7 0.18 0.11
2 -4 7 0.22 0.11
3 -4 7 9.56 0.46
-3 4 -7 9.61 0.46
4 -4 7 0.66 0.14
-4 4 -7 0.54 0.14
-5 4 -7 3.78 0.28
-6 4 -7 0.78 0.16
-7 4 -7 7.41 0.45
-8 4 -7 1.2 0.2
-8 -3 7 0.21 0.14
7 3 -7 1.62 0.23
-7 -3 7 1.8 0.23
-6 -3 7 1.68 0.22
6 3 -7 1.05 0.2
5 3 -7 0.58 0.15
-5 -3 7 0.58 0.16
-4 -3 7 2.02 0.22
4 3 -7 1.79 0.19
-3 -3 7 23.89 0.87
3 3 -7 19.72 0.82
2 3 -7 2.01 0.15
-2 -3 7 1.97 0.21
2 3 -7 2.32 0.18
1 3 -7 0.19 0.08
-1 -3 7 0.2 0.12
0 -3 7 4.56 0.29
0 3 -7 3.41 0.22
1 -3 7 0.89 0.15
-1 3 -7 1.21 0.14
-2 3 -7 13.9 0.57
2 -3 7 13.33 0.57
3 -3 7 0.59 0.13
-3 3 -7 0.59 0.13
4 -3 7 17.73 0.71
-4 3 -7 17.88 0.72
5 -3 7 16.58 0.67
-5 3 -7 16.25 0.69
-6 3 -7 0.61 0.15
-7 3 -7 0.44 0.16
-8 3 -7 1.29 0.2
-9 3 -7 0.47 0.15
8 2 -7 1.78 0.25
7 2 -7 0.8 0.17
-7 -2 7 0.78 0.17
-6 -2 7 3.54 0.29
6 2 -7 3.77 0.28
5 2 -7 5.24 0.33
-5 -2 7 5.23 0.34
4 2 -7 2.68 0.22
-4 -2 7 2.51 0.23
3 2 -7 12.8 0.55
3 2 -7 13.22 0.5
-3 -2 7 13.06 0.58
2 2 -7 35.43 1.18
2 2 -7 33.78 1.22
-2 -2 7 35.88 1.24
1 2 -7 0.64 0.1
-1 -2 7 0.63 0.14
0 2 -7 22.2 0.78
0 -2 7 20.9 0.81
1 -2 7 2.64 0.22
-1 2 -7 2.58 0.18
-2 2 -7 3.34 0.22
2 -2 7 3.14 0.24
-3 2 -7 11.13 0.48
3 -2 7 10.47 0.48
-4 2 -7 29.17 1.05
4 -2 7 28.27 1.03
-5 2 -7 118.52 3.68
5 -2 7 106.89 3.56
-6 2 -7 1.44 0.2
6 -2 7 1.43 0.18
-7 2 -7 -0.2 0.11
7 -2 7 0.11 0.09
-8 2 -7 0.49 0.16
8 1 -7 0.14 0.14
-7 -1 7 1.51 0.23
7 1 -7 2.22 0.24
6 1 -7 12.65 0.58
-6 -1 7 11.77 0.56
5 1 -7 1.43 0.18
-5 -1 7 1.41 0.2
-4 -1 7 4.44 0.3
4 1 -7 5.13 0.29
-3 -1 7 30.82 1.11
3 1 -7 30.6 1.1
3 1 -7 31.14 1.05
2 1 -7 21.13 0.75
-2 -1 7 21.13 0.79
2 1 -7 19.63 0.73
-1 -1 7 56.53 1.84
1 1 -7 53.99 1.81
0 -1 7 13.94 0.58
0 1 -7 13.89 0.53
2 -1 7 9.73 0.44
-2 1 -7 9.1 0.41
-3 1 -7 5.45 0.29
3 -1 7 5.44 0.31
4 -1 7 0.98 0.15
-4 1 -7 1.07 0.14
-5 1 -7 0.2 0.11
5 -1 7 0.32 0.12
-6 1 -7 2.38 0.21
6 -1 7 2.53 0.22
-7 1 -7 0.06 0.1
7 -1 7 0.15 0.12
8 -1 7 -0.03 0.13
-8 1 -7 0.18 0.13
7 0 -7 6.71 0.41
6 0 -7 0.09 0.11
-6 0 7 0.2 0.14
-5 0 7 0.05 0.12
5 0 -7 0.27 0.12
4 0 -7 0.51 0.11
-4 0 7 0.39 0.13
4 0 -7 0.39 0.09
-3 0 7 2.9 0.23
3 0 -7 3.37 0.22
2 0 -7 4.37 0.23
2 0 -7 4.98 0.24
-2 0 7 4.46 0.28
1 0 -7 1.38 0.13
-1 0 7 1.61 0.18
1 0 -7 1.5 0.11
0 0 -7 12.41 0.45
0 0 7 9.69 0.47
2 0 7 62.97 2.01
-2 0 -7 60.23 2.02
-3 0 -7 14.99 0.59
-4 0 -7 0.28 0.1
4 0 7 0.17 0.1
5 0 7 19.83 0.78
-5 0 -7 19.36 0.76
-6 0 -7 5.22 0.3
6 0 7 5.21 0.32
-7 0 -7 5.84 0.33
7 0 7 5.21 0.35
-8 0 -7 0.19 0.1
8 0 7 0.13 0.11
9 0 7 0.77 0.17
7 -1 -7 1.15 0.22
6 -1 -7 6.7 0.4
-5 1 7 19.74 0.8
5 -1 -7 21.49 0.83
4 -1 -7 4.35 0.26
4 -1 -7 4.42 0.24
-4 1 7 4.1 0.27
3 -1 -7 11.67 0.47
-3 1 7 10.74 0.47
3 -1 -7 9.91 0.43
2 -1 -7 0.09 0.07
2 -1 -7 0.24 0.08
-2 1 7 0.18 0.1
1 -1 -7 3.52 0.18
-1 1 7 3.7 0.25
0 1 7 8.39 0.4
0 -1 -7 8.4 0.36
1 1 7 0.61 0.12
-1 -1 -7 0.8 0.11
-2 -1 -7 5.68 0.28
2 1 7 5.36 0.3
3 1 7 70.24 2.27
-3 -1 -7 69.78 2.29
4 1 7 0.58 0.13
-5 -1 -7 -0.03 0.09
5 1 7 -0.03 0.09
-6 -1 -7 0.19 0.09
6 1 7 0.14 0.11
-7 -1 -7 4.29 0.28
7 1 7 4.38 0.32
8 1 7 9.15 0.51
9 1 7 0.32 0.17
7 -2 -7 1.04 0.21
6 -2 -7 0.02 0.13
5 -2 -7 8.74 0.45
-5 2 7 9.6 0.46
4 -2 -7 0.72 0.14
-4 2 7 0.55 0.13
-3 2 7 6.97 0.35
3 -2 -7 7.01 0.34
3 -2 -7 6.62 0.32
2 -2 -7 1.56 0.14
-2 2 7 1.08 0.15
2 -2 -7 1.27 0.13
1 -2 -7 16.61 0.61
-1 2 7 17.42 0.66
1 -2 -7 16.36 0.63
0 -2 -7 0.05 0.06
0 2 7 0.11 0.09
1 2 7 3.76 0.25
-3 -2 -7 11.63 0.47
3 2 7 11.71 0.5
-4 -2 -7 6.97 0.33
4 2 7 6.76 0.36
5 2 7 0.2 0.11
-5 -2 -7 0.11 0.08
6 2 7 0.19 0.1
-6 -2 -7 0.21 0.08
7 2 7 2.37 0.25
-7 -2 -7 2.65 0.21
7 -3 -7 0.33 0.18
6 -3 -7 0.07 0.13
-5 3 7 3.25 0.26
5 -3 -7 3.47 0.27
-4 3 7 0.01 0.11
4 -3 -7 0.1 0.11
3 -3 -7 1.33 0.15
3 -3 -7 1.54 0.16
2 -3 -7 5.59 0.28
2 -3 -7 5.61 0.29
1 -3 -7 7.48 0.34
-1 3 7 7.21 0.36
1 -3 -7 7.37 0.32
0 3 7 19.11 0.73
0 -3 -7 19.54 0.68
0 -3 -7 19.47 0.71
-1 -3 -7 9.98 0.42
1 3 7 10.33 0.45
3 3 7 0.51 0.12
-3 -3 -7 0.37 0.09
-4 -3 -7 0.03 0.07
4 3 7 0.01 0.09
5 3 7 8.06 0.43
-5 -3 -7 8.5 0.37
-6 -3 -7 3.94 0.24
-7 -3 -7 0.3 0.11
-8 -3 -7 2.28 0.22
-9 -3 -7 0.7 0.14
7 -4 -7 0.14 0.14
6 -4 -7 0.99 0.18
-5 4 7 0.99 0.17
5 -4 -7 0.94 0.19
-4 4 7 6.69 0.39
4 -4 -7 6.25 0.36
-3 4 7 0.24 0.13
3 -4 -7 0.32 0.1
2 -4 -7 1.05 0.14
2 -4 -7 1.3 0.14
1 -4 -7 1.11 0.13
-1 4 7 1 0.15
1 -4 -7 0.9 0.12
0 4 7 0.37 0.11
0 -4 -7 0.35 0.09
0 -4 -7 0.18 0.08
1 4 7 42.31 1.41
-1 -4 -7 41.77 1.42
2 4 7 18.2 0.72
-2 -4 -7 19.52 0.7
3 4 7 1.65 0.18
-3 -4 -7 1.67 0.14
-4 -4 -7 1.63 0.15
4 4 7 1.8 0.19
-5 -4 -7 3.97 0.23
-6 -4 -7 5.83 0.32
-6 -4 -7 6.74 0.32
-7 -4 -7 0.28 0.12
-8 -4 -7 0.44 0.13
-9 -4 -7 -0.02 0.09
6 -5 -7 1.07 0.2
-6 5 7 1.1 0.21
-5 5 7 0.1 0.11
5 -5 -7 0.17 0.1
4 -5 -7 0.65 0.15
-4 5 7 0.5 0.14
-3 5 7 0.21 0.13
3 -5 -7 0.05 0.09
2 -5 -7 0.31 0.1
1 -5 -7 1.22 0.14
1 -5 -7 1.71 0.16
0 -5 -7 5.26 0.27
0 -5 -7 5.08 0.28
0 5 7 5.25 0.29
1 5 7 5.5 0.3
-1 -5 -7 5.33 0.27
-1 -5 -7 5.39 0.28
2 5 7 63.7 2.04
-2 -5 -7 60.94 2.05
-3 -5 -7 26.23 0.86
3 5 7 21.2 0.87
-4 -5 -7 2.01 0.16
4 5 7 2.23 0.22
-5 -5 -7 1.84 0.14
-5 -5 -7 1.16 0.15
-6 -5 -7 5.77 0.32
-7 -5 -7 0.11 0.1
-8 -5 -7 0.76 0.15
-9 -5 -7 0.18 0.11
-6 6 7 2.56 0.28
6 -6 -7 2.68 0.28
5 -6 -7 3.36 0.28
-5 6 7 2.98 0.29
4 -6 -7 3.64 0.29
-4 6 7 3.6 0.3
3 -6 -7 0.1 0.1
-3 6 7 0.1 0.12
-2 6 7 5.96 0.38
2 -6 -7 5.37 0.32
1 -6 -7 2.39 0.2
1 -6 -7 2.83 0.21
0 -6 -7 5.97 0.32
0 -6 -7 6.9 0.34
-1 -6 -7 5.98 0.3
1 6 7 6.44 0.33
-1 -6 -7 6.05 0.31
-2 -6 -7 2.72 0.19
2 6 7 2.61 0.22
3 6 7 9.48 0.46
-3 -6 -7 9.01 0.4
4 6 7 2.15 0.22
-4 -6 -7 2.25 0.17
-5 -6 -7 1.74 0.18
-5 -6 -7 2.64 0.18
-6 -6 -7 2.47 0.21
-7 -6 -7 0.4 0.12
-8 -6 -7 1.67 0.19
-9 -6 -7 0.02 0.1
5 -7 -7 0.7 0.19
-5 7 7 0.63 0.19
4 -7 -7 0.04 0.11
-4 7 7 -0.03 0.14
-3 7 7 1.77 0.25
3 -7 -7 2.03 0.2
2 -7 -7 2.89 0.24
-2 7 7 2.98 0.28
1 -7 -7 11.14 0.5
-1 7 7 10.07 0.53
0 -7 -7 18.51 0.74
0 -7 -7 18.68 0.74
-1 -7 -7 0.55 0.12
-1 -7 -7 0.55 0.12
-2 -7 -7 3.77 0.23
2 7 7 2.47 0.22
-2 -7 -7 3.03 0.21
-3 -7 -7 10.82 0.46
3 7 7 10.3 0.5
-4 -7 -7 17.64 0.68
-5 -7 -7 0.44 0.13
-6 -7 -7 0.2 0.11
-7 -7 -7 1.35 0.19
-8 -7 -7 0.04 0.09
-4 8 7 0.2 0.14
4 -8 -7 0.26 0.16
-3 8 7 0.31 0.16
3 -8 -7 0.08 0.13
2 -8 -7 1.13 0.18
-2 8 7 1.29 0.22
-1 8 7 4.47 0.34
1 -8 -7 4.7 0.31
0 -8 -7 0.06 0.09
0 8 7 0.03 0.12
-1 -8 -7 0.54 0.13
-2 -8 -7 4.35 0.27
-2 -8 -7 4.6 0.28
-3 -8 -7 0.62 0.12
3 8 7 0.53 0.15
-4 -8 -7 4.55 0.26
-5 -8 -7 4.28 0.28
-6 -8 -7 0.41 0.11
-7 -8 -7 0.41 0.14
-8 -8 -7 0 0.11
-3 9 7 0.01 0.15
3 -9 -7 0.07 0.14
-2 9 7 0.13 0.14
2 -9 -7 0.03 0.13
-1 9 7 1.15 0.21
1 -9 -7 1.46 0.22
0 -9 -7 1.7 0.2
0 9 7 1.88 0.24
1 9 7 3.13 0.3
-1 -9 -7 4.03 0.28
-2 -9 -7 9.58 0.46
2 9 7 8.45 0.48
-5 -9 -7 1.06 0.17
-6 -9 -7 0.27 0.11
-7 -9 -7 0.09 0.1
2 -10 -7 0.26 0.16
-2 10 7 0.23 0.16
1 -10 -7 0.22 0.14
-1 10 7 -0.07 0.12
0 -10 -7 4.69 0.32
0 10 7 4.08 0.34
1 10 7 3.05 0.29
-1 -10 -7 3.46 0.28
-2 -10 -7 0.19 0.11
2 10 7 0.2 0.14
3 10 7 -0.01 0.14
-6 -10 -7 0.42 0.15
-7 -10 -7 0.13 0.13
1 -11 -7 0.38 0.18
0 -11 -7 1.45 0.23
0 11 7 1.35 0.23
1 11 7 4.12 0.34
-1 -11 -7 4.8 0.34
-2 -11 -7 1.87 0.23
2 11 7 2.02 0.25
-1 -12 -7 0.18 0.16
-2 -12 -7 0.87 0.21
-3 -9 8 1.04 0.22
-2 -9 8 5.62 0.4
-1 -9 8 5.66 0.39
-1 9 -8 2.13 0.24
-2 9 -8 0.08 0.11
-4 -8 8 1.52 0.25
-3 -8 8 0.73 0.19
-2 -8 8 1.21 0.23
-1 -8 8 5.96 0.39
0 -8 8 0.11 0.11
-1 8 -8 2.06 0.23
-2 8 -8 2.09 0.23
-3 8 -8 2.14 0.23
-4 8 -8 1.39 0.24
-5 -7 8 0.34 0.17
-4 -7 8 7.84 0.48
-3 -7 8 2.33 0.28
-2 -7 8 3.57 0.3
-1 -7 8 1.12 0.2
0 7 -8 0.35 0.13
0 -7 8 0.64 0.17
-1 7 -8 -0.15 0.08
1 -7 8 0.08 0.12
-2 7 -8 0.32 0.14
-3 7 -8 5.82 0.37
-4 7 -8 0.46 0.16
-5 7 -8 6.28 0.42
-5 -6 8 0.21 0.13
-4 -6 8 4.92 0.36
-3 -6 8 2.2 0.24
-2 -6 8 1.87 0.25
-1 -6 8 0.27 0.14
0 -6 8 14.87 0.65
0 6 -8 13.16 0.59
1 -6 8 1.98 0.23
-1 6 -8 1.68 0.18
2 -6 8 0.09 0.11
-2 6 -8 0.01 0.11
-3 6 -8 0.13 0.13
-4 6 -8 0.77 0.17
-5 6 -8 1.81 0.22
-6 6 -8 0.58 0.18
-6 -5 8 3.61 0.32
-5 -5 8 0.57 0.17
-4 -5 8 8.16 0.48
-3 -5 8 0.08 0.14
-2 -5 8 1.65 0.22
1 5 -8 3.82 0.24
-1 -5 8 4.17 0.3
0 5 -8 0.2 0.1
0 -5 8 0.19 0.11
-1 5 -8 8 0.42
1 -5 8 8.95 0.46
2 -5 8 2.92 0.25
-2 5 -8 2.54 0.22
-3 5 -8 14.07 0.61
3 -5 8 12.01 0.58
-4 5 -8 8.57 0.46
-5 5 -8 0.08 0.12
-6 5 -8 3.25 0.29
-6 -4 8 6.96 0.44
-5 -4 8 0.04 0.13
-4 -4 8 24.38 0.99
-3 -4 8 2.04 0.24
-2 -4 8 5.76 0.36
1 4 -8 8.58 0.39
-1 -4 8 9.05 0.46
0 4 -8 3.07 0.21
0 -4 8 3.62 0.27
1 -4 8 0.41 0.15
-1 4 -8 0.18 0.1
2 -4 8 3.3 0.26
-2 4 -8 3 0.24
3 -4 8 9.16 0.47
-3 4 -8 9.79 0.47
-4 4 -8 1.67 0.2
4 -4 8 1.96 0.21
5 -4 8 8.2 0.44
-5 4 -8 7.84 0.44
-6 4 -8 0.06 0.12
-7 4 -8 4.95 0.36
7 3 -8 0.09 0.12
-7 -3 8 0.26 0.13
-6 -3 8 0.48 0.16
6 3 -8 0.48 0.13
-5 -3 8 0.86 0.18
-4 -3 8 1.32 0.2
-3 -3 8 0.99 0.18
2 3 -8 35.28 1.23
-2 -3 8 36.7 1.31
-1 -3 8 1.46 0.19
0 -3 8 0.79 0.17
0 3 -8 0.65 0.12
1 -3 8 24.05 0.92
-1 3 -8 23.95 0.89
2 -3 8 3.8 0.27
-2 3 -8 3.67 0.25
-3 3 -8 3.8 0.26
3 -3 8 3.91 0.28
-4 3 -8 64.4 2.17
4 -3 8 63.17 2.13
5 -3 8 14.96 0.66
-5 3 -8 15.75 0.67
6 -3 8 0.6 0.15
-6 3 -8 0.25 0.11
-7 3 -8 1.44 0.21
-8 3 -8 0.76 0.19
-7 -2 8 3.92 0.32
7 2 -8 4.3 0.33
6 2 -8 4.69 0.33
-6 -2 8 4.04 0.32
5 2 -8 3.96 0.28
-5 -2 8 3.85 0.3
-4 -2 8 1.77 0.22
-3 -2 8 1.02 0.18
2 2 -8 56.23 1.85
-2 -2 8 55.65 1.89
-1 -2 8 9.58 0.48
1 2 -8 9.59 0.41
0 -2 8 30.52 1.11
0 2 -8 30.1 1.06
1 -2 8 10.48 0.49
-1 2 -8 10.16 0.45
-2 2 -8 0.79 0.14
2 -2 8 0.94 0.16
3 -2 8 0.17 0.12
-3 2 -8 0.17 0.1
-4 2 -8 6.37 0.36
4 -2 8 6.66 0.37
-5 2 -8 2.75 0.24
5 -2 8 2.45 0.23
-6 2 -8 3.03 0.25
6 -2 8 2.54 0.23
7 -2 8 0.72 0.15
-7 2 -8 0.81 0.18
-8 2 -8 1.02 0.18
-9 2 -8 0.01 0.12
7 1 -8 2.38 0.26
-6 -1 8 5.83 0.38
6 1 -8 6.13 0.38
5 1 -8 1.04 0.17
-5 -1 8 1.08 0.18
-4 -1 8 5.34 0.34
-3 -1 8 11.43 0.54
3 1 -8 11.33 0.46
-2 -1 8 24.05 0.93
2 1 -8 24.51 0.86
1 1 -8 1.99 0.16
-1 -1 8 2.09 0.21
0 -1 8 22.66 0.86
0 1 -8 22.04 0.81
1 -1 8 15.39 0.65
-1 1 -8 15.89 0.61
-2 1 -8 14.04 0.58
2 -1 8 14.61 0.61
3 -1 8 2.64 0.23
-3 1 -8 2.67 0.21
4 -1 8 5.39 0.33
-4 1 -8 5.33 0.31
5 -1 8 0.16 0.11
-5 1 -8 0.1 0.11
6 -1 8 4.06 0.29
-6 1 -8 4.35 0.29
7 -1 8 7.56 0.43
-7 1 -8 7.83 0.42
8 -1 8 0.3 0.16
-8 1 -8 0.48 0.15
7 0 -8 0.54 0.17
6 0 -8 5.12 0.35
-5 0 8 4.37 0.32
5 0 -8 5.21 0.31
-4 0 8 0.09 0.1
4 0 -8 0.09 0.08
3 0 -8 0.33 0.1
-3 0 8 0.46 0.14
-2 0 8 19.34 0.77
2 0 -8 19.8 0.72
-1 0 8 0.69 0.15
1 0 -8 0.48 0.1
0 0 -8 8.83 0.4
0 0 8 9.49 0.45
-1 0 -8 59.64 2
1 0 8 61.26 2
2 0 8 43.13 1.45
-2 0 -8 41.21 1.44
-3 0 -8 0.31 0.1
3 0 8 0.42 0.12
-4 0 -8 2.16 0.19
4 0 8 2.25 0.21
5 0 8 17.84 0.74
-5 0 -8 18.44 0.73
-6 0 -8 12.43 0.54
6 0 8 11.45 0.55
7 0 8 4.07 0.31
-7 0 -8 4.14 0.28
-8 0 -8 2.97 0.24
8 0 8 2.87 0.28
9 0 8 2.32 0.27
7 -1 -8 2.41 0.26
6 -1 -8 0.03 0.11
5 -1 -8 5 0.32
-4 1 8 14.42 0.63
4 -1 -8 15.01 0.62
4 -1 -8 14.96 0.59
-3 1 8 2.31 0.21
3 -1 -8 2.35 0.17
2 -1 -8 0.04 0.08
-2 1 8 -0.09 0.1
1 -1 -8 0.17 0.08
-1 1 8 0.23 0.11
0 1 8 1.88 0.2
0 -1 -8 1.54 0.15
1 1 8 4.94 0.3
-1 -1 -8 4.85 0.26
2 1 8 0.66 0.14
-2 -1 -8 1.17 0.14
-3 -1 -8 0.41 0.11
3 1 8 0.63 0.13
4 1 8 7.16 0.39
-4 -1 -8 7.23 0.36
5 1 8 6.63 0.38
-5 -1 -8 6.68 0.35
-6 -1 -8 2.34 0.2
6 1 8 2.21 0.23
-7 -1 -8 1.89 0.19
7 1 8 2.01 0.25
8 1 8 1.06 0.19
9 1 8 7.23 0.46
7 -2 -8 0.9 0.19
6 -2 -8 1.75 0.22
5 -2 -8 14.74 0.65
4 -2 -8 10.8 0.49
4 -2 -8 11.9 0.52
-3 2 8 6.43 0.35
3 -2 -8 6.73 0.33
-2 2 8 4.47 0.28
2 -2 -8 4.21 0.25
-1 2 8 0.21 0.1
1 -2 -8 0.12 0.08
0 -2 -8 16.33 0.63
0 2 8 16.56 0.66
1 2 8 1.49 0.18
-1 -2 -8 1.56 0.15
-2 -2 -8 33.54 1.13
2 2 8 30.89 1.14
3 2 8 4.08 0.27
-3 -2 -8 4.23 0.25
4 2 8 21.31 0.85
-4 -2 -8 22.71 0.82
5 2 8 -0.01 0.09
-5 -2 -8 0.19 0.09
6 2 8 -0.03 0.1
-6 -2 -8 0.13 0.1
7 2 8 1.34 0.21
-7 -2 -8 1.43 0.16
8 2 8 0.16 0.14
9 2 8 0.34 0.18
6 -3 -8 3.84 0.3
-5 3 8 0.12 0.09
5 -3 -8 0.07 0.12
4 -3 -8 1.22 0.18
-4 3 8 1.54 0.21
3 -3 -8 0.25 0.1
3 -3 -8 0.1 0.09
2 -3 -8 0.11 0.09
-2 3 8 0.1 0.07
-1 3 8 9.45 0.44
1 -3 -8 9.39 0.42
0 -3 -8 13.92 0.55
0 3 8 13.35 0.57
1 3 8 11.44 0.51
-1 -3 -8 11.66 0.48
2 3 8 36.36 1.26
-2 -3 -8 36 1.25
-3 -3 -8 4.02 0.24
3 3 8 3.9 0.27
-4 -3 -8 41.51 1.42
4 3 8 41.55 1.45
-5 -3 -8 34.16 1.2
5 3 8 33.86 1.24
6 3 8 41.92 1.51
-6 -3 -8 42.23 1.45
7 3 8 0.39 0.16
-7 -3 -8 0.18 0.1
8 3 8 18.21 0.82
9 3 8 1.89 0.28
6 -4 -8 0.2 0.15
5 -4 -8 0.43 0.15
-5 4 8 0.22 0.11
4 -4 -8 2.68 0.23
-4 4 8 2.33 0.24
3 -4 -8 4.38 0.29
3 -4 -8 5.22 0.3
2 -4 -8 3.88 0.25
-1 4 8 1.39 0.16
1 -4 -8 1.21 0.15
0 -4 -8 3.34 0.22
1 4 8 5.21 0.3
-1 -4 -8 5.15 0.28
-2 -4 -8 1.81 0.16
2 4 8 1.37 0.18
-3 -4 -8 2.39 0.18
3 4 8 2.37 0.22
-4 -4 -8 3.01 0.2
4 4 8 3.02 0.25
-5 -4 -8 0.04 0.07
5 4 8 0.15 0.12
6 4 8 4.25 0.33
-6 -4 -8 5.02 0.28
7 4 8 4.43 0.34
6 -5 -8 2.06 0.25
-5 5 8 4.24 0.34
5 -5 -8 4.49 0.33
-4 5 8 0.1 0.12
4 -5 -8 0.61 0.13
3 -5 -8 3.24 0.25
-3 5 8 2.97 0.27
2 -5 -8 16.27 0.67
1 -5 -8 1.53 0.17
0 5 8 0.2 0.1
0 -5 -8 0.1 0.09
1 5 8 13.86 0.58
-1 -5 -8 14.27 0.57
2 5 8 4.22 0.28
-2 -5 -8 4.38 0.25
3 5 8 24.68 0.94
-3 -5 -8 24.5 0.9
4 5 8 -0.01 0.11
-4 -5 -8 -0.01 0.07
5 5 8 15.82 0.7
-5 -5 -8 15.71 0.62
-6 -5 -8 1.75 0.16
6 5 8 1.66 0.24
-8 -5 -8 0.19 0.09
-5 6 8 0.61 0.2
5 -6 -8 0.66 0.18
-4 6 8 0.47 0.14
4 -6 -8 0.21 0.11
-3 6 8 1.55 0.22
3 -6 -8 1.54 0.2
2 -6 -8 2.56 0.21
-2 6 8 2.51 0.27
1 -6 -8 0.07 0.09
0 -6 -8 0.92 0.14
-1 -6 -8 1.91 0.17
1 6 8 2.15 0.19
2 6 8 1.34 0.18
-2 -6 -8 1.71 0.16
-3 -6 -8 1.99 0.17
3 6 8 1.93 0.21
4 6 8 0.01 0.09
-4 -6 -8 0.09 0.07
-5 -6 -8 0.09 0.07
5 6 8 0.05 0.12
-7 -6 -8 1.63 0.2
-8 -6 -8 0.28 0.13
5 -7 -8 0.45 0.17
-4 7 8 0.73 0.21
4 -7 -8 0.83 0.17
-3 7 8 0.89 0.2
3 -7 -8 1.09 0.18
2 -7 -8 8.91 0.46
-2 7 8 9.61 0.53
-1 7 8 4.02 0.33
0 -7 -8 0.1 0.1
-1 -7 -8 -0.12 0.07
-2 -7 -8 2.78 0.21
2 7 8 2.73 0.22
3 7 8 1.68 0.19
-3 -7 -8 1.37 0.17
-4 -7 -8 8.16 0.39
4 7 8 8.53 0.46
5 7 8 0.52 0.17
-5 -7 -8 0.36 0.1
-7 -7 -8 1.73 0.21
-8 -7 -8 0.22 0.13
4 -8 -8 1.4 0.24
3 -8 -8 0.96 0.2
-3 8 8 0.96 0.23
2 -8 -8 2.12 0.23
-2 8 8 1.95 0.27
-1 8 8 0.98 0.21
0 8 8 0.33 0.17
-1 -8 -8 1.02 0.17
-2 -8 -8 0.04 0.09
-3 -8 -8 0.03 0.08
4 8 8 5.47 0.37
-4 -8 -8 4.91 0.29
5 8 8 1.18 0.22
-7 -8 -8 0.65 0.15
3 -9 -8 0.27 0.17
2 -9 -8 1.86 0.25
-2 9 8 1.64 0.25
-1 9 8 0.09 0.14
0 9 8 4.3 0.35
1 9 8 -0.05 0.13
-3 -9 -8 0.44 0.13
-4 -9 -8 0.44 0.1
5 9 8 2.33 0.25
-7 -9 -8 0.32 0.13
-1 10 8 0.29 0.17
0 10 8 0.83 0.21
1 10 8 2.33 0.27
2 10 8 9.61 0.54
3 10 8 1.46 0.24
1 11 8 0.42 0.16
2 11 8 0.8 0.2
-2 -9 9 0.35 0.18
-1 -9 9 0.1 0.18
-3 -8 9 6.99 0.47
-2 -8 9 1.29 0.24
-1 -8 9 0.12 0.15
0 -8 9 2.13 0.25
-1 8 -9 0.26 0.13
-2 8 -9 0.49 0.15
-3 8 -9 1.98 0.25
-4 -7 9 3.23 0.33
-3 -7 9 3.33 0.33
-2 -7 9 -0.09 0.14
-1 -7 9 0.17 0.13
0 -7 9 6.08 0.4
-1 7 -9 0.11 0.11
1 -7 9 0.06 0.14
-2 7 -9 0.23 0.12
-3 7 -9 0.08 0.12
-4 7 -9 10.5 0.56
-4 -6 9 0.16 0.17
-3 -6 9 6.36 0.43
-2 -6 9 0.52 0.16
-1 -6 9 1.6 0.23
0 -6 9 1.99 0.23
0 6 -9 1.79 0.19
-1 6 -9 1.06 0.17
1 -6 9 1.04 0.18
2 -6 9 0.56 0.14
-2 6 -9 0.5 0.14
-3 6 -9 0.58 0.16
-4 6 -9 1.34 0.21
-5 6 -9 9.77 0.54
-5 -5 9 1.05 0.21
-4 -5 9 1.44 0.23
-3 -5 9 1.23 0.21
-2 -5 9 2.31 0.25
1 5 -9 0.09 0.1
-1 -5 9 0.05 0.12
0 5 -9 1.79 0.19
0 -5 9 2.03 0.25
-1 5 -9 1.25 0.18
1 -5 9 1.18 0.2
-2 5 -9 19.77 0.81
2 -5 9 19.93 0.83
3 -5 9 0.74 0.17
-3 5 -9 0.7 0.16
4 -5 9 13.11 0.63
-4 5 -9 13.6 0.63
-5 5 -9 0.51 0.16
-6 5 -9 0.92 0.21
-6 -4 9 1.01 0.21
-5 -4 9 2.05 0.24
-4 -4 9 2.63 0.28
-3 -4 9 0.23 0.14
-2 -4 9 3.41 0.29
-1 -4 9 2.2 0.24
1 4 -9 2.07 0.19
0 4 -9 0.06 0.1
0 -4 9 0.1 0.13
-1 4 -9 0.03 0.09
1 -4 9 0.29 0.12
-2 4 -9 6.2 0.35
2 -4 9 5.85 0.37
-3 4 -9 0.17 0.12
3 -4 9 0.06 0.11
4 -4 9 5.28 0.35
-4 4 -9 5.05 0.34
5 -4 9 1.24 0.19
-5 4 -9 1.16 0.2
-6 4 -9 0.32 0.14
-7 4 -9 0.91 0.2
-6 -3 9 0.13 0.13
-5 -3 9 0.17 0.16
-4 -3 9 30.36 1.18
-3 -3 9 13.41 0.64
-2 -3 9 4.97 0.34
2 3 -9 4.94 0.27
-1 -3 9 1.95 0.23
1 3 -9 1.76 0.17
0 -3 9 11.84 0.57
0 3 -9 12.04 0.51
1 -3 9 3.37 0.28
-1 3 -9 4.2 0.26
2 -3 9 1.74 0.22
-2 3 -9 1.69 0.18
3 -3 9 0.48 0.16
-3 3 -9 0.7 0.15
-4 3 -9 1.2 0.19
4 -3 9 1.02 0.18
5 -3 9 10.04 0.52
-5 3 -9 10.42 0.51
6 -3 9 0.26 0.13
-6 3 -9 0.11 0.1
-7 3 -9 0.36 0.14
-6 -2 9 0.29 0.14
-5 -2 9 0.94 0.19
-4 -2 9 1.25 0.21
-3 -2 9 0.33 0.15
-2 -2 9 3.19 0.28
2 2 -9 3.17 0.21
-1 -2 9 11.27 0.54
1 2 -9 10.68 0.47
0 2 -9 1.3 0.15
0 -2 9 1.34 0.2
-1 2 -9 0.74 0.13
1 -2 9 0.57 0.16
-2 2 -9 3.43 0.24
2 -2 9 3.58 0.28
-3 2 -9 10.2 0.48
3 -2 9 10.63 0.51
-4 2 -9 46.3 1.62
4 -2 9 45.85 1.61
5 -2 9 0.29 0.11
-5 2 -9 0.08 0.12
6 -2 9 3.85 0.31
-6 2 -9 4.06 0.3
-7 2 -9 1.01 0.19
7 -2 9 0.89 0.19
-8 2 -9 0.1 0.11
-6 -1 9 2.13 0.25
-5 -1 9 0.3 0.13
-4 -1 9 0.41 0.15
3 1 -9 1.51 0.16
-3 -1 9 1.81 0.23
-2 -1 9 7.75 0.44
2 1 -9 8.12 0.37
-1 -1 9 17.14 0.73
1 1 -9 16.91 0.66
0 1 -9 35.63 1.25
0 -1 9 36.55 1.3
1 -1 9 0.32 0.13
-1 1 -9 0.24 0.11
-2 1 -9 0.34 0.11
2 -1 9 0.09 0.09
3 -1 9 3.61 0.28
-3 1 -9 3.55 0.25
-4 1 -9 8.66 0.42
4 -1 9 7.42 0.42
5 -1 9 0.79 0.17
-5 1 -9 1.16 0.17
6 -1 9 1.21 0.2
-6 1 -9 1.28 0.18
-7 1 -9 0.23 0.12
7 -1 9 0.08 0.13
8 -1 9 0.3 0.16
-8 1 -9 0.32 0.14
-5 0 9 0.16 0.13
-4 0 9 0.31 0.14
-3 0 9 4.72 0.32
3 0 -9 4.62 0.27
2 0 -9 19.19 0.74
-2 0 9 20.57 0.81
-1 0 9 0 0.09
1 0 -9 -0.05 0.08
0 0 -9 116.44 3.84
0 0 9 122.7 3.81
1 0 9 33.43 1.21
-1 0 -9 33.47 1.18
2 0 9 22.41 0.88
-2 0 -9 23.04 0.85
-3 0 -9 24.06 0.9
3 0 9 23.71 0.92
-4 0 -9 0.15 0.11
4 0 9 0.24 0.12
5 0 9 1.35 0.2
-5 0 -9 1 0.16
6 0 9 0.83 0.18
-6 0 -9 1.13 0.17
-7 0 -9 1.07 0.17
7 0 9 0.71 0.17
8 0 9 0.15 0.14
-8 0 -9 0.21 0.11
9 0 9 0 0.13
-4 1 9 1.13 0.19
3 -1 -9 0.07 0.09
-3 1 9 0.13 0.1
-2 1 9 8.81 0.45
2 -1 -9 9.13 0.41
1 -1 -9 0.92 0.14
-1 1 9 0.86 0.18
0 -1 -9 1.2 0.15
0 1 9 0.85 0.16
1 1 9 6.47 0.37
-1 -1 -9 6.79 0.34
-2 -1 -9 93.21 3.08
2 1 9 95.99 3.05
-3 -1 -9 20.35 0.79
3 1 9 21.51 0.83
4 1 9 17.74 0.74
-4 -1 -9 18.25 0.72
5 1 9 3.81 0.29
-5 -1 -9 3.42 0.24
-6 -1 -9 0.1 0.1
6 1 9 0 0.12
7 1 9 0.38 0.16
-7 -1 -9 0.45 0.13
8 1 9 1.56 0.24
-8 -1 -9 1.61 0.2
9 1 9 1.94 0.28
4 -2 -9 1.86 0.18
-3 2 9 22.46 0.87
3 -2 -9 22.18 0.84
2 -2 -9 0.12 0.09
-2 2 9 0.08 0.12
-1 2 9 14.66 0.62
1 -2 -9 13.69 0.57
0 -2 -9 35 1.24
0 2 9 35.87 1.27
1 2 9 2.08 0.21
-1 -2 -9 1.92 0.18
2 2 9 3.9 0.29
-2 -2 -9 4.49 0.26
3 2 9 7.96 0.41
-3 -2 -9 7.71 0.38
4 2 9 8.68 0.46
-4 -2 -9 9.04 0.42
-5 -2 -9 1.99 0.18
5 2 9 1.94 0.22
6 2 9 7.93 0.46
-6 -2 -9 8.66 0.42
-7 -2 -9 1.13 0.16
7 2 9 0.91 0.2
8 2 9 4.83 0.37
3 -3 -9 1.29 0.17
2 -3 -9 10.51 0.47
-2 3 9 10.49 0.49
1 -3 -9 7.55 0.37
-1 3 9 7.56 0.4
0 -3 -9 13.99 0.58
0 3 9 14.51 0.62
-1 -3 -9 80.15 2.62
1 3 9 79.79 2.6
-2 -3 -9 0.01 0.07
2 3 9 -0.16 0.09
-3 -3 -9 5.82 0.31
3 3 9 5.39 0.34
4 3 9 15.29 0.67
-4 -3 -9 15.19 0.62
-5 -3 -9 0.31 0.12
5 3 9 0.39 0.14
6 3 9 5.94 0.39
-6 -3 -9 6.29 0.34
7 3 9 3 0.29
-7 -3 -9 3.33 0.24
8 3 9 4.26 0.36
-5 4 9 1.08 0.19
-4 4 9 3.97 0.32
3 -4 -9 1.97 0.2
2 -4 -9 2.17 0.2
-1 4 9 2.2 0.21
1 -4 -9 2.35 0.2
0 4 9 14.06 0.61
0 -4 -9 14.57 0.6
1 4 9 0.45 0.14
-1 -4 -9 0.34 0.11
2 4 9 0.74 0.16
-2 -4 -9 0.86 0.14
3 4 9 24.94 0.96
-3 -4 -9 24.83 0.92
-4 -4 -9 3.17 0.22
4 4 9 3.17 0.26
5 4 9 3.83 0.31
-5 -4 -9 4.15 0.27
6 4 9 7.23 0.44
-6 -4 -9 7.5 0.38
7 4 9 0.85 0.21
8 4 9 2.35 0.3
-5 5 9 0.16 0.16
-4 5 9 2.23 0.25
-3 5 9 1.07 0.21
2 -5 -9 12.87 0.57
1 -5 -9 0.68 0.14
0 5 9 14.66 0.61
0 -5 -9 14.46 0.61
-1 -5 -9 10.16 0.46
1 5 9 9.89 0.48
2 5 9 10.35 0.5
-2 -5 -9 10.82 0.48
-3 -5 -9 2.29 0.2
3 5 9 2.31 0.22
4 5 9 11.56 0.56
-4 -5 -9 11.98 0.52
5 5 9 4.81 0.34
-5 -5 -9 4.92 0.28
6 5 9 16.69 0.78
-6 -5 -9 18.68 0.71
7 5 9 0.84 0.21
8 5 9 17.26 0.82
-4 6 9 0.81 0.2
-3 6 9 1.24 0.22
1 -6 -9 3.68 0.27
0 -6 -9 0.47 0.12
-1 -6 -9 4.82 0.3
1 6 9 5.4 0.32
-2 -6 -9 12.19 0.52
2 6 9 11.28 0.53
-3 -6 -9 0.19 0.1
3 6 9 0.34 0.14
4 6 9 2.9 0.26
-4 -6 -9 3.11 0.22
5 6 9 0.01 0.13
-5 -6 -9 -0.06 0.09
6 6 9 0.58 0.18
7 6 9 1.15 0.21
8 6 9 8.96 0.54
-3 7 9 0.44 0.19
-2 7 9 0.27 0.16
0 -7 -9 -0.11 0.08
-1 -7 -9 0.45 0.13
-2 -7 -9 0.5 0.12
-3 -7 -9 0.14 0.1
3 7 9 0.03 0.11
4 7 9 0.44 0.16
-4 -7 -9 0.35 0.12
5 7 9 0.96 0.2
-5 -7 -9 0.64 0.13
6 7 9 2.18 0.27
7 7 9 1.93 0.27
-2 8 9 0 0.15
-1 8 9 1.1 0.22
-1 -8 -9 0.65 0.16
-2 -8 -9 0.12 0.09
-3 -8 -9 0.11 0.09
-4 -8 -9 2.02 0.2
4 8 9 2.02 0.25
5 8 9 0.7 0.2
6 8 9 -0.12 0.13
7 8 9 0.34 0.16
-1 9 9 0.51 0.18
0 9 9 0.9 0.22
1 9 9 4.04 0.35
-2 -9 -9 7.27 0.41
-3 -9 -9 1.78 0.2
-4 -9 -9 0.54 0.13
5 9 9 1.49 0.23
6 9 9 5.09 0.38
1 10 9 0.5 0.19
2 10 9 4.18 0.35
3 10 9 2.73 0.29
2 11 9 0.85 0.21
-1 -8 10 0.11 0.16
0 -8 10 2.3 0.3
-2 8 -10 0.22 0.15
-2 -7 10 1 0.22
-1 -7 10 0.76 0.19
0 -7 10 0.42 0.16
1 -7 10 -0.02 0.13
-1 7 -10 0.24 0.13
-2 7 -10 0.72 0.16
-3 7 -10 2.84 0.27
-3 -6 10 4.61 0.38
-2 -6 10 0.22 0.15
-1 -6 10 1.45 0.25
0 6 -10 0.59 0.15
0 -6 10 0.6 0.19
-1 6 -10 3.93 0.29
1 -6 10 3.9 0.33
2 -6 10 -0.01 0.14
-2 6 -10 0.04 0.09
-3 6 -10 0.1 0.12
-4 6 -10 9.12 0.51
-4 -5 10 0.75 0.21
-3 -5 10 0.27 0.16
-2 -5 10 0.32 0.16
-1 -5 10 0.09 0.13
0 -5 10 4.72 0.35
0 5 -10 4.46 0.29
-1 5 -10 1.44 0.19
1 -5 10 1.16 0.2
2 -5 10 1.47 0.23
-2 5 -10 1.31 0.2
3 -5 10 10.85 0.56
-3 5 -10 10.56 0.54
4 -5 10 1.31 0.22
-4 5 -10 1.33 0.2
-5 5 -10 6.06 0.4
-4 -4 10 3.92 0.34
-3 -4 10 0.18 0.15
-2 -4 10 0.62 0.17
-1 -4 10 0.27 0.12
1 4 -10 0.09 0.09
0 -4 10 1.22 0.22
0 4 -10 1.36 0.18
-1 4 -10 -0.13 0.09
1 -4 10 0.17 0.14
2 -4 10 0.19 0.15
-2 4 -10 0.21 0.12
-3 4 -10 0.79 0.17
3 -4 10 1.18 0.2
-4 4 -10 5.02 0.35
4 -4 10 5.08 0.36
-5 4 -10 0.59 0.16
5 -4 10 0.43 0.17
-6 4 -10 2.57 0.27
-5 -3 10 0.21 0.13
-4 -3 10 0.08 0.12
-3 -3 10 1.4 0.23
-2 -3 10 2.27 0.25
-1 -3 10 0.89 0.19
1 3 -10 0.75 0.14
0 3 -10 13.33 0.57
0 -3 10 13.67 0.64
-1 3 -10 0.22 0.11
1 -3 10 0.09 0.12
-2 3 -10 0.08 0.1
2 -3 10 0.15 0.1
-3 3 -10 5.59 0.34
3 -3 10 5.13 0.35
4 -3 10 0.12 0.11
-4 3 -10 0.21 0.14
5 -3 10 0.73 0.16
-5 3 -10 0.42 0.14
6 -3 10 1.47 0.22
-6 3 -10 1.55 0.23
-5 -2 10 0.16 0.14
-4 -2 10 1.77 0.24
-3 -2 10 4.76 0.35
2 2 -10 24.65 0.91
-2 -2 10 24.88 1
-1 -2 10 6.98 0.41
1 2 -10 6.38 0.34
0 2 -10 0.44 0.12
0 -2 10 0.25 0.15
-1 2 -10 4.85 0.29
1 -2 10 4.86 0.34
-2 2 -10 4.36 0.29
2 -2 10 4.67 0.33
-3 2 -10 0.32 0.11
3 -2 10 0.1 0.13
-4 2 -10 1 0.17
4 -2 10 0.95 0.18
-5 2 -10 0.09 0.11
5 -2 10 0.1 0.13
-6 2 -10 1.66 0.2
6 -2 10 1.4 0.21
-7 2 -10 0.34 0.14
7 -2 10 0.27 0.15
-6 -1 10 0.4 0.15
-5 -1 10 0.44 0.16
-4 -1 10 0.56 0.16
-3 -1 10 0.04 0.14
-2 -1 10 0.09 0.12
2 1 -10 0.12 0.1
1 1 -10 6.26 0.33
-1 -1 10 5.7 0.38
0 1 -10 12.55 0.54
0 -1 10 12.6 0.6
1 -1 10 0.64 0.17
-1 1 -10 0.46 0.13
2 -1 10 2.05 0.24
-2 1 -10 1.5 0.19
3 -1 10 5.55 0.36
-3 1 -10 5.48 0.33
-4 1 -10 5.83 0.36
4 -1 10 6.15 0.38
5 -1 10 0.28 0.13
-5 1 -10 0.26 0.1
-6 1 -10 5.63 0.35
6 -1 10 5.25 0.37
-7 1 -10 1.79 0.22
7 -1 10 1.65 0.24
-8 1 -10 0.23 0.13
8 -1 10 0.16 0.14
-5 0 10 4.15 0.32
-4 0 10 1.45 0.21
-3 0 10 2.44 0.25
3 0 -10 1.93 0.18
2 0 -10 2.06 0.19
-2 0 10 1.99 0.24
1 0 -10 5.77 0.32
-1 0 10 5.95 0.38
0 0 -10 3.77 0.25
0 0 10 3.74 0.3
1 0 10 7.14 0.41
-1 0 -10 7.28 0.37
2 0 10 0.51 0.15
-2 0 -10 0.57 0.13
-3 0 -10 0.07 0.1
3 0 10 -0.06 0.11
-4 0 -10 25.53 0.97
4 0 10 24.98 0.99
-5 0 -10 2.16 0.21
5 0 10 2.38 0.24
-6 0 -10 1.19 0.19
6 0 10 0.66 0.18
-7 0 -10 2.04 0.22
7 0 10 1.66 0.24
8 0 10 6.72 0.45
-8 0 -10 7.46 0.43
-4 1 10 5.27 0.36
-3 1 10 4.01 0.3
3 -1 -10 3.77 0.25
2 -1 -10 1.67 0.18
-2 1 10 1.45 0.22
1 -1 -10 0 0.08
-1 1 10 0.05 0.11
0 -1 -10 1.46 0.17
0 1 10 1.56 0.22
-1 -1 -10 9.62 0.46
1 1 10 10.64 0.52
2 1 10 32.35 1.18
-2 -1 -10 30.9 1.14
3 1 10 12.19 0.58
-3 -1 -10 11.9 0.53
4 1 10 1.71 0.22
-4 -1 -10 1.62 0.19
-5 -1 -10 0.65 0.14
5 1 10 0.63 0.16
-6 -1 -10 0.12 0.09
6 1 10 0.09 0.14
7 1 10 2.93 0.29
-7 -1 -10 3.07 0.26
-8 -1 -10 1.21 0.19
8 1 10 1.11 0.22
-3 2 10 1.3 0.19
3 -2 -10 0.91 0.15
2 -2 -10 0.2 0.11
-2 2 10 0.19 0.1
1 -2 -10 5.33 0.31
-1 2 10 5.4 0.35
0 -2 -10 5.73 0.32
0 2 10 6.32 0.38
-1 -2 -10 69.82 2.38
1 2 10 73.5 2.39
-2 -2 -10 7.61 0.39
2 2 10 7.9 0.43
-3 -2 -10 5.5 0.32
3 2 10 6.17 0.38
-4 -2 -10 24.48 0.91
4 2 10 22.61 0.93
-5 -2 -10 1.55 0.17
5 2 10 1.46 0.21
-6 -2 -10 0.63 0.14
6 2 10 0.61 0.17
-7 -2 -10 0.1 0.11
7 2 10 -0.01 0.13
8 2 10 0.48 0.19
3 -3 -10 0.14 0.11
2 -3 -10 4.76 0.3
-2 3 10 5.33 0.34
-1 3 10 2.73 0.25
1 -3 -10 2.43 0.21
0 -3 -10 1.42 0.18
0 3 10 1.61 0.21
1 3 10 12.14 0.57
-1 -3 -10 12.35 0.54
2 3 10 5.88 0.37
-2 -3 -10 5.78 0.32
-3 -3 -10 9.65 0.45
3 3 10 9.11 0.48
4 3 10 22.25 0.93
-4 -3 -10 24.53 0.9
-5 -3 -10 5.49 0.31
5 3 10 4.74 0.35
6 3 10 2.43 0.26
-6 -3 -10 2.9 0.23
7 3 10 2.27 0.28
-7 -3 -10 2.48 0.22
8 3 10 1.34 0.25
-4 4 10 0.95 0.21
3 -4 -10 1.47 0.19
2 -4 -10 6.16 0.35
-1 4 10 2.62 0.25
1 -4 -10 2.11 0.21
0 4 10 2.25 0.24
0 -4 -10 2.4 0.21
-1 -4 -10 7.54 0.39
1 4 10 7.72 0.42
2 4 10 10.78 0.52
-2 -4 -10 10.6 0.49
-3 -4 -10 2.59 0.21
3 4 10 2.57 0.24
4 4 10 1.47 0.21
-4 -4 -10 1.57 0.18
5 4 10 0.53 0.17
-5 -4 -10 0.64 0.13
-6 -4 -10 12.71 0.55
6 4 10 11.29 0.6
7 4 10 0.23 0.16
8 4 10 0.56 0.2
-4 5 10 0 0.17
2 -5 -10 0.27 0.12
1 -5 -10 3.47 0.26
0 -5 -10 2.1 0.2
-1 -5 -10 9.16 0.44
1 5 10 8.9 0.47
2 5 10 9.06 0.47
-2 -5 -10 9.41 0.45
-3 -5 -10 0.29 0.1
3 5 10 0.53 0.14
4 5 10 3.9 0.32
-4 -5 -10 4.24 0.27
-5 -5 -10 2.6 0.21
5 5 10 2.12 0.24
6 5 10 3.47 0.31
-6 -5 -10 3.7 0.26
7 5 10 0.06 0.14
-3 6 10 1.12 0.24
1 -6 -10 1.63 0.19
0 -6 -10 3.13 0.25
-1 -6 -10 5.8 0.34
2 6 10 12.57 0.58
-2 -6 -10 12.14 0.55
3 6 10 4.2 0.31
-3 -6 -10 4.23 0.28
4 6 10 0.12 0.12
-4 -6 -10 0.12 0.1
-5 -6 -10 2.83 0.23
5 6 10 3.11 0.3
6 6 10 2.15 0.27
-6 -6 -10 2.14 0.2
7 6 10 0.16 0.14
-2 7 10 0.47 0.19
1 -7 -10 2.96 0.25
0 -7 -10 0.47 0.13
-1 -7 -10 0.17 0.1
-2 -7 -10 0.12 0.12
-3 -7 -10 0.58 0.12
3 7 10 0.43 0.14
-4 -7 -10 0.57 0.13
4 7 10 0.29 0.15
-5 -7 -10 0.87 0.14
5 7 10 0.45 0.17
6 7 10 0.33 0.15
7 7 10 0.07 0.15
-1 8 10 1.22 0.25
-1 -8 -10 0.33 0.11
-2 -8 -10 4.55 0.31
-3 -8 -10 4.03 0.29
4 8 10 5.53 0.38
-4 -8 -10 5.25 0.33
5 8 10 3.84 0.33
6 8 10 0.21 0.14
0 9 10 0.04 0.16
-2 -9 -10 0.19 0.11
-3 -9 -10 0.11 0.11
-4 -9 -10 1.05 0.17
6 9 10 0.32 0.15
2 10 10 0.1 0.16
0 -7 11 0.09 0.15
-1 7 -11 0.2 0.12
1 -7 11 0.04 0.16
-1 -6 11 6.02 0.43
0 -6 11 1.85 0.28
-1 6 -11 0.37 0.13
1 -6 11 -0.06 0.12
2 -6 11 0.69 0.2
-2 6 -11 0.96 0.19
-3 6 -11 1.3 0.22
-2 -5 11 0.54 0.18
-1 -5 11 0.64 0.19
0 5 -11 0.09 0.13
0 -5 11 0.11 0.13
1 -5 11 0.08 0.16
-1 5 -11 0.28 0.13
2 -5 11 1.08 0.23
-2 5 -11 0.83 0.17
3 -5 11 5.92 0.42
-3 5 -11 5.51 0.37
-4 5 -11 18.66 0.83
4 -5 11 18.92 0.85
-3 -4 11 5.54 0.4
-2 -4 11 1.22 0.23
-1 -4 11 0.5 0.17
0 4 -11 3.12 0.25
0 -4 11 3.1 0.29
1 -4 11 0.38 0.17
-1 4 -11 0.66 0.17
-2 4 -11 0.4 0.15
2 -4 11 0.57 0.19
3 -4 11 14.32 0.69
-3 4 -11 14.08 0.65
4 -4 11 1.9 0.26
-4 4 -11 1.84 0.23
5 -4 11 0.66 0.18
-4 -3 11 0.39 0.17
-3 -3 11 0.03 0.12
-2 -3 11 4.42 0.35
1 3 -11 0.3 0.12
-1 -3 11 0.1 0.13
0 -3 11 3.49 0.31
0 3 -11 3.59 0.26
-1 3 -11 1.25 0.19
1 -3 11 1.5 0.25
-2 3 -11 0.15 0.13
2 -3 11 0.21 0.16
-3 3 -11 -0.04 0.11
3 -3 11 0.21 0.14
4 -3 11 1.43 0.23
-4 3 -11 1.38 0.2
-5 3 -11 2.31 0.25
5 -3 11 2.14 0.27
6 -3 11 2.3 0.27
-4 -2 11 0.77 0.19
-3 -2 11 1.28 0.22
-2 -2 11 0.33 0.15
1 2 -11 0.29 0.11
-1 -2 11 0.24 0.15
0 -2 11 0.75 0.17
0 2 -11 0.55 0.14
1 -2 11 2.61 0.25
-1 2 -11 2.13 0.21
-2 2 -11 0.06 0.11
2 -2 11 0.04 0.1
3 -2 11 0.02 0.12
-3 2 -11 -0.06 0.11
4 -2 11 0.6 0.16
-4 2 -11 0.71 0.16
5 -2 11 0.04 0.11
-5 2 -11 0.01 0.11
-6 2 -11 4.09 0.31
6 -2 11 3.58 0.32
7 -2 11 1.3 0.22
-5 -1 11 0.69 0.18
-4 -1 11 0.68 0.17
-3 -1 11 0.42 0.15
2 1 -11 0.81 0.14
-2 -1 11 0.64 0.18
1 1 -11 2.7 0.22
-1 -1 11 2.66 0.27
0 -1 11 7.18 0.44
0 1 -11 6.99 0.37
1 -1 11 2.24 0.25
-1 1 -11 2.15 0.21
-2 1 -11 1.55 0.2
2 -1 11 1.95 0.25
3 -1 11 0.38 0.15
-3 1 -11 0.19 0.12
4 -1 11 0.92 0.2
-4 1 -11 0.96 0.17
-5 1 -11 0.54 0.16
5 -1 11 0.71 0.18
-6 1 -11 0.06 0.1
6 -1 11 0.11 0.13
7 -1 11 0.1 0.13
-7 1 -11 0.13 0.13
-4 0 11 1.46 0.22
-3 0 11 3.3 0.29
2 0 -11 0.52 0.14
-2 0 11 0.74 0.18
1 0 -11 0.09 0.09
-1 0 11 -0.02 0.12
0 0 11 4.63 0.34
0 0 -11 4.55 0.29
-1 0 -11 1.95 0.19
1 0 11 2.29 0.27
2 0 11 0.84 0.18
-2 0 -11 0.81 0.16
3 0 11 -0.02 0.12
-3 0 -11 0.1 0.11
-4 0 -11 1.89 0.2
4 0 11 1.65 0.22
-5 0 -11 0.25 0.13
5 0 11 0.18 0.14
6 0 11 0.6 0.17
-6 0 -11 0.89 0.17
7 0 11 0.86 0.2
-7 0 -11 1.72 0.22
3 -1 -11 0.19 0.11
-3 1 11 0.2 0.14
2 -1 -11 3.43 0.25
-2 1 11 3.52 0.3
1 -1 -11 0.49 0.14
-1 1 11 0.84 0.19
0 -1 -11 2.42 0.21
0 1 11 2.77 0.27
1 1 11 0.57 0.17
-1 -1 -11 0.73 0.15
-2 -1 -11 8.21 0.43
2 1 11 8.88 0.48
-3 -1 -11 4.75 0.3
3 1 11 4.55 0.34
-4 -1 -11 2.36 0.21
4 1 11 2.41 0.25
-5 -1 -11 0.03 0.09
5 1 11 0.35 0.16
-6 -1 -11 0.06 0.11
6 1 11 0.12 0.13
-7 -1 -11 0.38 0.13
7 1 11 0.24 0.14
-8 -1 -11 0.5 0.15
3 -2 -11 2.67 0.23
2 -2 -11 0.06 0.1
-2 2 11 0.28 0.15
-1 2 11 0.36 0.15
1 -2 -11 0.34 0.13
0 2 11 4.78 0.34
0 -2 -11 4.57 0.3
1 2 11 17.11 0.75
-1 -2 -11 17.14 0.7
2 2 11 4.75 0.34
-2 -2 -11 4.69 0.3
3 2 11 1.32 0.21
-3 -2 -11 1.36 0.17
4 2 11 0.52 0.15
-4 -2 -11 0.59 0.14
5 2 11 1.53 0.24
-5 -2 -11 1.68 0.19
6 2 11 1.29 0.22
-6 -2 -11 1.58 0.18
7 2 11 0.39 0.17
-7 -2 -11 0.61 0.15
3 -3 -11 0.11 0.11
2 -3 -11 1.51 0.19
-1 3 11 5.71 0.37
1 -3 -11 5.85 0.34
0 3 11 13.68 0.63
0 -3 -11 12.32 0.57
1 3 11 2.49 0.25
-1 -3 -11 2.33 0.22
-2 -3 -11 1.18 0.16
2 3 11 1.27 0.2
3 3 11 0.35 0.14
-3 -3 -11 0.33 0.11
4 3 11 0.44 0.15
-4 -3 -11 0.47 0.12
5 3 11 -0.05 0.11
-5 -3 -11 0.03 0.1
-6 -3 -11 2.14 0.21
6 3 11 1.71 0.25
-7 -3 -11 1.35 0.18
7 3 11 0.98 0.22
-4 4 11 0.13 0.16
3 -4 -11 0.97 0.17
2 -4 -11 0.91 0.16
1 -4 -11 1.54 0.2
0 -4 -11 2.48 0.23
0 4 11 3.14 0.28
-1 -4 -11 0.03 0.1
1 4 11 0.09 0.13
-2 -4 -11 7.37 0.39
2 4 11 7.25 0.43
3 4 11 -0.03 0.1
-3 -4 -11 0.21 0.11
4 4 11 -0.06 0.12
-4 -4 -11 0.04 0.08
-5 -4 -11 1.34 0.19
5 4 11 1.17 0.21
6 4 11 2.48 0.26
-6 -4 -11 2.74 0.24
7 4 11 0.12 0.15
-7 -4 -11 0.14 0.12
2 -5 -11 3.38 0.27
1 -5 -11 0.68 0.16
0 -5 -11 1.05 0.17
-1 -5 -11 0.36 0.12
1 5 11 0.47 0.15
-2 -5 -11 0.13 0.11
2 5 11 0.21 0.16
3 5 11 1.55 0.23
-3 -5 -11 1.69 0.19
4 5 11 0.85 0.19
-4 -5 -11 1.24 0.18
5 5 11 0.06 0.13
-5 -5 -11 0.02 0.08
6 5 11 0.32 0.14
-6 -5 -11 0.33 0.12
2 -6 -11 0.05 0.12
1 -6 -11 0.51 0.15
0 -6 -11 0.16 0.1
-1 -6 -11 0.46 0.14
2 6 11 0.17 0.13
-2 -6 -11 0.12 0.11
3 6 11 3.84 0.3
-3 -6 -11 3.78 0.28
-4 -6 -11 0.42 0.13
4 6 11 0.48 0.14
-5 -6 -11 0.48 0.13
5 6 11 0.47 0.17
-6 -6 -11 0.37 0.12
6 6 11 0.5 0.17
1 -7 -11 0.28 0.15
0 -7 -11 0.23 0.14
-1 -7 -11 1.11 0.18
-2 -7 -11 0.62 0.14
-3 -7 -11 0.41 0.14
3 7 11 0.2 0.15
4 7 11 0.31 0.14
-4 -7 -11 0.39 0.13
-5 -7 -11 0.44 0.14
5 7 11 0.36 0.14
6 7 11 0.3 0.14
-1 -8 -11 0.81 0.18
-2 -8 -11 -0.01 0.11
-3 -8 -11 -0.06 0.09
-4 -8 -11 0.9 0.16
-5 -8 -11 0.13 0.1
5 8 11 -0.05 0.13
-3 -9 -11 0.17 0.11
-4 -9 -11 0.15 0.12
-1 6 -12 1.31 0.21
-1 5 -12 0.27 0.14
1 -5 12 0.44 0.17
2 -5 12 0.29 0.17
-2 5 -12 0.32 0.14
3 -5 12 0.8 0.21
-1 -4 12 1.72 0.28
0 4 -12 1.77 0.2
0 -4 12 1.8 0.27
1 -4 12 0.12 0.17
-1 4 -12 0.17 0.12
2 -4 12 -0.05 0.17
-2 4 -12 0.2 0.13
-3 4 -12 -0.01 0.12
3 -4 12 0.26 0.17
4 -4 12 0.06 0.16
-2 -3 12 1.55 0.25
-1 -3 12 0.28 0.16
0 3 -12 4.83 0.32
0 -3 12 5.03 0.39
-1 3 -12 5.09 0.34
1 -3 12 5.7 0.41
-2 3 -12 0.51 0.15
2 -3 12 0.59 0.19
3 -3 12 1.04 0.22
-3 3 -12 1.08 0.2
-4 3 -12 1.72 0.23
4 -3 12 1.44 0.25
5 -3 12 5.85 0.42
-3 -2 12 0.62 0.18
-2 -2 12 1.47 0.24
1 2 -12 3.09 0.25
-1 -2 12 3.45 0.31
0 -2 12 1.41 0.23
0 2 -12 1.25 0.18
-1 2 -12 0.08 0.11
1 -2 12 0.49 0.19
2 -2 12 5.16 0.39
-2 2 -12 5.61 0.35
3 -2 12 0.13 0.12
-3 2 -12 0.13 0.12
-4 2 -12 0.2 0.14
4 -2 12 0.28 0.15
5 -2 12 0.01 0.12
-5 2 -12 -0.06 0.11
-3 -1 12 1.54 0.23
-2 -1 12 1.05 0.21
1 1 -12 0.19 0.11
-1 -1 12 0.16 0.13
0 1 -12 2.17 0.22
0 -1 12 2.02 0.26
-1 1 -12 4.11 0.29
1 -1 12 4.64 0.35
-2 1 -12 1.4 0.2
2 -1 12 1.79 0.25
3 -1 12 0.72 0.19
-3 1 -12 0.98 0.18
-4 1 -12 0.05 0.11
4 -1 12 0.2 0.15
-5 1 -12 1.04 0.18
5 -1 12 0.98 0.23
6 -1 12 0.11 0.14
-4 0 12 1.67 0.25
-3 0 12 2.23 0.26
2 0 -12 0.31 0.13
-2 0 12 0.42 0.15
-1 0 12 16.12 0.75
1 0 -12 15.71 0.68
0 0 -12 5.02 0.32
0 0 12 5.18 0.37
-1 0 -12 1.68 0.19
1 0 12 1.63 0.24
2 0 12 0.12 0.12
-2 0 -12 0.1 0.11
3 0 12 6.29 0.41
-3 0 -12 6.39 0.38
4 0 12 1.74 0.25
-4 0 -12 1.6 0.2
-5 0 -12 3.94 0.3
5 0 12 3.89 0.34
6 0 12 0.75 0.21
-6 0 -12 0.91 0.18
-3 1 12 0.78 0.17
-2 1 12 1.54 0.24
2 -1 -12 1.59 0.19
-1 1 12 3.97 0.33
1 -1 -12 3.9 0.28
0 1 12 3.41 0.31
0 -1 -12 3.57 0.27
-1 -1 -12 0.13 0.1
1 1 12 0.42 0.16
-2 -1 -12 0.54 0.15
2 1 12 0.09 0.12
-3 -1 -12 0.43 0.14
3 1 12 0.65 0.17
4 1 12 0.52 0.19
-4 -1 -12 0.32 0.14
5 1 12 0.2 0.14
-5 -1 -12 0.25 0.12
-6 -1 -12 0.41 0.14
6 1 12 -0.02 0.15
3 -2 -12 3.13 0.25
-2 2 12 0.3 0.15
2 -2 -12 0.28 0.13
-1 2 12 1.84 0.24
1 -2 -12 1.45 0.2
0 2 12 10.5 0.55
0 -2 -12 9.49 0.49
-1 -2 -12 13.29 0.6
1 2 12 13.19 0.65
-2 -2 -12 1.98 0.2
2 2 12 2.09 0.25
3 2 12 -0.01 0.09
-3 -2 -12 0.02 0.09
4 2 12 0.11 0.12
-4 -2 -12 0.1 0.12
5 2 12 0.19 0.14
-5 -2 -12 0.16 0.12
-6 -2 -12 1.85 0.22
6 2 12 1.6 0.26
3 -3 -12 2.01 0.22
2 -3 -12 0.06 0.11
-1 3 12 2.42 0.26
1 -3 -12 2.7 0.23
0 3 12 -0.07 0.13
0 -3 -12 -0.03 0.12
1 3 12 1.39 0.23
-1 -3 -12 1.47 0.19
2 3 12 0.63 0.17
-2 -3 -12 0.61 0.15
-3 -3 -12 0.8 0.15
3 3 12 0.77 0.18
-4 -3 -12 0.66 0.16
4 3 12 0.69 0.18
5 3 12 0.75 0.17
-5 -3 -12 0.81 0.16
-6 -3 -12 0.06 0.12
6 3 12 0.18 0.14
-7 -3 -12 2.19 0.23
2 -4 -12 2.54 0.24
1 -4 -12 0.14 0.12
0 4 12 2.2 0.25
0 -4 -12 1.99 0.21
-1 -4 -12 0.51 0.14
1 4 12 0.48 0.17
2 4 12 0.07 0.12
-2 -4 -12 0.02 0.1
3 4 12 2.02 0.23
-3 -4 -12 2.04 0.21
-4 -4 -12 1.7 0.19
4 4 12 1.51 0.23
-5 -4 -12 2.27 0.22
5 4 12 1.71 0.25
6 4 12 0.38 0.15
-6 -4 -12 0.22 0.14
-7 -4 -12 0.27 0.13
1 -5 -12 2.45 0.24
0 -5 -12 0.03 0.12
-1 -5 -12 0.52 0.15
1 5 12 0.56 0.18
-2 -5 -12 0.08 0.11
2 5 12 0.2 0.12
3 5 12 0.17 0.13
-3 -5 -12 -0.04 0.1
-4 -5 -12 0.5 0.14
4 5 12 0.58 0.16
-5 -5 -12 0.16 0.11
5 5 12 0.29 0.14
-6 -5 -12 0.02 0.12
0 -6 -12 0.34 0.14
-1 -6 -12 4.21 0.31
2 6 12 4.66 0.35
-2 -6 -12 4.91 0.34
3 6 12 0.17 0.15
-3 -6 -12 0.11 0.12
-4 -6 -12 0.05 0.12
4 6 12 0.19 0.13
5 6 12 0.32 0.14
-5 -6 -12 0.31 0.15
-6 -6 -12 0.62 0.15
-2 -7 -12 0.21 0.13
-3 -7 -12 1.71 0.22
-4 -7 -12 1.29 0.2
4 7 12 0.94 0.21
-5 -7 -12 2.23 0.23
5 7 12 2.21 0.26
0 3 -13 2.69 0.25
-1 3 -13 3.31 0.27
0 2 -13 1.49 0.2
-1 2 -13 8.02 0.44
1 -2 13 8.16 0.52
-2 2 -13 4.51 0.32
2 -2 13 4.29 0.38
-1 -1 13 -0.02 0.14
1 1 -13 0.29 0.13
0 -1 13 0.18 0.13
0 1 -13 0.04 0.12
1 -1 13 0.45 0.16
-1 1 -13 0.45 0.15
-2 1 -13 0.04 0.12
2 -1 13 0.15 0.16
-3 1 -13 2.53 0.25
3 -1 13 2.96 0.32
1 0 -13 0.39 0.14
-1 0 13 0.66 0.18
0 0 -13 10.18 0.52
0 0 13 11.21 0.6
-1 0 -13 2.6 0.25
1 0 13 3 0.3
2 0 13 3.36 0.31
-2 0 -13 3.4 0.28
-3 0 -13 0.4 0.14
3 0 13 0.34 0.16
-4 0 -13 4.17 0.31
4 0 13 3.78 0.34
2 -1 -13 0.48 0.15
-2 1 13 0.25 0.13
1 -1 -13 4.6 0.32
-1 1 13 4.67 0.36
0 1 13 3.13 0.3
0 -1 -13 2.32 0.24
-1 -1 -13 0 0.11
1 1 13 0.2 0.13
2 1 13 0.22 0.14
-2 -1 -13 0.1 0.12
3 1 13 3.3 0.3
-3 -1 -13 3.03 0.26
-4 -1 -13 1.16 0.2
4 1 13 1.15 0.22
-2 2 13 0.17 0.13
2 -2 -13 0.17 0.13
1 -2 -13 0.49 0.15
-1 2 13 0.32 0.15
0 2 13 1.08 0.21
0 -2 -13 0.89 0.18
1 2 13 0.17 0.13
-1 -2 -13 0.19 0.13
-2 -2 -13 0.81 0.17
2 2 13 1.02 0.2
-3 -2 -13 0.37 0.14
3 2 13 0.56 0.18
4 2 13 2.62 0.27
-4 -2 -13 2.68 0.25
1 -3 -13 0.11 0.13
-1 3 13 0.24 0.15
0 3 13 1.32 0.21
0 -3 -13 1.44 0.2
1 3 13 0.4 0.16
-1 -3 -13 0.51 0.15
-2 -3 -13 0.34 0.14
2 3 13 0.24 0.13
-3 -3 -13 1.61 0.21
3 3 13 1.55 0.25
-4 -3 -13 0.21 0.14
4 3 13 0.27 0.14
0 4 13 0.48 0.17
0 -4 -13 0.22 0.14
-1 -4 -13 4.48 0.33
1 4 13 4.48 0.34
2 4 13 2.07 0.24
-2 -4 -13 2.02 0.23
-3 -4 -13 1.53 0.22
3 4 13 1.43 0.23
-4 -4 -13 0.11 0.11
4 4 13 0.19 0.12
2 5 13 0.24 0.14
3 5 13 2.09 0.24
4 5 13 1.28 0.23
3 6 13 4.01 0.33
