#------------------------------------------------------------------------------
#$Date: 2019-11-26 03:38:48 +0200 (Tue, 26 Nov 2019) $
#$Revision: 242524 $
#$URL: file:///home/coder/svn-repositories/cod/cif/4/13/25/4132570.cif $
#------------------------------------------------------------------------------
#
# This file is available in the Crystallography Open Database (COD),
# http://www.crystallography.net/
#
# All data on this site have been placed in the public domain by the
# contributors.
#
data_4132570
loop_
_publ_author_name
'Yuan, Shuai'
'Zhang, Peng'
'Zhang, Liangliang'
'Garcia-Esparza, Angel T'
'Sokaras, Dimosthenis'
'Qin, Jun-Sheng'
'Feng, Liang'
'Day, Gregory S.'
'Chen, Wenmiao'
'Drake, Hannah F.'
'Elumalai, Palani'
'Madrahimov, Sherzod T.'
'Sun, Daofeng'
'Zhou, Hong-Cai'
_publ_section_title
;
 Exposed Equatorial Positions of Metal Centers via Sequential Ligand
 Elimination and Installation in MOFs.
;
_journal_issue                   34
_journal_name_full               'Journal of the American Chemical Society'
_journal_page_first              10814
_journal_page_last               10819
_journal_paper_doi               10.1021/jacs.8b04886
_journal_volume                  140
_journal_year                    2018
_chemical_formula_moiety         'C12 H16 Cu N2 O8'
_chemical_formula_sum            'C12 H14 Cu N2 O8'
_chemical_formula_weight         377.79
_space_group_crystal_system      triclinic
_space_group_IT_number           2
_space_group_name_Hall           '-P 1'
_space_group_name_H-M_alt        'P -1'
_atom_sites_solution_hydrogens   mixed
_atom_sites_solution_primary     iterative
_audit_creation_date             2018-05-04
_audit_creation_method
;
Olex2 1.2
(compiled 2018.04.26 svn.r3504 for OlexSys, GUI svn.r5492)
;
_cell_angle_alpha                98.9958(18)
_cell_angle_beta                 105.0530(17)
_cell_angle_gamma                108.6981(18)
_cell_formula_units_Z            1
_cell_length_a                   6.2994(4)
_cell_length_b                   6.7911(4)
_cell_length_c                   9.1637(5)
_cell_measurement_reflns_used    5116
_cell_measurement_temperature    100(2)
_cell_measurement_theta_max      27.500
_cell_measurement_theta_min      2.385
_cell_volume                     346.07(4)
_computing_cell_refinement       'SAINT v8.37A (Bruker, 2015)'
_computing_data_reduction        'SAINT v8.37A (Bruker, 2015)'
_computing_molecular_graphics    'Olex2 (Dolomanov et al., 2009)'
_computing_publication_material  'Olex2 (Dolomanov et al., 2009)'
_computing_structure_refinement  'XL (Sheldrick, 2008)'
_computing_structure_solution
;
Superflip (Palatinus & Chapuis, 2007;Palatinus & van der Lee, 2008;
Palatinus et al., 2012)
;
_diffrn_ambient_temperature      99.99
_diffrn_detector                 'Bruker APEX2 area detector'
_diffrn_detector_area_resol_mean 7.9
_diffrn_detector_type            'CCD area detector'
_diffrn_measured_fraction_theta_full 0.999
_diffrn_measured_fraction_theta_max 0.997
_diffrn_measurement_device       'three-circle diffractometer'
_diffrn_measurement_device_type  'Bruker SMART APEX2 area detector'
_diffrn_measurement_method       '\w and \f scans'
_diffrn_radiation_monochromator  'mirror optics'
_diffrn_radiation_probe          x-ray
_diffrn_radiation_type           MoK\a
_diffrn_radiation_wavelength     0.71073
_diffrn_reflns_av_R_equivalents  0.0319
_diffrn_reflns_av_unetI/netI     0.0318
_diffrn_reflns_Laue_measured_fraction_full 0.999
_diffrn_reflns_Laue_measured_fraction_max 0.997
_diffrn_reflns_limit_h_max       8
_diffrn_reflns_limit_h_min       -8
_diffrn_reflns_limit_k_max       8
_diffrn_reflns_limit_k_min       -8
_diffrn_reflns_limit_l_max       11
_diffrn_reflns_limit_l_min       -11
_diffrn_reflns_number            7113
_diffrn_reflns_point_group_measured_fraction_full 0.999
_diffrn_reflns_point_group_measured_fraction_max 0.997
_diffrn_reflns_theta_full        26.000
_diffrn_reflns_theta_max         27.500
_diffrn_reflns_theta_min         3.282
_diffrn_source                   'microfocus sealed X-ray tube'
_diffrn_source_type              'Incoatec I\ms'
_exptl_absorpt_coefficient_mu    1.626
_exptl_absorpt_correction_T_max  0.7456
_exptl_absorpt_correction_T_min  0.6859
_exptl_absorpt_correction_type   multi-scan
_exptl_crystal_colour            blue
_exptl_crystal_colour_primary    blue
_exptl_crystal_density_diffrn    1.813
_exptl_crystal_description       needle
_exptl_crystal_F_000             193
_exptl_crystal_size_max          0.1
_exptl_crystal_size_mid          0.04
_exptl_crystal_size_min          0.03
_refine_diff_density_max         0.885
_refine_diff_density_min         -0.824
_refine_diff_density_rms         0.102
_refine_ls_extinction_method     none
_refine_ls_goodness_of_fit_ref   1.088
_refine_ls_hydrogen_treatment    mixed
_refine_ls_matrix_type           full
_refine_ls_number_parameters     112
_refine_ls_number_reflns         1581
_refine_ls_number_restraints     0
_refine_ls_restrained_S_all      1.088
_refine_ls_R_factor_all          0.0433
_refine_ls_R_factor_gt           0.0367
_refine_ls_shift/su_max          0.000
_refine_ls_shift/su_mean         0.000
_refine_ls_structure_factor_coef Fsqd
_refine_ls_weighting_details
'w=1/[\s^2^(Fo^2^)+(0.0269P)^2^+0.8608P] where P=(Fo^2^+2Fc^2^)/3'
_refine_ls_weighting_scheme      calc
_refine_ls_wR_factor_gt          0.0799
_refine_ls_wR_factor_ref         0.0824
_reflns_Friedel_coverage         0.000
_reflns_number_gt                1450
_reflns_number_total             1581
_reflns_threshold_expression     'I > 2\s(I)'
_cod_data_source_file            ja8b04886_si_002.cif
_cod_data_source_block           CuINA2O
_cod_database_code               4132570
_shelx_shelxl_version_number     2014/7
_shelx_space_group_comment
;
The symmetry employed for this shelxl refinement is uniquely defined
by the following loop, which should always be used as a source of
symmetry information in preference to the above space-group names.
They are only intended as comments.
;
_olex2_refinement_description
;
1. Fixed Uiso
 At 1.2 times of:
  All C(H) groups
 At 1.5 times of:
  All O(H) groups, All O(H,H) groups
2.a Rotating group:
 O2(H2a,H2b)
2.b Aromatic/amide H refined with riding coordinates:
 C4(H4a), C5(H5), C3(H3), C6(H6)
2.c Tetrahedral OH refined as rotating group:
 O4(H4)
;
_shelx_res_file
;
    CuINA2O.res created by SHELXL-2014/7

TITL CuINA2O in P-1
CELL 0.71073 6.2994 6.7911 9.1637 98.9958 105.053 108.6981
ZERR 1 0.0004 0.0004 0.0005 0.0018 0.0017 0.0018
LATT 1
SFAC C H Cu N O
UNIT 12 14 1 2 8

L.S. 99
PLAN  99
TEMP -173.16
fmap 2
acta 52
REM <olex2.extras>
REM <HklSrc "%.\\CuINA2O.hkl">
REM </olex2.extras>

WGHT    0.026900    0.860800
FVAR       1.12358
CU1   3    0.500000    1.000000    0.500000    10.50000    0.00740    0.01182 =
         0.00479    0.00067    0.00047    0.00436
O1    5    0.341316    1.202639    0.540565    11.00000    0.01027    0.01059 =
         0.00791   -0.00188    0.00074    0.00367
O2    5    0.740497    1.272392    0.406251    11.00000    0.01292    0.01806 =
         0.01356    0.00702    0.00514    0.00660
AFIX   7
H2A   2    0.649523    1.317571    0.339106    11.00000   -1.50000
H2B   2    0.811595    1.215792    0.349237    11.00000   -1.50000
AFIX   0
O4    5   -0.119256    0.709293   -0.292125    11.00000    0.01421    0.02138 =
         0.00641    0.00580    0.00186    0.00951
AFIX  87
H4    2   -0.217686    0.725149   -0.366375    11.00000   -1.50000
AFIX   0
O3    5   -0.430886    0.566021   -0.215457    11.00000    0.00932    0.01441 =
         0.01054    0.00207    0.00004    0.00349
N1    4    0.267306    0.871641    0.282044    11.00000    0.01023    0.01029 =
         0.00779    0.00242    0.00259    0.00481
C4    1    0.031660    0.795377    0.252352    11.00000    0.01027    0.01213 =
         0.00999    0.00263    0.00409    0.00397
AFIX  43
H4A   2   -0.027105    0.792192    0.337872    11.00000   -1.20000
AFIX   0
C1    1   -0.212793    0.660951   -0.191078    11.00000    0.01354    0.00765 =
         0.00827    0.00131    0.00170    0.00617
C5    1    0.347983    0.869997    0.159509    11.00000    0.00773    0.00995 =
         0.01117    0.00316    0.00312    0.00383
AFIX  43
H5    2    0.514475    0.917593    0.179440    11.00000   -1.20000
AFIX   0
C2    1   -0.045124    0.729001   -0.024071    11.00000    0.01122    0.00555 =
         0.00884    0.00192    0.00241    0.00391
C3    1   -0.129406    0.720948    0.101172    11.00000    0.00942    0.00998 =
         0.01165    0.00258    0.00245    0.00415
AFIX  43
H3    2   -0.295364    0.665180    0.083785    11.00000   -1.20000
AFIX   0
C6    1    0.199077    0.802220    0.006815    11.00000    0.01277    0.01030 =
         0.00725    0.00385    0.00464    0.00518
AFIX  43
H6    2    0.262318    0.805372   -0.076677    11.00000   -1.20000
AFIX   0
H1    2    0.397411    1.287606    0.591620    11.00000    0.00926
HKLF 4

REM  CuINA2O in P-1
REM R1 =  0.0367 for    1450 Fo > 4sig(Fo)  and  0.0433 for all    1581 data
REM    112 parameters refined using      0 restraints

END

WGHT      0.0269      0.8605

REM Highest difference peak  0.885,  deepest hole -0.824,  1-sigma level  0.102
Q1    1  -0.2761  0.7580 -0.4555  11.00000  0.05    0.89
Q2    1   0.8684  1.3225  0.3664  11.00000  0.05    0.56
Q3    1  -0.1315  0.6794 -0.1024  11.00000  0.05    0.45
Q4    1  -0.0602  0.7051  0.1604  11.00000  0.05    0.41
Q5    1   0.2970  0.8510  0.2219  11.00000  0.05    0.38
Q6    1  -0.0798  0.7611  0.0415  11.00000  0.05    0.34
Q7    1  -0.1360  0.8781  0.4078  11.00000  0.05    0.34
Q8    1   0.0737  0.7788 -0.0042  11.00000  0.05    0.32
Q9    1   0.8132  1.2713  0.5331  11.00000  0.05    0.31
Q10   1   0.7732  1.5246  0.2741  11.00000  0.05    0.30
Q11   1  -0.4945  0.6306 -0.0251  11.00000  0.05    0.28
Q12   1   0.3737  1.4034  0.6177  11.00000  0.05    0.28
Q13   1  -0.0096  0.9578 -0.3023  11.00000  0.05    0.27
Q14   1   0.1837  0.9855 -0.1755  11.00000  0.05    0.27
Q15   1   0.3649  0.7894  0.3196  11.00000  0.05    0.27
Q16   1   0.7237  1.2590  0.3667  11.00000  0.05    0.27
Q17   1   0.8962  1.4202  0.5216  11.00000  0.05    0.27
Q18   1   0.2232  1.2799  0.5767  11.00000  0.05    0.26
Q19   1   0.7575  1.4040  0.5609  11.00000  0.05    0.26
Q20   1   0.8014  1.1410  0.2389  11.00000  0.05    0.26
Q21   1   0.2321  0.5873 -0.0868  11.00000  0.05    0.26
Q22   1  -0.1379  0.7975  0.1224  11.00000  0.05    0.26
Q23   1   0.4433  1.1780  0.5229  11.00000  0.05    0.26
Q24   1   0.1000  0.5822  0.2483  11.00000  0.05    0.26
Q25   1   0.4415  1.1346  0.1145  11.00000  0.05    0.25
Q26   1  -0.0666  0.8200  0.4876  11.00000  0.05    0.25
Q27   1   0.1527  1.1706  0.4938  11.00000  0.05    0.25
Q28   1  -0.3461  0.5242 -0.1952  11.00000  0.05    0.25
Q29   1   0.1685  0.8764  0.2643  11.00000  0.05    0.24
Q30   1   0.4237  1.3493  0.6629  11.00000  0.05    0.24
Q31   1   0.6314  1.1720  0.2403  11.00000  0.05    0.24
Q32   1   0.0044  0.6974 -0.2866  11.00000  0.05    0.24
Q33   1  -0.0808  0.8525 -0.3993  11.00000  0.05    0.24
Q34   1   0.3423  0.9198  0.3466  11.00000  0.05    0.24
Q35   1  -0.2382  0.5966  0.2046  11.00000  0.05    0.24
Q36   1  -0.5692  0.6064  0.0569  11.00000  0.05    0.24
Q37   1  -0.6355  0.5646 -0.2480  11.00000  0.05    0.24
Q38   1  -0.6385  0.5787 -0.1397  11.00000  0.05    0.24
Q39   1   0.2067  0.5902 -0.2082  11.00000  0.05    0.23
Q40   1   0.9085  1.5179  0.3783  11.00000  0.05    0.23
Q41   1  -0.4413  0.6845  0.0040  11.00000  0.05    0.23
Q42   1  -0.3670  0.5764  0.0167  11.00000  0.05    0.23
Q43   1   0.8383  1.4326  0.4127  11.00000  0.05    0.23
Q44   1  -0.1701  0.5988  0.4014  11.00000  0.05    0.23
Q45   1   0.2644  0.8698  0.0939  11.00000  0.05    0.23
Q46   1   0.4897  1.2216  0.3557  11.00000  0.05    0.23
Q47   1  -0.0134  0.5679  0.1620  11.00000  0.05    0.23
Q48   1   0.3479  0.7766  0.4401  11.00000  0.05    0.23
Q49   1   0.6355  0.8145  0.2664  11.00000  0.05    0.23
Q50   1  -0.4990  0.5491 -0.1596  11.00000  0.05    0.22
Q51   1   0.4729  0.9751  0.1815  11.00000  0.05    0.22
Q52   1   0.7291  1.3575  0.2522  11.00000  0.05    0.22
Q53   1   0.2998  0.7224 -0.1027  11.00000  0.05    0.22
Q54   1  -0.0381  0.9244 -0.1242  11.00000  0.05    0.22
Q55   1   0.7804  1.3718  0.4517  11.00000  0.05    0.22
Q56   1  -0.2384  0.8440  0.2003  11.00000  0.05    0.22
Q57   1   0.5024  1.3972  0.6780  11.00000  0.05    0.22
Q58   1  -0.2267  0.7761  0.2940  11.00000  0.05    0.21
Q59   1   0.1214  0.8370  0.4614  11.00000  0.05    0.21
Q60   1   0.6399  0.9718  0.0830  11.00000  0.05    0.21
Q61   1   0.4933  1.4144  0.6274  11.00000  0.05    0.21
Q62   1   1.0728  1.4195  0.4932  11.00000  0.05    0.21
Q63   1  -0.0659  0.8937  0.3199  11.00000  0.05    0.21
Q64   1  -0.4914  0.6410 -0.2243  11.00000  0.05    0.21
Q65   1  -0.0050  0.8619  0.2222  11.00000  0.05    0.21
Q66   1  -0.2917  0.7751  0.0756  11.00000  0.05    0.21
Q67   1   0.2945  1.1650  0.5902  11.00000  0.05    0.21
Q68   1   0.5763  1.3202  0.4975  11.00000  0.05    0.21
Q69   1   0.6938  1.3438  0.4205  11.00000  0.05    0.20
Q70   1   0.1695  0.9394 -0.1170  11.00000  0.05    0.20
Q71   1   0.2259  0.9803  0.0594  11.00000  0.05    0.20
Q72   1  -0.0032  0.6913  0.3639  11.00000  0.05    0.20
Q73   1   0.5672  0.9192  0.2547  11.00000  0.05    0.20
Q74   1   0.0498  1.0212  0.4587  11.00000  0.05    0.20
Q75   1  -0.2531  0.4925  0.0017  11.00000  0.05    0.20
Q76   1  -0.0341  0.5160  0.2640  11.00000  0.05    0.20
Q77   1   0.5877  1.3477  0.6034  11.00000  0.05    0.19
Q78   1   0.0064  0.9353  0.0794  11.00000  0.05    0.19
Q79   1   0.6336  0.9031  0.1796  11.00000  0.05    0.19
Q80   1   0.4378  1.2107  0.7099  11.00000  0.05    0.19
Q81   1   0.0069  0.8130 -0.3015  11.00000  0.05    0.19
Q82   1  -0.3371  0.5078  0.1025  11.00000  0.05    0.19
Q83   1   0.3297  1.0695  0.1790  11.00000  0.05    0.19
Q84   1   0.3610  1.0438  0.0282  11.00000  0.05    0.19
Q85   1  -0.0636  0.9683  0.1726  11.00000  0.05    0.19
Q86   1  -0.3966  0.7396 -0.1569  11.00000  0.05    0.19
Q87   1   0.4338  0.7338 -0.0067  11.00000  0.05    0.19
Q88   1  -0.3840  0.6104 -0.2401  11.00000  0.05    0.19
Q89   1   0.2367  0.8091  0.2916  11.00000  0.05    0.19
Q90   1  -0.1021  0.5216  0.0631  11.00000  0.05    0.18
Q91   1   0.2625  0.6846  0.3406  11.00000  0.05    0.18
Q92   1   0.3603  1.1271  0.5009  11.00000  0.05    0.18
Q93   1  -0.5323  0.6293 -0.2409  11.00000  0.05    0.18
Q94   1   0.3944  1.2370  0.2771  11.00000  0.05    0.18
Q95   1   0.4579  0.7368  0.1687  11.00000  0.05    0.18
Q96   1  -0.1256  0.9747  0.3489  11.00000  0.05    0.18
Q97   1   0.5572  1.3076  0.7412  11.00000  0.05    0.18
Q98   1  -0.2441  0.8846 -0.0836  11.00000  0.05    0.18
Q99   1   0.2997  1.3909  0.6870  11.00000  0.05    0.18
;
_shelx_res_checksum              6003
_shelx_hkl_file
;
  -1   0   0 303.356 9.03691   2
  -1   0   0 307.381 8.51143   3
  -1   0   0 302.367 8.38883   4
   1   0   0 310.147 9.24039   2
   1   0   0 290.384 8.35812   3
   1   0   0 313.036 7.87433   1
  -2   0   0 14.7802 2.84466   3
  -2   0   0 18.1813 3.80390   2
  -2   0   0 18.5075 3.03723   4
  -2   0   0 17.1738 2.74544   1
   2   0   0 20.3741 3.20133   3
   2   0   0 15.3621 2.44445   1
   2   0   0 17.5311 3.04341   4
   2   0   0 17.0620 3.16299   2
  -3   0   0 208.269 10.8641   3
  -3   0   0 216.226 12.3163   2
  -3   0   0 214.769 9.71550   1
  -3   0   0 211.387 10.7194   4
   3   0   0 203.964 9.79827   1
   3   0   0 191.808 11.9454   2
   3   0   0 220.829 10.5851   4
   3   0   0 212.650 11.0045   3
  -4   0   0 405.440 19.7632   2
  -4   0   0 413.469 15.8795   1
  -4   0   0 413.956 18.5714   3
  -4   0   0 403.711 17.4968   4
   4   0   0 395.690 17.2830   4
   4   0   0 402.937 20.3015   2
   4   0   0 411.091 18.0487   3
   4   0   0 421.780 16.8651   1
  -5   0   0 268.451 18.9601   2
  -5   0   0 236.482 14.0175   1
   5   0   0 240.070 15.6065   1
   5   0   0 251.668 16.4013   3
   5   0   0 239.572 15.7485   4
  -6   0   0 95.3090 17.2212   2
  -6   0   0 121.444 13.0439   1
   6   0   0 104.241 15.7951   3
   6   0   0 126.507 15.2872   4
  -7   0   0 145.221 20.6944   1
  -7   0   0 97.1749 17.2383   2
   7   0   0 117.836 21.9069   4
   7   0   0 112.683 21.4924   3
   7  -1   0 226.151 21.8475   4
   7  -1   0 197.249 21.5699   3
  -7   1   0 157.490 23.7560   2
  -7   1   0 205.608 18.9843   1
   6  -1   0 270.311 18.3785   3
   6  -1   0 211.190 17.7494   4
  -6   1   0 247.935 16.7032   1
  -6   1   0 238.239 20.7155   2
   5  -1   0 1004.69 34.7783   2
   5  -1   0 1020.70 33.3285   4
   5  -1   0 981.786 31.5862   1
   5  -1   0 1030.16 33.3748   3
  -5   1   0 1028.97 34.6310   2
  -5   1   0 999.354 32.7138   3
  -5   1   0 1048.83 31.6015   1
   4  -1   0 526.765 20.1429   4
   4  -1   0 533.315 19.4977   1
   4  -1   0 518.686 20.0875   3
   4  -1   0 508.137 20.6708   2
  -4   1   0 521.365 20.6157   2
  -4   1   0 528.594 19.8473   3
  -4   1   0 509.178 19.5572   4
  -4   1   0 542.603 19.5283   1
   3  -1   0 634.227 23.2927   2
   3  -1   0 687.876 20.7589   4
   3  -1   0 691.110 20.8636   3
   3  -1   0 710.151 20.5703   1
  -3   1   0 697.631 20.4444   3
  -3   1   0 684.492 20.3680   1
  -3   1   0 672.488 20.6991   2
  -3   1   0 678.400 20.3778   4
   2  -1   0 782.839 19.8228   4
   2  -1   0 816.168 20.2249   1
   2  -1   0 783.340 19.8828   3
   2  -1   0 788.144 19.1932   2
  -2   1   0 802.074 19.9094   4
  -2   1   0 798.145 19.5841   3
  -2   1   0 765.693 19.0238   2
  -2   1   0 790.305 19.9120   1
   1  -1   0 643.405 12.6944   2
   1  -1   0 626.467 14.8253   3
   1  -1   0 637.587 15.0320   1
   1  -1   0 652.465 15.0849   4
  -1   1   0 649.573 14.7934   3
  -1   1   0 656.261 12.7172   2
  -1   1   0 650.052 14.9225   4
  -1   1   0 650.584 15.2383   1
   0  -1   0 805.446 18.8681   3
   0   1   0 833.872 17.0955   2
   0   1   0 846.686 18.9641   3
   0   1   0 815.975 15.9979   1
   0   1   0 794.289 16.8938   4
   0   1   0 819.058 18.5913   4
  -1  -1   0 743.301 15.4057   1
  -1  -1   0 763.625 18.0763   4
  -1  -1   0 766.638 20.0466   2
   1   1   0 776.017 20.1811   2
   1   1   0 749.678 18.7581   3
   1   1   0 762.578 15.2790   1
  -2  -1   0 3.47183 2.43533   3
  -2  -1   0 4.87919 2.57369   2
  -2  -1   0 7.42900 2.59543   4
   2   1   0 11.8701 2.92314   4
   2   1   0 4.45144 2.47696   3
   2   1   0 6.54377 1.88815   1
   2   1   0 7.67641 3.93562   2
  -3  -1   0 1329.35 35.0290   3
  -3  -1   0 1322.49 29.9359   1
  -3  -1   0 1320.59 37.6814   2
  -3  -1   0 1301.98 33.6930   4
   3   1   0 1351.42 29.9187   1
   3   1   0 1324.08 38.2057   2
   3   1   0 1323.89 35.3724   3
   3   1   0 1348.31 34.5584   4
  -4  -1   0 439.991 18.7433   4
  -4  -1   0 444.334 21.1167   3
  -4  -1   0 463.087 22.6462   2
  -4  -1   0 439.138 15.5790   1
   4   1   0 431.615 20.3820   3
   4   1   0 433.296 19.0056   4
   4   1   0 437.655 16.2512   1
   4   1   0 400.007 22.3623   2
  -5  -1   0 62.1233 9.42412   1
  -5  -1   0 65.1165 11.5541   2
   5   1   0 69.9704 12.2940   3
   5   1   0 78.7618 11.4924   4
  -6  -1   0 392.320 19.6286   1
  -6  -1   0 381.452 29.1697   2
   6   1   0 427.051 25.7099   3
   6   1   0 428.066 24.6134   4
   7  -2   0 86.9208 14.6312   4
   7  -2   0 109.231 17.4005   3
  -7   2   0 99.5223 16.3688   1
  -7   2   0 76.0677 15.1168   2
   6  -2   0 111.679 13.8338   3
   6  -2   0 95.2157 12.9476   4
  -6   2   0 109.833 15.8034   2
  -6   2   0 111.801 13.4563   1
   5  -2   0 329.072 18.0492   2
   5  -2   0 382.180 19.5952   1
   5  -2   0 373.281 18.7847   3
   5  -2   0 351.936 18.3647   4
  -5   2   0 377.447 18.5520   2
  -5   2   0 364.772 18.9127   3
  -5   2   0 383.161 19.0073   1
   4  -2   0 698.351 23.5876   3
   4  -2   0 680.789 22.0728   2
   4  -2   0 687.875 23.5811   4
   4  -2   0 687.771 23.9901   1
  -4   2   0 735.833 24.4490   1
  -4   2   0 710.227 22.4319   2
  -4   2   0 703.622 22.9963   3
  -4   2   0 674.266 23.1083   4
   3  -2   0 1194.78 30.8813   1
   3  -2   0 1171.88 30.0748   4
   3  -2   0 1137.67 27.2393   2
   3  -2   0 1182.23 30.4595   3
  -3   2   0 1185.80 30.6319   1
  -3   2   0 1172.66 27.3565   2
  -3   2   0 1164.22 30.0894   4
  -3   2   0 1229.04 29.9755   3
   2  -2   0 1541.38 29.0535   2
   2  -2   0 1509.14 33.8538   3
   2  -2   0 1580.23 34.5508   4
  -2   2   0 1526.95 34.3769   1
  -2   2   0 1544.34 33.6361   3
  -2   2   0 1489.28 29.0678   2
   1  -2   0 9639.83 170.198   4
   1  -2   0 9802.11 179.508   3
   1  -2   0 9873.04 168.433   1
  -1   2   0 9792.60 168.210   1
  -1   2   0 9692.80 163.440   2
  -1   2   0 9813.18 169.540   4
  -1   2   0 9999.99 169.953   3
  -1   2   0 9985.83 163.515   2
   0  -2   0 1989.55 43.7879   3
   0  -2   0 1988.85 39.8838   2
   0   2   0 2008.25 39.9515   2
   0   2   0 1960.71 37.6951   1
   0   2   0 1986.17 43.4470   3
   0   2   0 1970.94 39.8373   4
   0   2   0 1997.43 38.8977   1
   0   2   0 1996.98 43.0962   4
  -1  -2   0 659.301 18.3191   4
  -1  -2   0 642.527 15.3535   1
  -1  -2   0 673.750 20.7876   2
   1   2   0 666.803 19.8283   3
   1   2   0 691.807 21.0707   2
   1   2   0 648.540 22.3471   3
   1   2   0 664.185 18.9049   4
   1   2   0 652.662 14.9645   1
  -2  -2   0 1636.86 38.4003   4
  -2  -2   0 1676.28 42.7448   2
  -2  -2   0 1592.88 32.6305   1
   2   2   0 1653.37 32.4443   1
   2   2   0 1657.31 43.1208   2
   2   2   0 1666.40 39.2088   4
   2   2   0 1669.64 40.7890   3
   2   2   0 1647.90 44.4200   3
  -3  -2   0 414.629 17.7232   4
  -3  -2   0 405.498 12.9494   1
  -3  -2   0 424.051 20.8036   2
   3   2   0 383.471 21.0193   2
   3   2   0 406.654 13.1232   1
   3   2   0 408.998 18.0205   4
   3   2   0 428.474 19.1331   3
  -4  -2   0 120.677 21.4803   2
  -4  -2   0 107.925 8.57671   1
   4   2   0 114.839 12.7118   4
   4   2   0 120.850 12.5887   3
  -5  -2   0 11.4602 8.91024   2
  -5  -2   0 33.5754 6.39614   1
   5   2   0 24.2325 8.05807   4
   5   2   0 35.3819 9.56396   3
   6   2   0 145.010 19.7558   4
   6   2   0 125.785 20.7116   3
   7  -3   0 75.0231 13.0902   3
  -7   3   0 57.4957 11.3769   1
  -7   3   0 56.9799 13.5743   2
   6  -3   0 139.058 15.2501   4
   6  -3   0 119.564 14.7765   2
   6  -3   0 114.124 15.5745   3
  -6   3   0 110.251 14.3851   2
  -6   3   0 84.1934 14.5095   1
   5  -3   0 25.8874 6.63175   3
   5  -3   0 21.1982 6.03025   2
   5  -3   0 17.9076 6.26396   4
  -5   3   0 24.7053 5.64773   2
  -5   3   0 26.2046 6.43287   1
  -5   3   0 33.7206 8.10688   3
   4  -3   0 4.24278 3.44715   2
   4  -3   0 1.91807 4.55358   4
   4  -3   0 1.24534 4.44605   3
   4  -3   0 -1.3871 4.96874   1
  -4   3   0 1.41663 4.61768   4
  -4   3   0 2.66863 2.95455   2
  -4   3   0 6.90883 3.90071   1
  -4   3   0 11.8898 5.36437   3
   3  -3   0 2666.93 57.4850   3
   3  -3   0 2613.11 57.9517   1
   3  -3   0 2711.23 58.4449   4
   3  -3   0 2664.91 48.7920   2
  -3   3   0 2646.44 57.2715   4
  -3   3   0 2682.50 56.5185   3
  -3   3   0 2588.16 57.7135   1
  -3   3   0 2637.12 48.9503   2
   2  -3   0 256.982 11.7622   1
   2  -3   0 249.648 12.1669   4
   2  -3   0 236.782 12.0900   3
  -2   3   0 243.358 11.7046   1
  -2   3   0 236.687 11.6910   4
  -2   3   0 252.912 11.7656   3
   1  -3   0 276.635 11.2712   1
   1  -3   0 275.414 13.3481   4
   1  -3   0 273.266 8.93184   2
   1  -3   0 298.477 13.8074   3
  -1   3   0 302.152 13.1449   4
  -1   3   0 280.505 9.49609   2
  -1   3   0 273.749 13.4846   3
  -1   3   0 290.886 11.4481   1
   0  -3   0 227.658 10.5922   2
   0  -3   0 224.012 12.9459   3
   0   3   0 208.073 12.2048   4
   0   3   0 214.027 10.1726   4
   0   3   0 243.599 10.0462   1
   0   3   0 229.895 9.11342   1
   0   3   0 238.821 13.6617   3
   0   3   0 235.237 11.2896   2
  -1  -3   0 10.5563 3.33415   4
  -1  -3   0 3.69262 4.01715   2
   1   3   0 7.12543 4.84608   2
   1   3   0 8.23802 2.50466   1
   1   3   0 15.6795 5.66091   3
   1   3   0 13.6063 3.84424   3
   1   3   0 10.6296 2.83733   1
   1   3   0 6.50617 3.06819   4
  -2  -3   0 614.551 21.9850   4
  -2  -3   0 659.260 16.8360   1
  -2  -3   0 648.647 25.7507   2
   2   3   0 673.176 16.4944   1
   2   3   0 671.329 23.0124   4
   2   3   0 651.025 28.5788   3
   2   3   0 681.293 27.4665   2
   2   3   0 677.877 24.7567   3
  -3  -3   0 485.104 25.4732   2
   3   3   0 524.773 23.3737   3
   3   3   0 529.191 22.3628   4
   3   3   0 507.551 14.5122   1
  -4  -3   0 511.478 29.1100   2
   4   3   0 503.579 24.8960   4
   4   3   0 495.131 25.4911   3
  -5  -3   0 499.808 32.3704   2
   5   3   0 529.790 30.5400   3
   5   3   0 539.813 29.8210   4
   7  -4   0 55.9367 13.3004   3
  -7   4   0 62.0219 11.4729   2
  -7   4   0 56.0480 12.5307   1
   6  -4   0 356.205 17.7483   2
   6  -4   0 328.727 21.8606   3
   6  -4   0 348.680 22.6771   4
  -6   4   0 350.947 22.2933   1
  -6   4   0 347.391 17.8132   2
   5  -4   0 332.055 16.6733   2
   5  -4   0 336.662 19.6367   4
   5  -4   0 385.358 20.1993   3
  -5   4   0 352.755 14.2878   2
  -5   4   0 362.713 20.7371   1
  -5   4   0 324.539 20.4965   3
   4  -4   0 224.270 15.0547   3
   4  -4   0 224.627 14.5199   4
   4  -4   0 241.661 15.6788   1
  -4   4   0 203.702 13.8694   4
  -4   4   0 229.692 15.1569   3
  -4   4   0 220.824 14.5328   1
   3  -4   0 468.497 20.1446   4
   3  -4   0 477.599 19.7556   1
   3  -4   0 454.600 20.0558   3
  -3   4   0 471.574 19.4342   3
  -3   4   0 454.758 19.1742   4
  -3   4   0 473.011 19.4232   1
   2  -4   0 3603.29 77.4462   3
   2  -4   0 3584.34 73.7006   1
   2  -4   0 3573.83 77.3169   4
  -2   4   0 3564.75 75.1539   4
  -2   4   0 3586.83 75.8400   3
  -2   4   0 3493.54 63.6323   2
  -2   4   0 3587.37 73.4102   1
  -2   4   0 3561.95 63.6091   2
   1  -4   0 0.62230 2.57766   2
   1  -4   0 2.72970 4.54169   4
   1  -4   0 2.19720 4.93407   3
   1  -4   0 5.97971 3.37464   1
  -1   4   0 3.26510 3.07258   1
  -1   4   0 5.01515 4.84581   4
  -1   4   0 2.16066 5.27786   3
  -1   4   0 1.30022 3.41217   2
   0  -4   0 871.743 31.4225   3
   0  -4   0 876.674 25.9043   2
   0   4   0 877.472 26.4487   4
   0   4   0 831.317 30.6940   3
   0   4   0 867.208 26.6145   2
   0   4   0 933.269 23.5020   1
   0   4   0 849.830 29.5066   4
   0   4   0 833.900 26.8170   1
  -1  -4   0 109.279 11.3320   2
   1   4   0 96.5333 12.9640   2
   1   4   0 88.7431 13.9910   3
   1   4   0 102.654 9.59790   4
   1   4   0 134.286 10.9264   3
   1   4   0 114.265 7.92869   1
   1   4   0 107.536 7.67997   1
  -2  -4   0 -0.4999 6.40382   2
   2   4   0 4.63598 4.92868   4
   2   4   0 21.0823 7.06816   3
  -3  -4   0 223.269 20.3720   2
   3   4   0 225.681 17.7029   3
   3   4   0 227.322 17.7244   4
  -4  -4   0 83.5388 13.7221   2
   4   4   0 92.7838 14.3152   3
   4   4   0 101.347 17.8401   4
   5   4   0 137.410 24.4536   4
   5   4   0 78.7528 14.8734   3
   7  -5   0 247.984 25.5461   3
   7  -5   0 243.782 24.7046   4
   6  -5   0 258.879 20.2416   4
   6  -5   0 245.810 26.2374   3
  -6   5   0 285.494 21.7188   1
   5  -5   0 17.8880 8.25696   4
  -5   5   0 30.0670 11.5688   3
  -5   5   0 38.0931 8.34902   1
   4  -5   0 510.994 24.5629   4
   4  -5   0 501.009 24.0645   3
  -4   5   0 500.230 23.4736   1
  -4   5   0 476.525 23.1259   3
   3  -5   0 20.6783 7.05532   4
   3  -5   0 12.9614 7.22449   3
   3  -5   0 35.2041 7.47505   1
  -3   5   0 22.5399 7.88981   3
  -3   5   0 22.0555 5.29119   1
   2  -5   0 351.550 18.1283   1
   2  -5   0 403.948 21.9056   4
   2  -5   0 400.643 21.2410   3
  -2   5   0 384.440 19.8077   4
  -2   5   0 365.307 21.3247   3
  -2   5   0 404.698 18.5686   1
  -2   5   0 400.917 14.2424   2
  -2   5   0 381.279 13.2413   2
   1  -5   0 381.641 22.7919   3
   1  -5   0 377.594 14.8469   2
  -1   5   0 383.215 23.3085   3
  -1   5   0 365.669 16.3026   1
  -1   5   0 381.235 16.1622   2
  -1   5   0 377.007 18.2579   1
  -1   5   0 365.833 20.3223   4
  -1   5   0 396.248 17.8615   4
   0  -5   0 139.681 11.6746   2
   0  -5   0 126.035 15.5669   3
   0   5   0 130.660 10.1808   1
   0   5   0 107.536 10.8199   1
   0   5   0 123.593 14.2188   2
   0   5   0 111.327 15.6841   3
   0   5   0 137.275 15.0458   4
   0   5   0 97.0913 10.5968   4
  -1  -5   0 631.439 26.8953   2
   1   5   0 634.889 30.7517   3
   1   5   0 596.720 29.4227   2
   1   5   0 664.847 26.1777   4
   1   5   0 645.557 19.3693   1
  -2  -5   0 408.697 25.2150   2
   2   5   0 425.993 23.9133   3
   2   5   0 424.121 22.3074   4
  -3  -5   0 285.929 25.1751   2
   3   5   0 280.900 21.2108   4
   3   5   0 268.442 21.4948   3
  -4  -5   0 65.0953 17.1997   2
   4   5   0 48.1521 14.5060   4
   4   5   0 61.5070 14.9843   3
   7  -6   0 306.638 28.4346   4
   7  -6   0 369.812 31.1714   3
  -7   6   0 343.099 28.8926   1
   6  -6   0 210.082 25.0983   3
   6  -6   0 292.406 25.5323   4
  -6   6   0 317.177 25.4116   1
   5  -6   0 181.416 22.5194   3
  -5   6   0 197.952 19.8042   1
   4  -6   0 516.889 28.2742   3
   4  -6   0 512.911 27.2775   4
  -4   6   0 500.096 26.2497   1
   3  -6   0 1039.33 38.7758   3
   3  -6   0 979.390 38.7954   4
  -3   6   0 983.794 34.2643   1
   2  -6   0 134.788 18.2516   3
  -2   6   0 111.203 13.7565   1
  -2   6   0 88.2185 14.1453   2
  -2   6   0 105.035 9.81946   2
   1  -6   0 100.154 18.7182   3
  -1   6   0 102.189 16.3139   4
  -1   6   0 69.0040 12.8925   1
  -1   6   0 76.2609 10.6841   2
  -1   6   0 97.2278 14.4104   1
   0  -6   0 100.276 12.9784   2
   0   6   0 116.859 13.7920   4
   0   6   0 97.2692 17.8741   2
   0   6   0 101.744 13.2452   1
   0   6   0 93.9577 12.7992   1
  -1  -6   0 212.210 21.6883   2
   1   6   0 217.504 19.2615   3
   1   6   0 211.790 14.2589   1
   1   6   0 214.236 17.7078   4
  -2  -6   0 374.297 28.2607   2
   2   6   0 364.120 26.9779   3
   2   6   0 404.558 24.3273   4
  -3  -6   0 54.1801 15.8079   2
   3   6   0 1.09282 12.3265   4
   3   6   0 29.0460 12.6468   3
   6  -7   0 -12.142 16.2005   3
  -6   7   0 -3.2658 12.3081   1
   5  -7   0 430.101 30.4704   4
   5  -7   0 410.098 31.2725   3
  -5   7   0 384.545 27.4191   1
   4  -7   0 50.6621 14.1133   3
  -4   7   0 72.8399 12.4755   1
   3  -7   0 422.616 29.6547   3
   3  -7   0 355.162 29.2954   4
  -3   7   0 410.915 25.5658   1
   2  -7   0 46.7201 13.9813   3
  -2   7   0 37.8357 9.45516   4
  -2   7   0 43.2704 8.02518   2
  -2   7   0 37.8277 10.3647   1
   1  -7   0 27.2728 14.7767   3
  -1   7   0 41.0679 9.51998   1
  -1   7   0 0.02644 11.8235   1
  -1   7   0 41.5473 9.51033   4
  -1   7   0 12.9789 8.37315   2
   0  -7   0 379.767 22.3793   2
   0   7   0 405.933 25.5925   3
   0   7   0 368.717 23.4444   4
   0   7   0 326.114 21.2525   1
  -1  -7   0 205.476 22.8383   2
   1   7   0 232.658 22.1038   4
   1   7   0 214.491 22.7598   3
   5  -8   0 250.816 33.2420   3
   5  -8   0 290.768 32.3745   4
  -5   8   0 241.445 29.9400   1
   4  -8   0 179.822 31.8327   4
   4  -8   0 275.263 33.4392   3
  -4   8   0 294.246 28.6777   1
   3  -8   0 22.0010 17.7436   3
  -3   8   0 10.1710 13.3884   1
  -3   8   0 26.6842 11.8434   4
   2  -8   0 154.491 24.4608   3
  -2   8   0 231.453 21.5590   4
  -2   8   0 201.793 27.6060   1
  -1   8   0 125.969 21.0213   4
  -1   8   0 124.034 23.2318   1
   0   8   0 28.8354 14.8328   3
   0   8   0 8.49408 14.4105   4
   0   8  -1 62.8757 14.5806   4
   0   8  -1 21.5795 14.9108   3
   0   8  -1 54.6039 15.7696   2
  -1   8  -1 227.832 27.0196   1
  -1   8  -1 201.319 20.0747   4
  -1   8  -1 211.544 24.0707   2
  -2   8  -1 3.47038 13.0107   1
  -2   8  -1 5.64227 10.5221   4
   2  -8   1 12.0257 16.8023   3
  -3   8  -1 668.198 35.2120   1
   3  -8   1 506.070 35.3185   3
  -4   8  -1 329.640 29.3352   1
   4  -8   1 239.510 30.9691   4
   4  -8   1 266.164 30.8481   3
  -5   8  -1 86.1135 16.9064   1
   5  -8   1 95.5558 19.8589   3
   5  -8   1 94.1825 20.1099   4
   2   7  -1 72.4494 14.7995   3
  -2  -7   1 81.9074 16.7850   2
   1   7  -1 226.409 21.6465   4
   1   7  -1 221.016 22.2895   3
  -1  -7   1 150.214 21.9839   2
   0   7  -1 20.0446 8.90223   4
   0   7  -1 21.6802 10.1881   3
   0   7  -1 22.5740 9.67043   1
  -1   7  -1 1.27465 12.1744   2
  -1   7  -1 14.7701 9.04557   1
  -1   7  -1 12.1113 8.84656   2
   1  -7   1 12.9539 13.4968   3
  -2   7  -1 28.9290 9.39322   4
  -2   7  -1 26.0271 11.2928   2
  -2   7  -1 16.4932 7.46228   2
  -3   7  -1 135.080 19.6358   1
   3  -7   1 154.033 21.5895   4
  -4   7  -1 520.142 28.2233   1
   4  -7   1 481.816 31.6955   4
  -5   7  -1 74.9891 15.5313   1
   5  -7   1 106.021 16.8093   3
   5  -7   1 71.1499 15.0640   4
  -6   7  -1 22.6185 13.0374   1
   6  -7   1 1.75436 15.6160   4
   6  -7   1 -24.644 16.2894   3
   3   6  -1 12.9100 12.9466   3
   3   6  -1 7.00843 12.6228   4
  -3  -6   1 21.5328 13.2243   2
   2   6  -1 292.836 23.9220   3
   2   6  -1 321.306 22.4023   4
  -2  -6   1 320.708 23.4381   2
   1   6  -1 421.594 18.7536   1
   1   6  -1 373.735 21.7095   4
   1   6  -1 405.932 24.1480   3
   1   6  -1 369.295 20.0299   1
  -1  -6   1 399.115 26.5830   2
   0   6  -1 296.198 21.7771   2
   0   6  -1 312.859 17.4822   1
   0   6  -1 271.602 18.4396   1
   0  -6   1 330.874 17.8313   2
  -1   6  -1 45.2001 9.10172   2
  -1   6  -1 59.2181 9.12673   4
  -1   6  -1 61.2336 10.4886   2
  -1   6  -1 60.0850 10.5349   1
  -1   6  -1 51.3612 8.38231   1
   1  -6   1 45.2125 10.6688   3
  -2   6  -1 1340.26 43.7356   1
  -2   6  -1 1421.05 34.8349   2
  -2   6  -1 1344.76 45.6256   3
  -2   6  -1 1451.91 41.8870   1
  -2   6  -1 1365.78 34.9099   2
   2  -6   1 1458.49 47.2034   3
   2  -6   1 1469.85 48.3843   4
  -3   6  -1 535.878 25.7441   1
  -3   6  -1 471.528 24.6311   3
  -3   6  -1 488.035 16.2522   2
   3  -6   1 472.529 34.7947   4
   3  -6   1 568.987 26.7027   3
  -4   6  -1 103.081 15.7375   1
   4  -6   1 91.3575 17.1495   3
  -5   6  -1 114.206 17.7042   1
   5  -6   1 134.547 18.0574   4
   5  -6   1 119.120 15.4325   3
   6  -6   1 221.195 23.5123   4
   6  -6   1 185.481 23.6553   3
  -7   6  -1 19.0688 12.8580   1
   7  -6   1 15.0353 15.7800   3
   7  -6   1 42.8486 16.5882   4
   4   5  -1 78.1367 15.8336   3
   4   5  -1 67.9478 14.4078   4
  -4  -5   1 72.6983 16.7819   2
   3   5  -1 73.6550 11.9818   4
   3   5  -1 119.646 15.4157   1
   3   5  -1 89.7137 16.7702   3
  -3  -5   1 117.149 20.2487   2
   2   5  -1 373.230 21.9488   3
   2   5  -1 351.707 15.8583   1
   2   5  -1 360.150 16.4350   1
   2   5  -1 326.422 28.2538   4
  -2  -5   1 396.675 25.1190   2
   1   5  -1 8.29592 5.76350   1
   1   5  -1 17.0758 9.07360   2
   1   5  -1 3.12351 6.02232   3
   1   5  -1 0.34197 4.81275   1
   1   5  -1 -8.8440 4.84093   4
   1   5  -1 -9.6847 9.87528   4
  -1  -5   1 -5.2717 5.84275   2
   0   5  -1 82.7311 14.5343   3
   0   5  -1 97.4733 9.49201   4
   0   5  -1 83.5369 10.0189   1
   0   5  -1 81.2356 10.3226   1
   0   5  -1 110.968 12.5445   2
   0   5  -1 103.471 13.8736   4
   0  -5   1 88.9069 13.3934   3
   0  -5   1 74.6922 9.92100   2
  -1   5  -1 475.137 17.6966   2
  -1   5  -1 478.599 22.1535   4
  -1   5  -1 491.324 19.5500   1
  -1   5  -1 461.909 18.4675   2
  -1   5  -1 471.885 23.9028   3
  -1   5  -1 472.439 21.6446   1
   1  -5   1 497.153 23.7066   3
  -2   5  -1 495.533 16.2681   2
  -2   5  -1 504.014 16.3535   2
  -2   5  -1 463.746 22.6759   3
  -2   5  -1 476.648 21.4182   4
  -2   5  -1 504.411 20.8903   1
   2  -5   1 498.269 22.9749   4
   2  -5   1 490.977 22.7964   3
   2  -5   1 465.629 20.4505   1
  -3   5  -1 130.322 7.79191   2
  -3   5  -1 169.017 13.5567   3
  -3   5  -1 140.320 13.5611   1
  -3   5  -1 123.068 12.4002   4
   3  -5   1 146.497 14.1088   4
   3  -5   1 130.241 13.0539   3
   3  -5   1 169.261 13.6296   1
  -4   5  -1 3.91465 5.61490   1
  -4   5  -1 6.57781 6.86522   2
  -4   5  -1 4.38496 7.13052   3
   4  -5   1 9.17630 3.44208   2
   4  -5   1 3.29198 6.53025   4
   4  -5   1 -13.131 6.83270   3
  -5   5  -1 96.2079 15.8870   3
  -5   5  -1 131.665 10.3983   2
  -5   5  -1 125.376 15.8064   1
   5  -5   1 126.702 14.4189   4
   5  -5   1 116.911 14.7617   3
  -6   5  -1 641.662 32.4046   1
  -6   5  -1 620.057 23.5959   2
   6  -5   1 645.608 29.7245   3
   6  -5   1 680.063 32.1593   4
  -7   5  -1 260.351 25.1715   1
   7  -5   1 249.968 25.3036   3
   7  -5   1 232.388 24.6468   4
   5   4  -1 105.649 15.3633   4
   5   4  -1 119.365 18.1833   3
  -5  -4   1 114.210 18.8649   2
   4   4  -1 153.460 17.2495   3
   4   4  -1 135.970 17.2166   4
  -4  -4   1 124.706 11.5047   1
  -4  -4   1 156.145 20.8240   2
   3   4  -1 571.317 24.4351   4
   3   4  -1 518.937 20.4876   1
   3   4  -1 547.381 26.3701   3
  -3  -4   1 583.427 29.0074   2
  -3  -4   1 566.123 18.5716   1
   2   4  -1 68.4239 11.4549   2
   2   4  -1 79.7076 9.24723   4
   2   4  -1 64.1153 10.9423   3
   2   4  -1 65.8339 10.0425   1
  -2  -4   1 72.5794 12.3632   2
  -2  -4   1 80.1522 10.2871   4
   1   4  -1 135.899 15.8259   3
   1   4  -1 131.110 9.24471   1
   1   4  -1 125.575 12.6333   2
   1   4  -1 137.944 10.0133   4
   1   4  -1 144.338 9.32875   1
   1   4  -1 117.759 10.2224   3
   1   4  -1 122.221 13.1858   4
  -1  -4   1 130.046 10.9787   2
   0   4  -1 215.842 12.3331   2
   0   4  -1 165.011 12.7966   4
   0   4  -1 185.815 10.6984   1
   0   4  -1 181.251 10.3583   4
   0   4  -1 174.254 14.4519   3
   0   4  -1 197.521 11.2016   1
   0  -4   1 199.163 10.9885   2
   0  -4   1 182.661 13.9826   3
  -1   4  -1 7174.18 134.684   4
  -1   4  -1 7181.21 132.050   1
  -1   4  -1 7204.68 128.658   2
  -1   4  -1 7240.49 135.509   1
  -1   4  -1 7139.74 136.155   3
  -1   4  -1 7180.72 128.117   2
   1  -4   1 7448.95 138.054   3
   1  -4   1 6987.67 136.700   4
  -2   4  -1 682.636 17.3527   2
  -2   4  -1 657.791 22.8543   4
  -2   4  -1 669.426 22.5360   3
  -2   4  -1 672.755 23.1082   1
   2  -4   1 654.319 22.9121   1
   2  -4   1 684.399 24.4060   4
   2  -4   1 682.592 23.3779   3
  -3   4  -1 7.68883 5.23019   3
  -3   4  -1 3.92151 4.84391   4
  -3   4  -1 4.14522 3.80809   1
   3  -4   1 4.24448 4.70070   4
   3  -4   1 1.32015 2.66982   2
   3  -4   1 6.58867 4.54265   3
   3  -4   1 1.04686 5.48911   1
  -4   4  -1 145.332 12.9298   1
  -4   4  -1 130.589 9.12977   2
  -4   4  -1 133.083 11.3399   3
  -4   4  -1 123.768 12.5751   4
   4  -4   1 135.598 8.68257   2
   4  -4   1 139.228 11.7253   3
   4  -4   1 134.178 12.1757   4
   4  -4   1 142.044 13.8308   1
  -5   4  -1 207.587 16.0254   3
  -5   4  -1 216.519 13.8160   2
  -5   4  -1 192.315 23.0889   1
   5  -4   1 206.043 14.9131   3
   5  -4   1 240.282 14.2376   2
   5  -4   1 238.850 19.8414   4
  -6   4  -1 27.0940 8.62145   2
  -6   4  -1 27.2887 9.49923   1
   6  -4   1 51.5325 9.94383   2
   6  -4   1 45.4506 9.51946   3
   6  -4   1 24.0719 9.53260   4
  -7   4  -1 121.826 20.9545   2
  -7   4  -1 55.1020 12.0731   1
   7  -4   1 74.4224 13.5721   3
   7  -4   1 91.8174 16.2604   4
   6   3  -1 30.0160 16.2931   3
   6   3  -1 43.5651 13.9118   4
   5   3  -1 221.756 22.1171   3
   5   3  -1 242.729 21.1193   4
  -5  -3   1 233.149 15.7608   1
  -5  -3   1 196.403 23.7128   2
   4   3  -1 292.035 15.6274   1
   4   3  -1 294.106 18.3635   4
   4   3  -1 296.109 20.0054   3
  -4  -3   1 317.626 14.1338   1
  -4  -3   1 290.308 21.5770   2
   3   3  -1 451.020 21.0800   3
   3   3  -1 431.386 19.2643   4
  -3  -3   1 412.788 22.0166   2
  -3  -3   1 432.192 15.2388   1
  -3  -3   1 411.037 18.1651   4
   2   3  -1 171.686 14.4419   2
   2   3  -1 196.608 11.0981   4
   2   3  -1 179.406 15.3625   3
   2   3  -1 168.126 12.1791   3
   2   3  -1 178.469 9.35553   1
  -2  -3   1 186.188 9.33408   1
  -2  -3   1 199.405 13.5729   2
  -2  -3   1 193.885 10.4345   4
   1   3  -1 220.117 14.4107   3
   1   3  -1 239.906 12.9352   2
   1   3  -1 228.382 10.8237   4
   1   3  -1 232.530 10.2510   1
   1   3  -1 228.128 11.8733   3
  -1  -3   1 226.556 10.3182   1
  -1  -3   1 228.701 12.6663   2
   0   3  -1 687.331 20.3230   2
   0   3  -1 683.379 19.2760   1
   0   3  -1 686.186 21.7475   4
   0   3  -1 690.522 20.3299   1
   0   3  -1 673.107 19.1807   4
   0   3  -1 672.443 22.7739   3
   0  -3   1 643.738 19.1764   2
   0  -3   1 683.691 22.7469   3
  -1   3  -1 556.339 18.5114   3
  -1   3  -1 572.497 18.1951   4
  -1   3  -1 554.578 17.7229   1
  -1   3  -1 499.327 19.8213   2
  -1   3  -1 547.288 14.9716   2
   1  -3   1 548.503 18.5110   3
   1  -3   1 544.894 18.4298   4
   1  -3   1 544.625 17.6583   1
  -2   3  -1 503.061 14.2329   2
  -2   3  -1 510.546 16.2547   3
  -2   3  -1 507.968 18.0727   1
  -2   3  -1 504.643 17.3254   4
   2  -3   1 516.097 18.0377   4
   2  -3   1 513.417 13.6626   2
   2  -3   1 504.311 16.9384   3
   2  -3   1 500.035 18.1201   1
  -3   3  -1 817.400 22.9608   3
  -3   3  -1 807.757 25.1824   4
  -3   3  -1 795.922 21.4420   2
  -3   3  -1 811.286 25.8884   1
   3  -3   1 792.854 25.6662   1
   3  -3   1 781.930 20.7603   2
   3  -3   1 800.941 25.4407   4
   3  -3   1 790.859 23.2396   3
  -4   3  -1 595.546 23.1126   1
  -4   3  -1 588.926 22.5061   4
  -4   3  -1 600.888 20.7641   2
  -4   3  -1 606.237 20.7620   3
   4  -3   1 576.649 23.4301   1
   4  -3   1 617.777 21.3825   3
   4  -3   1 610.187 20.4570   2
   4  -3   1 585.119 22.9311   4
  -5   3  -1 507.555 21.6414   3
  -5   3  -1 501.499 21.8546   2
  -5   3  -1 522.104 23.1431   1
   5  -3   1 497.922 21.3980   2
   5  -3   1 540.236 23.5639   4
   5  -3   1 500.566 21.2807   3
  -6   3  -1 94.4356 15.2403   2
  -6   3  -1 114.702 14.4581   1
   6  -3   1 128.481 17.5076   2
   6  -3   1 114.176 13.8540   3
   6  -3   1 95.5122 15.6856   4
  -7   3  -1 284.325 25.0398   2
  -7   3  -1 263.352 22.1360   1
   7  -3   1 290.943 26.1070   4
   7  -3   1 217.502 22.8073   3
   6   2  -1 74.3932 14.1064   3
   6   2  -1 119.251 18.1758   4
  -6  -2   1 83.7032 15.6893   2
   5   2  -1 52.6859 10.8422   3
   5   2  -1 43.2009 8.98895   4
   5   2  -1 42.6946 8.29722   1
  -5  -2   1 41.0566 7.48011   1
  -5  -2   1 48.5133 10.7563   2
   4   2  -1 472.762 18.3637   1
   4   2  -1 441.467 21.9967   3
   4   2  -1 484.179 20.7099   4
  -4  -2   1 479.789 24.7833   2
  -4  -2   1 471.303 17.5725   1
  -4  -2   1 466.544 19.8280   4
   3   2  -1 463.383 19.5940   3
   3   2  -1 460.755 22.6178   2
   3   2  -1 468.118 17.9629   4
  -3  -2   1 445.614 15.4610   1
  -3  -2   1 457.071 17.3643   4
  -3  -2   1 401.183 18.5098   3
  -3  -2   1 441.298 20.7899   2
   2   2  -1 1967.74 43.0528   4
   2   2  -1 2014.19 48.1878   2
   2   2  -1 2000.47 40.5964   1
   2   2  -1 2000.05 45.6359   3
  -2  -2   1 2014.35 47.8442   2
  -2  -2   1 1974.17 42.4930   4
  -2  -2   1 1987.31 41.1346   1
  -2  -2   1 1961.71 44.9149   3
   1   2  -1 1347.71 28.8183   1
   1   2  -1 1377.79 29.4568   4
   1   2  -1 1335.28 30.9983   3
  -1  -2   1 1201.14 28.7094   1
  -1  -2   1 1347.85 32.1887   2
  -1  -2   1 1352.93 28.9099   4
   0   2  -1 5546.38 96.6538   2
   0   2  -1 5454.85 97.7404   4
   0   2  -1 5605.92 98.0378   1
   0   2  -1 5638.65 99.6180   3
   0  -2   1 4998.49 98.5831   2
  -1   2  -1 338.758 9.96622   2
  -1   2  -1 363.462 10.9960   3
  -1   2  -1 341.449 11.8834   1
  -1   2  -1 341.170 11.3481   4
   1  -2   1 340.733 9.78169   2
   1  -2   1 352.434 11.1576   3
   1  -2   1 346.891 11.6284   4
   1  -2   1 353.551 12.1258   1
  -2   2  -1 12.8485 2.65824   2
  -2   2  -1 11.3891 2.66724   1
  -2   2  -1 16.3508 3.09995   4
  -2   2  -1 13.1822 2.79855   3
   2  -2   1 13.4523 3.21544   1
   2  -2   1 12.5221 2.52328   2
   2  -2   1 11.9591 2.83517   4
  -3   2  -1 1146.83 30.2848   4
  -3   2  -1 1140.03 30.1940   1
  -3   2  -1 1126.10 29.0777   2
   3  -2   1 1136.54 30.3610   4
   3  -2   1 1125.76 28.2844   3
   3  -2   1 1160.86 30.3698   1
  -4   2  -1 366.750 16.3855   1
  -4   2  -1 377.253 15.9811   3
  -4   2  -1 350.006 16.4187   4
  -4   2  -1 363.232 16.7461   2
   4  -2   1 364.001 16.5011   2
   4  -2   1 341.992 16.6138   1
   4  -2   1 358.200 15.6782   3
   4  -2   1 357.788 16.8209   4
  -5   2  -1 103.307 13.5716   3
  -5   2  -1 132.772 13.7650   2
  -5   2  -1 128.677 12.1803   1
   5  -2   1 139.058 13.6902   2
   5  -2   1 132.261 12.0409   3
   5  -2   1 115.931 13.3456   1
   5  -2   1 135.259 12.9887   4
  -6   2  -1 152.309 14.6703   1
  -6   2  -1 129.242 17.1111   2
   6  -2   1 120.126 14.4384   4
   6  -2   1 156.889 14.9635   3
  -7   2  -1 105.214 17.4239   2
   7  -2   1 91.8539 13.5697   4
   7  -2   1 104.893 18.8474   3
   7   1  -1 115.188 16.8961   4
   7   1  -1 180.845 25.0801   3
  -7  -1   1 160.149 26.6329   2
   6   1  -1 149.909 17.0809   3
   6   1  -1 121.001 16.3614   4
  -6  -1   1 132.120 14.6546   1
  -6  -1   1 158.158 20.7708   2
   5   1  -1 11.1669 5.81229   4
   5   1  -1 -0.4508 6.50763   3
   5   1  -1 2.17654 6.48858   1
  -5  -1   1 -7.6661 7.86521   2
  -5  -1   1 4.69003 5.53233   1
   4   1  -1 109.871 10.1107   1
   4   1  -1 114.500 11.1200   3
   4   1  -1 141.726 13.2181   2
   4   1  -1 95.4859 9.33421   4
  -4  -1   1 108.531 9.92794   4
  -4  -1   1 91.5141 8.31259   1
  -4  -1   1 97.8109 11.2280   3
  -4  -1   1 109.688 11.8982   2
   3   1  -1 49.8023 8.65433   2
   3   1  -1 50.1407 5.48903   4
   3   1  -1 56.0328 6.78794   3
  -3  -1   1 34.2041 6.18659   2
  -3  -1   1 38.6232 5.53347   4
  -3  -1   1 45.4609 5.47555   1
  -3  -1   1 53.9241 7.15698   3
   2   1  -1 2454.91 50.8839   3
   2   1  -1 2433.29 52.6279   2
   2   1  -1 2481.20 48.4749   4
   2   1  -1 2499.05 47.7808   1
  -2  -1   1 2478.31 50.6967   3
  -2  -1   1 2390.55 47.8544   4
  -2  -1   1 2396.19 47.6982   1
  -2  -1   1 2489.20 52.7684   2
   1   1  -1 1268.84 27.5156   2
   1   1  -1 1161.60 23.6455   4
   1   1  -1 1193.82 24.5949   1
  -1  -1   1 1164.03 23.5663   4
  -1  -1   1 1146.60 24.6663   1
  -1  -1   1 1183.11 25.6759   3
   0   1  -1 974.900 20.3802   2
   0   1  -1 995.225 19.4662   4
   0   1  -1 1011.32 20.1213   3
   0   1  -1 1002.06 21.2865   1
   0   1  -1 982.675 18.8791   3
   0  -1   1 981.376 21.2854   1
   0  -1   1 987.412 20.1318   2
  -1   1  -1 726.423 17.3781   2
  -1   1  -1 765.828 17.9393   1
  -1   1  -1 767.931 15.1811   3
  -1   1  -1 754.544 17.3868   4
   1  -1   1 763.440 17.8322   1
   1  -1   1 729.941 17.2359   4
   1  -1   1 776.373 17.4800   2
   1  -1   1 734.935 15.2244   3
  -2   1  -1 376.144 12.3734   1
  -2   1  -1 387.718 13.2758   2
  -2   1  -1 383.288 11.3852   3
  -2   1  -1 332.758 14.3582   4
   2  -1   1 342.195 12.4385   3
   2  -1   1 368.055 13.0246   2
   2  -1   1 382.481 12.3813   1
   2  -1   1 364.381 12.7208   4
  -3   1  -1 160.429 9.53212   4
  -3   1  -1 170.335 9.36733   3
  -3   1  -1 156.551 8.85046   1
  -3   1  -1 156.686 10.3768   2
   3  -1   1 160.546 9.52124   4
   3  -1   1 166.548 10.6499   2
   3  -1   1 152.125 8.58192   3
   3  -1   1 152.958 9.16107   1
  -4   1  -1 997.481 31.6417   2
  -4   1  -1 992.279 28.6806   3
  -4   1  -1 979.757 30.4435   4
  -4   1  -1 975.039 28.2449   1
   4  -1   1 998.473 32.2233   2
   4  -1   1 965.783 28.5341   1
   4  -1   1 1009.44 30.6564   4
   4  -1   1 1005.51 29.6201   3
  -5   1  -1 1022.36 33.3983   3
  -5   1  -1 1026.80 31.2866   1
  -5   1  -1 1017.02 35.8162   2
   5  -1   1 1095.33 53.1140   2
   5  -1   1 930.422 31.2306   1
   5  -1   1 1026.19 32.9550   3
   5  -1   1 983.646 33.6237   4
  -6   1  -1 554.170 30.2488   2
  -6   1  -1 561.186 24.1090   1
   6  -1   1 558.407 28.0864   4
   6  -1   1 591.391 27.2866   3
  -7   1  -1 36.3247 15.4638   2
  -7   1  -1 33.8235 10.8062   1
   7  -1   1 43.1066 13.5418   3
   7  -1   1 33.2851 12.2173   4
   7   0  -1 105.142 15.6692   4
   7   0  -1 123.687 17.5339   3
  -7   0   1 104.421 16.6593   1
  -7   0   1 84.5730 17.3337   2
   6   0  -1 122.055 14.0513   4
   6   0  -1 129.758 16.4220   3
  -6   0   1 83.9253 13.5910   2
  -6   0   1 96.4916 13.1239   1
   5   0  -1 909.356 29.7538   4
   5   0  -1 846.823 36.7256   2
   5   0  -1 825.377 28.1936   1
   5   0  -1 884.438 31.9773   3
  -5   0   1 922.079 28.8843   1
  -5   0   1 830.780 28.8938   4
  -5   0   1 874.087 32.8318   2
   4   0  -1 567.972 21.8586   3
   4   0  -1 559.939 20.2661   4
   4   0  -1 586.337 20.2702   1
   4   0  -1 582.375 23.7786   2
  -4   0   1 598.877 20.5920   1
  -4   0   1 599.458 23.5774   2
  -4   0   1 588.423 20.6264   4
  -4   0   1 589.021 22.3256   3
   3   0  -1 478.281 16.1681   1
   3   0  -1 452.475 16.7765   3
   3   0  -1 464.631 15.5655   4
   3   0  -1 483.259 18.1476   2
  -3   0   1 482.262 15.9290   4
  -3   0   1 498.697 16.3328   1
  -3   0   1 468.499 17.8301   2
  -3   0   1 479.490 17.1285   3
   2   0  -1 128.922 6.89593   3
   2   0  -1 138.336 6.77792   1
   2   0  -1 125.715 7.13827   2
  -2   0   1 123.388 6.48534   1
  -2   0   1 117.391 7.12326   2
  -2   0   1 127.055 6.01343   4
   1   0  -1 6285.24 103.423   1
   1   0  -1 6067.56 103.014   2
   1   0  -1 6121.48 103.571   3
   1   0  -1 5621.42 100.758   4
  -1   0   1 6149.39 103.319   1
  -1   0   1 6137.34 102.980   2
  -1   0   1 5779.09 100.811   4
  -1   0  -1 386.471 11.2448   4
  -1   0  -1 368.513 12.1289   2
  -1   0  -1 397.610 10.3527   3
  -1   0  -1 389.134 9.41599   1
   1   0   1 376.140 10.1615   3
   1   0   1 386.892 11.2098   4
   1   0   1 390.019 9.51253   1
   1   0   1 388.761 12.3859   2
  -2   0  -1 176.798 8.87950   4
  -2   0  -1 182.866 10.1597   2
  -2   0  -1 166.361 6.90000   1
  -2   0  -1 170.907 8.14620   3
   2   0   1 167.656 8.46691   4
   2   0   1 182.259 10.0470   2
   2   0   1 172.191 7.16664   1
   2   0   1 181.153 8.24127   3
  -3   0  -1 4.72248 3.70723   2
  -3   0  -1 3.16705 3.31041   4
  -3   0  -1 9.59403 3.92406   3
  -3   0  -1 1.70524 2.31651   1
   3   0   1 -0.1247 4.05142   2
   3   0   1 2.83543 2.82963   1
   3   0   1 6.33164 3.17639   3
   3   0   1 0.96256 2.82915   4
  -4   0  -1 242.665 14.3743   4
  -4   0  -1 259.793 14.8896   3
  -4   0  -1 280.536 17.3044   2
  -4   0  -1 270.399 12.2868   1
   4   0   1 255.172 17.5412   2
   4   0   1 275.976 14.7609   3
   4   0   1 286.603 15.3089   4
   4   0   1 257.946 12.7844   1
  -5   0  -1 234.672 13.5773   1
   5   0   1 219.790 15.2023   1
   5   0   1 236.118 15.9649   3
   5   0   1 238.122 15.8750   4
  -6   0  -1 136.808 13.8970   1
  -6   0  -1 184.161 21.7812   2
   6   0   1 142.697 17.1032   3
   6   0   1 151.449 17.0156   4
  -7   0  -1 13.6010 16.4433   2
   7   0   1 41.2004 14.0249   3
   7   0   1 44.1274 12.9700   4
   7  -1  -1 7.02679 10.1491   4
   7  -1  -1 3.68783 10.5828   3
  -7   1   1 17.8199 9.41864   1
  -7   1   1 21.2595 11.6747   2
   6  -1  -1 88.8185 12.6361   4
   6  -1  -1 90.3002 13.7685   3
  -6   1   1 76.6756 12.2252   1
  -6   1   1 75.4482 12.1904   2
   5  -1  -1 831.620 29.3826   3
   5  -1  -1 833.145 27.9318   4
   5  -1  -1 783.242 28.1056   1
   5  -1  -1 807.136 29.1615   2
  -5   1   1 799.863 29.2992   2
  -5   1   1 847.022 28.4407   1
  -5   1   1 761.553 26.8614   4
  -5   1   1 760.788 28.2474   3
   4  -1  -1 14.2030 4.52299   1
   4  -1  -1 6.76394 3.83651   2
   4  -1  -1 10.5489 3.48004   4
   4  -1  -1 7.27649 3.50125   3
  -4   1   1 -1.0355 3.61353   1
  -4   1   1 8.75718 3.72090   4
  -4   1   1 1.01497 3.67663   2
  -4   1   1 6.51600 3.97122   3
   3  -1  -1 758.094 21.1450   2
   3  -1  -1 734.088 21.6835   1
   3  -1  -1 733.251 22.4487   3
   3  -1  -1 742.108 20.8597   4
  -3   1   1 756.795 22.0409   3
  -3   1   1 743.415 21.8647   1
  -3   1   1 761.930 21.1398   2
  -3   1   1 756.034 20.7074   4
   2  -1  -1 27.6228 3.92093   3
   2  -1  -1 30.3271 3.19229   2
   2  -1  -1 29.3519 3.44624   4
   2  -1  -1 24.5458 3.58346   1
  -2   1   1 29.8858 3.98335   3
  -2   1   1 31.5341 3.40607   4
  -2   1   1 30.6447 2.93044   2
  -2   1   1 27.0711 3.77788   1
   1  -1  -1 992.784 18.1352   2
   1  -1  -1 947.897 22.2851   3
   1  -1  -1 1024.77 21.8400   4
   1  -1  -1 1005.36 21.4167   1
  -1   1   1 989.340 22.4598   3
  -1   1   1 1015.62 21.5791   1
  -1   1   1 1003.02 18.1145   2
  -1   1   1 1033.15 21.5305   4
   0  -1  -1 1216.36 21.7811   1
   0  -1  -1 1207.66 27.3778   3
   0  -1  -1 1206.69 25.2597   2
   0  -1  -1 1211.37 24.7589   4
   0   1   1 1202.74 25.2325   2
   0   1   1 1217.72 27.2434   3
   0   1   1 1209.17 24.9921   4
   0   1   1 1215.50 21.8389   1
  -1  -1  -1 686.673 18.2625   4
  -1  -1  -1 682.333 19.8342   2
   1   1   1 662.757 18.1265   4
   1   1   1 710.215 20.1217   2
   1   1   1 681.602 20.5346   3
   1   1   1 692.263 18.1970   3
  -2  -1  -1 1139.93 23.2240   1
  -2  -1  -1 1219.09 30.1278   4
  -2  -1  -1 1161.67 32.2563   2
   2   1   1 1202.67 33.0943   2
   2   1   1 1183.20 29.8908   3
   2   1   1 1177.00 23.4556   1
   2   1   1 1172.96 30.2633   4
  -3  -1  -1 1869.76 49.4197   2
  -3  -1  -1 1929.39 40.0361   1
  -3  -1  -1 1890.46 45.4904   4
  -3  -1  -1 1847.47 45.0266   3
   3   1   1 1886.34 50.1526   2
   3   1   1 1876.15 45.8606   3
   3   1   1 1886.24 38.3198   1
   3   1   1 1932.63 46.1897   4
  -4  -1  -1 652.747 19.1068   1
  -4  -1  -1 582.610 24.6680   3
  -4  -1  -1 660.827 28.7318   2
   4   1   1 615.813 25.4400   1
   4   1   1 670.684 25.2714   4
   4   1   1 677.942 25.8829   3
  -5  -1  -1 22.0190 5.89154   1
  -5  -1  -1 30.3800 10.2514   2
   5   1   1 33.9295 9.75517   3
   5   1   1 29.0806 7.28021   1
  -6  -1  -1 5.67305 12.4852   2
   6   1   1 20.4028 10.4896   4
   6   1   1 9.00814 9.71054   3
   7  -2  -1 59.5147 12.8075   3
   7  -2  -1 88.5147 13.9254   4
  -7   2   1 51.6590 10.6971   1
  -7   2   1 83.3893 13.6804   2
   6  -2  -1 759.689 31.0594   4
   6  -2  -1 730.321 29.0020   2
  -6   2   1 765.007 28.9813   2
  -6   2   1 708.111 33.7065   1
   5  -2  -1 369.654 17.6648   2
   5  -2  -1 375.741 19.3390   3
   5  -2  -1 367.946 19.5914   1
   5  -2  -1 367.010 17.7887   4
  -5   2   1 351.085 18.3401   1
  -5   2   1 375.169 17.7623   2
  -5   2   1 376.866 17.6609   4
  -5   2   1 367.091 19.6928   3
   4  -2  -1 528.210 20.8075   3
   4  -2  -1 545.958 19.9255   4
   4  -2  -1 535.059 20.9365   1
  -4   2   1 570.156 20.2853   4
  -4   2   1 570.266 21.0932   3
  -4   2   1 563.892 21.2538   1
  -4   2   1 578.295 18.5816   2
   3  -2  -1 1395.76 29.5205   2
   3  -2  -1 1425.82 35.7154   3
   3  -2  -1 1438.97 35.0988   1
   3  -2  -1 1437.15 34.3762   4
  -3   2   1 1418.38 29.4166   2
  -3   2   1 1427.24 33.7378   4
  -3   2   1 1393.47 35.0404   1
  -3   2   1 1417.62 34.9094   3
   2  -2  -1 3786.28 70.9622   4
   2  -2  -1 3581.24 71.4398   3
  -2   2   1 3741.48 71.4322   3
  -2   2   1 3756.97 70.7500   1
  -2   2   1 3550.87 69.5925   4
   1  -2  -1 390.595 11.6272   1
   1  -2  -1 376.870 9.24155   2
   1  -2  -1 373.303 13.8911   4
   1  -2  -1 373.561 14.2168   3
  -1   2   1 369.413 13.4056   4
  -1   2   1 367.647 13.8166   3
  -1   2   1 383.760 9.37806   2
   0  -2  -1 739.984 19.5223   2
   0  -2  -1 754.208 15.9369   1
   0  -2  -1 714.231 21.7703   4
   0   2   1 749.572 19.8600   4
   0   2   1 752.415 19.7248   2
   0   2   1 713.788 15.5636   1
  -1  -2  -1 299.569 12.1834   4
  -1  -2  -1 282.730 13.3688   2
   1   2   1 318.366 15.8332   3
   1   2   1 295.616 13.9607   2
   1   2   1 296.725 12.3638   4
  -2  -2  -1 609.953 23.4708   2
  -2  -2  -1 610.758 20.7595   4
   2   2   1 598.397 21.0519   4
   2   2   1 621.599 25.2525   3
   2   2   1 619.963 24.2132   2
   2   2   1 618.365 21.8027   3
  -3  -2  -1 871.936 28.3657   4
  -3  -2  -1 899.499 32.8078   2
   3   2   1 869.985 33.9729   3
   3   2   1 880.863 29.3540   4
   3   2   1 884.394 29.6320   3
   3   2   1 871.444 33.0193   2
  -4  -2  -1 63.3974 10.8954   2
   4   2   1 59.2951 10.4397   4
  -5  -2  -1 45.6626 12.2024   2
   5   2   1 50.5651 9.92455   4
   5   2   1 53.4252 11.4765   3
  -6  -2  -1 29.4811 15.1571   2
   6   2   1 20.2832 12.0500   4
   6   2   1 25.4597 13.7339   3
   8  -3  -1 180.545 28.3349   4
   8  -3  -1 165.227 20.1863   3
  -8   3   1 151.791 22.8477   1
   7  -3  -1 101.092 14.2782   3
   7  -3  -1 119.871 19.4041   4
  -7   3   1 95.8790 14.0712   1
  -7   3   1 106.186 17.4281   2
   6  -3  -1 92.3962 12.6707   2
   6  -3  -1 111.368 14.5722   4
   6  -3  -1 121.835 16.9180   3
  -6   3   1 107.941 12.5757   2
  -6   3   1 134.144 15.0490   1
   5  -3  -1 59.2063 8.18360   2
   5  -3  -1 69.6887 11.0250   4
   5  -3  -1 55.8703 10.0363   3
  -5   3   1 76.8630 10.5331   4
  -5   3   1 59.2241 10.5423   1
  -5   3   1 60.7425 7.54801   2
  -5   3   1 53.9455 9.33653   3
   4  -3  -1 1024.52 23.6362   2
   4  -3  -1 979.026 30.7456   1
   4  -3  -1 1026.11 32.0373   3
   4  -3  -1 1035.73 31.0459   4
  -4   3   1 1014.52 23.2397   2
  -4   3   1 1009.95 30.1259   4
  -4   3   1 1009.75 30.7591   3
  -4   3   1 1023.92 31.7052   1
   3  -3  -1 1038.73 29.8134   4
   3  -3  -1 1010.81 28.7567   1
   3  -3  -1 1029.80 30.5082   3
  -3   3   1 1009.31 29.2928   1
  -3   3   1 1027.38 29.5095   3
  -3   3   1 1038.06 28.5178   4
   2  -3  -1 1263.58 31.2791   1
   2  -3  -1 1246.86 34.3293   3
   2  -3  -1 1213.73 33.2524   4
  -2   3   1 1326.72 32.9039   4
  -2   3   1 1248.23 32.9444   3
  -2   3   1 1215.14 30.8138   1
   1  -3  -1 577.020 15.3092   2
   1  -3  -1 574.828 16.6649   1
   1  -3  -1 569.814 21.4351   3
  -1   3   1 563.503 15.3840   2
  -1   3   1 580.736 20.6431   4
  -1   3   1 591.937 21.5747   3
  -1   3   1 574.808 16.6494   1
   0  -3  -1 276.873 12.3655   2
   0  -3  -1 287.712 15.7297   3
   0   3   1 293.679 12.8964   4
   0   3   1 308.284 16.2853   3
   0   3   1 296.838 9.44952   1
   0   3   1 287.882 15.2761   4
   0   3   1 297.716 13.3587   2
  -1  -3  -1 825.761 25.2128   4
  -1  -3  -1 864.357 27.7312   2
   1   3   1 884.348 26.8821   4
   1   3   1 867.564 28.5716   2
   1   3   1 866.928 31.4603   3
  -2  -3  -1 853.146 30.7211   2
  -2  -3  -1 854.539 27.3671   4
   2   3   1 842.366 33.5396   3
   2   3   1 846.148 28.8585   3
   2   3   1 846.939 28.3668   4
   2   3   1 871.163 32.1896   2
  -3  -3  -1 479.814 30.0202   2
   3   3   1 470.741 22.1058   4
   3   3   1 454.611 22.9988   3
  -4  -3  -1 36.1407 10.9263   2
   4   3   1 35.8242 10.2830   3
   4   3   1 20.2197 8.59173   4
  -5  -3  -1 70.8995 16.1913   2
   5   3   1 124.802 20.1586   4
   5   3   1 70.4378 14.0193   3
   8  -4  -1 316.446 29.7630   3
   8  -4  -1 305.713 30.6209   4
  -8   4   1 325.768 28.5663   1
   7  -4  -1 581.663 31.8788   3
   7  -4  -1 658.533 31.4088   4
  -7   4   1 573.991 31.5039   1
  -7   4   1 603.130 25.7060   2
   6  -4  -1 153.818 15.6274   4
   6  -4  -1 128.883 25.0039   3
   6  -4  -1 126.787 12.6413   2
  -6   4   1 136.151 16.4825   1
  -6   4   1 136.617 11.3150   2
   5  -4  -1 236.851 17.4799   3
   5  -4  -1 189.658 14.7484   4
  -5   4   1 203.095 15.9770   1
  -5   4   1 183.099 16.3744   3
   4  -4  -1 308.025 17.5208   1
   4  -4  -1 343.971 18.4588   4
   4  -4  -1 344.174 19.0206   3
  -4   4   1 345.939 18.5902   3
  -4   4   1 356.561 18.4772   1
  -4   4   1 295.600 16.0275   4
   3  -4  -1 295.381 17.0800   3
   3  -4  -1 295.026 16.6541   4
   3  -4  -1 272.184 14.7530   1
  -3   4   1 314.769 15.4835   1
  -3   4   1 251.899 14.8045   4
  -3   4   1 301.377 16.3359   3
   2  -4  -1 19.5113 6.02201   3
   2  -4  -1 24.6562 6.33270   4
   2  -4  -1 43.2197 6.96157   1
  -2   4   1 33.9868 6.78187   4
  -2   4   1 23.4804 6.77688   3
  -2   4   1 27.8137 5.19671   1
   1  -4  -1 258.245 11.7996   1
   1  -4  -1 271.357 17.5236   3
   1  -4  -1 263.950 10.9313   2
  -1   4   1 271.520 13.2640   4
  -1   4   1 249.345 11.5624   1
  -1   4   1 268.677 11.8535   2
  -1   4   1 259.682 15.6985   4
  -1   4   1 250.202 16.6439   3
   0  -4  -1 1046.20 36.9996   3
   0  -4  -1 1029.66 30.2262   2
   0   4   1 1030.94 30.7587   2
   0   4   1 1017.70 24.2995   1
   0   4   1 1033.66 36.1499   3
   0   4   1 1063.68 31.3451   4
   0   4   1 1034.90 34.7703   4
   0   4   1 1048.80 26.2487   1
  -1  -4  -1 142.209 13.2679   2
  -1  -4  -1 112.686 11.3431   4
   1   4   1 114.357 10.5927   4
   1   4   1 140.728 12.3745   3
   1   4   1 138.651 14.7065   2
  -2  -4  -1 70.7729 10.8042   2
  -3  -4  -1 -8.8022 9.66121   2
   3   4   1 23.5290 9.18180   3
   3   4   1 8.50184 8.23014   4
  -4  -4  -1 227.219 27.8739   2
   4   4   1 227.171 21.7897   4
   4   4   1 276.573 23.7083   3
   7  -5  -1 109.140 16.2212   4
   7  -5  -1 176.003 23.8017   3
  -7   5   1 169.156 22.2723   1
   6  -5  -1 154.836 18.4305   4
   6  -5  -1 159.792 19.5230   3
  -6   5   1 133.686 18.1954   1
   5  -5  -1 969.815 37.0660   3
   5  -5  -1 992.820 36.6449   4
  -5   5   1 979.766 36.3285   1
   4  -5  -1 59.2645 10.8935   4
   4  -5  -1 53.5941 10.2527   3
   3  -5  -1 77.1361 12.1304   4
   3  -5  -1 75.9948 13.0662   3
   3  -5  -1 65.6541 10.9915   1
  -3   5   1 88.9301 13.7217   3
  -3   5   1 61.0645 12.1629   4
  -3   5   1 64.3290 10.3376   1
   2  -5  -1 515.809 20.5778   1
   2  -5  -1 494.287 25.6391   3
   2  -5  -1 526.683 26.1284   4
  -2   5   1 489.498 23.4744   4
  -2   5   1 510.263 20.2140   1
  -2   5   1 493.488 15.0763   2
  -2   5   1 497.620 26.0601   3
   1  -5  -1 587.396 19.2175   2
   1  -5  -1 570.718 28.1670   3
  -1   5   1 560.659 20.8782   2
  -1   5   1 557.646 26.5827   4
  -1   5   1 598.969 20.2859   1
  -1   5   1 555.288 27.9641   3
  -1   5   1 595.497 22.8882   4
   0  -5  -1 817.705 27.5435   2
   0  -5  -1 803.975 34.4444   3
   0   5   1 774.792 29.0164   2
   0   5   1 749.283 27.9367   4
   0   5   1 703.536 26.9090   1
   0   5   1 776.221 21.6524   1
  -1  -5  -1 431.575 23.0986   2
   1   5   1 465.127 23.4854   3
   1   5   1 439.710 22.1191   4
  -2  -5  -1 282.486 22.2820   2
   2   5   1 263.157 19.8371   4
   2   5   1 290.613 21.1403   3
  -3  -5  -1 22.1126 13.3042   2
   3   5   1 5.81197 10.7160   4
   3   5   1 24.4746 11.9091   3
   7  -6  -1 69.3676 17.7758   3
   7  -6  -1 51.3039 15.1338   4
  -7   6   1 65.1903 14.9757   1
   6  -6  -1 176.510 22.6946   4
   6  -6  -1 148.215 23.5592   3
  -6   6   1 198.155 22.7306   1
   5  -6  -1 228.629 22.3168   3
   5  -6  -1 171.929 21.9503   4
  -5   6   1 191.895 19.6110   1
   4  -6  -1 146.484 18.2020   4
  -4   6   1 135.962 16.3477   1
   3  -6  -1 6.23898 10.0220   4
   3  -6  -1 28.4635 10.9924   3
  -3   6   1 34.9823 7.84470   1
   2  -6  -1 86.6286 11.2157   1
   2  -6  -1 125.355 23.4956   3
  -2   6   1 98.1538 12.2697   4
  -2   6   1 128.365 14.0835   1
  -2   6   1 96.8994 10.8603   2
  -2   6   1 81.7441 8.74121   2
   1  -6  -1 98.5554 10.7071   2
   1  -6  -1 117.923 19.7378   3
  -1   6   1 106.454 12.8117   4
  -1   6   1 73.4651 10.5847   1
  -1   6   1 114.014 13.1193   1
  -1   6   1 98.2768 15.3196   2
   0  -6  -1 112.816 16.5719   3
   0  -6  -1 94.8013 14.8112   2
   0   6   1 119.972 14.0579   4
   0   6   1 83.1375 12.4442   1
   0   6   1 98.2529 14.4714   2
   0   6   1 109.351 11.6671   1
  -1  -6  -1 310.559 23.9748   2
   1   6   1 304.859 24.2747   3
   1   6   1 311.616 22.4283   4
  -2  -6  -1 92.1813 15.5370   2
   2   6   1 120.716 22.0111   3
   2   6   1 150.757 20.3568   4
   6  -7  -1 202.392 29.2937   4
  -6   7   1 207.894 25.6893   1
   5  -7  -1 34.3420 16.5286   3
   5  -7  -1 51.7396 15.2691   4
  -5   7   1 12.9988 11.6053   1
   4  -7  -1 309.510 28.5058   4
   4  -7  -1 363.771 30.3940   3
  -4   7   1 381.079 26.8301   1
   3  -7  -1 699.442 37.8866   3
  -3   7   1 711.959 31.1364   1
   2  -7  -1 105.499 18.7914   3
  -2   7   1 104.825 15.5424   4
  -2   7   1 87.6731 12.4995   2
  -2   7   1 108.559 17.7452   1
   1  -7  -1 95.2547 11.2550   2
   1  -7  -1 85.1337 18.9130   3
  -1   7   1 106.439 16.3611   4
   0  -7  -1 105.259 15.1833   2
   0   7   1 107.982 18.4546   4
   0   7   1 139.171 20.0647   3
   1   7   1 119.578 18.0029   3
   1   7   1 137.128 22.6475   4
   5  -8  -1 55.5352 21.5513   3
   5  -8  -1 8.10646 18.9738   4
  -5   8   1 36.4226 15.4186   1
   4  -8  -1 69.3201 21.2868   3
  -4   8   1 5.52095 14.4914   1
   3  -8  -1 67.2987 20.9683   3
  -3   8   1 50.0231 13.4762   4
  -3   8   1 66.3768 15.4306   1
   2  -8  -1 134.661 24.1535   3
  -2   8   1 120.197 17.7075   1
  -2   8   1 156.212 20.5296   4
   1  -8  -1 164.051 27.3773   3
  -1   8   1 119.096 21.4547   4
   0   8  -2 3.21956 13.6307   2
   0   8  -2 2.50714 11.8196   4
   0   8  -2 12.1715 13.5539   3
   0   8  -2 29.6224 14.0945   1
  -1   8  -2 53.2968 12.7945   4
  -1   8  -2 86.4198 14.7987   1
  -1   8  -2 56.1815 14.4477   2
  -2   8  -2 693.172 31.2729   4
  -2   8  -2 696.767 34.6780   1
   2  -8   2 655.230 38.8529   3
  -3   8  -2 132.457 18.2836   1
   3  -8   2 136.573 20.4126   4
   3  -8   2 125.716 18.6321   3
  -4   8  -2 38.8569 13.9500   1
   4  -8   2 7.32774 16.1945   3
   4  -8   2 80.6939 17.8888   4
  -5   8  -2 52.9997 14.3968   1
   5  -8   2 34.9090 18.4837   3
   2   7  -2 51.6622 13.4649   4
   2   7  -2 38.1868 15.2220   3
   1   7  -2 12.0475 12.0971   3
   1   7  -2 14.6497 10.8697   1
   0   7  -2 81.1468 12.0334   4
   0   7  -2 89.5402 12.8137   1
   0   7  -2 84.7882 13.9633   3
   0   7  -2 89.1247 14.0893   2
  -1   7  -2 65.4026 13.3266   2
  -1   7  -2 76.8615 11.5120   2
  -1   7  -2 57.0812 11.2095   1
  -1   7  -2 75.1480 13.1010   4
  -2   7  -2 304.160 20.1652   2
  -2   7  -2 325.956 22.7967   1
  -2   7  -2 346.332 18.9849   2
   2  -7   2 300.757 24.3582   4
   2  -7   2 275.726 23.2039   3
  -3   7  -2 40.5190 8.11774   2
   3  -7   2 73.9831 13.5625   4
   3  -7   2 35.1771 12.3469   3
  -4   7  -2 378.039 26.3201   1
   4  -7   2 356.848 25.5834   3
   4  -7   2 429.662 30.1013   4
  -5   7  -2 243.996 23.8925   1
   5  -7   2 275.418 24.6480   3
   5  -7   2 187.522 25.3730   4
  -6   7  -2 41.0510 14.3321   1
   6  -7   2 22.8113 16.8467   3
   6  -7   2 33.3149 14.7404   4
   3   6  -2 244.306 21.4441   4
   3   6  -2 261.487 25.1476   3
  -3  -6   2 215.688 25.1048   2
   2   6  -2 168.144 17.0775   1
   2   6  -2 173.381 19.0204   3
   2   6  -2 152.662 18.0044   4
  -2  -6   2 171.713 19.5114   2
   1   6  -2 217.493 16.5086   1
   1   6  -2 219.966 19.3087   1
   1   6  -2 219.860 20.8296   4
   1   6  -2 233.238 18.2358   3
  -1  -6   2 229.529 18.6388   2
   0   6  -2 442.818 24.6331   2
   0   6  -2 456.066 21.9318   2
   0   6  -2 452.403 22.1587   1
   0   6  -2 454.115 21.0682   4
   0   6  -2 484.916 22.8677   3
   0   6  -2 430.159 23.2677   1
  -1   6  -2 438.241 21.5136   2
  -1   6  -2 464.959 22.0249   1
  -1   6  -2 468.504 21.0135   4
  -1   6  -2 426.485 23.5915   1
  -1   6  -2 442.665 27.2067   3
  -1   6  -2 473.861 20.1216   2
   1  -6   2 431.281 24.2510   3
  -2   6  -2 41.6261 7.58886   2
  -2   6  -2 32.1264 8.01448   1
  -2   6  -2 39.8748 7.60833   2
  -2   6  -2 34.2363 10.3209   3
   2  -6   2 40.7322 9.80302   4
   2  -6   2 23.2458 9.16992   3
  -3   6  -2 23.6842 9.42476   3
  -3   6  -2 35.1590 6.31508   2
  -3   6  -2 35.1732 6.45284   2
   3  -6   2 29.0676 8.74359   3
  -4   6  -2 27.7491 10.3297   3
  -4   6  -2 53.1596 11.5993   1
  -4   6  -2 36.9823 7.10145   2
   4  -6   2 51.2501 9.57544   3
   4  -6   2 36.9389 9.39671   4
  -5   6  -2 218.454 14.3278   2
  -5   6  -2 207.891 20.1794   1
  -5   6  -2 187.119 21.7319   3
   5  -6   2 157.857 19.7879   3
   5  -6   2 177.950 20.8658   4
  -6   6  -2 118.620 20.9986   1
   6  -6   2 64.1876 13.9676   3
   6  -6   2 78.6197 15.6577   4
   4   5  -2 9.73177 11.3141   3
   4   5  -2 12.9620 10.7327   4
  -4  -5   2 19.3547 12.1279   2
   3   5  -2 35.7428 10.1627   3
   3   5  -2 30.1992 9.21299   4
  -3  -5   2 44.3936 11.6164   2
   2   5  -2 11.7588 7.48265   3
   2   5  -2 15.0838 6.95364   1
   2   5  -2 33.7321 7.29376   1
   2   5  -2 16.2370 7.44098   4
   1   5  -2 317.590 20.4680   4
   1   5  -2 298.486 29.3099   3
   1   5  -2 334.171 17.5258   1
   1   5  -2 360.426 18.4865   3
   1   5  -2 329.909 16.9675   1
   1   5  -2 333.432 17.0545   4
   1   5  -2 343.114 21.5435   2
  -1  -5   2 352.629 19.1937   2
   0   5  -2 365.339 19.0869   2
   0   5  -2 384.578 16.6894   4
   0   5  -2 389.987 17.7873   2
   0   5  -2 370.595 20.2642   4
   0   5  -2 333.965 21.0025   3
   0   5  -2 358.469 18.1068   1
   0   5  -2 360.208 17.5913   1
   0   5  -2 365.117 17.4085   3
  -1   5  -2 1104.84 33.3725   1
  -1   5  -2 1136.16 36.0456   3
  -1   5  -2 1085.23 30.6744   2
  -1   5  -2 1079.80 35.0943   1
  -1   5  -2 1121.28 34.3238   4
  -1   5  -2 1108.56 30.9001   2
   1  -5   2 1054.00 35.9818   4
   1  -5   2 1103.69 35.6787   3
  -2   5  -2 239.533 15.6999   4
  -2   5  -2 251.756 15.1935   1
  -2   5  -2 227.347 11.9735   2
  -2   5  -2 232.333 12.0451   2
  -2   5  -2 240.055 17.2088   1
  -2   5  -2 217.349 14.9460   3
   2  -5   2 242.861 15.6934   3
   2  -5   2 263.157 16.6643   4
  -3   5  -2 428.840 19.1089   3
  -3   5  -2 447.019 16.8101   2
  -3   5  -2 418.424 20.1171   4
  -3   5  -2 459.195 21.4356   1
   3  -5   2 466.451 20.4936   3
   3  -5   2 445.152 21.5170   4
   3  -5   2 425.222 15.8100   2
  -4   5  -2 43.0801 8.18360   3
  -4   5  -2 39.8074 6.58177   2
   4  -5   2 62.2712 11.0696   3
   4  -5   2 31.6314 8.46723   4
   4  -5   2 24.4967 5.71996   2
  -5   5  -2 155.293 16.6543   1
  -5   5  -2 153.848 13.6818   2
  -5   5  -2 135.384 15.5381   3
   5  -5   2 145.649 13.0506   2
   5  -5   2 133.362 15.0409   3
   5  -5   2 145.868 17.3119   4
  -6   5  -2 1018.37 34.9075   2
  -6   5  -2 1057.78 41.2187   1
   6  -5   2 1129.22 38.5032   3
   6  -5   2 1094.58 41.3223   4
  -7   5  -2 152.501 23.0595   1
   7  -5   2 180.922 24.0582   3
   7  -5   2 221.191 24.8922   4
   5   4  -2 19.9215 12.0104   3
   5   4  -2 18.5400 11.0849   4
  -5  -4   2 34.2384 13.5713   2
   4   4  -2 833.123 35.0006   3
   4   4  -2 860.801 32.8823   4
  -4  -4   2 811.046 26.8914   1
  -4  -4   2 825.898 36.8027   2
   3   4  -2 351.202 17.3694   1
   3   4  -2 334.515 18.2633   4
   3   4  -2 353.442 20.4334   3
  -3  -4   2 343.108 16.2319   1
  -3  -4   2 343.457 17.0015   4
  -3  -4   2 400.304 22.6556   2
   2   4  -2 76.2009 13.8149   2
   2   4  -2 68.4082 8.77617   4
   2   4  -2 49.3439 9.17360   1
   2   4  -2 51.2542 10.6892   3
   2   4  -2 50.3916 8.80917   3
  -2  -4   2 59.9706 10.8544   2
  -2  -4   2 49.8282 8.12790   1
   1   4  -2 212.251 14.4570   4
   1   4  -2 223.518 15.0415   2
   1   4  -2 230.627 18.1590   3
   1   4  -2 228.403 13.1208   3
   1   4  -2 215.040 12.8101   1
   1   4  -2 222.440 11.9514   4
  -1  -4   2 219.432 13.5492   2
   0   4  -2 570.992 19.3852   3
   0   4  -2 541.126 18.2017   4
   0   4  -2 582.894 20.4313   2
   0   4  -2 517.518 21.6189   3
   0   4  -2 555.338 19.6627   1
   0   4  -2 520.948 20.1853   1
   0   4  -2 545.101 20.8835   4
   0   4  -2 545.815 19.3335   2
  -1   4  -2 847.313 26.5699   1
  -1   4  -2 870.976 24.3010   2
  -1   4  -2 904.200 28.9871   1
  -1   4  -2 860.912 26.7036   3
  -1   4  -2 867.297 26.3110   4
  -1   4  -2 867.499 23.9766   2
   1  -4   2 850.111 27.4982   4
   1  -4   2 859.564 26.8913   3
  -2   4  -2 115.490 8.13925   2
  -2   4  -2 120.087 8.99650   3
  -2   4  -2 100.258 9.12364   4
  -2   4  -2 110.069 9.82391   1
   2  -4   2 104.293 9.44596   4
   2  -4   2 123.304 7.62557   2
   2  -4   2 114.154 9.06752   3
  -3   4  -2 4.13118 3.85121   2
  -3   4  -2 -0.3326 4.08853   1
  -3   4  -2 7.46603 5.50809   4
  -3   4  -2 3.92469 4.43182   3
   3  -4   2 3.33641 4.89964   1
   3  -4   2 7.25561 3.87171   2
   3  -4   2 -2.0382 4.31839   3
   3  -4   2 8.86935 4.30785   4
  -4   4  -2 223.428 13.3128   3
  -4   4  -2 213.651 13.0539   2
  -4   4  -2 209.911 15.1922   1
   4  -4   2 228.304 12.6404   2
   4  -4   2 211.450 14.7798   4
   4  -4   2 216.397 13.1361   3
  -5   4  -2 139.330 15.2093   3
  -5   4  -2 161.780 15.1252   1
  -5   4  -2 164.161 14.5305   2
   5  -4   2 168.846 13.7421   3
   5  -4   2 183.303 16.0857   4
   5  -4   2 173.278 15.2094   2
  -6   4  -2 137.991 19.4253   3
  -6   4  -2 175.255 18.6770   2
  -6   4  -2 162.556 17.6959   1
   6  -4   2 114.842 19.6623   2
   6  -4   2 168.034 17.1212   3
   6  -4   2 157.686 18.3561   4
  -7   4  -2 253.915 23.5206   1
  -7   4  -2 239.864 26.4721   2
   7  -4   2 209.304 23.3429   3
   7  -4   2 253.683 26.0647   4
   6   3  -2 24.4733 13.2632   3
   6   3  -2 45.0524 12.6593   4
  -6  -3   2 58.5030 13.4479   2
   5   3  -2 16.4852 10.5876   3
  -5  -3   2 12.8956 10.5550   2
  -5  -3   2 8.43215 8.58284   1
   4   3  -2 413.314 22.4735   3
   4   3  -2 417.469 19.2158   1
   4   3  -2 430.367 20.8686   4
  -4  -3   2 383.751 24.0252   2
  -4  -3   2 451.439 22.8637   4
  -4  -3   2 419.167 18.2244   1
   3   3  -2 140.953 17.5302   2
   3   3  -2 178.127 11.7622   1
   3   3  -2 166.831 13.2936   3
   3   3  -2 169.934 11.7277   4
  -3  -3   2 168.914 10.9584   1
  -3  -3   2 177.072 15.6303   2
  -3  -3   2 191.020 11.3184   4
   2   3  -2 282.057 12.8443   1
   2   3  -2 253.498 16.0657   2
   2   3  -2 261.482 14.0497   3
   2   3  -2 258.949 12.0935   4
   2   3  -2 266.334 17.0591   3
  -2  -3   2 285.634 15.4024   2
  -2  -3   2 272.691 12.1034   4
  -2  -3   2 288.870 12.9802   1
   1   3  -2 534.439 17.8937   1
   1   3  -2 524.880 19.9553   2
   1   3  -2 554.464 18.7249   3
   1   3  -2 524.094 19.0934   4
   1   3  -2 515.040 20.8437   3
   1   3  -2 514.016 16.3520   4
  -1  -3   2 541.749 19.3533   2
  -1  -3   2 545.641 18.6166   1
   0   3  -2 1414.75 33.1854   2
   0   3  -2 1346.49 34.8769   3
   0   3  -2 1376.94 31.3146   3
   0   3  -2 1405.33 34.6949   1
   0   3  -2 1361.77 32.6827   2
   0  -3   2 1386.97 34.3778   4
  -1   3  -2 163.458 8.74067   3
  -1   3  -2 158.757 8.21798   2
  -1   3  -2 146.742 9.34833   1
  -1   3  -2 156.625 10.3045   1
  -1   3  -2 154.068 8.55631   4
   1  -3   2 158.439 9.02642   4
   1  -3   2 141.977 8.43434   3
   1  -3   2 160.314 7.85352   2
  -2   3  -2 1133.47 28.1859   2
  -2   3  -2 1161.81 29.6277   4
  -2   3  -2 1154.92 26.0599   3
  -2   3  -2 1142.77 30.9499   1
   2  -3   2 1113.14 29.5904   4
   2  -3   2 1100.85 30.9853   1
   2  -3   2 1059.00 29.0466   3
   2  -3   2 1111.24 27.0476   2
  -3   3  -2 692.084 22.1303   2
  -3   3  -2 686.114 23.0802   4
  -3   3  -2 701.699 19.5224   3
  -3   3  -2 687.116 23.5722   1
   3  -3   2 685.953 19.8857   3
   3  -3   2 708.128 21.5799   2
   3  -3   2 665.394 24.1654   1
   3  -3   2 687.762 23.2553   4
  -4   3  -2 969.376 31.6989   4
  -4   3  -2 1016.30 32.2129   1
  -4   3  -2 1040.57 28.2132   3
  -4   3  -2 1025.31 31.3471   2
   4  -3   2 1017.23 33.5526   1
   4  -3   2 1026.75 30.4846   2
   4  -3   2 1081.31 33.0096   4
   4  -3   2 1049.68 29.0865   3
  -5   3  -2 1233.32 38.3422   2
  -5   3  -2 1192.02 37.9262   1
  -5   3  -2 1166.13 34.0250   3
   5  -3   2 1164.99 37.6789   2
   5  -3   2 1221.42 39.4583   4
   5  -3   2 1235.38 35.6232   3
  -6   3  -2 36.9323 11.0717   2
  -6   3  -2 24.0816 8.54878   1
   6  -3   2 23.9980 8.93779   3
   6  -3   2 37.6583 10.7601   4
  -7   3  -2 -14.576 12.6610   2
  -7   3  -2 29.6579 11.4973   1
   7  -3   2 2.16852 11.9089   3
   7  -3   2 27.6691 14.0537   4
   6   2  -2 29.7788 9.65902   4
  -6  -2   2 30.5757 9.44825   1
  -6  -2   2 34.5130 13.4440   2
   5   2  -2 719.570 27.9697   1
   5   2  -2 794.649 29.3950   4
   5   2  -2 806.901 33.1388   3
  -5  -2   2 778.479 34.2554   2
  -5  -2   2 796.285 27.6979   1
   4   2  -2 99.3547 9.80547   4
   4   2  -2 73.4237 11.0003   1
   4   2  -2 101.034 11.7310   3
  -4  -2   2 115.608 10.2494   4
  -4  -2   2 84.1187 9.73317   1
  -4  -2   2 105.494 13.4719   2
   3   2  -2 178.434 9.97798   4
   3   2  -2 161.730 11.6620   3
   3   2  -2 165.714 13.5528   2
   3   2  -2 188.113 10.9618   1
  -3  -2   2 182.722 13.4752   2
  -3  -2   2 160.949 10.1236   1
  -3  -2   2 167.683 9.68916   4
  -3  -2   2 167.938 12.1177   3
   2   2  -2 1880.43 46.4094   2
   2   2  -2 1947.31 44.1728   3
   2   2  -2 1890.80 39.8010   4
  -2  -2   2 1908.43 45.3308   2
  -2  -2   2 1902.29 39.8611   4
  -2  -2   2 1886.07 43.2281   3
  -2  -2   2 1891.94 41.9458   1
   1   2  -2 1084.94 25.8083   4
   1   2  -2 1072.74 26.1832   1
   1   2  -2 1072.64 25.6539   3
   1   2  -2 1040.97 27.2648   2
  -1  -2   2 1042.03 26.2812   1
  -1  -2   2 1049.61 27.1652   2
  -1  -2   2 1031.30 25.1774   3
   0   2  -2 43.3548 4.39239   2
   0   2  -2 45.4240 3.50309   3
   0   2  -2 49.8912 4.76270   3
   0   2  -2 44.5839 3.77951   4
   0   2  -2 47.2787 4.83266   1
   0  -2   2 42.6591 4.66406   1
   0  -2   2 42.7222 3.86810   4
  -1   2  -2 1291.93 28.1057   4
  -1   2  -2 1241.79 30.0430   1
  -1   2  -2 1227.99 24.3376   3
  -1   2  -2 1277.41 28.8253   2
   1  -2   2 1249.42 28.2959   2
   1  -2   2 1274.10 28.2896   4
   1  -2   2 1266.77 25.1819   3
  -2   2  -2 5.76777 3.05192   2
  -2   2  -2 10.1158 2.98264   4
  -2   2  -2 8.35336 2.80686   1
  -2   2  -2 7.16447 2.08498   3
   2  -2   2 3.56075 1.94651   4
   2  -2   2 4.70711 3.37967   1
   2  -2   2 7.72284 1.99759   3
   2  -2   2 4.97523 2.90177   2
  -3   2  -2 1471.69 36.7180   1
  -3   2  -2 1468.47 37.5382   2
  -3   2  -2 1475.50 32.4466   3
  -3   2  -2 1395.95 36.6121   4
   3  -2   2 1489.35 37.2817   2
   3  -2   2 1455.91 33.0668   3
   3  -2   2 1444.41 37.0302   4
   3  -2   2 1467.86 37.1591   1
  -4   2  -2 575.596 23.0379   4
  -4   2  -2 641.048 22.7514   1
  -4   2  -2 619.286 24.2950   2
  -4   2  -2 606.628 20.4118   3
   4  -2   2 597.997 23.4477   4
   4  -2   2 621.676 24.1051   2
   4  -2   2 617.145 20.7309   3
   4  -2   2 604.418 23.1936   1
  -5   2  -2 276.175 19.6258   2
  -5   2  -2 288.618 16.8062   3
  -5   2  -2 282.726 16.6738   1
   5  -2   2 230.527 15.2369   3
   5  -2   2 297.184 18.6743   1
   5  -2   2 238.282 18.6404   2
   5  -2   2 270.255 17.2629   4
  -6   2  -2 201.856 20.3542   1
  -6   2  -2 245.336 21.9438   2
   6  -2   2 246.752 17.7233   3
   6  -2   2 275.443 20.2553   4
  -7   2  -2 29.7351 15.0905   2
  -7   2  -2 30.7277 11.1231   1
   7  -2   2 -5.5335 10.7585   4
   7  -2   2 -0.0431 12.4855   3
   7   1  -2 351.643 26.0308   4
   7   1  -2 283.979 27.3944   3
  -7  -1   2 314.569 24.1672   1
  -7  -1   2 370.483 30.8198   2
   6   1  -2 72.0132 11.3075   4
   6   1  -2 83.9055 16.0669   3
  -6  -1   2 71.6614 13.0687   1
  -6  -1   2 63.8936 13.1137   2
   5   1  -2 90.5168 13.9324   1
   5   1  -2 119.719 11.5198   4
   5   1  -2 129.750 16.0461   3
  -5  -1   2 96.9975 10.9841   1
  -5  -1   2 99.6266 11.8430   4
  -5  -1   2 110.262 13.9610   2
   4   1  -2 10.9809 5.47977   1
   4   1  -2 10.9229 3.69324   4
   4   1  -2 8.92621 4.17860   3
   4   1  -2 13.8665 6.42058   2
  -4  -1   2 2.25465 4.10895   1
  -4  -1   2 13.0435 5.24161   2
  -4  -1   2 15.3399 4.48861   4
  -4  -1   2 7.64727 5.32207   3
   3   1  -2 686.623 24.2283   2
   3   1  -2 680.217 19.4984   4
   3   1  -2 683.838 20.9064   1
   3   1  -2 691.466 22.8239   3
  -3  -1   2 708.489 21.4575   1
  -3  -1   2 667.003 22.2951   3
  -3  -1   2 705.980 19.5894   4
  -3  -1   2 682.884 23.6381   2
   2   1  -2 3367.23 66.3915   2
   2   1  -2 3235.55 62.8747   1
   2   1  -2 2986.30 60.8674   4
   2   1  -2 3266.48 64.5556   3
  -2  -1   2 3261.33 59.4192   4
  -2  -1   2 3343.58 63.8016   1
  -2  -1   2 3380.02 65.7663   2
  -2  -1   2 3235.88 63.6807   3
   1   1  -2 2230.83 43.9187   2
   1   1  -2 2170.07 42.5751   3
   1   1  -2 2242.92 43.8558   1
   1   1  -2 2215.14 43.8711   2
   1   1  -2 2127.97 38.2093   4
  -1  -1   2 2152.82 41.9735   3
  -1  -1   2 2115.02 38.0874   4
  -1  -1   2 2204.53 43.8358   1
   0   1  -2 424.798 9.10646   3
   0   1  -2 442.885 10.0593   4
   0   1  -2 417.912 12.7311   2
   0   1  -2 441.685 13.1868   1
   0  -1   2 450.650 12.7732   2
   0  -1   2 410.706 13.1642   1
   0  -1   2 429.733 9.99415   4
   0  -1   2 434.489 9.09476   3
  -1   1  -2 2199.98 44.6619   2
  -1   1  -2 2081.65 41.9497   4
  -1   1  -2 2149.14 43.5324   1
  -1   1  -2 2175.43 44.3265   1
  -1   1  -2 2184.25 37.3431   3
   1  -1   2 2144.73 37.4062   3
   1  -1   2 2234.83 44.5475   2
   1  -1   2 2109.24 42.0462   4
  -2   1  -2 469.708 15.6080   4
  -2   1  -2 478.081 15.1422   1
  -2   1  -2 479.585 17.0382   2
  -2   1  -2 464.423 12.8750   3
   2  -1   2 449.606 12.7059   3
   2  -1   2 453.963 14.9881   1
   2  -1   2 463.860 15.7465   4
   2  -1   2 463.422 16.8289   2
  -3   1  -2 459.596 16.1054   1
  -3   1  -2 478.727 19.5970   2
  -3   1  -2 467.080 15.7832   3
  -3   1  -2 437.534 17.6975   4
   3  -1   2 473.292 15.7208   3
   3  -1   2 462.913 16.8427   1
   3  -1   2 478.000 19.7101   2
   3  -1   2 470.831 18.2498   4
  -4   1  -2 1035.77 28.7684   1
  -4   1  -2 982.905 28.9481   3
  -4   1  -2 942.507 31.0966   4
  -4   1  -2 1009.37 33.9913   2
   4  -1   2 977.494 31.4508   4
   4  -1   2 981.313 29.2389   1
   4  -1   2 1002.35 29.0694   3
   4  -1   2 966.236 32.9283   2
  -5   1  -2 14.0334 7.54413   2
  -5   1  -2 14.3726 5.26506   1
  -5   1  -2 11.5577 8.22111   3
   5  -1   2 21.3942 6.07321   3
   5  -1   2 9.62697 6.39605   4
   5  -1   2 23.4292 8.09341   1
  -6   1  -2 290.536 24.7229   2
  -6   1  -2 239.919 16.4274   1
   6  -1   2 242.852 20.5973   4
   6  -1   2 243.435 18.8824   3
  -7   1  -2 79.9840 18.9102   2
   7  -1   2 84.4438 14.2725   3
   7  -1   2 59.9060 14.3892   4
   7   0  -2 225.989 23.2797   3
   7   0  -2 219.417 21.8722   4
  -7   0   2 212.023 24.7321   2
  -7   0   2 229.382 19.9990   1
   6   0  -2 782.728 34.0170   4
   6   0  -2 742.793 32.8390   3
  -6   0   2 813.559 33.9287   2
  -6   0   2 837.760 30.4240   1
   5   0  -2 150.208 11.7538   4
   5   0  -2 129.958 15.0515   2
   5   0  -2 118.163 13.7353   1
   5   0  -2 142.225 13.3128   3
  -5   0   2 140.996 11.8831   1
  -5   0   2 142.685 13.3512   2
  -5   0   2 156.489 11.7830   4
   4   0  -2 371.203 17.5076   3
   4   0  -2 344.471 16.1131   1
   4   0  -2 349.856 14.6333   4
   4   0  -2 353.423 17.3273   2
  -4   0   2 367.100 16.8929   3
  -4   0   2 348.879 15.8184   1
  -4   0   2 361.156 14.8877   4
  -4   0   2 354.122 16.8371   2
   3   0  -2 497.684 18.2741   3
   3   0  -2 520.254 18.5069   2
   3   0  -2 504.777 15.3592   4
   3   0  -2 515.878 17.3831   1
  -3   0   2 528.054 15.5604   4
  -3   0   2 529.911 17.8268   1
  -3   0   2 508.694 18.0976   3
  -3   0   2 510.870 17.8709   2
   2   0  -2 243.671 10.4173   3
   2   0  -2 244.243 7.69128   4
   2   0  -2 239.749 9.90856   2
   2   0  -2 239.272 9.98632   1
  -2   0   2 233.714 9.91113   1
  -2   0   2 237.531 7.59648   4
  -2   0   2 245.351 9.66786   2
  -2   0   2 245.897 10.0437   3
   1   0  -2 31.4364 3.30700   3
   1   0  -2 32.4841 3.49402   1
   1   0  -2 36.7738 3.25653   2
  -1   0   2 33.6082 3.27054   1
  -1   0   2 28.6539 1.74380   4
  -1   0   2 35.8945 3.41073   2
  -1   0   2 29.1401 3.24711   3
   0   0  -2 120.029 6.08902   2
   0   0  -2 125.897 5.37919   1
   0   0  -2 126.353 4.80414   4
   0   0  -2 117.897 5.25701   3
   0   0   2 129.034 5.52046   1
   0   0   2 121.563 4.78369   4
   0   0   2 126.478 6.31150   2
   0   0   2 128.563 5.22273   3
  -1   0  -2 1835.44 36.0684   1
  -1   0  -2 1920.03 37.0643   1
  -1   0  -2 1910.13 41.7282   2
  -1   0  -2 1895.27 38.8460   4
   1   0   2 1901.35 38.8909   3
   1   0   2 1932.62 41.4608   2
   1   0   2 1903.93 36.7088   3
   1   0   2 1936.60 39.2035   4
  -2   0  -2 1325.12 34.8409   2
  -2   0  -2 1137.37 29.1068   1
  -2   0  -2 1364.17 32.4974   4
   2   0   2 1290.41 29.6011   3
   2   0   2 1309.13 32.1008   4
   2   0   2 1288.34 34.4417   2
   2   0   2 1361.32 28.2955   1
  -3   0  -2 61.9338 7.42651   3
  -3   0  -2 74.6125 8.52813   4
  -3   0  -2 77.3402 9.41470   2
  -3   0  -2 67.6473 5.93339   1
   3   0   2 50.4448 9.06677   2
   3   0   2 70.1248 6.72234   1
   3   0   2 79.8682 7.68857   4
   3   0   2 70.7399 6.64906   3
  -4   0  -2 232.261 17.6222   2
  -4   0  -2 230.328 11.4204   1
  -4   0  -2 239.201 14.9766   3
   4   0   2 242.007 14.3365   3
   4   0   2 258.347 13.5797   1
   4   0   2 236.086 14.8554   4
  -5   0  -2 349.869 15.7473   1
  -5   0  -2 308.839 22.7073   2
   5   0   2 334.334 20.2828   4
   5   0   2 295.768 17.8262   1
   5   0   2 344.917 19.1978   3
  -6   0  -2 81.5384 17.0710   2
  -6   0  -2 106.888 12.6982   1
   6   0   2 105.479 17.8790   4
   6   0   2 76.9683 11.6538   3
   7  -1  -2 0.48209 9.10681   4
   7  -1  -2 -10.004 10.2355   3
  -7   1   2 -0.6735 8.93105   1
  -7   1   2 3.55556 10.1552   2
   6  -1  -2 274.148 20.3241   3
   6  -1  -2 298.624 18.5817   4
  -6   1   2 286.674 17.8457   1
  -6   1   2 271.743 19.3865   2
   5  -1  -2 814.125 30.1440   3
   5  -1  -2 825.949 26.4783   4
   5  -1  -2 733.163 27.7760   2
   5  -1  -2 766.615 27.8175   1
  -5   1   2 771.550 28.4355   3
  -5   1   2 811.029 27.7859   2
  -5   1   2 819.918 28.7084   1
  -5   1   2 799.868 26.0622   4
   4  -1  -2 1481.54 39.8343   3
   4  -1  -2 1472.67 35.8843   4
   4  -1  -2 1470.84 37.5690   2
   4  -1  -2 1417.00 37.7161   1
  -4   1   2 1432.67 38.5536   3
  -4   1   2 1489.72 36.6577   2
  -4   1   2 1522.35 39.0201   1
  -4   1   2 1485.30 35.7607   4
   3  -1  -2 1015.45 28.3620   3
   3  -1  -2 1022.39 25.0050   4
   3  -1  -2 1035.96 27.4610   1
   3  -1  -2 1026.63 25.4794   2
  -3   1   2 1005.57 27.8605   3
  -3   1   2 908.234 26.8591   4
  -3   1   2 1037.64 27.7973   1
  -3   1   2 1033.76 24.8574   2
   2  -1  -2 7.36293 2.68893   1
   2  -1  -2 7.35551 2.63784   3
   2  -1  -2 7.63538 1.90551   2
   2  -1  -2 6.18831 1.77822   2
  -2   1   2 7.35501 2.90609   3
  -2   1   2 9.13891 2.38447   1
  -2   1   2 6.06690 1.83370   4
   1  -1  -2 1168.65 24.4015   2
   1  -1  -2 1165.23 27.6700   3
   1  -1  -2 1191.58 25.4275   1
  -1   1   2 1192.77 26.0641   4
  -1   1   2 1174.88 24.1287   2
  -1   1   2 1189.06 25.6607   1
  -1   1   2 1183.53 27.1100   3
   0  -1  -2 2708.21 48.2887   1
   0  -1  -2 2738.00 54.9926   3
   0  -1  -2 2749.52 54.4286   2
   0  -1  -2 2694.55 51.6094   4
   0   1   2 2745.06 53.2758   2
   0   1   2 2729.67 54.6608   3
   0   1   2 2737.89 48.6703   1
   0   1   2 2766.73 52.0049   4
  -1  -1  -2 538.931 18.6673   2
  -1  -1  -2 563.459 17.0954   4
   1   1   2 535.840 18.6903   2
   1   1   2 552.652 19.1352   3
   1   1   2 531.260 16.8920   4
  -2  -1  -2 1001.43 28.2355   4
  -2  -1  -2 995.982 31.0832   2
   2   1   2 1001.18 27.4136   3
   2   1   2 1003.29 28.5512   4
   2   1   2 1028.26 31.3148   3
   2   1   2 1008.56 31.3237   2
  -3  -1  -2 1301.82 36.4193   4
  -3  -1  -2 1313.10 27.0909   1
  -3  -1  -2 1276.15 39.8882   2
   3   1   2 1297.93 27.3066   1
   3   1   2 1276.85 36.4696   4
   3   1   2 1249.87 40.1573   2
   3   1   2 1222.79 39.1470   3
   3   1   2 1273.03 35.2451   3
  -4  -1  -2 176.663 8.73271   1
   4   1   2 177.568 13.9289   3
   4   1   2 185.865 10.4884   1
  -5  -1  -2 66.6145 13.3142   2
  -5  -1  -2 101.087 9.89709   1
   5   1   2 80.9794 12.3325   3
   5   1   2 110.957 14.7490   4
  -6  -1  -2 37.0201 14.2435   2
   6   1   2 30.2496 11.1510   3
   6   1   2 51.2521 12.6666   4
   8  -2  -2 232.944 27.1019   4
   8  -2  -2 181.665 25.9107   3
  -8   2   2 147.385 25.0915   2
  -8   2   2 152.250 23.7659   1
   7  -2  -2 341.818 23.9630   4
   7  -2  -2 328.957 25.0191   3
  -7   2   2 280.384 22.2296   1
  -7   2   2 346.209 22.4409   2
   6  -2  -2 65.3632 10.9045   3
   6  -2  -2 51.1995 9.11323   2
   6  -2  -2 81.9726 12.9598   4
  -6   2   2 56.4945 9.41984   2
  -6   2   2 44.5253 10.5396   1
   5  -2  -2 230.170 15.7520   1
   5  -2  -2 262.861 14.6236   4
   5  -2  -2 252.267 14.0315   2
   5  -2  -2 272.633 16.4955   3
  -5   2   2 255.241 16.1509   1
  -5   2   2 231.429 16.6592   3
  -5   2   2 255.331 13.5100   2
  -5   2   2 216.366 13.5500   4
   4  -2  -2 206.640 10.3364   2
   4  -2  -2 235.601 12.4135   4
   4  -2  -2 201.179 12.6419   1
   4  -2  -2 222.179 13.8890   3
  -4   2   2 228.974 11.7361   4
  -4   2   2 229.925 10.3991   2
  -4   2   2 220.495 13.1068   1
  -4   2   2 212.959 13.3501   3
   3  -2  -2 133.883 6.07074   2
   3  -2  -2 134.567 5.48743   2
   3  -2  -2 126.419 8.13101   4
   3  -2  -2 135.120 9.56703   3
   3  -2  -2 128.005 9.02899   1
  -3   2   2 128.166 9.54317   3
  -3   2   2 128.811 9.15591   1
  -3   2   2 128.472 8.27471   4
   2  -2  -2 1563.97 35.1120   1
   2  -2  -2 1557.56 38.1629   3
   2  -2  -2 1595.16 28.9333   2
   2  -2  -2 1590.25 36.3824   4
  -2   2   2 1591.37 35.6590   1
  -2   2   2 1565.09 37.1829   3
  -2   2   2 1451.63 38.0904   4
   1  -2  -2 4.27135 2.70724   3
   1  -2  -2 3.99237 1.87758   2
   1  -2  -2 3.92971 2.03017   1
  -1   2   2 7.13561 1.90492   1
  -1   2   2 3.66470 3.30114   3
  -1   2   2 3.70625 3.08044   4
  -1   2   2 7.87382 2.18588   4
  -1   2   2 5.08830 2.07735   2
   0  -2  -2 23.5564 3.99501   2
   0  -2  -2 23.6507 2.55957   1
   0  -2  -2 24.7523 5.32370   3
   0  -2  -2 34.7615 4.69129   4
   0   2   2 33.7102 2.92820   1
   0   2   2 27.3190 5.07895   2
   0   2   2 26.2666 5.01767   3
   0   2   2 30.1418 4.31676   4
  -1  -2  -2 846.032 26.6456   2
  -1  -2  -2 888.247 25.1933   4
  -1  -2  -2 892.020 29.2740   3
   1   2   2 851.927 27.0710   2
   1   2   2 842.690 24.9459   4
   1   2   2 873.272 28.9518   3
  -2  -2  -2 703.636 26.5436   2
  -2  -2  -2 705.089 23.9384   4
   2   2   2 715.739 27.4646   2
   2   2   2 695.067 28.5727   3
   2   2   2 718.086 24.7983   4
   2   2   2 714.445 24.2025   3
  -3  -2  -2 925.324 34.6416   2
   3   2   2 897.421 30.8456   4
   3   2   2 777.292 33.7206   3
   3   2   2 880.145 30.1745   3
  -4  -2  -2 190.055 19.6872   2
   4   2   2 196.242 16.5675   4
   4   2   2 204.085 17.0963   3
  -5  -2  -2 47.0781 13.8454   2
   5   2   2 43.7984 11.4394   3
   5   2   2 76.0989 13.1680   4
   8  -3  -2 82.3798 17.2086   4
  -8   3   2 58.9226 14.2901   1
   7  -3  -2 553.795 30.5814   3
   7  -3  -2 558.049 29.7590   4
  -7   3   2 515.084 24.4423   2
  -7   3   2 558.835 29.7885   1
   6  -3  -2 245.976 14.9183   2
   6  -3  -2 204.321 18.5252   3
  -6   3   2 254.090 19.0157   1
  -6   3   2 230.311 14.1055   2
   5  -3  -2 60.8517 11.2259   3
   5  -3  -2 71.3559 9.95573   4
   5  -3  -2 71.9942 8.11506   2
  -5   3   2 62.5640 10.1979   3
  -5   3   2 70.1024 7.27002   2
  -5   3   2 88.1650 10.3671   4
  -5   3   2 72.9060 10.3352   1
   4  -3  -2 443.946 20.0782   3
   4  -3  -2 446.707 19.0143   4
   4  -3  -2 400.214 19.0823   1
  -4   3   2 443.112 19.6671   1
  -4   3   2 415.263 17.5042   4
  -4   3   2 445.627 20.0871   3
   3  -3  -2 910.986 27.2425   1
   3  -3  -2 892.797 27.9783   4
   3  -3  -2 909.763 29.7245   3
  -3   3   2 894.075 26.4851   4
  -3   3   2 922.231 28.8409   3
  -3   3   2 916.818 27.5880   1
   2  -3  -2 3081.37 61.9397   1
   2  -3  -2 3039.41 68.1777   3
   2  -3  -2 3039.13 66.4571   4
  -2   3   2 2947.33 65.5951   3
  -2   3   2 3083.75 64.4657   4
  -2   3   2 3113.75 62.4071   1
   1  -3  -2 567.887 22.6106   3
   1  -3  -2 587.626 16.6958   1
   1  -3  -2 582.469 16.5816   2
  -1   3   2 570.760 16.8787   2
  -1   3   2 584.134 21.6805   4
  -1   3   2 584.964 22.7675   3
  -1   3   2 589.802 16.9137   1
  -1   3   2 558.819 18.7410   4
   0  -3  -2 50.6666 7.21120   2
   0  -3  -2 49.7664 9.54818   3
   0  -3  -2 55.1820 4.24799   1
   0   3   2 55.9138 6.88417   4
   0   3   2 57.7911 4.38522   1
   0   3   2 64.8164 8.17163   2
   0   3   2 57.1190 9.78925   3
  -1  -3  -2 628.786 23.7892   2
  -1  -3  -2 615.028 26.7875   3
  -1  -3  -2 579.457 21.6043   4
   1   3   2 605.124 26.6447   3
   1   3   2 598.719 24.3181   2
   1   3   2 608.733 22.2960   4
  -2  -3  -2 447.332 22.8651   2
   2   3   2 440.441 24.4999   2
   2   3   2 392.411 28.3775   3
   2   3   2 417.239 20.2449   3
   2   3   2 422.871 19.8987   4
  -3  -3  -2 305.403 21.9754   2
   3   3   2 300.269 19.2150   3
   3   3   2 286.907 19.1936   4
  -4  -3  -2 350.596 27.2685   2
   4   3   2 391.607 25.2049   4
   4   3   2 368.831 24.2168   3
  -5  -3  -2 88.3857 17.8525   2
   5   3   2 136.820 18.0194   3
   8  -4  -2 333.678 32.8417   3
   8  -4  -2 413.357 31.2177   4
  -8   4   2 388.377 29.3710   1
   7  -4  -2 154.964 18.9732   4
   7  -4  -2 127.152 22.7146   3
   6  -4  -2 77.6807 12.8523   3
   6  -4  -2 75.3673 13.1878   4
  -6   4   2 86.5215 14.8721   1
   5  -4  -2 24.7051 7.66923   3
   5  -4  -2 24.8947 7.42258   4
  -5   4   2 17.2349 7.11793   1
   4  -4  -2 100.240 11.8026   4
   4  -4  -2 98.3447 11.4501   1
   4  -4  -2 107.428 13.0045   3
  -4   4   2 101.917 11.3169   1
  -4   4   2 90.6572 12.6990   3
  -4   4   2 95.7064 10.8312   4
   3  -4  -2 389.543 20.4343   3
   3  -4  -2 378.253 19.3992   4
   3  -4  -2 387.907 17.4969   1
  -3   4   2 396.669 20.0479   3
  -3   4   2 369.239 17.7883   4
  -3   4   2 390.695 17.7681   1
   2  -4  -2 0.04081 5.61474   4
   2  -4  -2 5.37716 4.18046   1
   2  -4  -2 -4.9765 5.51274   3
  -2   4   2 6.30701 6.25414   3
  -2   4   2 5.24353 2.88611   2
  -2   4   2 3.27422 3.73697   1
  -2   4   2 9.70391 4.99143   4
   1  -4  -2 797.780 22.7774   2
   1  -4  -2 820.141 31.8729   3
   1  -4  -2 822.880 22.2928   1
  -1   4   2 812.139 30.4868   3
  -1   4   2 824.757 22.5518   1
  -1   4   2 719.490 28.5207   2
  -1   4   2 788.268 25.9425   4
  -1   4   2 795.870 29.8082   4
   0  -4  -2 2020.43 48.7126   2
   0  -4  -2 2077.32 57.5857   3
   0   4   2 2064.68 41.1127   1
   0   4   2 1998.53 50.0447   4
   0   4   2 1898.91 55.5053   3
   0   4   2 2031.35 49.6966   2
   0   4   2 1926.04 55.2332   4
  -1  -4  -2 224.069 16.3832   2
   1   4   2 250.272 19.9379   2
   1   4   2 218.406 15.1412   4
  -2  -4  -2 101.526 19.0738   2
   2   4   2 109.120 14.3484   3
   2   4   2 98.5275 12.9333   4
  -3  -4  -2 34.9725 11.7303   2
   3   4   2 11.5492 9.04969   4
   3   4   2 26.7787 10.4045   3
  -4  -4  -2 220.226 28.5411   2
   4   4   2 227.737 24.5744   3
   4   4   2 231.922 24.3806   4
   7  -5  -2 91.9277 14.7662   4
  -7   5   2 68.5050 14.0938   1
   6  -5  -2 209.749 23.4141   3
   6  -5  -2 256.638 21.5417   4
  -6   5   2 226.913 20.7343   1
   5  -5  -2 740.938 32.3858   4
   5  -5  -2 642.460 38.4837   3
  -5   5   2 717.668 30.7274   1
   4  -5  -2 268.965 20.5853   4
   4  -5  -2 256.273 20.1958   3
  -4   5   2 265.401 17.2763   1
   3  -5  -2 411.490 23.3479   4
   3  -5  -2 426.001 24.5311   3
   3  -5  -2 411.698 19.6366   1
  -3   5   2 417.936 19.9355   1
   2  -5  -2 34.8185 8.75196   3
   2  -5  -2 24.4838 6.30271   1
  -2   5   2 21.0747 5.90732   1
  -2   5   2 20.6096 4.60926   2
  -2   5   2 16.2997 5.77182   4
   1  -5  -2 295.114 14.3073   2
   1  -5  -2 289.519 22.0499   3
   1  -5  -2 278.208 13.7388   1
  -1   5   2 279.213 15.7869   4
  -1   5   2 277.514 16.2353   2
  -1   5   2 292.498 13.5987   1
   0  -5  -2 616.932 25.3371   2
   0  -5  -2 549.905 44.8755   3
   0   5   2 629.096 17.5596   1
   0   5   2 621.417 18.5524   1
   0   5   2 595.624 27.0067   2
  -1  -5  -2 115.514 16.5857   2
   1   5   2 125.575 15.6253   3
   1   5   2 136.971 14.5198   4
  -2  -5  -2 116.978 16.2819   2
   2   5   2 118.262 17.4271   4
   2   5   2 134.070 17.8138   3
  -3  -5  -2 390.543 31.7925   2
   3   5   2 349.476 27.6373   4
   3   5   2 362.793 28.1829   3
   7  -6  -2 -10.611 16.1203   3
   7  -6  -2 40.0424 15.1655   4
  -7   6   2 14.4107 13.3192   1
   6  -6  -2 12.4799 14.8465   3
   6  -6  -2 56.2639 15.6485   4
  -6   6   2 29.6310 11.7057   1
   5  -6  -2 259.777 24.9822   4
   5  -6  -2 288.221 24.9461   3
  -5   6   2 292.377 21.2211   1
   4  -6  -2 292.664 22.5565   4
   4  -6  -2 278.388 24.4916   3
  -4   6   2 318.365 20.8121   1
   3  -6  -2 69.9133 14.6402   3
  -3   6   2 66.8936 10.1589   1
   2  -6  -2 411.693 14.7436   2
   2  -6  -2 432.497 29.4718   3
   2  -6  -2 357.876 19.4389   1
  -2   6   2 418.197 20.6075   1
  -2   6   2 431.460 21.3197   4
   1  -6  -2 467.319 31.2836   3
   1  -6  -2 398.383 18.7933   2
  -1   6   2 397.524 22.8505   2
  -1   6   2 429.057 20.6946   1
  -1   6   2 415.848 22.2533   4
  -1   6   2 395.915 18.5000   1
   0  -6  -2 6.46677 14.6455   3
   0  -6  -2 1.33163 8.56935   2
   0   6   2 7.86476 8.60611   4
  -1  -6  -2 259.274 23.6880   2
   1   6   2 253.696 22.8246   3
   1   6   2 241.522 21.3968   4
  -2  -6  -2 198.321 27.9308   2
   2   6   2 221.752 23.6813   3
   2   6   2 194.079 23.6636   4
   6  -7  -2 96.4379 21.8629   3
   6  -7  -2 100.907 20.3669   4
  -6   7   2 88.0322 16.1378   1
   5  -7  -2 44.6185 16.1886   3
   5  -7  -2 69.9778 16.8740   4
  -5   7   2 14.9822 12.0470   1
   4  -7  -2 486.229 37.4159   3
   4  -7  -2 432.187 33.6856   4
  -4   7   2 478.002 28.7722   1
  -3   7   2 80.9287 12.7309   4
  -3   7   2 66.2537 12.9152   1
   2  -7  -2 114.980 20.8712   3
  -2   7   2 105.241 18.0680   1
  -2   7   2 99.1422 15.4968   4
   1  -7  -2 54.2574 18.1589   3
   1  -7  -2 47.8139 9.54862   2
  -1   7   2 51.1131 11.0194   1
  -1   7   2 47.2246 11.9183   4
   0  -7  -2 23.5947 12.8941   2
   0   7   2 1.00080 11.4135   4
  -1  -7  -2 18.4645 15.5933   2
   5  -8  -2 77.5423 23.8751   3
  -5   8   2 52.0739 16.4155   1
   4  -8  -2 64.6196 22.2764   3
  -4   8   2 36.2366 13.2185   4
  -4   8   2 17.2869 15.2514   1
   3  -8  -2 161.992 27.7281   3
  -3   8   2 241.371 27.0944   1
  -3   8   2 202.514 22.9219   4
   2  -8  -2 305.177 41.0064   3
  -2   8   2 249.273 24.3589   4
   0   8  -3 75.3741 15.3369   3
   0   8  -3 56.8077 16.2681   2
   0   8  -3 82.8436 14.4248   4
   0   8  -3 47.9710 15.0548   1
  -1   8  -3 104.458 18.7637   4
  -1   8  -3 106.889 16.6197   1
  -1   8  -3 95.1097 15.3976   3
  -2   8  -3 97.0439 14.9517   4
  -2   8  -3 96.6701 16.2500   1
  -3   8  -3 83.0996 15.2004   1
   3  -8   3 83.4013 16.3469   3
   3  -8   3 51.3596 17.3270   4
  -4   8  -3 2.30167 14.1890   1
   4  -8   3 25.8693 16.4734   4
   5  -8   3 46.9504 20.6055   4
   2   7  -3 73.5930 14.6026   4
   2   7  -3 62.7099 15.1670   2
   2   7  -3 75.5806 15.4704   3
   1   7  -3 186.726 19.3306   4
   1   7  -3 173.053 22.2427   3
   1   7  -3 246.328 21.8906   1
   1   7  -3 173.794 21.4391   2
   0   7  -3 207.681 19.1169   3
   0   7  -3 194.185 17.1915   4
  -1   7  -3 398.632 24.2199   1
  -1   7  -3 379.914 20.9183   3
  -1   7  -3 350.432 20.9823   4
  -1   7  -3 313.427 24.7049   2
  -1   7  -3 386.819 23.1437   2
  -2   7  -3 49.8830 11.9418   1
  -2   7  -3 37.4772 9.45510   2
  -2   7  -3 55.3319 12.0650   2
   2  -7   3 26.8476 11.8603   4
   2  -7   3 28.1780 11.5955   3
  -3   7  -3 165.904 22.8035   3
  -3   7  -3 149.672 15.1325   2
  -3   7  -3 157.417 18.5523   1
   3  -7   3 118.886 18.1268   3
   3  -7   3 158.879 21.3406   4
  -4   7  -3 270.938 19.6533   2
  -4   7  -3 247.511 24.7480   1
   4  -7   3 260.972 22.4359   3
   4  -7   3 276.184 26.2006   4
   5  -7   3 99.9112 16.6108   4
   5  -7   3 70.3188 14.9462   3
  -6   7  -3 695.367 52.2169   1
   6  -7   3 677.531 42.3525   4
   3   6  -3 53.4096 11.8290   4
   3   6  -3 62.6018 13.0710   3
  -3  -6   3 38.3000 14.2813   2
   2   6  -3 20.1561 9.46125   3
   2   6  -3 1.77189 8.83730   1
   1   6  -3 545.720 24.0625   4
   1   6  -3 560.409 26.1167   3
   1   6  -3 565.231 25.0888   1
   1   6  -3 538.046 26.7159   1
   0   6  -3 216.906 21.0807   2
   0   6  -3 248.162 17.1417   3
   0   6  -3 247.597 18.3688   1
   0   6  -3 236.259 15.8764   4
   0   6  -3 272.193 18.4269   2
   0   6  -3 231.656 19.1311   1
  -1   6  -3 28.3982 8.44741   2
  -1   6  -3 47.2205 9.80501   2
  -1   6  -3 47.9826 11.8145   3
  -1   6  -3 39.8244 8.68702   1
   1  -6   3 34.4402 9.53500   4
  -2   6  -3 -7.8819 8.49251   3
  -2   6  -3 0.55713 5.69248   2
  -2   6  -3 7.45430 7.44483   1
  -2   6  -3 -7.8266 6.70678   2
   2  -6   3 9.97664 8.07467   4
   2  -6   3 -3.6908 7.39921   3
  -3   6  -3 -10.517 11.6907   2
  -3   6  -3 -5.3105 6.30753   2
  -3   6  -3 16.7106 8.73685   3
   3  -6   3 8.58243 8.13123   3
   3  -6   3 9.11429 8.61888   4
  -4   6  -3 590.079 23.2455   2
  -4   6  -3 582.913 24.6479   3
  -4   6  -3 585.745 29.6784   1
   4  -6   3 523.436 27.8402   4
   4  -6   3 561.823 24.7100   3
   4  -6   3 587.172 20.7196   2
  -5   6  -3 293.314 20.2445   2
  -5   6  -3 359.014 24.0053   1
   5  -6   3 290.936 21.3577   3
   5  -6   3 320.927 25.6054   4
  -6   6  -3 132.893 23.0788   1
   6  -6   3 148.140 22.7617   4
   4   5  -3 37.4180 12.1203   3
   4   5  -3 69.8837 12.8972   4
  -4  -5   3 56.9281 10.8661   1
  -4  -5   3 51.3647 13.0791   2
   3   5  -3 100.659 17.6551   1
   3   5  -3 59.0565 9.64999   4
   3   5  -3 55.1372 10.9578   3
  -3  -5   3 55.9273 8.91529   1
  -3  -5   3 58.6988 12.1269   2
   2   5  -3 338.104 22.3479   4
   2   5  -3 367.938 20.0103   1
   2   5  -3 328.040 29.3934   3
   2   5  -3 354.385 18.4307   4
  -2  -5   3 361.103 19.2606   1
   1   5  -3 459.389 27.6788   3
   1   5  -3 530.844 22.5665   3
   1   5  -3 522.274 23.4986   2
   1   5  -3 470.320 25.0131   2
   1   5  -3 537.894 22.5210   1
   1   5  -3 493.711 23.6938   4
   1   5  -3 488.419 22.2824   1
   1   5  -3 503.995 20.3208   4
   0   5  -3 581.430 21.8637   3
   0   5  -3 557.437 23.1478   2
   0   5  -3 561.130 23.1881   2
   0   5  -3 582.079 20.7656   4
   0   5  -3 566.745 24.3953   1
   0   5  -3 588.119 23.6704   1
   0   5  -3 566.371 25.6496   3
   0   5  -3 563.714 23.1775   4
  -1   5  -3 242.772 14.2755   2
  -1   5  -3 256.452 17.0765   3
  -1   5  -3 216.429 16.7911   1
  -1   5  -3 247.757 14.5121   2
  -1   5  -3 263.535 15.8324   1
  -1   5  -3 232.846 14.9685   4
   1  -5   3 248.012 16.2353   4
  -2   5  -3 646.844 25.7310   1
  -2   5  -3 622.097 23.8893   4
  -2   5  -3 633.802 22.3688   2
  -2   5  -3 644.369 21.7148   2
  -2   5  -3 619.232 27.3568   1
  -2   5  -3 621.196 21.9705   3
   2  -5   3 639.329 22.6982   3
   2  -5   3 662.540 26.0089   4
  -3   5  -3 253.963 14.7945   2
  -3   5  -3 252.081 18.0887   1
  -3   5  -3 242.152 13.4818   3
   3  -5   3 242.461 16.7933   4
   3  -5   3 263.890 14.3611   3
   3  -5   3 264.529 13.3744   2
  -4   5  -3 0.89415 6.28974   2
  -4   5  -3 10.5299 6.85524   1
   4  -5   3 -4.1066 6.53859   3
   4  -5   3 12.2057 7.09216   4
   4  -5   3 13.0602 6.54605   2
  -5   5  -3 731.715 29.2989   2
  -5   5  -3 779.627 27.3080   3
  -5   5  -3 741.487 32.6232   1
   5  -5   3 698.733 27.7792   2
   5  -5   3 780.620 27.6040   3
   5  -5   3 813.995 33.3482   4
  -6   5  -3 22.9092 11.7730   2
  -6   5  -3 24.8934 11.4633   1
   6  -5   3 27.7849 11.6739   4
   6  -5   3 28.5415 10.9825   3
   5   4  -3 292.222 23.2852   4
   5   4  -3 249.718 25.4147   3
  -5  -4   3 276.566 25.6968   2
  -5  -4   3 274.363 20.9389   1
   4   4  -3 114.360 18.2266   1
   4   4  -3 126.224 16.9709   3
   4   4  -3 195.805 15.8856   4
  -4  -4   3 171.264 15.7444   1
  -4  -4   3 162.429 18.9919   2
   3   4  -3 105.932 11.5396   4
   3   4  -3 115.654 13.3418   1
  -3  -4   3 94.1619 13.4527   2
  -3  -4   3 94.5908 11.4792   1
   2   4  -3 307.201 20.3217   2
   2   4  -3 354.724 15.7889   4
   2   4  -3 344.628 22.2093   3
   2   4  -3 361.118 17.7991   1
   2   4  -3 350.757 19.1025   4
   2   4  -3 366.863 18.4031   3
  -2  -4   3 339.774 17.1063   1
  -2  -4   3 348.409 19.2172   2
   1   4  -3 34.0598 6.28476   3
   1   4  -3 29.2415 4.96271   4
   1   4  -3 36.8640 6.70333   4
   1   4  -3 30.9795 8.23437   3
   1   4  -3 40.0462 7.72815   2
   1   4  -3 30.1438 6.40186   2
   1   4  -3 29.3344 5.95432   1
  -1  -4   3 32.7625 6.31539   1
   0   4  -3 47.4855 6.41485   3
   0   4  -3 45.6937 8.18140   1
   0   4  -3 56.8535 7.68667   2
   0   4  -3 50.8164 7.99580   4
   0   4  -3 48.6677 7.56187   1
   0   4  -3 56.0742 9.09241   3
   0   4  -3 50.3751 8.45056   2
   0  -4   3 40.7998 7.00899   4
  -1   4  -3 530.818 18.7277   4
  -1   4  -3 508.644 21.9476   1
  -1   4  -3 513.533 18.9961   2
  -1   4  -3 542.949 18.9818   3
  -1   4  -3 524.188 20.9236   1
   1  -4   3 540.910 20.2232   4
   1  -4   3 502.892 18.0992   3
  -2   4  -3 274.214 15.6680   1
  -2   4  -3 297.531 14.7815   4
  -2   4  -3 315.761 12.1750   3
  -2   4  -3 298.229 17.1190   1
  -2   4  -3 314.127 14.7867   2
   2  -4   3 304.419 12.8380   3
   2  -4   3 291.084 15.1738   4
   2  -4   3 299.894 13.5842   2
  -3   4  -3 1287.15 37.1400   4
  -3   4  -3 1302.98 29.9482   3
  -3   4  -3 1269.34 35.3144   2
  -3   4  -3 1327.09 39.3545   1
   3  -4   3 1286.87 37.3230   4
   3  -4   3 1312.22 31.9722   3
   3  -4   3 1298.06 33.9757   2
  -4   4  -3 208.874 15.9135   1
  -4   4  -3 212.501 12.1243   3
  -4   4  -3 228.477 15.6366   2
   4  -4   3 240.901 15.1293   2
   4  -4   3 206.442 12.5444   3
   4  -4   3 190.414 15.0933   4
  -5   4  -3 216.802 15.2726   3
  -5   4  -3 235.371 17.4506   1
  -5   4  -3 209.142 18.1876   2
   5  -4   3 165.551 18.1275   2
   5  -4   3 196.929 17.7848   4
   5  -4   3 188.305 13.8599   3
  -6   4  -3 274.429 21.3645   1
   6  -4   3 281.585 19.5489   3
   6  -4   3 246.718 22.5047   4
  -7   4  -3 14.5744 12.4392   1
  -7   4  -3 21.6534 15.7188   2
   7  -4   3 12.5525 16.6871   4
   6   3  -3 13.5844 10.8416   4
   6   3  -3 34.4167 13.2074   3
  -6  -3   3 -5.8489 12.5603   2
   5   3  -3 154.500 28.3227   1
   5   3  -3 164.191 16.0828   4
   5   3  -3 167.872 18.2621   3
  -5  -3   3 142.636 19.9365   2
  -5  -3   3 144.933 15.3282   1
   4   3  -3 825.124 27.6696   4
   4   3  -3 847.917 32.7308   3
   4   3  -3 731.669 27.7024   1
  -4  -3   3 812.548 33.3095   2
  -4  -3   3 801.480 26.0276   4
  -4  -3   3 821.400 28.1103   1
   3   3  -3 908.476 26.3391   4
   3   3  -3 910.166 37.7689   2
   3   3  -3 905.575 30.8364   3
   3   3  -3 904.010 28.1289   1
  -3  -3   3 821.625 28.9256   3
  -3  -3   3 900.064 28.7351   1
  -3  -3   3 896.015 25.2547   4
  -3  -3   3 890.133 32.1387   2
   2   3  -3 435.683 17.6025   1
   2   3  -3 407.859 20.1614   2
   2   3  -3 423.017 17.8234   3
   2   3  -3 439.302 14.9828   4
  -2  -3   3 449.913 18.0400   1
  -2  -3   3 435.704 17.6446   3
  -2  -3   3 445.559 19.5050   2
   1   3  -3 244.163 11.3296   3
   1   3  -3 254.593 13.9730   3
   1   3  -3 234.512 11.1252   4
   1   3  -3 262.498 13.2608   1
   1   3  -3 253.709 13.6523   2
   1   3  -3 236.822 9.56964   4
   1   3  -3 233.838 12.3684   2
  -1  -3   3 245.014 12.9317   1
   0   3  -3 531.199 15.5527   3
   0   3  -3 533.507 19.5848   1
   0   3  -3 530.402 18.5359   2
   0   3  -3 554.944 18.3104   2
   0   3  -3 551.090 18.2940   3
   0   3  -3 518.016 16.0115   4
   0  -3   3 536.725 20.2488   1
   0  -3   3 526.979 17.2471   4
  -1   3  -3 698.969 21.5485   2
  -1   3  -3 685.435 22.7635   1
  -1   3  -3 719.350 24.3939   1
  -1   3  -3 698.903 17.5307   3
  -1   3  -3 709.327 20.2654   4
   1  -3   3 705.182 17.9998   3
   1  -3   3 690.838 21.0397   2
   1  -3   3 703.804 20.6933   4
  -2   3  -3 160.324 6.32862   3
  -2   3  -3 159.792 10.0193   4
  -2   3  -3 163.938 10.4968   2
  -2   3  -3 156.869 10.7140   1
  -2   3  -3 157.973 11.7062   1
   2  -3   3 164.139 7.22620   3
   2  -3   3 154.782 10.1505   4
   2  -3   3 165.149 10.1859   2
  -3   3  -3 265.657 14.7500   2
  -3   3  -3 269.402 15.2087   1
  -3   3  -3 271.764 10.1301   3
  -3   3  -3 277.380 15.3789   4
   3  -3   3 273.505 14.1763   4
   3  -3   3 270.795 14.2294   2
   3  -3   3 273.988 10.5567   3
   3  -3   3 270.768 15.5181   1
  -4   3  -3 2009.01 52.1735   2
  -4   3  -3 1985.17 43.4502   3
  -4   3  -3 2048.12 52.0034   1
   4  -3   3 2063.52 45.3096   3
   4  -3   3 1984.37 51.3264   2
   4  -3   3 1865.72 51.3975   1
   4  -3   3 2076.35 52.6629   4
  -5   3  -3 170.686 14.3035   1
  -5   3  -3 135.344 16.6525   2
  -5   3  -3 142.547 13.5347   3
   5  -3   3 148.669 15.0716   4
   5  -3   3 121.839 12.1953   3
  -6   3  -3 30.9278 9.03366   1
  -6   3  -3 12.6434 11.0704   2
   6  -3   3 26.0660 10.0738   4
   6  -3   3 9.05764 9.04825   3
  -7   3  -3 74.0544 16.7629   2
  -7   3  -3 30.6608 12.9771   1
   7  -3   3 51.8704 16.6340   4
   6   2  -3 193.057 19.0389   4
   6   2  -3 240.013 22.6074   3
  -6  -2   3 248.642 22.9153   2
  -6  -2   3 215.675 19.4748   1
   5   2  -3 140.268 12.0442   4
   5   2  -3 137.342 15.3760   3
   5   2  -3 132.231 16.8149   1
  -5  -2   3 100.524 15.5671   2
  -5  -2   3 129.048 13.1104   4
  -5  -2   3 112.803 13.5765   1
   4   2  -3 36.3059 7.39701   3
   4   2  -3 25.0684 7.43647   1
   4   2  -3 16.9844 5.02825   4
  -4  -2   3 23.4162 7.07824   2
  -4  -2   3 30.5189 6.26525   1
  -4  -2   3 29.9271 5.75745   4
   3   2  -3 188.078 11.8561   1
   3   2  -3 184.188 12.2820   3
   3   2  -3 161.872 13.7723   2
   3   2  -3 185.912 9.61751   4
  -3  -2   3 170.572 12.3322   2
  -3  -2   3 184.663 11.8730   1
  -3  -2   3 172.512 12.0983   3
  -3  -2   3 183.345 8.99359   4
   2   2  -3 117.103 8.83768   1
   2   2  -3 113.668 6.11464   4
   2   2  -3 114.166 8.26907   3
   2   2  -3 114.804 10.1513   2
  -2  -2   3 98.5610 8.58327   2
  -2  -2   3 110.799 8.68498   1
  -2  -2   3 120.124 8.28492   3
  -2  -2   3 115.126 5.76499   4
   1   2  -3 1951.66 37.6869   4
   1   2  -3 1888.81 36.2679   4
   1   2  -3 1909.01 40.2037   3
   1   2  -3 1988.48 43.8315   2
   1   2  -3 1978.98 43.5538   2
   1   2  -3 1935.68 43.5250   1
  -1  -2   3 1926.72 39.8774   3
  -1  -2   3 1943.47 44.0847   1
   0   2  -3 520.958 13.8823   3
   0   2  -3 516.927 13.4186   4
   0   2  -3 515.078 17.1971   2
   0   2  -3 512.777 17.6456   1
   0   2  -3 507.619 12.4878   3
   0  -2   3 521.356 18.1292   1
   0  -2   3 502.695 18.9840   2
   0  -2   3 513.757 13.7381   4
  -1   2  -3 140.059 9.18758   1
  -1   2  -3 145.179 7.54948   4
  -1   2  -3 143.046 8.80816   2
   1  -2   3 132.022 7.12239   4
   1  -2   3 133.288 8.27923   2
  -2   2  -3 2141.14 47.0725   4
  -2   2  -3 2181.36 39.3357   3
  -2   2  -3 2184.90 48.5983   1
  -2   2  -3 2209.66 50.9596   1
  -2   2  -3 2129.18 49.3651   2
   2  -2   3 2128.73 39.9007   3
   2  -2   3 2183.65 49.2043   2
   2  -2   3 2172.63 47.4039   4
  -3   2  -3 812.167 25.3003   1
  -3   2  -3 784.626 26.8941   2
  -3   2  -3 786.411 20.0002   3
  -3   2  -3 738.097 24.7741   4
   3  -2   3 783.176 26.3718   2
   3  -2   3 749.516 25.1169   1
   3  -2   3 758.669 20.2252   3
   3  -2   3 803.935 26.0631   4
  -4   2  -3 849.128 31.2885   2
  -4   2  -3 789.460 26.5172   1
  -4   2  -3 839.520 24.3764   3
   4  -2   3 806.413 28.3182   1
   4  -2   3 839.649 24.5824   3
   4  -2   3 847.581 29.7364   4
   4  -2   3 795.774 30.0806   2
  -5   2  -3 250.438 17.6166   3
  -5   2  -3 252.012 20.3926   2
  -5   2  -3 264.253 16.1264   1
   5  -2   3 244.989 18.3719   4
   5  -2   3 251.022 14.9638   3
  -6   2  -3 65.4557 10.8486   1
  -6   2  -3 80.1392 16.0346   2
   6  -2   3 106.954 17.4701   4
   6  -2   3 52.8503 10.4697   3
   7   1  -3 169.564 21.9370   4
   7   1  -3 153.460 20.6369   3
  -7  -1   3 160.007 25.3614   2
  -7  -1   3 173.092 21.5900   1
   6   1  -3 578.945 25.0190   4
   6   1  -3 564.746 29.1399   3
  -6  -1   3 505.697 24.7990   1
  -6  -1   3 540.949 29.0452   2
   5   1  -3 503.514 30.3022   3
   5   1  -3 528.531 23.8984   1
   5   1  -3 534.440 20.8293   4
  -5  -1   3 535.257 25.5311   2
  -5  -1   3 507.983 20.2636   4
  -5  -1   3 543.642 23.0930   1
   4   1  -3 21.2893 7.00857   2
   4   1  -3 34.4173 6.63826   1
   4   1  -3 42.0414 6.25647   4
   4   1  -3 37.0904 6.85439   3
  -4  -1   3 25.3278 4.54038   4
  -4  -1   3 36.6060 6.70431   3
  -4  -1   3 28.9704 6.00537   1
  -4  -1   3 28.7022 6.25812   2
   3   1  -3 337.458 11.5204   4
   3   1  -3 357.239 15.4040   1
   3   1  -3 332.837 15.2453   3
   3   1  -3 360.071 16.6712   2
  -3  -1   3 337.856 15.0618   1
  -3  -1   3 329.062 15.2073   3
  -3  -1   3 346.730 15.6892   2
  -3  -1   3 347.584 11.4936   4
   2   1  -3 1703.69 39.4563   1
   2   1  -3 1772.54 40.5859   2
   2   1  -3 1728.38 39.2125   3
   2   1  -3 1750.49 32.8023   4
  -2  -1   3 1781.48 32.6594   4
  -2  -1   3 1804.67 40.7206   1
  -2  -1   3 1815.90 39.3670   3
   1   1  -3 3181.95 61.9618   1
   1   1  -3 3162.73 62.0074   2
  -1  -1   3 3109.77 60.8125   2
  -1  -1   3 3129.11 58.1450   3
  -1  -1   3 3125.64 62.1732   1
   0   1  -3 628.176 13.2603   3
   0   1  -3 610.029 18.2234   2
   0   1  -3 616.934 14.1625   4
   0   1  -3 627.062 18.1017   1
   0  -1   3 636.253 18.7256   1
   0  -1   3 622.564 12.8371   3
   0  -1   3 620.063 14.3188   4
   0  -1   3 637.468 18.3810   2
  -1   1  -3 85.5486 6.46203   1
  -1   1  -3 105.678 7.79472   2
  -1   1  -3 105.065 6.10472   4
   1  -1   3 93.9897 3.35216   3
   1  -1   3 97.9810 3.98732   3
   1  -1   3 106.587 7.67333   2
   1  -1   3 92.6213 5.77233   4
  -2   1  -3 449.491 16.3145   1
  -2   1  -3 420.049 17.9248   2
  -2   1  -3 441.690 15.2377   1
  -2   1  -3 453.974 16.4011   4
   2  -1   3 408.164 12.7510   3
   2  -1   3 434.730 16.0479   4
   2  -1   3 448.311 14.2255   3
   2  -1   3 433.021 17.8169   2
  -3   1  -3 901.576 30.4540   2
  -3   1  -3 903.570 23.7419   3
  -3   1  -3 894.092 25.0286   1
  -3   1  -3 863.073 27.6292   4
   3  -1   3 861.902 29.9855   2
   3  -1   3 870.347 23.3357   3
   3  -1   3 869.081 27.6096   4
  -4   1  -3 612.463 27.4948   2
  -4   1  -3 580.335 21.2294   3
  -4   1  -3 603.013 20.7926   1
   4  -1   3 593.556 24.6184   4
   4  -1   3 600.669 21.0703   3
   4  -1   3 592.920 22.4927   1
  -5   1  -3 329.811 17.0926   1
  -5   1  -3 365.825 24.2503   2
   5  -1   3 341.018 18.0072   3
   5  -1   3 337.094 20.8771   1
   5  -1   3 354.307 21.0449   4
  -6   1  -3 441.044 31.4882   2
  -6   1  -3 424.250 21.3952   1
   6  -1   3 481.652 25.3364   3
   6  -1   3 487.009 27.7169   4
   7   0  -3 371.119 27.3959   3
   7   0  -3 376.216 23.6959   4
  -7   0   3 353.239 23.3189   1
  -7   0   3 346.321 27.2470   2
   6   0  -3 113.274 13.5728   4
   6   0  -3 141.467 16.3276   3
  -6   0   3 127.892 14.1377   1
  -6   0   3 123.271 16.9435   2
   5   0  -3 82.4568 11.6594   3
   5   0  -3 59.2698 10.1197   2
   5   0  -3 53.0962 9.15413   1
   5   0  -3 69.5887 9.07348   4
  -5   0   3 64.5053 10.7654   2
  -5   0   3 65.3325 9.99852   1
  -5   0   3 76.0006 9.04000   4
   4   0  -3 180.231 12.1727   3
   4   0  -3 174.356 12.8169   1
   4   0  -3 174.557 12.6991   2
   4   0  -3 178.491 9.63858   4
  -4   0   3 175.336 9.57624   4
  -4   0   3 188.405 12.2350   1
  -4   0   3 183.349 11.9591   2
  -4   0   3 183.107 12.7400   3
   3   0  -3 166.086 10.2987   3
   3   0  -3 164.071 10.2732   1
   3   0  -3 164.834 10.4713   2
   3   0  -3 166.297 7.42847   4
  -3   0   3 167.324 7.33846   4
  -3   0   3 171.522 10.2502   1
  -3   0   3 160.776 10.1194   3
  -3   0   3 171.904 9.72385   2
   2   0  -3 637.653 18.3338   2
   2   0  -3 627.494 18.9824   3
   2   0  -3 637.841 18.1789   2
   2   0  -3 642.829 19.0899   1
   2   0  -3 628.437 14.0210   4
  -2   0   3 629.125 19.3091   1
  -2   0   3 638.189 13.7256   4
   1   0  -3 58.1977 4.73344   2
   1   0  -3 52.4714 4.61887   1
  -1   0   3 57.3326 4.60277   3
  -1   0   3 57.4678 3.33873   4
  -1   0   3 59.3555 5.05100   2
  -1   0   3 52.0073 4.80473   1
  -1   0   3 56.0563 2.69757   4
   0   0  -3 685.717 17.6881   3
   0   0  -3 704.550 17.9818   1
   0   0  -3 699.615 16.6913   4
   0   0  -3 710.626 20.3164   2
   0   0   3 735.073 20.3020   2
   0   0   3 667.532 16.5780   4
   0   0   3 687.424 17.2303   3
  -1   0  -3 9284.93 158.997   1
  -1   0  -3 9128.14 161.159   4
  -1   0  -3 9177.52 166.220   2
   1   0   3 9405.17 165.909   2
   1   0   3 9049.92 160.659   3
   1   0   3 9340.14 161.806   4
  -2   0  -3 500.113 18.1395   4
  -2   0  -3 516.085 15.6442   1
  -2   0  -3 509.824 14.7548   1
  -2   0  -3 509.721 21.0181   2
   2   0   3 495.062 18.0614   4
   2   0   3 496.855 20.4296   2
   2   0   3 484.205 21.3994   3
   2   0   3 501.635 15.9529   3
  -3   0  -3 195.964 13.1776   4
  -3   0  -3 217.184 9.70869   1
  -3   0  -3 199.599 15.5928   2
   3   0   3 203.107 15.3350   2
   3   0   3 194.779 12.8705   4
   3   0   3 216.672 14.3230   3
   3   0   3 189.170 10.7421   3
  -4   0  -3 48.8968 7.50131   1
  -4   0  -3 46.4878 8.80180   2
   4   0   3 44.7807 10.2518   3
  -5   0  -3 214.817 13.0191   1
  -5   0  -3 234.307 22.6162   2
   5   0   3 191.059 17.5887   4
   5   0   3 183.959 15.4783   3
  -6   0  -3 433.184 31.6494   2
   6   0   3 403.542 27.4805   4
   6   0   3 432.177 25.4315   3
   7  -1  -3 175.247 21.2573   3
   7  -1  -3 167.841 17.9769   4
  -7   1   3 117.889 18.3989   1
  -7   1   3 152.335 19.3674   2
   6  -1  -3 236.020 20.5072   2
   6  -1  -3 320.459 17.9983   4
   6  -1  -3 329.245 21.3623   3
  -6   1   3 292.014 19.2539   2
  -6   1   3 268.209 30.4635   1
   5  -1  -3 341.405 19.4073   1
   5  -1  -3 339.335 17.8025   2
   5  -1  -3 372.109 16.5200   4
   5  -1  -3 343.150 19.0641   3
  -5   1   3 358.995 15.7058   4
  -5   1   3 373.760 17.4011   2
  -5   1   3 374.233 18.9672   1
   4  -1  -3 1583.88 42.5975   3
   4  -1  -3 1582.44 36.6074   4
   4  -1  -3 1574.78 38.9777   2
   4  -1  -3 1526.62 40.5853   1
  -4   1   3 1600.74 37.7659   2
  -4   1   3 1536.15 41.0569   3
  -4   1   3 1582.73 36.3947   4
  -4   1   3 1592.82 41.5031   1
   3  -1  -3 812.750 21.4168   2
   3  -1  -3 858.689 26.3151   3
   3  -1  -3 834.985 21.6293   4
   3  -1  -3 813.725 22.2460   2
   3  -1  -3 812.355 24.6575   1
  -3   1   3 857.391 25.6711   3
  -3   1   3 852.023 21.1891   4
  -3   1   3 830.717 25.0154   1
   2  -1  -3 267.961 11.5597   2
   2  -1  -3 253.363 10.9819   1
   2  -1  -3 258.842 11.9866   3
  -2   1   3 273.152 12.0007   3
  -2   1   3 269.443 9.31442   4
  -2   1   3 271.354 11.5672   1
  -2   1   3 269.394 9.69257   2
   1  -1  -3 2.22287 1.83862   2
   1  -1  -3 2.75588 2.25338   3
   1  -1  -3 5.80990 2.02889   1
  -1   1   3 6.20139 1.74973   4
  -1   1   3 5.78577 2.61538   4
  -1   1   3 8.15159 2.31502   2
  -1   1   3 1.65472 2.14183   3
  -1   1   3 3.27980 2.01918   1
   0  -1  -3 315.567 13.4343   3
   0  -1  -3 312.094 12.9961   2
   0  -1  -3 300.939 9.29523   1
   0  -1  -3 314.012 11.6095   4
   0   1   3 314.251 9.99427   1
   0   1   3 312.777 11.3978   4
   0   1   3 330.232 13.6134   3
  -1  -1  -3 928.573 28.3521   2
  -1  -1  -3 891.672 18.8702   1
  -1  -1  -3 926.642 25.2641   4
  -1  -1  -3 895.241 18.7181   1
  -1  -1  -3 923.445 27.5073   3
   1   1   3 926.030 25.5349   4
   1   1   3 915.064 27.2410   3
   1   1   3 891.210 27.7635   2
  -2  -1  -3 589.285 24.3339   2
  -2  -1  -3 576.969 21.1008   4
   2   1   3 580.753 23.3629   3
   2   1   3 573.982 21.0248   4
   2   1   3 555.264 23.5135   2
   2   1   3 556.705 19.3874   3
  -3  -1  -3 181.338 16.1054   2
   3   1   3 200.768 17.0588   3
   3   1   3 174.548 12.9933   4
   3   1   3 165.453 11.8985   3
  -4  -1  -3 773.617 34.1800   2
  -4  -1  -3 715.213 19.4410   1
   4   1   3 714.926 29.3550   4
   4   1   3 730.412 27.8486   3
  -5  -1  -3 222.723 23.4238   2
   5   1   3 217.190 18.0836   3
   5   1   3 231.306 20.6575   4
   8  -2  -3 120.798 19.7241   4
   8  -2  -3 98.9506 17.9220   3
  -8   2   3 137.765 18.6117   2
  -8   2   3 91.1293 15.4337   1
   7  -2  -3 -14.866 8.52165   4
   7  -2  -3 4.05913 10.8351   3
  -7   2   3 -9.6609 8.40940   2
  -7   2   3 -0.0088 8.88531   1
   6  -2  -3 37.6427 8.44607   4
   6  -2  -3 30.3024 7.94577   2
   6  -2  -3 21.2797 9.20102   3
  -6   2   3 15.3687 6.28804   2
  -6   2   3 14.4300 7.21372   1
   5  -2  -3 94.6906 9.44097   2
   5  -2  -3 109.260 10.8444   4
   5  -2  -3 100.024 11.9346   3
  -5   2   3 111.482 11.5647   1
  -5   2   3 112.485 9.94796   4
  -5   2   3 106.242 9.22763   2
   4  -2  -3 425.475 19.0195   1
   4  -2  -3 459.956 15.4508   2
   4  -2  -3 456.117 14.4797   2
   4  -2  -3 454.052 17.5779   4
   4  -2  -3 471.173 20.8600   3
  -4   2   3 488.749 17.6125   4
  -4   2   3 467.200 20.0052   1
  -4   2   3 464.866 20.4187   3
   3  -2  -3 1209.52 26.7411   2
   3  -2  -3 1262.50 33.1653   1
   3  -2  -3 1277.69 35.4527   3
   3  -2  -3 1273.11 32.1507   4
   3  -2  -3 1241.91 26.8170   2
  -3   2   3 1270.66 33.8513   1
  -3   2   3 1233.17 30.0927   4
  -3   2   3 1237.38 34.3900   3
   2  -2  -3 1090.23 27.5994   1
   2  -2  -3 1054.38 29.4068   4
   2  -2  -3 1078.45 24.1307   2
   2  -2  -3 1069.94 31.0213   3
  -2   2   3 1085.96 23.7004   2
  -2   2   3 1073.24 27.4992   4
  -2   2   3 1092.80 30.1020   3
  -2   2   3 1092.38 28.2977   1
   1  -2  -3 1133.21 26.0966   1
   1  -2  -3 1151.59 27.8716   2
   1  -2  -3 1152.78 32.5632   3
  -1   2   3 1136.92 27.3894   2
  -1   2   3 1078.56 27.3585   4
  -1   2   3 1128.01 26.4096   1
  -1   2   3 1159.22 31.9658   3
  -1   2   3 1134.56 30.9117   4
   0  -2  -3 2851.63 51.6584   1
   0  -2  -3 2874.90 60.9958   2
   0  -2  -3 2860.16 58.5342   4
   0  -2  -3 2891.83 65.2809   3
   0   2   3 2827.67 60.3814   2
   0   2   3 2821.29 59.2774   4
   0   2   3 2828.69 52.1550   1
   0   2   3 2922.45 64.1941   3
  -1  -2  -3 57.9788 9.89808   3
  -1  -2  -3 40.0250 7.06935   4
  -1  -2  -3 31.5753 5.81972   2
   1   2   3 55.8284 9.85461   3
   1   2   3 30.9532 5.20045   4
   1   2   3 38.3312 6.32841   2
  -2  -2  -3 662.009 27.4431   2
  -2  -2  -3 608.721 23.5824   4
   2   2   3 598.417 27.7000   3
   2   2   3 630.617 23.5082   3
   2   2   3 648.001 24.5398   4
   2   2   3 634.475 27.3363   2
  -3  -2  -3 514.493 27.4531   2
   3   2   3 512.224 24.3788   4
   3   2   3 542.609 23.8750   3
  -4  -2  -3 400.560 27.3936   2
   4   2   3 372.116 23.1937   4
   4   2   3 354.727 21.7858   3
  -5  -2  -3 93.3352 19.6649   2
   5   2   3 118.196 18.9064   3
   8  -3  -3 225.240 28.4076   3
   8  -3  -3 232.743 25.1063   4
  -8   3   3 212.673 24.6172   1
   7  -3  -3 396.137 27.6645   3
   7  -3  -3 415.203 25.1127   4
  -7   3   3 448.941 21.0409   2
  -7   3   3 394.434 26.1020   1
   6  -3  -3 64.1487 8.42201   2
   6  -3  -3 83.4076 13.1405   4
   6  -3  -3 67.4940 11.8010   3
  -6   3   3 79.0121 13.8444   1
   5  -3  -3 114.049 7.29478   2
   5  -3  -3 131.949 8.68429   2
   5  -3  -3 118.363 11.7743   4
   5  -3  -3 110.228 14.1052   3
  -5   3   3 124.289 11.6130   4
  -5   3   3 128.699 13.2012   1
   4  -3  -3 97.2948 10.0490   4
   4  -3  -3 103.081 10.5257   1
   4  -3  -3 119.991 11.4186   3
  -4   3   3 94.4946 9.17169   4
  -4   3   3 108.436 11.8248   3
  -4   3   3 101.137 10.6873   1
   3  -3  -3 887.224 27.5455   1
   3  -3  -3 940.509 29.6967   4
  -3   3   3 951.211 27.7189   4
  -3   3   3 926.022 30.3015   3
  -3   3   3 964.743 28.6742   1
   2  -3  -3 564.467 18.3284   1
   2  -3  -3 551.849 23.0934   3
   2  -3  -3 541.242 14.8417   2
  -2   3   3 545.546 20.8302   4
  -2   3   3 538.686 18.5792   1
  -2   3   3 543.324 14.6928   2
  -2   3   3 524.670 21.5008   3
   1  -3  -3 171.809 9.68966   2
   1  -3  -3 165.335 13.6267   3
   1  -3  -3 176.381 8.60284   1
  -1   3   3 177.915 12.5162   4
  -1   3   3 179.603 9.11186   1
  -1   3   3 157.936 12.9830   3
  -1   3   3 174.041 10.3570   4
   0  -3  -3 182.657 14.9878   3
   0  -3  -3 169.223 12.0611   2
   0  -3  -3 158.333 11.3270   4
   0   3   3 160.747 12.0616   2
   0   3   3 173.194 11.2574   4
   0   3   3 178.028 14.3288   3
  -1  -3  -3 105.940 11.1450   4
  -1  -3  -3 73.9879 13.8661   3
  -1  -3  -3 91.7666 11.9380   2
   1   3   3 83.4628 12.9309   2
   1   3   3 63.4483 11.3356   3
   1   3   3 105.734 10.0999   4
  -2  -3  -3 24.7092 9.41695   2
   2   3   3 25.7608 11.6507   4
   2   3   3 19.5791 6.86040   3
  -3  -3  -3 793.880 37.0311   2
   3   3   3 814.536 32.9911   3
   3   3   3 801.507 32.5776   4
  -4  -3  -3 240.369 25.9394   2
   4   3   3 277.785 22.1952   3
   4   3   3 243.536 23.1883   4
   8  -4  -3 23.3155 14.5473   4
   8  -4  -3 34.7580 17.3719   3
  -8   4   3 31.4489 14.2954   1
   7  -4  -3 173.263 23.2075   3
   7  -4  -3 149.038 20.3296   4
  -7   4   3 143.693 19.9971   1
   6  -4  -3 44.2852 9.74187   4
   6  -4  -3 61.1546 12.6175   3
  -6   4   3 53.6892 10.4895   1
   5  -4  -3 438.627 23.0178   4
   5  -4  -3 461.111 25.6003   3
   4  -4  -3 506.615 23.3129   4
   4  -4  -3 490.013 24.1134   3
   4  -4  -3 428.186 20.8992   1
  -4   4   3 459.240 20.2909   4
  -4   4   3 474.619 22.0276   1
   3  -4  -3 290.513 19.8203   3
   3  -4  -3 280.998 15.2165   1
   3  -4  -3 314.318 18.8431   4
  -3   4   3 305.862 16.0151   1
  -3   4   3 325.232 17.5349   4
  -3   4   3 304.514 18.3067   3
   2  -4  -3 372.213 21.0889   3
   2  -4  -3 356.222 14.9994   1
   2  -4  -3 342.938 11.9278   2
  -2   4   3 345.255 12.6393   2
  -2   4   3 352.248 19.0469   4
  -2   4   3 340.667 16.3153   4
  -2   4   3 323.368 19.7888   3
  -2   4   3 386.501 16.3750   1
   1  -4  -3 1542.07 38.2402   2
   1  -4  -3 1551.11 35.2415   1
   1  -4  -3 1628.96 49.3918   3
  -1   4   3 1504.40 45.0609   4
  -1   4   3 1591.65 36.0351   1
  -1   4   3 1547.47 38.9855   2
  -1   4   3 1578.87 42.0882   4
   0  -4  -3 85.4900 11.5037   2
   0   4   3 76.8316 12.8637   2
   0   4   3 87.2570 10.0125   4
  -1  -4  -3 716.714 29.4408   2
   1   4   3 673.774 28.8214   4
  -2  -4  -3 60.6447 11.2454   2
   2   4   3 47.1624 10.4054   3
   2   4   3 50.4380 9.98834   4
  -3  -4  -3 69.7495 16.0830   2
   3   4   3 44.3620 13.0225   4
   3   4   3 68.1981 13.4331   3
   4   4   3 69.8529 15.5330   3
   7  -5  -3 1.83188 12.9929   4
   7  -5  -3 19.2307 15.0176   3
  -7   5   3 -7.0191 10.5605   1
   6  -5  -3 226.574 23.0122   4
   6  -5  -3 283.437 25.6172   3
  -6   5   3 277.966 22.4301   1
   5  -5  -3 497.644 29.4620   3
   5  -5  -3 522.284 28.0345   4
  -5   5   3 505.141 25.7163   1
   4  -5  -3 465.090 25.4558   4
  -4   5   3 506.903 23.8057   1
   3  -5  -3 16.1309 6.87129   1
   3  -5  -3 3.83771 8.55201   3
  -3   5   3 28.3161 6.62662   1
   2  -5  -3 7.30538 8.85028   3
   2  -5  -3 -4.3024 4.31312   2
   2  -5  -3 8.73441 5.83277   1
  -2   5   3 5.00133 5.30051   2
  -2   5   3 7.68416 5.31234   4
   1  -5  -3 293.266 33.7057   3
   1  -5  -3 382.042 17.4609   2
   1  -5  -3 342.071 14.6466   1
  -1   5   3 326.678 18.4950   2
  -1   5   3 356.427 15.4074   1
   0  -5  -3 253.455 24.9712   3
   0  -5  -3 287.923 18.2378   2
   0   5   3 259.657 18.0606   4
   0   5   3 219.476 20.9343   2
  -1  -5  -3 37.4604 11.3212   2
   1   5   3 25.5329 7.87475   4
   1   5   3 30.7902 9.55158   3
  -2  -5  -3 552.064 33.1989   2
   2   5   3 518.414 29.3751   4
   2   5   3 578.977 30.6823   3
  -3  -5  -3 81.6973 18.2721   2
   3   5   3 98.6020 17.7543   4
   3   5   3 144.443 24.1500   3
   7  -6  -3 17.8504 17.6256   4
   7  -6  -3 -6.8240 17.3879   3
  -7   6   3 4.75209 12.8859   1
   6  -6  -3 673.993 39.3523   3
   6  -6  -3 649.412 36.6187   4
  -6   6   3 628.958 33.7418   1
   5  -6  -3 331.245 26.3102   4
   5  -6  -3 316.442 29.2425   3
  -5   6   3 327.010 23.4428   1
   4  -6  -3 163.161 24.9909   3
   4  -6  -3 199.967 22.3802   4
  -4   6   3 230.753 20.0973   1
   3  -6  -3 229.457 26.0426   3
  -3   6   3 240.088 18.5100   1
  -3   6   3 222.800 17.4332   4
   2  -6  -3 517.849 18.3574   2
   2  -6  -3 537.633 33.6329   3
   2  -6  -3 467.058 22.2568   1
  -2   6   3 548.455 21.5693   2
  -2   6   3 561.163 25.8366   4
  -2   6   3 527.465 22.9746   1
   1  -6  -3 16.1689 8.20168   2
   1  -6  -3 -4.9241 13.5840   3
  -1   6   3 6.28371 7.83148   4
  -1   6   3 -5.2583 10.9615   2
  -1   6   3 4.14406 7.08459   1
   0  -6  -3 183.866 19.9737   2
   0  -6  -3 222.643 28.6145   3
   0   6   3 172.167 18.4341   4
  -1  -6  -3 58.9894 14.0460   2
   1   6   3 59.5955 13.0079   3
   6  -7  -3 96.5804 19.3873   4
   6  -7  -3 79.7980 21.4802   3
  -6   7   3 82.1673 15.8138   1
   5  -7  -3 -14.488 18.4473   3
   5  -7  -3 27.9564 15.8609   4
  -5   7   3 27.7152 12.6707   1
   4  -7  -3 -16.082 16.5896   3
  -4   7   3 -11.842 10.6640   1
   3  -7  -3 246.957 31.8471   3
  -3   7   3 206.628 19.3751   4
  -3   7   3 188.363 30.2620   1
   2  -7  -3 373.705 36.2848   3
  -2   7   3 327.819 22.5109   1
  -2   7   3 290.435 21.5892   4
   1  -7  -3 -0.3372 19.6554   3
   1  -7  -3 5.04919 10.9919   2
  -1   7   3 15.0319 11.8540   4
   0   7   3 -22.841 12.3994   4
   4  -8  -3 106.744 26.2577   3
  -4   8   3 142.016 25.4675   4
  -4   8   3 101.059 18.6542   1
   3  -8  -3 163.818 28.4364   3
  -3   8   3 224.541 35.1636   4
   0   8  -4 19.1293 12.2374   4
   0   8  -4 5.11186 14.6939   1
   0   8  -4 7.55720 15.2186   2
   0   8  -4 48.5496 15.0096   3
  -1   8  -4 5.76609 14.0190   2
  -1   8  -4 -9.7213 10.7826   3
  -1   8  -4 5.67247 12.8183   1
  -1   8  -4 -11.942 10.1074   4
  -2   8  -4 122.885 20.1844   3
  -2   8  -4 126.213 18.9828   1
  -3   8  -4 58.3185 15.0791   1
   3  -8   4 86.0269 17.3371   4
  -4   8  -4 339.727 31.3612   1
   4  -8   4 374.706 33.3699   4
   2   7  -4 314.914 29.6729   2
   2   7  -4 325.601 25.4671   4
   2   7  -4 299.719 26.9096   3
   2   7  -4 353.002 28.5033   1
   1   7  -4 61.2450 11.7709   3
   1   7  -4 77.0692 14.9663   2
   1   7  -4 81.7211 15.5565   1
   0   7  -4 19.6234 11.8041   2
   0   7  -4 21.7932 11.0837   1
   0   7  -4 50.2581 9.73773   4
   0   7  -4 41.1793 10.0990   3
  -1   7  -4 317.423 19.8331   3
  -1   7  -4 295.189 24.0407   1
  -1   7  -4 285.895 19.8119   4
  -1   7  -4 317.684 22.9158   2
  -2   7  -4 18.1068 7.99544   3
  -2   7  -4 19.1471 9.12017   2
  -2   7  -4 14.2921 9.92071   1
  -2   7  -4 -9.2495 11.9292   2
  -2   7  -4 -4.7049 14.3533   3
   2  -7   4 36.0748 11.5372   4
  -3   7  -4 22.8651 11.8423   1
   3  -7   4 16.6724 11.5547   4
   3  -7   4 27.3370 10.3058   3
  -4   7  -4 95.4198 14.0710   2
   4  -7   4 82.0291 12.7602   3
  -5   7  -4 571.997 35.9546   1
   5  -7   4 690.792 36.3738   4
   3   6  -4 9.17833 11.7433   3
   3   6  -4 19.8743 10.1863   4
   2   6  -4 -10.830 8.61301   2
   2   6  -4 8.40905 9.26667   3
   2   6  -4 2.67333 10.3204   1
   1   6  -4 252.584 20.3721   2
   1   6  -4 279.398 16.9022   4
   1   6  -4 264.681 20.9545   1
   1   6  -4 262.396 18.5413   3
   0   6  -4 305.465 18.2652   3
   0   6  -4 311.518 21.2248   2
   0   6  -4 294.655 16.7375   4
   0   6  -4 311.833 21.0819   4
   0   6  -4 330.774 21.0762   1
   0   6  -4 266.975 23.3100   3
  -1   6  -4 355.586 22.6107   3
  -1   6  -4 350.065 20.7148   2
  -1   6  -4 348.381 21.5138   2
  -1   6  -4 339.437 24.0484   1
  -1   6  -4 417.428 25.7303   4
  -1   6  -4 365.520 17.5375   3
   1  -6   4 371.215 22.0608   4
  -2   6  -4 -7.1206 6.58565   2
  -2   6  -4 18.5963 7.98667   1
  -2   6  -4 19.7840 8.08220   2
  -2   6  -4 4.65200 7.88813   3
   2  -6   4 8.78244 7.91054   4
  -3   6  -4 485.381 26.4500   1
  -3   6  -4 513.942 23.9509   2
  -3   6  -4 497.661 20.3105   3
   3  -6   4 478.027 20.1486   3
   3  -6   4 494.292 26.3865   4
  -4   6  -4 442.860 22.8925   2
  -4   6  -4 448.740 26.0806   1
   4  -6   4 352.951 23.7874   4
   4  -6   4 417.042 20.9984   2
   4  -6   4 380.317 19.0553   3
  -5   6  -4 292.235 23.1753   2
  -5   6  -4 249.401 25.0229   1
   5  -6   4 246.957 22.6981   4
  -6   6  -4 61.1755 14.5148   1
   6  -6   4 32.9770 16.0834   4
   4   5  -4 163.623 18.3363   4
   4   5  -4 175.047 22.2865   3
  -4  -5   4 190.698 23.0966   2
  -4  -5   4 170.240 19.8869   1
   3   5  -4 98.3433 14.6122   4
   3   5  -4 112.731 13.5305   4
   3   5  -4 142.224 15.9028   3
  -3  -5   4 95.5172 12.9130   1
   2   5  -4 50.1808 10.4392   1
   2   5  -4 10.5866 9.38856   4
   2   5  -4 31.6645 7.21931   4
   2   5  -4 16.8080 7.26751   3
  -2  -5   4 29.5846 8.28325   1
   1   5  -4 229.019 21.7909   3
   1   5  -4 246.140 16.1013   4
   1   5  -4 235.878 17.0062   2
   1   5  -4 247.279 18.3552   1
   1   5  -4 250.640 15.2346   3
   1   5  -4 229.093 13.3411   4
  -1  -5   4 210.959 16.7173   1
   0   5  -4 823.703 29.4763   2
   0   5  -4 786.968 29.6850   3
   0   5  -4 752.418 29.8794   1
   0   5  -4 757.856 28.9086   1
   0   5  -4 765.964 28.9083   2
   0   5  -4 771.377 26.3798   4
   0   5  -4 803.595 25.1402   3
  -1   5  -4 26.2365 6.60524   4
  -1   5  -4 35.2140 7.37234   2
  -1   5  -4 22.6238 6.36681   1
  -1   5  -4 24.0011 7.66529   3
  -1   5  -4 28.1845 7.05486   2
  -1   5  -4 23.5190 5.32422   3
  -1   5  -4 9.61625 7.33760   1
   1  -5   4 22.4594 6.58846   4
  -2   5  -4 216.048 15.5015   4
  -2   5  -4 199.533 13.9400   3
  -2   5  -4 255.759 16.1071   2
  -2   5  -4 255.326 17.4209   1
   2  -5   4 288.798 14.9587   2
   2  -5   4 233.858 12.4082   3
   2  -5   4 249.100 15.8189   4
  -3   5  -4 251.427 12.2433   3
  -3   5  -4 255.465 17.1542   2
   3  -5   4 267.559 12.8721   3
   3  -5   4 277.192 17.9195   4
   3  -5   4 260.459 15.6303   2
  -4   5  -4 255.241 18.7247   2
  -4   5  -4 283.586 20.1879   1
   4  -5   4 279.762 19.7508   4
   4  -5   4 275.598 18.0128   2
   4  -5   4 261.326 14.0746   3
  -5   5  -4 120.953 17.9042   2
  -5   5  -4 99.4548 18.3337   1
   5  -5   4 131.394 18.6827   4
   5  -5   4 82.5774 13.7660   3
  -6   5  -4 61.8787 15.5273   2
   6  -5   4 58.9490 14.1934   4
   5   4  -4 116.091 17.8416   3
  -5  -4   4 116.980 21.5885   2
   4   4  -4 51.4636 9.76444   4
   4   4  -4 43.2241 9.80017   3
  -4  -4   4 81.7276 14.5308   1
  -4  -4   4 36.4075 10.5857   2
   3   4  -4 51.8430 9.77871   1
   3   4  -4 58.7474 9.22497   4
   3   4  -4 54.0608 10.0718   4
   3   4  -4 48.2981 8.43700   3
  -3  -4   4 84.4329 12.4183   2
  -3  -4   4 52.3990 8.32585   1
   2   4  -4 568.787 22.8028   3
   2   4  -4 577.019 27.7612   3
   2   4  -4 544.969 24.3714   2
   2   4  -4 538.118 23.4236   1
   2   4  -4 557.446 19.1726   4
   2   4  -4 562.516 21.9761   4
  -2  -4   4 561.085 23.6604   1
   1   4  -4 101.878 12.3360   2
   1   4  -4 65.7722 9.39853   2
   1   4  -4 69.8117 8.71797   4
   1   4  -4 80.2653 7.05827   4
   1   4  -4 70.7696 10.9078   1
   1   4  -4 67.8479 8.14235   3
   1   4  -4 70.6314 11.7290   3
  -1  -4   4 70.9252 9.39342   1
   0   4  -4 364.875 17.3594   2
   0   4  -4 362.583 17.3583   2
   0   4  -4 363.465 14.0643   3
   0   4  -4 378.914 14.9144   4
   0   4  -4 370.941 17.2122   3
   0   4  -4 368.164 18.6010   1
   0  -4   4 382.973 16.4101   4
   0  -4   4 362.202 19.2774   1
  -1   4  -4 394.992 12.4117   3
  -1   4  -4 399.927 17.8206   2
  -1   4  -4 365.806 19.2083   1
  -1   4  -4 413.573 14.6884   3
  -1   4  -4 382.471 15.6305   4
  -1   4  -4 382.595 18.5654   1
   1  -4   4 379.317 16.5559   2
   1  -4   4 356.755 16.1972   4
  -2   4  -4 3015.11 64.8430   4
  -2   4  -4 2941.90 54.4766   3
  -2   4  -4 2931.36 71.4450   1
  -2   4  -4 3018.47 66.8601   2
  -2   4  -4 3014.26 69.2225   1
   2  -4   4 2886.31 55.7786   3
   2  -4   4 3025.12 65.7028   4
   2  -4   4 2994.91 64.5836   2
  -3   4  -4 570.078 14.7424   3
  -3   4  -4 563.902 23.8685   2
  -3   4  -4 545.145 23.2324   4
  -3   4  -4 603.507 25.2327   1
   3  -4   4 598.623 23.8708   4
   3  -4   4 584.255 22.6985   2
   3  -4   4 560.794 16.0962   3
  -4   4  -4 86.1950 8.40598   3
  -4   4  -4 74.8516 13.7540   2
  -4   4  -4 61.8219 12.0915   1
   4  -4   4 83.7978 8.32086   3
  -5   4  -4 22.1641 8.43765   1
  -5   4  -4 -0.4502 9.60642   2
   5  -4   4 34.2867 9.48030   4
   5  -4   4 25.0566 6.90077   3
  -6   4  -4 175.328 24.7864   2
  -6   4  -4 191.082 20.0132   1
   6   3  -4 63.4979 13.3794   3
   6   3  -4 49.4295 11.7130   4
  -6  -3   4 54.7699 12.9074   1
  -6  -3   4 50.2569 14.0901   2
   5   3  -4 131.762 17.2306   3
   5   3  -4 149.464 15.0935   4
  -5  -3   4 111.174 13.9065   4
  -5  -3   4 99.7445 16.7230   1
  -5  -3   4 127.564 18.2667   2
   4   3  -4 434.565 17.7478   4
   4   3  -4 404.082 22.7848   1
   4   3  -4 386.908 21.8173   3
  -4  -3   4 405.300 23.1935   2
  -4  -3   4 418.137 21.2959   1
  -4  -3   4 380.597 16.3872   4
   3   3  -4 296.057 13.1215   4
   3   3  -4 290.483 17.0257   3
   3   3  -4 287.233 16.6217   1
  -3  -3   4 300.729 17.9728   2
  -3  -3   4 319.615 17.5570   1
  -3  -3   4 295.655 16.3030   3
   2   3  -4 446.729 16.0305   4
   2   3  -4 443.264 19.7463   2
   2   3  -4 430.490 20.8214   2
   2   3  -4 452.508 18.2137   3
   2   3  -4 443.048 19.3556   1
   2   3  -4 450.063 13.9317   4
  -2  -3   4 434.968 17.7987   3
  -2  -3   4 454.507 19.5245   1
   1   3  -4 439.257 19.0777   2
   1   3  -4 451.012 19.1574   1
   1   3  -4 462.015 19.0226   2
   1   3  -4 432.042 12.8788   4
   1   3  -4 440.353 13.8123   4
   1   3  -4 450.070 15.8318   3
  -1  -3   4 436.739 19.1226   1
   0   3  -4 40.1885 4.80519   4
   0   3  -4 38.2763 5.72494   3
   0   3  -4 32.3405 4.16220   3
   0   3  -4 41.9355 7.50043   1
   0   3  -4 37.0689 6.63046   2
   0  -3   4 52.5232 6.70512   2
   0  -3   4 38.6383 5.30081   4
   0  -3   4 30.1947 6.22261   1
  -1   3  -4 320.777 16.4321   1
  -1   3  -4 332.264 13.2338   4
  -1   3  -4 312.864 15.2876   2
  -1   3  -4 325.566 15.9800   1
   1  -3   4 332.712 15.1877   2
   1  -3   4 335.979 13.1073   4
  -2   3  -4 283.303 15.4411   1
  -2   3  -4 272.124 16.2641   1
  -2   3  -4 291.842 15.5290   2
  -2   3  -4 280.124 13.7637   4
   2  -3   4 276.385 14.5812   2
   2  -3   4 287.164 13.4727   4
  -3   3  -4 386.777 18.6839   4
  -3   3  -4 398.859 11.1407   3
  -3   3  -4 418.216 20.7620   1
  -3   3  -4 388.250 19.8237   2
  -3   3  -4 417.891 19.5071   1
   3  -3   4 410.770 18.8571   4
   3  -3   4 417.475 19.7760   2
   3  -3   4 394.038 11.9700   3
  -4   3  -4 19.9820 7.75316   2
  -4   3  -4 21.2351 6.80266   1
   4  -3   4 14.9540 8.59509   2
   4  -3   4 23.2109 4.77643   3
   4  -3   4 27.7699 6.94050   4
  -5   3  -4 321.204 23.5906   1
  -5   3  -4 404.358 21.5873   3
  -5   3  -4 371.084 24.8900   2
   5  -3   4 383.292 17.1246   3
   5  -3   4 371.470 22.5813   4
  -6   3  -4 304.287 21.9720   1
  -6   3  -4 344.118 27.6315   2
   6  -3   4 389.033 25.8749   4
   6  -3   4 263.842 18.7138   3
   6   2  -4 93.9741 14.5865   4
   6   2  -4 77.7444 14.2619   3
  -6  -2   4 91.3806 15.4450   2
  -6  -2   4 89.0820 16.5713   1
   5   2  -4 32.8916 8.59676   3
   5   2  -4 28.3553 7.01770   4
  -5  -2   4 22.5829 7.93645   1
  -5  -2   4 33.6265 9.44133   2
  -5  -2   4 17.9906 6.89487   4
   4   2  -4 30.0413 7.86107   1
  -4  -2   4 24.7830 4.98020   4
  -4  -2   4 19.0330 6.31473   2
  -4  -2   4 26.9323 7.16427   1
   3   2  -4 873.116 27.9715   1
   3   2  -4 866.386 27.8297   3
   3   2  -4 858.377 30.4013   2
   3   2  -4 879.788 21.3365   4
  -3  -2   4 883.744 21.0248   4
  -3  -2   4 891.158 28.9693   1
  -3  -2   4 814.709 27.0612   3
   2   2  -4 522.713 19.7832   1
   2   2  -4 527.289 18.0566   3
   2   2  -4 516.350 13.8138   4
   2   2  -4 534.137 20.5806   2
   2   2  -4 509.938 20.1956   2
  -2  -2   4 535.847 18.1256   3
  -2  -2   4 521.909 20.1705   1
   1   2  -4 3259.03 67.7640   1
   1   2  -4 3199.23 61.6101   3
   1   2  -4 3244.49 67.8509   2
  -1  -2   4 3220.77 68.4535   1
  -1  -2   4 3238.05 61.4986   3
   0   2  -4 968.573 27.7317   1
   0   2  -4 960.114 27.5222   2
   0   2  -4 969.234 21.3495   4
   0   2  -4 929.188 19.3611   3
   0  -2   4 863.320 22.7591   4
   0  -2   4 970.051 26.9830   2
   0  -2   4 939.574 19.1491   3
  -1   2  -4 1825.97 39.6486   4
  -1   2  -4 1836.84 44.8429   2
  -1   2  -4 1870.07 45.0599   1
   1  -2   4 1876.68 39.9827   4
   1  -2   4 1857.28 44.0956   2
  -2   2  -4 4.86595 4.12178   4
  -2   2  -4 7.73906 4.53331   2
  -2   2  -4 2.22631 3.72602   1
  -2   2  -4 5.79816 4.39660   1
   2  -2   4 14.0091 5.30667   2
   2  -2   4 13.5951 4.17954   4
  -3   2  -4 209.380 13.0912   1
  -3   2  -4 201.762 15.0305   2
  -3   2  -4 216.328 14.3462   1
  -3   2  -4 223.964 14.2320   4
   3  -2   4 199.502 13.3908   4
   3  -2   4 203.183 10.5922   3
   3  -2   4 223.620 15.7554   2
   3  -2   4 198.884 8.77923   3
  -4   2  -4 409.477 19.6213   1
  -4   2  -4 394.085 20.7340   1
  -4   2  -4 413.604 23.0038   2
   4  -2   4 404.015 15.6478   3
   4  -2   4 397.203 22.5905   4
  -5   2  -4 424.568 27.5856   2
  -5   2  -4 394.035 19.9421   1
   5  -2   4 393.134 18.3577   3
   5  -2   4 387.395 23.6182   4
  -6   2  -4 95.3063 18.5963   2
  -6   2  -4 69.7009 10.8236   1
   6  -2   4 55.7995 13.7435   4
   6  -2   4 73.1217 11.6948   3
   7   1  -4 204.631 21.1969   4
   7   1  -4 158.778 22.7707   3
  -7  -1   4 173.222 22.3882   1
  -7  -1   4 176.130 23.1989   2
   6   1  -4 414.849 21.4986   4
   6   1  -4 486.972 27.7066   3
  -6  -1   4 475.884 21.9278   4
  -6  -1   4 429.358 26.0284   2
  -6  -1   4 473.862 25.2577   1
   5   1  -4 199.033 16.7316   3
   5   1  -4 197.719 12.6449   4
  -5  -1   4 209.121 16.3853   2
  -5  -1   4 205.801 15.9064   1
  -5  -1   4 197.123 12.2335   4
   4   1  -4 40.4038 5.96854   4
   4   1  -4 37.7330 7.26860   3
   4   1  -4 47.0656 8.19818   1
   4   1  -4 16.4087 7.63420   2
  -4  -1   4 32.4812 5.66831   4
  -4  -1   4 28.9628 6.34633   1
  -4  -1   4 37.5111 7.43267   3
  -4  -1   4 44.0435 7.87956   2
   3   1  -4 185.095 11.6584   3
   3   1  -4 190.820 12.5139   2
   3   1  -4 184.700 7.22436   4
   3   1  -4 179.200 11.5633   2
   3   1  -4 187.065 12.1998   1
  -3  -1   4 191.955 12.1998   1
  -3  -1   4 177.098 11.4307   3
  -3  -1   4 188.055 7.12126   4
   2   1  -4 1215.90 31.8317   2
   2   1  -4 1199.34 30.3557   3
   2   1  -4 1223.97 32.2416   1
   2   1  -4 1244.46 32.7245   2
  -2  -1   4 1229.78 30.1982   3
  -2  -1   4 1215.64 32.9099   1
   1   1  -4 161.551 7.69224   3
   1   1  -4 164.826 9.58719   1
   1   1  -4 169.615 9.75163   2
  -1  -1   4 171.876 10.0750   1
  -1  -1   4 165.128 7.41260   3
  -1  -1   4 169.345 9.72099   2
   0   1  -4 651.856 15.4825   3
   0   1  -4 683.395 20.7046   1
   0   1  -4 676.458 16.4033   4
   0   1  -4 662.832 21.5680   2
   0  -1   4 701.207 21.7103   2
   0  -1   4 660.317 16.4626   4
   0  -1   4 661.477 14.7264   3
  -1   1  -4 309.539 13.2912   1
  -1   1  -4 319.678 12.4022   4
  -1   1  -4 302.007 14.9471   2
   1  -1   4 314.598 14.2037   1
   1  -1   4 310.783 11.9940   4
   1  -1   4 298.540 7.95492   3
   1  -1   4 316.139 14.9159   2
   1  -1   4 305.921 8.80700   3
  -2   1  -4 384.472 16.2453   4
  -2   1  -4 388.680 16.1159   1
  -2   1  -4 397.771 15.3605   1
  -2   1  -4 401.140 18.7381   2
   2  -1   4 357.842 13.6826   3
   2  -1   4 381.212 18.3395   2
   2  -1   4 401.752 16.3028   4
  -3   1  -4 34.4392 6.41022   1
  -3   1  -4 34.4885 5.28664   1
  -3   1  -4 41.7838 7.01479   4
  -3   1  -4 41.9210 8.61155   2
   3  -1   4 45.4288 7.60099   4
   3  -1   4 35.8938 5.62656   3
   3  -1   4 43.4956 8.24077   2
   3  -1   4 30.4495 6.37861   3
  -4   1  -4 295.728 14.5998   1
  -4   1  -4 264.072 16.5240   1
   4  -1   4 281.952 18.7080   3
   4  -1   4 295.349 14.0784   3
   4  -1   4 277.877 17.8473   4
  -5   1  -4 578.545 22.6353   1
  -5   1  -4 568.173 31.4252   2
  -5   1  -4 566.748 29.0187   1
   5  -1   4 591.293 30.2955   3
   5  -1   4 516.701 23.0533   3
   5  -1   4 565.662 27.7478   4
  -6   1  -4 416.360 33.0527   2
   6  -1   4 372.936 26.4975   4
   6  -1   4 342.343 23.1295   3
   7   0  -4 228.272 23.5369   3
  -7   0   4 210.782 20.4120   1
  -7   0   4 242.860 22.0245   2
   6   0  -4 75.1123 13.2768   3
   6   0  -4 96.3382 12.1199   4
  -6   0   4 86.3603 13.4855   1
  -6   0   4 90.5834 12.8537   4
   5   0  -4 71.6467 8.29172   4
   5   0  -4 57.9238 11.1399   3
  -5   0   4 52.7469 9.04182   1
  -5   0   4 70.2194 8.22035   4
  -5   0   4 72.9027 10.5159   2
   4   0  -4 1461.95 39.9665   2
   4   0  -4 1446.45 41.0981   3
   4   0  -4 1403.46 39.2072   1
   4   0  -4 1467.89 32.5020   4
  -4   0   4 1346.28 34.5841   4
  -4   0   4 1437.12 40.0331   3
  -4   0   4 1490.97 40.7151   1
   3   0  -4 591.101 21.2525   1
   3   0  -4 603.684 21.5961   3
   3   0  -4 595.397 19.9766   2
   3   0  -4 607.761 15.3274   4
   3   0  -4 622.973 20.6179   2
  -3   0   4 609.394 21.0056   3
  -3   0   4 621.856 22.0534   1
  -3   0   4 597.438 14.7405   4
   2   0  -4 1719.39 40.6701   1
   2   0  -4 1741.39 40.0374   2
   2   0  -4 1783.89 41.0492   3
  -2   0   4 1816.61 40.2419   3
  -2   0   4 1809.45 39.8313   2
  -2   0   4 1760.21 41.6437   1
   1   0  -4 22.9644 4.07647   3
   1   0  -4 21.5172 2.69975   4
   1   0  -4 13.8465 3.44046   2
   1   0  -4 25.5026 4.38153   1
  -1   0   4 29.3649 4.27214   3
  -1   0   4 25.1206 2.49316   4
  -1   0   4 23.4992 4.41310   2
  -1   0   4 21.4732 4.17196   1
   0   0  -4 2354.75 47.8123   1
   0   0  -4 2263.74 50.0172   3
   0   0  -4 2345.48 45.8574   4
   0   0  -4 2262.79 51.2886   2
   0   0   4 2368.98 46.2620   4
   0   0   4 2318.74 48.6494   1
   0   0   4 2271.14 45.9410   3
   0   0   4 2364.07 51.2984   2
  -1   0  -4 710.042 19.5953   1
  -1   0  -4 710.084 24.8095   2
  -1   0  -4 689.921 20.6977   4
  -1   0  -4 711.162 20.9580   3
   1   0   4 691.770 20.5075   3
   1   0   4 718.962 20.8790   1
   1   0   4 685.098 20.9238   4
   1   0   4 677.827 23.9788   2
  -2   0  -4 530.908 23.0845   2
  -2   0  -4 525.501 16.0984   1
  -2   0  -4 536.178 20.2621   4
  -2   0  -4 538.803 16.9222   1
   2   0   4 548.662 17.2607   3
   2   0   4 528.933 23.6840   2
   2   0   4 548.209 20.3347   4
   2   0   4 549.739 20.2144   3
  -3   0  -4 135.009 8.17347   1
  -3   0  -4 136.017 9.62598   1
  -3   0  -4 116.623 14.0616   2
   3   0   4 129.755 11.3950   4
   3   0   4 131.405 14.6260   3
   3   0   4 125.843 9.45654   3
  -4   0  -4 54.9418 11.1366   2
  -4   0  -4 63.2145 8.02098   1
  -4   0  -4 84.1894 11.2106   1
   4   0   4 70.3222 11.4044   4
   4   0   4 62.1305 10.2272   3
   4   0   4 53.2566 11.6859   3
  -5   0  -4 42.9258 13.2485   2
  -5   0  -4 59.7405 8.19228   1
   5   0   4 54.0789 10.5376   4
   5   0   4 72.2690 11.3256   3
  -6   0  -4 75.2865 20.3877   2
   7  -1  -4 84.6707 13.4232   4
   7  -1  -4 76.5735 14.5341   3
  -7   1   4 70.2891 13.3796   2
  -7   1   4 83.0526 13.0544   1
   6  -1  -4 11.9405 8.78953   2
   6  -1  -4 11.2371 6.59834   4
   6  -1  -4 9.51170 8.09019   3
  -6   1   4 15.5965 7.48518   1
  -6   1   4 6.26627 6.68506   2
  -6   1   4 23.8079 7.62275   4
   5  -1  -4 47.0915 8.88040   3
   5  -1  -4 40.3711 7.56796   2
  -5   1   4 53.4442 7.70871   4
  -5   1   4 39.7357 7.73787   1
   4  -1  -4 1938.32 49.9797   3
   4  -1  -4 1866.32 47.9205   1
   4  -1  -4 1916.61 45.4925   2
   4  -1  -4 1944.13 44.0629   2
   4  -1  -4 1936.94 42.4112   4
  -4   1   4 1876.58 48.3105   3
  -4   1   4 1905.71 41.1539   4
  -4   1   4 1939.40 49.2336   1
   3  -1  -4 843.151 23.0942   2
   3  -1  -4 819.612 22.0266   4
   3  -1  -4 830.489 25.9278   1
   3  -1  -4 841.571 23.3355   2
   3  -1  -4 854.133 27.3471   3
  -3   1   4 849.054 26.7688   1
  -3   1   4 834.843 20.6114   4
  -3   1   4 831.274 25.9415   3
   2  -1  -4 366.163 15.2898   3
   2  -1  -4 356.346 14.3437   1
   2  -1  -4 357.424 13.3537   2
  -2   1   4 375.109 12.1248   4
  -2   1   4 350.158 14.7881   1
  -2   1   4 364.331 13.4424   2
  -2   1   4 367.079 11.2653   4
  -2   1   4 376.652 15.2913   3
   1  -1  -4 12.9686 3.88323   3
   1  -1  -4 16.2131 3.34150   2
  -1   1   4 14.8594 3.58626   2
  -1   1   4 11.9997 3.45861   1
  -1   1   4 16.6826 4.38692   3
  -1   1   4 15.0192 2.62568   4
   0  -1  -4 582.131 17.9913   4
   0  -1  -4 583.447 21.0071   2
   0  -1  -4 594.374 21.0007   3
   0  -1  -4 579.493 16.1516   1
   0   1   4 573.757 17.9243   4
   0   1   4 580.649 19.8593   3
   0   1   4 602.726 20.9995   2
   0   1   4 576.841 16.8321   1
  -1  -1  -4 797.288 18.8076   1
  -1  -1  -4 796.411 26.6449   3
  -1  -1  -4 772.406 27.4829   2
  -1  -1  -4 790.213 24.1840   4
   1   1   4 843.708 26.8644   3
   1   1   4 789.515 27.9964   2
   1   1   4 813.628 24.7408   4
  -2  -1  -4 267.448 18.1720   2
  -2  -1  -4 265.195 15.0564   4
   2   1   4 274.952 15.1094   4
   2   1   4 264.987 13.4175   3
   2   1   4 255.760 16.7188   3
   2   1   4 281.434 18.0059   2
  -3  -1  -4 575.323 38.6553   2
   3   1   4 615.237 23.0058   3
   3   1   4 583.926 28.9767   3
  -4  -1  -4 719.617 36.1590   2
   4   1   4 719.987 30.9556   4
   4   1   4 708.454 27.8892   3
  -5  -1  -4 189.512 25.6164   2
   5   1   4 150.039 18.5691   3
   5   1   4 138.946 18.6987   4
   8  -2  -4 159.163 26.4353   4
   8  -2  -4 110.369 19.0679   3
  -8   2   4 127.502 23.6556   1
   7  -2  -4 3.40173 9.19629   4
   7  -2  -4 1.65105 10.9273   3
  -7   2   4 -17.391 9.08671   1
   6  -2  -4 24.5046 6.21230   2
   6  -2  -4 49.2787 10.3899   3
   6  -2  -4 40.5065 8.71472   4
   6  -2  -4 32.8106 8.22076   2
  -6   2   4 21.1051 8.40449   1
  -6   2   4 31.3243 7.86148   4
   5  -2  -4 1578.97 40.1148   2
   5  -2  -4 1596.07 41.9057   4
   5  -2  -4 1646.99 38.8616   2
   5  -2  -4 1658.48 48.9695   3
  -5   2   4 1657.33 47.3001   1
  -5   2   4 1672.12 40.7615   4
   4  -2  -4 444.367 15.0327   2
   4  -2  -4 426.103 17.3822   4
   4  -2  -4 405.404 19.3941   1
   4  -2  -4 422.431 20.6104   3
  -4   2   4 425.091 15.8614   4
  -4   2   4 429.491 20.5222   3
  -4   2   4 424.890 19.6259   1
   3  -2  -4 1213.20 33.3764   1
   3  -2  -4 1247.90 32.8763   4
   3  -2  -4 1210.94 35.9551   3
   3  -2  -4 1253.34 28.7690   2
   3  -2  -4 1255.83 28.2553   2
  -3   2   4 1177.51 34.7951   3
  -3   2   4 1250.52 30.5237   4
  -3   2   4 1246.40 34.3600   1
   2  -2  -4 249.938 10.8186   2
   2  -2  -4 233.184 13.9744   3
   2  -2  -4 253.352 11.8236   1
  -2   2   4 252.980 13.5782   3
  -2   2   4 255.216 10.8512   4
  -2   2   4 248.680 12.0599   1
  -2   2   4 247.704 12.2773   4
  -2   2   4 252.534 10.7631   2
   1  -2  -4 1911.24 48.2016   3
   1  -2  -4 1912.27 43.8328   2
   1  -2  -4 1731.26 42.2821   1
  -1   2   4 1889.14 46.3975   4
  -1   2   4 1916.86 43.1876   2
  -1   2   4 1864.30 46.7308   3
  -1   2   4 1952.73 42.7016   4
  -1   2   4 1900.63 41.0122   1
   0  -2  -4 19.2304 4.89397   4
   0  -2  -4 16.3201 4.60662   2
   0  -2  -4 17.4490 6.05411   3
   0  -2  -4 20.8172 3.85162   1
   0   2   4 19.7141 3.69829   1
   0   2   4 19.8074 4.74935   4
   0   2   4 18.6582 6.32913   3
   0   2   4 16.4874 5.30988   2
  -1  -2  -4 8.25011 6.09394   2
  -1  -2  -4 9.59965 5.94075   3
  -1  -2  -4 17.4810 5.56899   4
   1   2   4 8.96582 4.16056   4
   1   2   4 7.45492 6.48578   3
   1   2   4 7.05358 6.51900   2
  -2  -2  -4 209.727 18.2852   2
   2   2   4 208.405 14.0457   3
   2   2   4 202.727 17.9994   3
   2   2   4 202.638 15.0134   4
  -3  -2  -4 303.586 23.8743   2
   3   2   4 331.365 21.2459   4
   3   2   4 320.581 18.6515   3
  -4  -2  -4 149.252 23.9448   2
   4   2   4 179.594 19.1022   4
   4   2   4 206.314 17.9843   3
   8  -3  -4 51.3997 14.9937   4
   8  -3  -4 48.9016 16.0323   3
  -8   3   4 28.9731 14.7083   1
   7  -3  -4 91.9073 11.5591   2
   7  -3  -4 115.785 21.3016   3
   7  -3  -4 89.5990 13.6413   4
  -7   3   4 101.183 18.4970   1
   6  -3  -4 118.031 16.6454   3
   6  -3  -4 106.160 11.2643   2
   6  -3  -4 92.9198 9.41513   2
   6  -3  -4 113.597 14.6668   4
  -6   3   4 114.626 15.6626   1
   5  -3  -4 494.220 25.2239   3
   5  -3  -4 473.696 15.1235   2
   5  -3  -4 471.971 16.0133   2
   5  -3  -4 466.674 21.9851   4
  -5   3   4 462.145 20.2220   4
  -5   3   4 498.741 23.8689   1
   4  -3  -4 -4.3772 2.94471   2
   4  -3  -4 -2.4027 5.04335   1
   4  -3  -4 7.48027 3.21443   2
   4  -3  -4 8.41856 6.33329   3
   4  -3  -4 3.02971 4.88051   4
  -4   3   4 1.97139 6.51060   3
  -4   3   4 0.06023 4.40121   1
  -4   3   4 -5.7857 4.27525   4
   3  -3  -4 -7.8249 4.75911   3
   3  -3  -4 0.57319 4.22520   1
   3  -3  -4 3.72929 4.95043   4
   3  -3  -4 2.71475 3.56969   2
  -3   3   4 -0.0977 4.43548   1
  -3   3   4 5.92054 2.91643   2
  -3   3   4 -5.5735 5.64900   3
  -3   3   4 2.21663 4.74488   4
   2  -3  -4 1174.54 28.5911   2
   2  -3  -4 1129.27 37.1419   3
   2  -3  -4 1141.70 30.0095   1
  -2   3   4 1065.79 34.6180   3
  -2   3   4 1117.69 30.6843   1
  -2   3   4 1138.28 33.6171   4
  -2   3   4 1115.70 30.6198   4
  -2   3   4 1130.10 27.7997   2
   1  -3  -4 912.154 27.3035   2
   1  -3  -4 868.387 32.3371   3
  -1   3   4 900.663 27.6690   4
  -1   3   4 935.646 27.4732   2
  -1   3   4 912.247 31.9378   3
  -1   3   4 903.294 31.6707   4
  -1   3   4 876.039 23.9110   1
   0  -3  -4 217.792 13.8010   4
   0  -3  -4 251.372 19.1742   3
   0  -3  -4 248.740 15.4210   2
   0   3   4 260.892 16.5489   2
   0   3   4 225.709 18.0912   3
   0   3   4 221.608 8.31183   1
   0   3   4 223.383 14.3346   4
  -1  -3  -4 148.600 16.6661   3
  -1  -3  -4 162.946 15.6959   2
   1   3   4 199.014 29.5428   3
   1   3   4 145.606 16.5113   2
   1   3   4 139.417 11.9526   4
  -2  -3  -4 472.168 26.8642   2
   2   3   4 444.125 31.2380   3
   2   3   4 425.024 23.2698   4
  -3  -3  -4 494.831 31.0560   2
   3   3   4 464.752 25.2872   3
   3   3   4 457.157 26.7680   4
  -4  -3  -4 111.976 19.6049   2
   4   3   4 93.1527 15.3507   4
   4   3   4 155.312 21.2920   3
   8  -4  -4 8.92653 15.4573   4
   8  -4  -4 43.8025 18.6177   3
  -8   4   4 33.9331 15.1317   1
   7  -4  -4 355.666 24.6906   4
   7  -4  -4 378.594 29.8626   3
  -7   4   4 332.374 26.0274   1
   6  -4  -4 1381.15 49.5714   3
   6  -4  -4 1319.42 44.5039   4
  -6   4   4 1308.70 45.5038   1
   5  -4  -4 42.6410 10.2366   3
  -5   4   4 41.0931 9.18888   1
   4  -4  -4 363.386 20.7686   4
   4  -4  -4 386.968 23.9482   3
  -4   4   4 346.211 19.1604   1
  -4   4   4 316.734 17.4759   4
   3  -4  -4 56.1852 7.65258   1
   3  -4  -4 69.2147 13.2744   3
  -3   4   4 53.7649 8.33083   1
  -3   4   4 87.0768 12.0037   4
   2  -4  -4 554.286 19.8542   1
   2  -4  -4 539.328 18.0445   2
   2  -4  -4 535.138 27.4406   3
  -2   4   4 555.924 20.9900   1
  -2   4   4 490.465 20.8094   2
  -2   4   4 540.354 23.9102   4
  -2   4   4 553.461 21.7156   4
   1  -4  -4 40.4972 10.8785   3
   1  -4  -4 41.7957 7.43226   1
  -1   4   4 25.4439 6.66079   4
  -1   4   4 26.8830 5.20786   1
  -1   4   4 45.2789 8.02771   2
   0  -4  -4 337.097 18.9603   2
   0  -4  -4 276.087 23.1898   3
   0   4   4 306.503 19.8286   2
   0   4   4 297.938 18.0541   4
  -1  -4  -4 372.044 27.9062   2
   1   4   4 445.209 22.8957   4
  -2  -4  -4 39.8290 12.9833   2
   2   4   4 12.9486 10.1922   3
   2   4   4 32.7146 10.7173   4
  -3  -4  -4 34.7795 15.3411   2
   3   4   4 30.1736 13.2540   4
   7  -5  -4 44.4393 16.6765   3
   7  -5  -4 0.07122 14.5695   4
  -7   5   4 17.0335 11.0668   1
   6  -5  -4 482.384 29.7850   4
   6  -5  -4 453.690 32.7212   3
  -6   5   4 417.119 27.2735   1
   5  -5  -4 125.864 18.3868   4
   5  -5  -4 115.273 18.8804   3
  -5   5   4 124.001 15.9408   1
   4  -5  -4 99.7688 17.7402   3
  -4   5   4 103.327 15.0297   1
   3  -5  -4 181.600 15.0767   1
   3  -5  -4 188.000 21.4409   3
  -3   5   4 174.824 17.9668   4
  -3   5   4 189.268 15.3760   1
   2  -5  -4 88.1438 10.0262   2
   2  -5  -4 74.1298 11.2018   1
  -2   5   4 90.6179 11.4253   4
  -2   5   4 88.5204 12.2579   2
  -2   5   4 74.0182 11.4743   1
   1  -5  -4 270.285 25.4413   3
   1  -5  -4 240.124 13.0905   1
   1  -5  -4 248.279 16.3118   2
  -1   5   4 263.371 13.5588   1
  -1   5   4 281.331 18.5880   4
  -1   5   4 257.127 19.3772   2
   0  -5  -4 466.500 32.0654   3
   0  -5  -4 506.608 25.6912   2
   0   5   4 460.877 24.8960   4
  -1  -5  -4 418.050 27.2445   2
   1   5   4 424.628 26.0219   4
   1   5   4 396.388 26.6336   3
  -2  -5  -4 283.723 29.7219   2
   2   5   4 195.976 23.2312   4
   2   5   4 201.456 22.9474   3
   7  -6  -4 397.684 35.8902   3
   7  -6  -4 290.162 36.6222   4
  -7   6   4 317.204 29.9248   1
   6  -6  -4 -0.5701 16.4047   3
   6  -6  -4 30.2637 15.0725   4
  -6   6   4 10.9336 11.4010   1
   5  -6  -4 305.050 28.3150   4
   5  -6  -4 309.352 32.8985   3
  -5   6   4 327.343 25.5574   1
   4  -6  -4 53.3744 16.1695   3
  -4   6   4 82.9183 14.3610   4
  -4   6   4 121.056 18.8647   1
   3  -6  -4 193.458 28.8070   3
  -3   6   4 222.311 17.5481   4
  -3   6   4 238.522 19.5657   1
   2  -6  -4 29.1483 13.4670   1
   2  -6  -4 37.3602 15.2547   3
  -2   6   4 24.8639 9.15185   4
  -2   6   4 18.6295 8.56845   1
   1  -6  -4 109.621 12.5929   2
   1  -6  -4 95.8983 19.7035   3
  -1   6   4 100.596 13.9573   4
   0  -6  -4 60.1814 13.4967   2
   0  -6  -4 106.908 20.8653   3
   0   6   4 86.5778 12.8790   4
   1   6   4 32.2513 14.5593   3
   1   6   4 18.7434 12.7395   4
   6  -7  -4 -0.6660 18.9765   4
  -6   7   4 12.8951 15.5972   1
   5  -7  -4 17.4542 20.4054   3
  -5   7   4 11.3498 13.7910   1
   4  -7  -4 127.834 23.0443   3
  -4   7   4 105.752 16.0272   1
   3  -7  -4 356.791 38.1297   3
  -3   7   4 307.110 30.5717   1
  -3   7   4 356.422 24.2280   4
   2  -7  -4 379.454 41.9881   3
  -2   7   4 442.184 28.4360   4
   1  -7  -4 78.7300 24.4011   3
  -1   7   4 74.2837 15.2774   4
   0   8  -5 2.93516 15.0645   1
   0   8  -5 12.8601 12.8946   4
   0   8  -5 -5.1591 15.6000   2
  -1   8  -5 67.8385 16.1460   2
  -1   8  -5 76.2225 16.6591   1
  -1   8  -5 51.5582 13.9728   3
  -1   8  -5 109.382 20.2186   4
  -2   8  -5 98.4160 17.5721   1
  -2   8  -5 95.1615 18.0068   2
   2  -8   5 108.200 18.5902   4
  -3   8  -5 405.250 33.7302   1
   3  -8   5 424.443 33.3329   4
   2   7  -5 6.64030 12.9919   3
   2   7  -5 10.6108 14.7859   1
   2   7  -5 10.0780 12.6681   4
   2   7  -5 21.7603 15.1853   2
   1   7  -5 45.5636 10.8131   4
   1   7  -5 22.0770 10.9476   3
   1   7  -5 25.5666 13.4750   2
   1   7  -5 49.8470 13.6494   1
   0   7  -5 310.514 25.7671   1
   0   7  -5 322.409 25.6816   2
   0   7  -5 347.343 21.6515   3
   0   7  -5 327.679 20.1726   4
  -1   7  -5 16.6592 11.3743   2
  -1   7  -5 4.19964 10.5275   1
  -1   7  -5 6.68279 8.29832   3
  -2   7  -5 52.5642 11.9204   2
  -2   7  -5 61.2509 12.0953   1
   2  -7   5 54.7955 12.4454   4
  -3   7  -5 148.857 21.5197   2
  -3   7  -5 225.649 24.0390   1
   3  -7   5 167.964 23.6014   4
  -4   7  -5 53.7400 14.4199   1
  -4   7  -5 57.5596 14.4727   2
   4  -7   5 51.6939 15.3026   4
  -5   7  -5 67.7733 16.7094   1
   5  -7   5 108.112 18.7249   4
   3   6  -5 -2.0511 12.2547   2
   3   6  -5 -3.8666 10.1755   4
   3   6  -5 24.7230 12.1564   3
  -3  -6   5 27.8178 13.3402   1
   2   6  -5 437.604 22.0381   4
   2   6  -5 452.590 25.9880   3
   2   6  -5 477.887 28.7343   2
   1   6  -5 138.953 15.1045   3
   1   6  -5 143.395 13.4767   4
   1   6  -5 166.578 20.1230   1
   1   6  -5 102.980 17.6889   4
   1   6  -5 135.052 19.1150   2
   0   6  -5 693.999 27.9396   4
   0   6  -5 755.012 31.7361   2
   0   6  -5 761.092 26.1545   4
   0   6  -5 732.932 25.9190   3
   0   6  -5 751.231 31.9039   1
   0   6  -5 666.063 31.5909   3
  -1   6  -5 383.629 17.2182   3
  -1   6  -5 358.537 23.3106   1
  -1   6  -5 402.389 22.5375   3
  -1   6  -5 344.512 19.9337   4
  -1   6  -5 376.633 22.5625   2
   1  -6   5 398.361 22.1559   4
  -2   6  -5 218.590 19.2909   1
  -2   6  -5 208.442 14.5323   3
  -2   6  -5 224.298 11.9206   3
  -2   6  -5 161.629 17.6547   2
  -2   6  -5 199.394 17.8910   2
   2  -6   5 214.577 18.7501   4
  -3   6  -5 19.4358 9.87963   2
  -3   6  -5 26.0863 9.02721   1
  -3   6  -5 26.8125 5.27971   3
   3  -6   5 32.0418 9.69498   4
   3  -6   5 10.7027 9.51724   2
  -4   6  -5 59.2815 12.7252   1
  -4   6  -5 78.8659 14.2893   2
   4  -6   5 41.3238 11.8285   4
  -5   6  -5 31.7645 12.3549   1
  -5   6  -5 20.0326 13.5394   2
   5  -6   5 35.0946 12.9993   4
   4   5  -5 173.808 22.2516   3
   4   5  -5 156.735 21.4405   2
   4   5  -5 143.250 17.7647   4
  -4  -5   5 124.077 20.7219   1
   3   5  -5 39.3887 8.05935   4
   3   5  -5 57.1989 12.4037   2
   3   5  -5 44.2414 10.6175   3
   2   5  -5 31.9716 8.97541   2
   2   5  -5 29.9775 6.71990   4
   2   5  -5 49.2898 8.92638   4
   2   5  -5 42.3715 8.96664   3
  -2  -5   5 26.9728 9.23613   1
   1   5  -5 671.528 24.8416   3
   1   5  -5 671.365 23.8929   4
   1   5  -5 655.298 30.3538   3
   1   5  -5 707.073 29.6834   2
   1   5  -5 675.708 22.0339   4
  -1  -5   5 685.791 30.5157   1
   0   5  -5 5.97336 7.40035   1
   0   5  -5 12.9051 7.41240   2
   0   5  -5 13.2171 5.93783   4
   0   5  -5 28.2555 5.68419   3
   0   5  -5 17.1901 8.31076   3
   0   5  -5 19.7151 8.36307   2
   0  -5   5 17.8609 6.72866   4
  -1   5  -5 175.149 13.5416   4
  -1   5  -5 216.149 16.4772   1
  -1   5  -5 214.226 16.2157   2
  -1   5  -5 199.065 10.3846   3
   1  -5   5 200.001 14.7248   4
  -2   5  -5 579.786 25.6093   2
  -2   5  -5 564.494 14.8023   3
  -2   5  -5 593.578 24.4169   4
  -2   5  -5 563.369 15.5698   3
   2  -5   5 578.279 23.8329   2
   2  -5   5 586.728 23.9386   4
  -3   5  -5 146.034 16.8161   2
  -3   5  -5 143.937 16.1819   1
   3  -5   5 146.640 15.6707   2
   3  -5   5 133.577 14.3271   4
  -4   5  -5 151.825 19.3835   1
  -4   5  -5 167.080 19.2622   2
   4  -5   5 175.314 17.3960   4
  -5   5  -5 37.2413 12.1923   1
  -5   5  -5 48.1712 12.8245   2
   5  -5   5 45.9992 12.5756   4
  -6   5  -5 285.482 32.1621   2
  -6   5  -5 253.573 25.3067   1
   6  -5   5 260.835 28.7727   4
   5   4  -5 65.0223 10.9068   4
   5   4  -5 70.6081 14.8143   3
  -5  -4   5 65.9752 14.1126   1
   4   4  -5 -10.927 7.28816   2
   4   4  -5 -1.4673 6.30824   4
  -4  -4   5 15.4515 13.8176   1
   3   4  -5 1375.64 35.0196   4
   3   4  -5 1472.89 44.2214   3
   3   4  -5 1472.83 38.9522   4
   3   4  -5 1390.46 45.0999   2
  -3  -4   5 1448.98 45.0671   1
   2   4  -5 268.020 18.6848   1
   2   4  -5 273.581 18.6291   2
   2   4  -5 283.812 13.7072   4
   2   4  -5 284.507 16.0571   3
   2   4  -5 243.848 20.8851   3
   2   4  -5 273.035 12.1879   4
  -2  -4   5 314.942 18.3396   1
   1   4  -5 571.379 20.4834   3
   1   4  -5 613.291 24.8149   3
   1   4  -5 580.098 25.0904   2
   1   4  -5 583.554 18.3442   4
   1   4  -5 620.656 25.6972   2
   1   4  -5 584.245 25.7400   1
   1   4  -5 591.735 17.6803   4
  -1  -4   5 600.079 26.4516   1
   0   4  -5 60.8182 11.0903   1
   0   4  -5 67.4640 10.7421   3
   0   4  -5 47.2996 6.16908   3
   0   4  -5 41.3955 6.12136   4
   0   4  -5 48.5579 8.07703   2
   0  -4   5 40.7268 8.09031   1
  -1   4  -5 346.343 9.60248   3
  -1   4  -5 332.326 10.7878   3
  -1   4  -5 372.578 15.7076   4
  -1   4  -5 285.282 18.4579   1
  -1   4  -5 315.073 17.8149   2
  -1   4  -5 353.431 18.7979   1
   1  -4   5 319.695 14.9810   4
   1  -4   5 316.133 16.9119   2
  -2   4  -5 661.243 26.1211   2
  -2   4  -5 627.267 23.1819   4
  -2   4  -5 613.622 26.1612   1
   2  -4   5 603.686 22.5908   4
   2  -4   5 618.172 24.2244   2
  -3   4  -5 241.232 18.0992   2
  -3   4  -5 219.150 17.4124   1
   3  -4   5 188.756 16.3000   2
   3  -4   5 215.344 15.2649   4
  -4   4  -5 16.3640 9.39916   2
  -4   4  -5 9.25582 7.57209   1
   4  -4   5 28.8005 8.52250   4
  -5   4  -5 104.205 16.6888   2
  -5   4  -5 144.854 18.6977   1
  -6   4  -5 20.9866 17.2184   2
  -6   4  -5 45.3638 12.1826   1
   6  -4   5 57.7528 15.3675   4
   6   3  -5 -9.9462 12.8871   3
  -6  -3   5 -2.2844 13.1549   1
  -6  -3   5 4.17370 12.4088   2
   5   3  -5 19.6422 7.15284   4
   5   3  -5 20.7882 9.11632   3
  -5  -3   5 23.8677 10.0082   1
   4   3  -5 15.5173 6.72248   3
   4   3  -5 -6.4924 6.53538   2
   4   3  -5 3.71538 4.86378   4
  -4  -3   5 21.6718 7.71169   1
   3   3  -5 979.177 33.5797   1
   3   3  -5 1043.24 25.0372   4
   3   3  -5 1048.69 33.0403   3
   3   3  -5 1025.60 35.0115   2
   3   3  -5 1043.91 27.1800   4
  -3  -3   5 967.429 31.7138   3
  -3  -3   5 1093.58 35.8019   1
   2   3  -5 1036.41 34.1215   2
   2   3  -5 981.670 28.9465   3
   2   3  -5 984.833 22.9231   4
   2   3  -5 944.278 32.4369   2
   2   3  -5 1008.94 32.7833   1
  -2  -3   5 1011.43 33.4989   1
  -2  -3   5 1019.66 28.8030   3
   1   3  -5 91.3356 11.0417   1
   1   3  -5 103.229 6.12181   4
   1   3  -5 109.955 10.6481   2
   1   3  -5 111.229 11.1344   2
   1   3  -5 105.436 7.62483   3
  -1  -3   5 109.106 7.53344   3
  -1  -3   5 108.978 10.4465   1
   0   3  -5 185.676 9.19184   3
   0   3  -5 180.437 7.37767   3
   0   3  -5 181.284 12.2793   2
   0   3  -5 163.774 12.7051   1
   0   3  -5 184.190 8.75347   4
   0  -3   5 179.959 12.2492   2
   0  -3   5 162.014 12.8164   1
   0  -3   5 167.841 8.46295   4
  -1   3  -5 670.052 25.8313   1
  -1   3  -5 734.755 21.4993   4
  -1   3  -5 719.010 26.2082   2
   1  -3   5 733.298 21.6899   4
   1  -3   5 685.384 25.0158   2
  -2   3  -5 157.692 13.7921   1
  -2   3  -5 172.417 11.7633   4
  -2   3  -5 177.253 13.7843   1
  -2   3  -5 167.926 13.8315   2
   2  -3   5 155.857 13.2389   2
   2  -3   5 173.669 11.5890   4
  -3   3  -5 503.571 24.0139   1
  -3   3  -5 542.367 25.4287   2
  -3   3  -5 499.276 21.7644   4
  -3   3  -5 550.040 23.7285   1
   3  -3   5 532.872 22.5899   4
   3  -3   5 511.338 24.0396   2
  -4   3  -5 351.396 26.8320   2
  -4   3  -5 370.414 20.2535   1
   4  -3   5 385.231 21.4023   4
   4  -3   5 341.063 14.8770   3
   4  -3   5 363.645 12.9411   3
  -5   3  -5 701.728 35.3773   2
  -5   3  -5 706.247 29.4427   1
   5  -3   5 704.142 22.8376   3
   5  -3   5 720.106 32.9447   4
  -6   3  -5 278.658 32.0862   2
  -6   3  -5 344.082 23.8216   1
   6  -3   5 290.360 26.8734   4
   6   2  -5 19.9820 8.60946   4
   6   2  -5 3.11271 10.9055   3
  -6  -2   5 6.43353 10.2408   2
  -6  -2   5 2.05481 10.5710   1
   5   2  -5 14.0234 8.29210   3
  -5  -2   5 20.3654 5.85807   4
   4   2  -5 1983.97 42.2831   4
   4   2  -5 2085.47 54.9517   3
   4   2  -5 2096.71 60.8368   1
   4   2  -5 1993.39 54.9284   2
  -4  -2   5 2116.12 55.4956   1
   3   2  -5 140.983 11.4631   3
   3   2  -5 140.678 13.7713   2
   3   2  -5 135.622 12.9364   1
   3   2  -5 134.312 12.1293   2
  -3  -2   5 141.105 11.2754   3
  -3  -2   5 155.050 12.7964   1
   2   2  -5 870.377 28.7061   2
   2   2  -5 894.865 28.8078   1
   2   2  -5 893.422 29.3877   2
   2   2  -5 913.354 26.2672   3
  -2  -2   5 919.801 29.8061   1
  -2  -2   5 910.695 25.5419   3
   1   2  -5 449.316 14.4522   3
   1   2  -5 438.404 18.8207   1
   1   2  -5 435.918 18.6787   2
  -1  -2   5 450.606 19.2327   1
  -1  -2   5 433.076 18.1314   2
  -1  -2   5 451.848 13.9151   3
   0   2  -5 824.725 17.7982   3
   0   2  -5 816.278 19.8798   4
   0   2  -5 833.582 26.9669   1
   0   2  -5 840.919 27.5893   2
   0  -2   5 826.693 26.5607   2
   0  -2   5 831.521 17.1508   3
   0  -2   5 853.807 28.3310   1
   0  -2   5 828.523 20.0975   4
  -1   2  -5 190.957 12.5939   1
  -1   2  -5 202.749 10.2059   4
  -1   2  -5 172.002 12.2992   2
   1  -2   5 152.825 12.0276   2
   1  -2   5 183.168 13.2636   1
   1  -2   5 191.461 9.72050   4
  -2   2  -5 41.8506 7.38498   1
  -2   2  -5 54.4916 8.32748   4
  -2   2  -5 32.5214 6.12008   1
  -2   2  -5 53.6158 9.01222   2
   2  -2   5 53.1160 7.56995   4
   2  -2   5 65.3345 10.9273   2
  -3   2  -5 107.579 12.9378   1
  -3   2  -5 123.465 11.2772   1
  -3   2  -5 108.386 13.3752   2
  -3   2  -5 123.176 15.2290   4
   3  -2   5 111.038 11.2477   4
   3  -2   5 116.027 8.72047   3
  -4   2  -5 470.146 21.2514   1
  -4   2  -5 489.958 23.9870   1
  -4   2  -5 475.911 26.7514   2
   4  -2   5 494.814 17.0025   3
   4  -2   5 447.451 20.3216   3
   4  -2   5 431.443 23.3762   4
  -5   2  -5 127.952 22.0203   2
   5  -2   5 83.8463 13.0102   3
   5  -2   5 125.838 17.9696   4
  -6   2  -5 116.852 22.1497   2
   6  -2   5 161.022 23.6031   4
   7   1  -5 5.03683 12.8789   3
  -7  -1   5 9.04780 12.3275   2
  -7  -1   5 15.4674 12.5031   1
   6   1  -5 287.647 16.8377   4
   6   1  -5 319.845 23.0341   3
  -6  -1   5 267.246 21.5247   1
   5   1  -5 21.4488 7.53035   3
   5   1  -5 17.2770 5.00736   4
  -5  -1   5 20.8229 5.21504   4
  -5  -1   5 15.5738 7.47774   1
   4   1  -5 533.693 15.1261   4
   4   1  -5 518.248 22.0861   2
   4   1  -5 499.168 23.5700   1
   4   1  -5 534.926 24.2779   2
   4   1  -5 543.287 23.5515   3
  -4  -1   5 512.819 22.5255   3
  -4  -1   5 553.562 23.9560   1
  -4  -1   5 567.285 15.1799   4
   3   1  -5 36.3597 6.95568   1
   3   1  -5 47.1829 7.69995   3
   3   1  -5 41.9017 6.90623   2
   3   1  -5 26.6218 5.51196   2
  -3  -1   5 26.6883 5.69191   1
   2   1  -5 53.1301 6.38305   3
   2   1  -5 44.8312 6.89906   2
   2   1  -5 56.9280 7.82888   1
  -2  -1   5 45.9038 7.34991   1
  -2  -1   5 46.0844 6.36166   3
   1   1  -5 2028.09 47.6839   1
   1   1  -5 2039.17 42.5479   3
   1   1  -5 2005.75 48.1805   2
  -1  -1   5 2054.46 47.4493   2
  -1  -1   5 2061.60 41.6624   3
  -1  -1   5 1988.65 48.0726   1
   0   1  -5 1449.79 39.5569   2
   0   1  -5 1483.45 31.1617   3
   0   1  -5 1474.84 31.5583   4
   0   1  -5 1509.68 37.4850   1
   0  -1   5 1461.88 38.3910   1
   0  -1   5 1462.33 31.6296   4
   0  -1   5 1482.59 29.8129   3
  -1   1  -5 334.915 17.5681   2
  -1   1  -5 332.017 13.5592   4
  -1   1  -5 325.895 14.7171   1
   1  -1   5 342.546 13.4827   4
   1  -1   5 319.411 9.91339   3
   1  -1   5 341.081 17.4367   2
   1  -1   5 324.535 9.25650   3
   1  -1   5 331.855 15.9874   1
  -2   1  -5 868.283 27.6312   4
  -2   1  -5 876.911 27.0616   1
  -2   1  -5 880.319 26.6352   1
  -2   1  -5 932.125 33.1641   2
   2  -1   5 894.570 21.1086   3
   2  -1   5 922.820 32.5239   2
   2  -1   5 880.490 27.5904   4
   2  -1   5 917.311 23.7454   3
  -3   1  -5 278.627 14.1800   1
  -3   1  -5 275.306 15.4985   1
  -3   1  -5 269.958 19.2003   2
   3  -1   5 258.812 15.2478   3
   3  -1   5 258.799 11.9421   3
   3  -1   5 291.795 16.6136   4
  -4   1  -5 437.660 18.3725   1
  -4   1  -5 410.646 20.6586   1
  -4   1  -5 450.872 27.3000   2
   4  -1   5 425.187 23.8221   3
   4  -1   5 434.005 17.7624   3
   4  -1   5 416.889 23.1696   4
  -5   1  -5 186.755 25.3700   2
  -5   1  -5 161.486 15.5635   1
   5  -1   5 191.361 19.7178   4
   5  -1   5 201.759 16.1364   3
   7   0  -5 19.9308 10.2364   4
   7   0  -5 0.37884 12.2338   3
  -7   0   5 21.1508 11.3477   1
   6   0  -5 322.576 16.9533   4
   6   0  -5 321.052 22.4690   3
  -6   0   5 338.649 16.9446   4
  -6   0   5 311.230 21.9956   1
   5   0  -5 2069.05 51.9981   2
   5   0  -5 1955.68 53.8996   2
   5   0  -5 2067.61 45.1695   4
   5   0  -5 1956.54 60.3707   3
  -5   0   5 2053.89 44.6763   4
  -5   0   5 2122.14 56.5000   1
   4   0  -5 36.6767 7.14368   2
   4   0  -5 36.0353 7.11685   2
   4   0  -5 35.4667 7.23236   3
   4   0  -5 37.8791 5.32899   4
  -4   0   5 29.2128 6.68575   1
  -4   0   5 40.1371 4.96747   4
  -4   0   5 36.1175 6.86503   3
   3   0  -5 723.700 24.0893   2
   3   0  -5 738.276 23.6591   2
   3   0  -5 704.473 25.3500   1
   3   0  -5 762.585 25.6029   3
  -3   0   5 730.487 24.2695   3
  -3   0   5 749.717 26.1133   1
   2   0  -5 48.9640 6.67756   2
   2   0  -5 48.6106 6.46686   3
   2   0  -5 55.9625 7.01818   1
  -2   0   5 48.9027 6.84131   2
  -2   0   5 56.7483 6.35863   3
  -2   0   5 51.1879 7.64263   1
   1   0  -5 52.9593 4.27071   4
   1   0  -5 51.4847 6.69902   1
   1   0  -5 48.2671 6.99095   2
   1   0  -5 49.1253 6.25761   3
  -1   0   5 48.1707 6.50912   1
  -1   0   5 50.8947 7.49445   2
  -1   0   5 54.9456 6.92654   3
   0   0  -5 162.818 8.42463   4
   0   0  -5 152.035 11.2531   2
   0   0  -5 147.151 9.49395   3
   0   0  -5 140.309 9.12890   1
   0   0   5 164.300 11.7283   2
   0   0   5 152.193 8.35227   4
   0   0   5 154.097 8.60979   3
   0   0   5 161.551 9.69141   1
  -1   0  -5 200.719 11.4072   4
  -1   0  -5 218.006 14.4176   2
  -1   0  -5 205.024 10.4376   1
  -1   0  -5 196.652 11.7887   3
   1   0   5 210.885 15.4470   2
   1   0   5 199.960 11.5317   1
   1   0   5 202.242 13.0207   3
   1   0   5 195.299 11.2175   4
  -2   0  -5 948.847 25.1311   1
  -2   0  -5 923.274 34.1880   2
  -2   0  -5 960.967 25.7552   1
  -2   0  -5 931.203 29.5599   4
   2   0   5 932.109 29.5472   4
   2   0   5 916.762 28.9687   3
   2   0   5 912.252 25.1296   3
  -3   0  -5 126.115 10.5982   1
  -3   0  -5 136.886 15.9511   2
  -3   0  -5 140.069 9.51067   1
   3   0   5 144.957 10.7143   3
   3   0   5 96.0532 14.8892   3
  -4   0  -5 0.60297 5.47957   1
  -4   0  -5 6.63518 10.7922   2
   4   0   5 -9.5938 12.8502   3
   4   0   5 5.23568 7.70824   4
   4   0   5 7.45211 6.56352   3
  -5   0  -5 87.5333 17.6092   2
   5   0   5 120.731 19.3818   4
   5   0   5 116.058 17.0856   3
   7  -1  -5 144.958 17.5936   4
   7  -1  -5 117.709 21.3435   3
   7  -1  -5 108.286 15.4112   2
  -7   1   5 124.815 20.6256   1
   6  -1  -5 14.9162 11.0389   2
   6  -1  -5 27.9264 6.68006   4
   6  -1  -5 15.5730 8.81858   3
   6  -1  -5 7.32757 5.94865   2
  -6   1   5 12.6514 6.95584   4
  -6   1   5 16.5546 8.45462   1
   5  -1  -5 893.112 34.4245   3
   5  -1  -5 848.698 30.0926   2
   5  -1  -5 901.137 28.8330   2
   5  -1  -5 885.332 26.1506   4
  -5   1   5 907.372 25.1528   4
  -5   1   5 899.450 33.2236   1
   4  -1  -5 558.138 18.3922   4
   4  -1  -5 534.388 20.1372   2
   4  -1  -5 541.222 19.8347   2
   4  -1  -5 542.776 23.5679   3
   4  -1  -5 504.527 22.4823   1
  -4   1   5 555.677 16.7185   4
  -4   1   5 538.831 22.9403   3
  -4   1   5 569.920 23.8126   1
   3  -1  -5 253.507 12.7247   2
   3  -1  -5 237.370 13.6686   1
   3  -1  -5 242.366 11.7187   4
   3  -1  -5 259.362 15.1198   3
  -3   1   5 243.098 9.24969   4
  -3   1   5 226.478 13.8503   3
  -3   1   5 241.676 14.0699   1
   2  -1  -5 847.310 25.5630   2
   2  -1  -5 835.215 25.7016   1
   2  -1  -5 852.895 27.5530   3
  -2   1   5 860.626 20.9834   4
  -2   1   5 838.931 26.1013   1
  -2   1   5 895.477 26.7749   3
  -2   1   5 840.801 24.7291   2
  -2   1   5 864.466 22.3697   4
   1  -1  -5 117.970 7.65509   4
   1  -1  -5 117.398 9.61094   2
   1  -1  -5 124.168 8.37867   1
   1  -1  -5 122.289 10.0810   3
  -1   1   5 121.763 7.33453   4
  -1   1   5 112.896 9.95889   2
  -1   1   5 114.060 9.22277   3
  -1   1   5 121.031 8.92165   1
   0  -1  -5 640.473 20.4335   4
   0  -1  -5 642.301 24.4544   2
   0  -1  -5 672.633 24.3132   3
   0   1   5 649.160 22.9659   3
   0   1   5 661.778 20.2703   1
   0   1   5 650.609 24.7058   2
   0   1   5 633.571 20.5561   4
  -1  -1  -5 1437.72 38.0418   4
  -1  -1  -5 1447.74 31.7383   1
  -1  -1  -5 1494.74 41.1395   3
  -1  -1  -5 1412.84 42.7791   2
   1   1   5 1454.64 40.0613   3
   1   1   5 1473.52 38.9355   4
   1   1   5 1434.76 43.1043   2
  -2  -1  -5 316.086 20.9903   2
  -2  -1  -5 310.761 10.4803   1
   2   1   5 261.600 18.2218   3
   2   1   5 320.736 17.7482   4
   2   1   5 294.101 14.9804   3
  -3  -1  -5 496.601 28.9093   2
   3   1   5 497.493 21.1129   3
   3   1   5 499.684 24.7409   4
   3   1   5 455.123 26.5471   3
  -4  -1  -5 220.723 25.3196   2
   4   1   5 202.072 17.1911   3
   4   1   5 199.569 19.5020   4
   5   1   5 10.4230 12.1710   3
   8  -2  -5 46.0870 14.6904   4
  -8   2   5 21.4770 13.4937   1
   7  -2  -5 175.566 20.0744   4
   7  -2  -5 117.646 22.3225   3
   7  -2  -5 181.208 14.9132   2
  -7   2   5 191.849 22.4020   1
   6  -2  -5 730.604 25.3478   2
   6  -2  -5 733.252 27.4613   4
   6  -2  -5 770.654 34.2657   3
   6  -2  -5 685.549 26.7613   2
  -6   2   5 615.798 27.2501   4
  -6   2   5 707.980 31.8346   1
   5  -2  -5 0.59488 5.70635   4
   5  -2  -5 2.29246 6.76560   3
   5  -2  -5 -1.3786 5.63205   2
   5  -2  -5 5.03108 4.46003   2
  -5   2   5 1.37127 6.19962   1
  -5   2   5 5.22467 4.82535   4
   4  -2  -5 621.091 26.5262   3
   4  -2  -5 564.443 23.5041   1
   4  -2  -5 616.294 19.9442   2
   4  -2  -5 572.581 19.4864   2
   4  -2  -5 615.365 21.9677   4
  -4   2   5 634.070 19.9382   4
  -4   2   5 634.407 25.3021   1
  -4   2   5 580.206 24.5754   3
   3  -2  -5 77.0291 7.34290   2
   3  -2  -5 71.6154 8.98533   1
   3  -2  -5 50.3802 9.27088   3
  -3   2   5 70.6626 7.57315   2
  -3   2   5 60.8538 8.90840   1
  -3   2   5 50.2548 7.30699   4
  -3   2   5 69.8481 10.2688   3
   2  -2  -5 218.807 14.6079   3
   2  -2  -5 204.254 11.6995   2
   2  -2  -5 227.364 12.1131   1
  -2   2   5 220.249 12.7188   1
  -2   2   5 226.906 10.9399   4
  -2   2   5 216.757 11.9771   2
  -2   2   5 225.917 14.1891   3
  -2   2   5 214.716 12.3329   4
   1  -2  -5 567.138 18.1766   1
   1  -2  -5 554.683 21.4173   2
   1  -2  -5 599.184 24.4418   3
  -1   2   5 569.940 19.6595   4
  -1   2   5 570.115 19.2431   1
  -1   2   5 571.096 22.7257   3
  -1   2   5 555.619 21.4017   2
   0  -2  -5 80.5143 10.5953   2
   0  -2  -5 80.7925 6.79384   1
   0  -2  -5 78.7077 13.1692   3
   0  -2  -5 87.8960 9.47622   4
   0   2   5 91.4142 8.70803   4
   0   2   5 91.8902 7.95780   1
   0   2   5 103.106 12.4489   2
   0   2   5 83.0014 12.3787   3
  -1  -2  -5 188.350 17.2060   2
  -1  -2  -5 246.507 24.7255   4
  -1  -2  -5 212.635 17.8261   3
   1   2   5 213.498 14.4891   4
   1   2   5 180.143 17.3290   3
   1   2   5 225.988 18.5346   2
  -2  -2  -5 22.5787 9.92500   2
   2   2   5 4.05576 5.93542   3
   2   2   5 -2.2088 6.90177   4
  -3  -2  -5 239.471 24.6548   2
   3   2   5 220.378 20.1563   4
   3   2   5 267.388 17.8120   3
  -4  -2  -5 470.553 35.2495   2
   4   2   5 486.668 26.2574   3
   4   2   5 478.096 28.8327   4
   8  -3  -5 152.814 20.2118   4
   8  -3  -5 204.179 38.0205   3
   7  -3  -5 13.3660 10.6192   4
   7  -3  -5 21.3912 12.5979   3
   7  -3  -5 17.4446 7.37491   2
  -7   3   5 19.9796 10.1064   1
   6  -3  -5 1011.11 41.7223   3
   6  -3  -5 985.784 27.4785   2
   6  -3  -5 920.244 28.1117   2
   6  -3  -5 1039.05 35.5254   4
  -6   3   5 975.547 38.4028   1
   5  -3  -5 23.1067 5.09462   2
   5  -3  -5 26.6903 4.88188   2
   5  -3  -5 25.4254 8.95424   3
   5  -3  -5 35.6751 9.09151   4
  -5   3   5 15.8737 7.10931   1
  -5   3   5 19.1835 6.11384   4
   4  -3  -5 0.41378 3.78879   2
   4  -3  -5 7.41824 5.84780   4
   4  -3  -5 -5.3464 3.71966   2
   4  -3  -5 8.92761 7.11748   3
  -4   3   5 6.29521 5.18903   4
  -4   3   5 1.20576 5.55054   1
   3  -3  -5 555.837 18.2924   2
   3  -3  -5 537.695 25.6065   3
   3  -3  -5 541.655 21.7337   1
  -3   3   5 560.354 19.9734   4
  -3   3   5 559.616 21.7011   4
  -3   3   5 568.363 22.8945   1
  -3   3   5 521.917 23.8701   3
   2  -3  -5 987.983 28.5855   2
   2  -3  -5 991.170 35.9760   3
   2  -3  -5 953.367 27.6458   1
  -2   3   5 951.806 33.2302   3
  -2   3   5 979.673 29.2604   1
  -2   3   5 934.523 31.3584   4
  -2   3   5 989.143 29.2897   4
  -2   3   5 964.176 27.5800   2
   1  -3  -5 1762.41 51.8619   3
   1  -3  -5 1731.99 38.4613   1
   1  -3  -5 1759.21 45.1183   2
  -1   3   5 1721.09 45.0944   2
  -1   3   5 1647.55 49.2864   3
  -1   3   5 1704.88 44.2728   4
  -1   3   5 1639.86 48.7750   4
  -1   3   5 1770.20 40.2347   1
   0  -3  -5 442.365 22.6970   2
   0  -3  -5 433.140 25.5985   3
   0   3   5 448.807 24.9674   3
   0   3   5 432.035 23.2445   2
   0   3   5 470.782 20.8460   4
  -1  -3  -5 -1.5966 10.0759   3
  -1  -3  -5 11.2690 8.25307   2
   1   3   5 13.6718 6.61170   4
  -2  -3  -5 241.520 23.7878   2
   2   3   5 209.933 19.2607   4
   2   3   5 195.922 18.4135   3
  -3  -3  -5 126.712 20.0688   2
   3   3   5 144.922 18.8855   3
   3   3   5 103.086 15.0501   4
   7  -4  -5 725.096 38.5653   3
   7  -4  -5 645.096 34.9544   4
  -7   4   5 744.766 36.0758   1
   6  -4  -5 22.7829 10.4093   4
   6  -4  -5 25.4071 12.8970   3
  -6   4   5 20.1865 9.42751   1
   5  -4  -5 173.862 20.0463   3
   5  -4  -5 204.544 18.3318   4
  -5   4   5 201.609 18.0502   1
   4  -4  -5 13.9432 9.29243   3
  -4   4   5 -2.6009 7.86603   4
  -4   4   5 -5.1014 6.08651   1
   3  -4  -5 130.583 9.80109   2
   3  -4  -5 123.384 17.3895   3
   3  -4  -5 155.824 13.9553   1
  -3   4   5 117.820 13.4307   1
  -3   4   5 144.781 11.9388   4
  -3   4   5 129.500 10.0014   2
  -3   4   5 146.760 14.6426   4
   2  -4  -5 383.252 24.1716   3
   2  -4  -5 365.658 16.6822   2
   2  -4  -5 360.234 16.3488   1
  -2   4   5 341.154 16.6515   2
  -2   4   5 339.957 17.8942   4
  -2   4   5 332.993 17.1946   1
   1  -4  -5 83.4932 13.0055   2
   1  -4  -5 57.6541 8.63479   1
  -1   4   5 60.5749 10.7468   4
  -1   4   5 84.2999 14.5435   2
  -1   4   5 91.2670 9.57229   1
   0  -4  -5 430.603 24.5818   2
   0  -4  -5 414.984 29.5737   3
   0   4   5 414.527 22.6691   4
   1   4   5 78.0015 12.7758   4
  -2  -4  -5 196.658 26.4889   2
   2   4   5 263.733 23.1815   4
   2   4   5 235.406 22.7206   3
   7  -5  -5 407.805 38.0573   3
   7  -5  -5 364.843 33.4366   4
  -7   5   5 349.345 29.4175   1
   6  -5  -5 4.62811 14.3502   3
   6  -5  -5 30.7234 13.4905   4
  -6   5   5 8.42035 10.0308   1
   5  -5  -5 196.252 23.4566   3
   5  -5  -5 201.366 23.1713   4
  -5   5   5 198.286 19.1939   1
   4  -5  -5 750.203 38.0365   3
  -4   5   5 769.880 28.7107   4
  -4   5   5 615.641 40.5179   1
   3  -5  -5 294.047 18.3736   1
   3  -5  -5 310.253 13.0371   2
   3  -5  -5 302.203 26.2122   3
  -3   5   5 278.466 18.7164   1
  -3   5   5 302.147 14.1708   2
  -3   5   5 308.560 18.2849   4
   2  -5  -5 330.986 29.5425   3
   2  -5  -5 341.082 17.6918   2
   2  -5  -5 337.729 17.6685   1
  -2   5   5 369.909 20.6705   4
  -2   5   5 314.392 19.2489   2
  -2   5   5 333.808 18.3342   1
   1  -5  -5 19.0003 13.5792   3
   1  -5  -5 27.7771 9.01363   2
  -1   5   5 47.5078 12.2861   2
  -1   5   5 27.9046 7.02611   1
  -1   5   5 27.2563 9.23546   4
   0  -5  -5 109.904 18.6264   3
   0  -5  -5 92.4541 13.4824   2
   0   5   5 75.5180 12.8313   4
  -1  -5  -5 310.134 28.7597   2
   1   5   5 338.784 25.1003   4
   1   5   5 316.458 26.6648   3
   6  -6  -5 80.2618 22.0166   3
   6  -6  -5 69.2898 19.7133   4
  -6   6   5 50.6133 14.2801   1
   5  -6  -5 55.7675 17.9004   3
  -5   6   5 58.4826 13.7813   1
   4  -6  -5 248.134 30.4382   3
  -4   6   5 228.830 22.3475   1
  -4   6   5 248.545 19.2386   4
  -3   6   5 220.121 19.4976   4
  -3   6   5 176.411 19.4148   1
   2  -6  -5 62.7770 19.6571   3
   2  -6  -5 51.7506 9.76791   2
  -2   6   5 29.3739 10.8705   4
  -2   6   5 26.7039 10.2935   1
   1  -6  -5 142.521 20.5371   2
   1  -6  -5 141.722 23.7148   3
  -1   6   5 130.973 20.3662   4
   0  -6  -5 -9.6988 20.8665   3
   0  -6  -5 12.6517 14.6017   2
   0   6   5 8.97822 12.5550   4
  -5   7   5 171.051 27.7650   1
  -5   7   5 213.610 22.9317   4
   4  -7  -5 129.854 25.6138   3
  -4   7   5 88.1274 16.8490   1
  -4   7   5 70.1480 12.9666   4
   3  -7  -5 382.854 43.1910   3
  -3   7   5 373.200 27.0319   4
   2  -7  -5 -9.0681 29.6561   3
  -2   7   5 29.6977 13.3285   4
   0   8  -6 57.0874 17.2767   1
   0   8  -6 40.8360 18.5482   2
   0   8  -6 71.4674 14.6547   4
  -1   8  -6 9.87460 11.9408   4
  -1   8  -6 32.1159 17.1711   2
  -1   8  -6 18.1460 15.2363   1
  -2   8  -6 91.4555 20.2395   2
   2  -8   6 90.6244 19.1652   4
   2   7  -6 262.259 32.0710   2
   2   7  -6 308.372 32.6904   1
   2   7  -6 283.010 27.7616   3
   1   7  -6 263.620 21.5425   4
   1   7  -6 252.499 28.3255   2
   1   7  -6 268.922 22.6879   3
   1   7  -6 308.632 28.4723   1
   0   7  -6 32.9228 10.9281   3
   0   7  -6 48.4056 12.9693   2
   0   7  -6 30.2762 11.0268   4
   0   7  -6 30.0595 12.3008   1
  -1   7  -6 58.2508 15.0659   2
  -1   7  -6 47.0614 9.49844   3
  -2   7  -6 300.066 26.8931   2
  -2   7  -6 278.988 26.6212   1
   2  -7   6 323.274 24.8989   4
  -3   7  -6 15.1354 14.4139   2
   3  -7   6 27.3478 13.9631   4
  -4   7  -6 153.537 27.7101   1
  -4   7  -6 94.4687 18.5777   2
   4  -7   6 71.6977 16.1318   4
   3   6  -6 579.314 32.6012   3
   3   6  -6 487.578 34.2081   2
  -3  -6   6 539.365 32.2359   1
   2   6  -6 60.5287 11.7314   3
   2   6  -6 50.9549 9.89162   4
   2   6  -6 67.3309 13.7673   2
  -2  -6   6 64.6061 13.4848   1
   1   6  -6 77.8031 12.2162   4
   1   6  -6 70.5684 13.7113   2
   1   6  -6 70.4775 10.7595   3
   0   6  -6 237.197 21.7612   2
   0   6  -6 220.389 14.9265   3
   0   6  -6 206.208 14.8568   4
   0   6  -6 179.033 20.8372   3
   0   6  -6 166.257 16.8703   4
   0   6  -6 214.000 21.3592   1
  -1   6  -6 265.154 13.3184   3
  -1   6  -6 226.551 18.5679   4
  -1   6  -6 249.058 27.2055   2
  -1   6  -6 275.396 21.7412   1
   1  -6   6 273.887 19.0414   4
  -2   6  -6 29.8114 12.6520   2
  -2   6  -6 19.1369 8.80759   1
   2  -6   6 18.2015 9.20123   4
  -3   6  -6 7.01077 10.4823   1
  -3   6  -6 -6.5607 10.4964   2
   3  -6   6 17.2253 10.0345   4
  -4   6  -6 61.8659 14.8378   1
  -4   6  -6 40.1141 13.5173   2
   4  -6   6 58.9503 13.3486   4
  -5   6  -6 199.599 26.6153   1
  -5   6  -6 184.281 29.0323   2
   5  -6   6 166.839 25.6696   4
   4   5  -6 7.30313 11.0823   3
  -4  -5   6 6.10129 12.6416   1
   3   5  -6 261.317 15.9990   4
   3   5  -6 300.711 22.0382   3
   3   5  -6 289.203 24.3485   2
  -3  -5   6 267.825 22.8228   1
   2   5  -6 61.0038 9.67559   4
   2   5  -6 93.1016 16.5412   2
   2   5  -6 88.2791 12.6725   4
  -2  -5   6 56.3829 12.4416   1
   1   5  -6 49.6438 10.3416   2
   1   5  -6 60.2932 12.3893   3
   1   5  -6 56.9076 8.60499   4
   1   5  -6 55.2485 10.6013   3
   1   5  -6 61.7791 8.31423   4
  -1  -5   6 78.9753 14.2735   1
   0   5  -6 297.192 15.1310   4
   0   5  -6 282.790 19.9085   2
   0   5  -6 271.470 17.2367   3
   0   5  -6 263.928 13.1421   3
   0  -5   6 275.387 15.9834   4
  -1   5  -6 636.321 28.9827   1
  -1   5  -6 591.340 17.6430   3
  -1   5  -6 615.403 27.9900   2
  -1   5  -6 577.679 22.9869   4
   1  -5   6 615.811 24.1950   4
  -2   5  -6 255.515 18.2354   4
  -2   5  -6 246.111 19.9141   2
  -2   5  -6 232.564 19.9778   1
   2  -5   6 219.048 16.0352   4
  -3   5  -6 462.411 26.8432   1
  -3   5  -6 421.288 28.9690   2
   3  -5   6 406.003 23.1148   4
  -4   5  -6 233.790 23.8639   2
  -4   5  -6 182.804 21.4563   1
   4  -5   6 263.589 21.4599   4
  -5   5  -6 58.2253 15.8834   2
  -5   5  -6 55.1613 13.0238   1
   5  -5   6 71.9925 14.5032   4
   5   4  -6 56.1845 13.0540   3
  -5  -4   6 81.3741 14.6070   1
   4   4  -6 808.914 24.3290   4
   4   4  -6 807.284 36.4236   2
   4   4  -6 853.958 34.4615   3
  -4  -4   6 852.441 35.3998   1
   3   4  -6 149.896 16.5438   2
   3   4  -6 128.355 9.35592   4
   3   4  -6 137.011 17.7912   4
   3   4  -6 138.943 14.7424   3
  -3  -4   6 114.775 18.0464   1
   2   4  -6 155.069 8.53289   4
   2   4  -6 142.250 9.25869   4
   2   4  -6 164.138 12.6711   3
  -2  -4   6 173.977 15.7091   1
   1   4  -6 109.741 13.0537   2
   1   4  -6 98.2924 7.32899   4
   1   4  -6 95.5262 7.60421   4
   1   4  -6 104.960 9.12955   3
   1   4  -6 76.9278 12.8194   3
  -1  -4   6 109.082 13.7653   1
   0   4  -6 -0.0885 4.92212   3
   0   4  -6 7.52334 6.01583   2
   0   4  -6 1.05863 4.51190   4
   0   4  -6 2.15001 3.38656   3
   0  -4   6 2.93286 6.13724   2
   0  -4   6 -1.6290 4.45361   4
   0  -4   6 1.61913 6.22241   1
  -1   4  -6 18.1736 6.63646   1
  -1   4  -6 4.64927 5.38645   4
  -1   4  -6 18.0223 6.80736   2
   1  -4   6 7.94299 4.92581   4
   1  -4   6 15.9379 6.93823   2
  -2   4  -6 348.373 21.0936   2
  -2   4  -6 333.989 20.7673   1
  -2   4  -6 320.283 17.7344   4
   2  -4   6 374.749 17.7763   4
  -3   4  -6 583.278 27.7447   1
  -3   4  -6 605.454 29.6489   2
   3  -4   6 601.731 24.9166   4
  -4   4  -6 186.334 20.9568   2
  -4   4  -6 130.624 17.0296   1
   4  -4   6 144.761 16.8459   4
  -5   4  -6 31.7464 14.3326   2
  -5   4  -6 26.9327 10.9139   1
   5  -4   6 36.8986 12.7204   4
   6   3  -6 57.4421 14.0071   2
   6   3  -6 68.3158 16.7084   3
  -6  -3   6 50.2637 14.5574   1
   5   3  -6 -2.4461 6.19618   4
   5   3  -6 16.2789 9.82044   3
   5   3  -6 1.24911 8.38190   2
  -5  -3   6 6.80157 10.0783   1
   4   3  -6 488.156 26.7334   2
   4   3  -6 486.785 24.9245   3
  -4  -3   6 507.030 27.3757   1
   3   3  -6 605.834 34.2095   2
   3   3  -6 628.657 25.0758   3
  -3  -3   6 573.552 23.5051   3
  -3  -3   6 645.630 28.4999   1
   2   3  -6 398.908 20.9958   1
   2   3  -6 400.359 21.4609   2
   2   3  -6 429.146 18.3236   3
  -2  -3   6 432.977 21.9032   1
  -2  -3   6 420.405 17.2187   3
   1   3  -6 243.273 16.1820   2
   1   3  -6 245.997 11.3504   3
  -1  -3   6 266.756 11.4126   3
  -1  -3   6 258.983 16.2096   2
  -1  -3   6 240.455 16.5802   1
   0   3  -6 352.390 18.8822   1
   0   3  -6 379.473 10.7911   3
   0   3  -6 367.901 13.4071   4
   0   3  -6 399.442 20.0097   2
   0   3  -6 388.510 12.2471   3
   0  -3   6 391.032 21.0313   1
   0  -3   6 373.735 13.2576   4
   0  -3   6 368.750 18.8719   2
  -1   3  -6 404.002 20.9971   1
  -1   3  -6 452.101 16.9534   4
  -1   3  -6 454.613 22.5688   2
   1  -3   6 435.904 16.4759   4
   1  -3   6 448.779 21.7448   2
  -2   3  -6 542.889 25.5325   1
  -2   3  -6 595.634 25.4789   1
  -2   3  -6 603.175 27.4947   2
  -2   3  -6 595.432 22.9603   4
   2  -3   6 610.054 22.4665   4
  -3   3  -6 165.379 28.9250   2
  -3   3  -6 174.840 15.5452   1
   3  -3   6 179.792 14.4744   4
  -4   3  -6 145.728 16.1634   1
  -4   3  -6 183.573 20.7743   2
   4  -3   6 141.186 16.4294   4
  -5   3  -6 441.663 24.4229   1
  -5   3  -6 365.475 31.4998   2
   5  -3   6 432.543 27.1766   4
   6   2  -6 78.8200 13.6059   2
   6   2  -6 68.1432 14.4380   3
  -6  -2   6 63.9628 14.6638   1
   5   2  -6 582.830 28.8731   3
   5   2  -6 574.724 27.9144   2
  -5  -2   6 543.657 28.9886   1
   4   2  -6 61.7059 10.9607   3
  -4  -2   6 70.1747 12.0592   1
   3   2  -6 63.8828 9.34890   3
   3   2  -6 69.4297 12.1180   1
   3   2  -6 72.3137 12.7961   2
   3   2  -6 68.3736 10.0062   2
  -3  -2   6 83.0706 12.0309   1
  -3  -2   6 72.9068 9.79429   3
   2   2  -6 97.5684 11.2519   2
   2   2  -6 96.8421 8.85923   3
   2   2  -6 107.723 11.0246   1
   2   2  -6 97.9835 10.5519   2
  -2  -2   6 91.6058 8.52681   3
  -2  -2   6 99.9560 11.4161   1
   1   2  -6 105.189 10.6797   1
   1   2  -6 104.016 7.60444   3
   1   2  -6 117.264 11.0058   2
  -1  -2   6 119.107 11.0779   1
  -1  -2   6 128.342 11.4931   2
  -1  -2   6 109.636 7.12245   3
   0   2  -6 707.263 27.0529   2
   0   2  -6 711.739 16.6475   3
   0   2  -6 691.638 25.6146   1
   0   2  -6 708.973 19.0123   4
   0  -2   6 720.579 18.8895   4
   0  -2   6 704.392 27.1194   1
   0  -2   6 699.474 26.0888   2
   0  -2   6 697.805 15.0878   3
  -1   2  -6 408.628 19.2262   1
  -1   2  -6 457.978 22.3346   2
  -1   2  -6 441.943 16.9291   4
   1  -2   6 425.691 16.3603   4
   1  -2   6 426.545 20.5829   2
   1  -2   6 424.761 21.1626   1
  -2   2  -6 92.4996 12.0009   1
  -2   2  -6 91.5308 10.6631   1
  -2   2  -6 112.897 11.5338   4
  -2   2  -6 117.463 13.2331   2
   2  -2   6 80.4884 9.42413   4
  -3   2  -6 26.3955 8.91448   2
  -3   2  -6 30.2788 8.38234   1
  -4   2  -6 358.581 25.9349   2
  -4   2  -6 336.096 19.6401   1
   4  -2   6 330.072 21.1268   4
   4  -2   6 324.126 13.9400   3
  -5   2  -6 503.780 34.9915   2
  -5   2  -6 450.884 23.5480   1
   5  -2   6 457.125 28.8235   4
   7   1  -6 165.863 21.1206   2
   7   1  -6 135.133 24.3905   3
  -7  -1   6 156.242 22.8915   1
   6   1  -6 148.852 19.2338   3
   6   1  -6 129.114 12.4244   4
   6   1  -6 110.122 15.9677   2
  -6  -1   6 124.796 19.1200   1
   5   1  -6 1026.69 38.2059   2
   5   1  -6 1068.95 39.2040   3
  -5  -1   6 1066.08 39.1308   1
   4   1  -6 217.001 15.3430   3
   4   1  -6 235.871 16.2575   2
  -4  -1   6 215.842 16.8716   1
   3   1  -6 8.54606 4.79598   2
   3   1  -6 7.96842 4.68314   3
   3   1  -6 0.83497 5.28652   2
   3   1  -6 0.85152 5.25420   1
  -3  -1   6 1.13836 4.83820   1
  -3  -1   6 9.53894 5.36761   3
   2   1  -6 220.840 13.7060   1
   2   1  -6 212.179 14.1399   2
   2   1  -6 222.706 12.2163   3
  -2  -1   6 237.222 11.7164   3
  -2  -1   6 225.585 14.8343   1
  -2  -1   6 232.059 14.0326   2
   1   1  -6 1651.77 37.7035   3
   1   1  -6 1673.82 44.6963   2
   1   1  -6 1618.51 42.4915   1
  -1  -1   6 1703.37 44.6921   1
  -1  -1   6 1647.54 43.3958   2
  -1  -1   6 1692.35 36.6978   3
   0   1  -6 1832.51 49.0396   2
   0   1  -6 1861.45 39.7921   4
   0   1  -6 1853.40 45.8413   1
   0  -1   6 1844.19 39.6643   4
   0  -1   6 1831.79 48.1902   2
   0  -1   6 1841.50 47.3466   1
   0  -1   6 1865.38 37.4640   3
  -1   1  -6 466.887 18.9904   1
  -1   1  -6 482.027 22.7219   2
  -1   1  -6 462.804 17.7446   4
   1  -1   6 424.560 21.7973   2
   1  -1   6 472.047 13.4764   3
   1  -1   6 450.683 12.4862   3
   1  -1   6 477.063 20.9984   1
   1  -1   6 469.301 17.5865   4
  -2   1  -6 74.7170 11.2798   4
  -2   1  -6 81.5037 13.0338   2
  -2   1  -6 58.1528 7.95977   1
  -2   1  -6 74.9621 9.88318   1
   2  -1   6 74.4256 5.92099   3
   2  -1   6 80.5549 8.28813   3
   2  -1   6 65.9938 9.21399   4
  -3   1  -6 115.793 13.4172   1
  -3   1  -6 124.141 16.9813   2
  -3   1  -6 99.8159 11.1670   1
   3  -1   6 94.5298 8.65998   3
   3  -1   6 115.818 12.6362   3
   3  -1   6 110.521 12.2096   4
  -4   1  -6 270.495 15.4192   1
  -4   1  -6 243.664 24.4992   2
   4  -1   6 236.005 19.1961   4
   4  -1   6 239.769 13.8479   3
  -5   1  -6 45.3469 15.8692   2
   5  -1   6 7.52415 11.6977   4
   7   0  -6 180.043 23.5591   3
   7   0  -6 166.478 19.4522   2
  -7   0   6 159.075 22.9842   1
   6   0  -6 729.483 24.3384   4
   6   0  -6 760.496 30.0730   2
   6   0  -6 736.537 33.6029   3
  -6   0   6 714.565 33.3536   1
   5   0  -6 71.1379 13.2591   3
   5   0  -6 72.5140 11.4411   2
   5   0  -6 74.1602 8.50675   4
  -5   0   6 86.9993 13.9648   1
   4   0  -6 23.0490 6.47673   2
   4   0  -6 18.8084 6.64681   3
   4   0  -6 24.8570 6.67828   2
  -4   0   6 26.2675 7.35667   3
  -4   0   6 20.9655 6.11443   1
   3   0  -6 125.125 10.8536   2
   3   0  -6 123.129 10.7433   2
   3   0  -6 133.853 11.7395   1
   3   0  -6 122.530 10.8186   3
  -3   0   6 129.249 11.3206   3
  -3   0   6 128.204 12.0479   1
   2   0  -6 107.608 9.29208   3
   2   0  -6 101.385 9.99698   1
   2   0  -6 114.812 10.2013   2
  -2   0   6 97.3525 9.40367   3
  -2   0   6 104.399 10.4357   1
  -2   0   6 98.9833 10.6074   2
   1   0  -6 441.063 20.1156   2
   1   0  -6 438.853 17.5829   3
   1   0  -6 442.149 13.5824   4
   1   0  -6 436.530 17.6541   1
  -1   0   6 435.252 19.4906   2
  -1   0   6 447.856 16.4919   3
  -1   0   6 452.645 13.7646   4
  -1   0   6 450.944 19.0800   1
   0   0  -6 277.542 13.4389   1
   0   0  -6 262.016 12.2692   4
   0   0  -6 235.343 15.9422   2
   0   0  -6 275.055 14.0784   3
   0   0   6 260.309 16.2733   2
   0   0   6 266.710 11.8509   4
   0   0   6 254.392 14.4230   1
   0   0   6 271.119 12.6574   3
  -1   0  -6 464.694 17.7887   1
  -1   0  -6 458.480 23.1096   2
  -1   0  -6 467.994 19.5296   4
   1   0   6 469.640 23.9074   2
   1   0   6 492.570 18.4752   3
   1   0   6 475.358 18.7213   4
   1   0   6 474.330 19.7188   1
  -2   0  -6 533.492 18.8143   1
  -2   0  -6 554.964 19.3588   1
   2   0   6 522.675 22.2753   4
   2   0   6 512.314 17.9397   3
   2   0   6 544.815 22.1445   3
  -3   0  -6 469.971 28.3690   2
  -3   0  -6 465.509 16.8261   1
  -3   0  -6 405.579 17.6309   1
   3   0   6 442.958 18.3253   3
   3   0   6 489.583 23.9607   4
   3   0   6 447.173 24.0441   3
  -4   0  -6 148.703 25.6015   2
   4   0   6 156.197 18.3953   4
   4   0   6 165.802 15.0902   3
   7  -1  -6 84.1526 15.2821   2
   7  -1  -6 73.9992 12.3894   4
   7  -1  -6 106.261 18.2922   3
  -7   1   6 102.911 16.1497   1
   6  -1  -6 328.002 17.2024   4
   6  -1  -6 374.087 25.0005   3
   6  -1  -6 325.044 19.4665   2
  -6   1   6 329.658 23.6233   1
  -6   1   6 324.439 15.8882   4
   5  -1  -6 81.3186 11.2533   2
   5  -1  -6 71.3284 13.6584   3
   5  -1  -6 90.1424 11.5233   2
   5  -1  -6 68.9732 9.87678   4
  -5   1   6 83.0116 13.6297   1
  -5   1   6 92.6213 8.45432   4
   4  -1  -6 394.749 15.8963   4
   4  -1  -6 418.023 18.1616   2
   4  -1  -6 400.286 21.3819   3
   4  -1  -6 369.066 17.8904   2
  -4   1   6 371.304 19.8936   3
  -4   1   6 375.615 20.6240   1
  -4   1   6 389.224 13.3291   4
   3  -1  -6 1223.46 36.7060   1
   3  -1  -6 1308.05 38.6980   3
   3  -1  -6 1287.38 35.7317   2
  -3   1   6 1322.33 28.6263   4
  -3   1   6 1288.07 28.9309   4
  -3   1   6 1317.38 34.8868   2
  -3   1   6 1313.02 37.6162   3
  -3   1   6 1343.67 38.9425   1
   2  -1  -6 1074.80 33.3363   3
   2  -1  -6 1048.15 32.2869   2
   2  -1  -6 1043.89 31.3868   1
  -2   1   6 1071.60 31.8691   3
  -2   1   6 1104.15 31.8445   2
  -2   1   6 1105.18 33.1079   1
  -2   1   6 1081.87 25.9279   4
   1  -1  -6 439.719 15.8460   4
   1  -1  -6 432.906 16.9991   1
   1  -1  -6 446.923 20.2350   2
   1  -1  -6 428.611 19.8732   3
  -1   1   6 427.662 18.1940   3
  -1   1   6 455.364 18.7418   1
  -1   1   6 417.969 19.7450   2
  -1   1   6 444.409 15.5913   4
   0  -1  -6 43.9009 7.59510   1
   0  -1  -6 24.4891 7.35588   3
   0  -1  -6 28.9646 6.00202   4
   0  -1  -6 25.9919 6.69230   2
   0   1   6 19.8090 7.58442   2
   0   1   6 28.1495 6.58537   3
   0   1   6 26.0399 5.05749   4
   0   1   6 21.7802 5.22779   1
  -1  -1  -6 161.277 15.9028   2
  -1  -1  -6 157.754 9.89217   1
  -1  -1  -6 195.164 15.9446   3
  -1  -1  -6 146.391 13.6665   4
   1   1   6 197.711 13.2963   4
   1   1   6 180.389 14.9153   3
  -2  -1  -6 254.439 21.8379   2
  -2  -1  -6 260.212 11.2551   1
  -2  -1  -6 246.024 10.7775   1
   2   1   6 239.854 13.9420   3
   2   1   6 232.932 17.4445   4
   2   1   6 261.440 19.5929   3
  -3  -1  -6 228.092 25.2063   2
   3   1   6 265.282 16.5125   3
   3   1   6 264.791 20.0601   4
  -4  -1  -6 23.5811 15.4281   2
   4   1   6 13.5488 12.1002   4
   4   1   6 17.1566 10.1725   3
   7  -2  -6 131.120 16.3295   2
   7  -2  -6 189.858 24.8402   3
   7  -2  -6 157.142 18.9529   4
  -7   2   6 201.868 23.1684   1
   6  -2  -6 22.8090 9.13232   2
   6  -2  -6 20.4454 9.98058   3
   6  -2  -6 13.1637 6.83039   2
   6  -2  -6 17.1902 8.76341   4
  -6   2   6 13.9155 7.34229   4
  -6   2   6 19.9623 9.44819   1
   5  -2  -6 28.9938 6.99237   2
   5  -2  -6 23.3755 7.08588   4
   5  -2  -6 25.0889 8.57875   3
   5  -2  -6 13.9081 5.88063   2
  -5   2   6 19.3170 5.86606   4
   4  -2  -6 331.196 15.3448   2
   4  -2  -6 377.482 21.5155   3
   4  -2  -6 331.725 15.2134   2
  -4   2   6 345.654 19.7698   1
  -4   2   6 314.492 13.6902   4
   3  -2  -6 226.499 13.1910   2
   3  -2  -6 249.852 17.5764   3
   3  -2  -6 223.554 14.7615   1
  -3   2   6 247.033 11.5558   4
  -3   2   6 245.649 15.5524   1
  -3   2   6 252.112 16.5041   3
  -3   2   6 259.592 14.0279   2
  -3   2   6 268.249 13.4395   4
   2  -2  -6 629.918 22.5787   1
   2  -2  -6 654.926 27.1386   3
   2  -2  -6 623.840 23.2667   2
  -2   2   6 671.200 24.4170   1
  -2   2   6 640.338 23.2855   2
  -2   2   6 630.169 20.6897   4
  -2   2   6 632.768 23.2288   4
  -2   2   6 627.909 25.4903   3
   1  -2  -6 517.916 24.9708   3
   1  -2  -6 495.752 18.0317   1
   1  -2  -6 500.552 22.3574   2
  -1   2   6 524.608 19.6844   4
  -1   2   6 497.027 22.0920   2
  -1   2   6 543.538 20.1888   1
  -1   2   6 477.864 22.0260   3
   0  -2  -6 300.888 16.8090   4
   0  -2  -6 348.313 13.3575   1
   0  -2  -6 328.699 22.5356   3
   0  -2  -6 340.496 19.8968   2
   0   2   6 306.129 19.3914   3
   0   2   6 347.119 17.0278   4
   0   2   6 348.224 14.6168   1
   0   2   6 290.228 20.8929   2
  -1  -2  -6 77.9201 13.1971   3
   1   2   6 78.2174 12.6458   3
   1   2   6 96.6738 12.1799   4
  -2  -2  -6 197.188 23.2609   2
   2   2   6 232.568 15.9132   3
   2   2   6 211.828 18.1984   4
  -3  -2  -6 391.650 32.6710   2
   3   2   6 370.465 26.3815   4
   3   2   6 348.867 22.4055   3
   7  -3  -6 280.104 24.6141   4
   7  -3  -6 270.688 29.1643   3
  -7   3   6 235.178 26.7880   1
   6  -3  -6 251.788 14.1749   2
   6  -3  -6 267.226 21.4424   4
   6  -3  -6 197.549 24.0778   3
  -6   3   6 239.456 21.4758   1
   5  -3  -6 155.761 11.5008   2
   5  -3  -6 196.192 16.7527   4
   5  -3  -6 172.842 12.6407   2
  -5   3   6 161.677 13.5383   4
  -5   3   6 185.789 17.4522   1
   4  -3  -6 187.020 11.2267   2
   4  -3  -6 195.397 12.0082   2
  -4   3   6 168.470 13.0539   4
  -4   3   6 221.084 12.5983   4
  -4   3   6 206.542 16.6385   1
   3  -3  -6 260.141 20.0640   3
   3  -3  -6 270.608 16.2179   1
   3  -3  -6 234.907 13.8473   2
  -3   3   6 279.569 14.4145   2
  -3   3   6 305.285 18.1907   1
  -3   3   6 278.863 14.2646   4
  -3   3   6 255.421 15.6511   4
   2  -3  -6 894.982 27.5197   1
   2  -3  -6 874.480 28.7670   2
   2  -3  -6 890.079 35.5093   3
  -2   3   6 874.811 28.0685   4
  -2   3   6 802.677 30.4884   4
  -2   3   6 881.456 28.7766   2
  -2   3   6 875.888 28.7642   1
   1  -3  -6 148.780 14.9409   2
   1  -3  -6 147.262 18.3715   3
   1  -3  -6 114.761 10.3831   1
  -1   3   6 156.213 19.3059   4
  -1   3   6 138.552 14.9666   2
  -1   3   6 147.662 12.0970   1
  -1   3   6 133.992 12.5910   4
   0  -3  -6 156.020 17.5418   2
   0  -3  -6 203.613 22.0242   3
  -1  -3  -6 34.5835 11.4709   2
   1   3   6 44.5053 9.09055   4
  -2  -3  -6 86.2579 18.2811   2
   2   3   6 105.821 16.1290   3
   2   3   6 114.439 18.3643   4
  -3  -3  -6 -23.825 17.0422   2
   3   3   6 -12.081 13.2004   4
   3   3   6 13.9755 12.0523   3
   7  -4  -6 32.0752 16.3457   3
   7  -4  -6 4.48758 15.1107   4
  -7   4   6 13.2004 12.9278   1
   6  -4  -6 213.712 24.8796   3
   6  -4  -6 235.171 22.5110   4
  -6   4   6 211.132 21.0927   1
   5  -4  -6 122.781 21.3924   3
   5  -4  -6 168.860 19.9111   4
  -5   4   6 157.406 18.9050   1
   4  -4  -6 79.0774 9.50878   2
   4  -4  -6 56.1890 13.1185   3
  -4   4   6 73.6106 11.0712   4
   3  -4  -6 316.065 15.8769   2
   3  -4  -6 306.478 18.4410   1
   3  -4  -6 328.041 25.0633   3
  -3   4   6 336.028 17.7637   4
  -3   4   6 343.791 20.3479   1
  -3   4   6 303.130 16.4285   2
   2  -4  -6 302.260 16.5935   1
   2  -4  -6 296.657 25.6187   3
   2  -4  -6 337.817 18.6534   2
  -2   4   6 301.531 17.9702   1
  -2   4   6 307.013 18.9872   2
  -2   4   6 322.752 18.3962   4
   1  -4  -6 127.973 18.7479   3
   1  -4  -6 172.498 18.1643   2
   1  -4  -6 135.538 11.2929   1
  -1   4   6 134.735 14.9018   4
  -1   4   6 120.030 19.5203   2
  -1   4   6 118.032 12.5212   1
   0  -4  -6 192.081 26.4999   3
   0  -4  -6 171.108 21.9950   2
   0   4   6 174.622 16.9161   4
  -1  -4  -6 482.148 31.8446   2
   1   4   6 496.807 28.2385   4
  -2  -4  -6 246.905 33.2415   2
   2   4   6 334.931 29.6786   4
   2   4   6 353.914 25.9743   3
   7  -5  -6 160.374 29.3849   4
   7  -5  -6 135.027 25.7384   3
  -7   5   6 92.1158 17.4563   1
   6  -5  -6 61.5153 18.1432   3
   6  -5  -6 74.0558 17.7130   4
   5  -5  -6 244.929 28.0290   3
  -5   5   6 290.868 18.9618   4
  -5   5   6 276.114 24.0476   1
   4  -5  -6 473.534 34.7957   3
  -4   5   6 495.816 23.6122   4
  -4   5   6 462.707 26.7707   1
   3  -5  -6 476.520 33.0046   3
   3  -5  -6 366.069 17.9553   2
  -3   5   6 390.075 21.8702   4
  -3   5   6 370.231 22.6621   1
   2  -5  -6 58.4330 10.3328   2
   2  -5  -6 77.6989 17.9028   3
  -2   5   6 82.6007 11.0347   1
  -2   5   6 68.5843 11.5873   4
   1  -5  -6 32.8634 11.3921   2
   1  -5  -6 5.13537 15.6419   3
  -1   5   6 10.1491 10.4087   4
   0  -5  -6 100.858 15.9289   2
   0  -5  -6 109.209 21.2285   3
   0   5   6 148.006 20.5236   4
  -1  -5  -6 209.687 31.1001   2
   1   5   6 250.927 26.1860   3
   1   5   6 218.414 26.2076   4
   6  -6  -6 49.8251 24.0530   3
  -6   6   6 -14.948 13.5892   1
   5  -6  -6 222.474 33.2539   3
  -5   6   6 134.646 24.4497   1
  -5   6   6 193.123 19.1376   4
   4  -6  -6 380.013 37.8226   3
  -4   6   6 378.679 27.7378   1
  -4   6   6 374.839 23.5587   4
   3  -6  -6 221.208 34.9999   3
  -3   6   6 215.276 22.6787   1
  -3   6   6 189.804 19.6458   4
   2  -6  -6 -4.5070 20.5716   3
  -2   6   6 26.6776 11.8868   4
   1  -6  -6 83.0151 15.6007   2
   1  -6  -6 65.7535 23.2616   3
  -1   6   6 101.594 15.9502   4
   1   7  -7 276.163 24.7778   3
   1   7  -7 269.216 30.9495   1
   1   7  -7 222.372 30.2546   2
   0   7  -7 33.1121 13.8738   1
   0   7  -7 46.4962 15.3758   2
   0   7  -7 36.0843 10.0792   4
  -1   7  -7 31.9417 14.0824   1
  -1   7  -7 54.7911 15.3982   2
   1  -7   7 63.6474 14.2835   4
  -2   7  -7 357.450 29.6730   1
  -2   7  -7 306.711 29.9029   2
   2  -7   7 366.114 27.8951   4
  -3   7  -7 37.6890 17.6914   2
  -3   7  -7 21.2516 15.8352   1
   3  -7   7 38.2115 14.9358   4
   3   6  -7 111.009 18.8302   2
   3   6  -7 77.6647 15.7245   3
  -3  -6   7 110.515 17.8110   1
   2   6  -7 -1.2174 12.8303   2
   2   6  -7 -1.2964 9.74770   3
  -2  -6   7 14.3465 13.4702   1
   1   6  -7 22.2697 8.62769   3
   1   6  -7 31.7376 12.3079   2
   0   6  -7 157.801 20.1765   2
   0   6  -7 180.438 14.0404   3
   0   6  -7 222.122 22.0938   1
   0   6  -7 169.400 14.6287   4
  -1   6  -7 117.345 20.5190   4
  -1   6  -7 110.536 16.4580   2
  -1   6  -7 156.734 21.2494   1
   1  -6   7 147.249 17.2302   4
  -2   6  -7 368.586 27.0435   1
  -2   6  -7 367.121 26.8178   2
  -3   6  -7 101.287 17.2270   2
  -3   6  -7 118.091 17.1379   1
   3  -6   7 138.637 19.3371   4
  -4   6  -7 5.97573 16.4823   2
   4  -6   7 -4.7032 12.9258   4
   4   5  -7 537.256 35.3937   2
   4   5  -7 507.337 30.1176   3
  -4  -5   7 556.263 33.2998   1
   3   5  -7 105.849 18.0689   3
   3   5  -7 103.190 16.2782   2
  -3  -5   7 69.2642 13.8238   1
   2   5  -7 113.240 18.4757   2
   2   5  -7 70.5492 9.00043   4
   2   5  -7 95.3090 14.0559   3
  -2  -5   7 53.3936 12.7747   1
   1   5  -7 18.1757 6.72696   3
   1   5  -7 23.6475 9.32802   2
   1   5  -7 9.75261 11.4109   3
   1   5  -7 10.9552 5.05598   4
   1   5  -7 1.05680 6.16917   4
  -1  -5   7 -2.3050 9.53757   1
   0   5  -7 376.901 14.5523   3
   0   5  -7 365.217 17.0487   4
   0   5  -7 359.915 23.4554   2
   0  -5   7 378.055 18.2988   4
  -1   5  -7 968.435 38.4000   1
  -1   5  -7 937.404 37.6295   2
  -1   5  -7 911.347 30.0290   4
   1  -5   7 963.527 30.9273   4
  -2   5  -7 -9.2367 10.5107   2
  -2   5  -7 35.2941 10.0778   1
   2  -5   7 14.1594 8.29913   4
  -3   5  -7 164.315 20.1111   1
  -3   5  -7 160.324 22.5019   2
  -4   5  -7 30.5948 13.5538   2
  -4   5  -7 26.1218 12.3385   1
   4  -5   7 41.8346 11.7608   4
   5   4  -7 235.475 24.8713   3
  -5  -4   7 236.547 28.4196   1
   4   4  -7 118.233 19.9914   2
   4   4  -7 113.305 18.8425   3
   3   4  -7 -3.0997 8.39913   2
   3   4  -7 -6.9049 7.53308   3
  -3  -4   7 14.6139 9.55433   1
   2   4  -7 127.758 12.5153   3
   2   4  -7 156.881 16.8788   2
  -2  -4   7 145.797 17.2537   1
   1   4  -7 217.614 21.2648   2
   1   4  -7 245.483 10.4410   4
   1   4  -7 246.087 12.8967   3
   1   4  -7 260.832 16.8656   3
  -1  -4   7 251.076 19.8873   1
   0   4  -7 6.43197 5.47401   4
   0   4  -7 24.0918 7.62792   2
   0  -4   7 8.58667 8.59934   1
   0  -4   7 10.5848 5.51683   4
  -1   4  -7 436.957 24.4649   1
  -1   4  -7 448.817 29.3401   2
  -1   4  -7 407.609 17.7332   4
   1  -4   7 427.915 18.0401   4
  -2   4  -7 362.480 24.2134   2
  -2   4  -7 341.715 18.9756   4
  -2   4  -7 414.076 23.4629   1
   2  -4   7 397.363 19.5271   4
  -3   4  -7 262.756 21.1862   1
  -3   4  -7 218.005 23.5251   2
   3  -4   7 266.031 18.3194   4
  -4   4  -7 497.094 28.6777   1
  -4   4  -7 532.720 33.9410   2
   4  -4   7 579.314 28.9815   4
  -5   4  -7 117.719 21.8804   1
  -5   4  -7 93.6490 18.6479   2
   5  -4   7 133.200 24.6524   4
   6   3  -7 179.992 24.6373   3
   6   3  -7 207.371 25.7848   2
  -6  -3   7 180.217 29.0031   1
   5   3  -7 124.041 20.1867   3
   5   3  -7 106.886 18.9117   2
  -5  -3   7 122.786 22.3480   1
   4   3  -7 46.6903 10.1851   2
   4   3  -7 61.8977 11.5755   3
  -4  -3   7 49.7359 10.9291   1
   3   3  -7 471.528 25.7824   2
   3   3  -7 463.981 22.0029   3
  -3  -3   7 431.074 21.1240   3
  -3  -3   7 503.199 27.3960   1
   2   3  -7 320.411 20.3825   2
   2   3  -7 334.481 16.5189   3
  -2  -3   7 302.421 19.9173   1
  -2  -3   7 308.819 15.1924   3
   1   3  -7 671.659 20.2827   3
   1   3  -7 641.134 28.1457   2
  -1  -3   7 688.880 29.4296   1
  -1  -3   7 658.926 19.4251   3
   0   3  -7 610.312 27.5304   2
   0   3  -7 627.804 18.6744   4
   0  -3   7 627.516 29.0286   1
   0  -3   7 619.635 18.4172   4
  -1   3  -7 11.9127 7.24736   2
  -1   3  -7 33.4232 6.96337   4
   1  -3   7 24.1139 5.10957   4
  -2   3  -7 199.913 16.4801   4
  -2   3  -7 257.364 18.0075   1
  -2   3  -7 218.651 19.7777   2
   2  -3   7 242.001 15.2680   4
  -3   3  -7 28.8829 11.5266   2
  -3   3  -7 29.5653 8.82621   1
   3  -3   7 28.3316 7.94316   4
  -4   3  -7 264.178 26.2276   2
  -4   3  -7 196.611 20.1274   1
   4  -3   7 227.357 20.6706   4
  -5   3  -7 -3.7082 11.4967   1
  -5   3  -7 -28.149 15.9068   2
   5  -3   7 11.7303 13.3934   4
   6   2  -7 32.5616 11.2593   2
   6   2  -7 52.4257 15.1073   3
  -6  -2   7 64.8998 14.3542   1
   5   2  -7 19.9332 10.5360   3
   5   2  -7 25.3734 9.34368   2
  -5  -2   7 29.5036 11.1342   1
   4   2  -7 -9.4797 7.00225   3
   4   2  -7 3.45589 7.04090   2
  -4  -2   7 12.9324 8.44100   1
   3   2  -7 280.317 16.5724   3
   3   2  -7 291.270 18.8749   2
  -3  -2   7 284.133 19.2539   1
  -3  -2   7 248.769 15.8582   3
   2   2  -7 345.951 19.4377   2
   2   2  -7 332.647 15.6559   3
  -2  -2   7 342.941 20.2773   1
  -2  -2   7 328.379 14.9578   3
   1   2  -7 278.019 17.8210   2
   1   2  -7 281.689 12.2675   3
   1   2  -7 279.929 16.8405   1
  -1  -2   7 295.908 18.7397   1
  -1  -2   7 293.771 12.7742   3
  -1  -2   7 264.203 17.3936   2
   0   2  -7 1746.47 48.6990   1
   0   2  -7 1823.66 39.3525   4
   0   2  -7 1843.57 52.6876   2
   0  -2   7 1839.81 51.6115   1
   0  -2   7 1853.16 39.5400   4
  -1   2  -7 371.403 22.5687   2
  -1   2  -7 360.375 19.2527   1
  -1   2  -7 389.012 16.8892   4
   1  -2   7 364.174 22.1414   1
   1  -2   7 376.041 16.2990   4
  -2   2  -7 75.2749 12.5940   4
  -2   2  -7 56.0367 9.00091   1
   2  -2   7 55.2346 10.0901   4
  -3   2  -7 218.001 22.0028   2
  -3   2  -7 253.239 17.5550   1
   3  -2   7 247.919 17.8401   4
  -4   2  -7 197.574 24.6846   2
   4  -2   7 182.626 19.6976   4
   7   1  -7 206.746 22.7822   2
   7   1  -7 202.659 27.3267   3
  -7  -1   7 165.274 22.2871   1
   6   1  -7 125.265 17.7937   2
   6   1  -7 125.743 19.6310   3
  -6  -1   7 159.408 22.6108   1
   5   1  -7 444.204 25.1185   3
   5   1  -7 483.340 24.8798   2
  -5  -1   7 480.574 27.2540   1
   4   1  -7 388.479 21.1725   2
   4   1  -7 348.266 20.2107   3
  -4  -1   7 392.818 22.8756   1
   3   1  -7 2.26750 6.01579   2
   3   1  -7 -0.7349 6.80623   2
   3   1  -7 0.14234 5.03707   3
  -3  -1   7 4.24354 5.73296   3
  -3  -1   7 -3.6038 5.54272   1
   2   1  -7 322.265 16.2305   3
   2   1  -7 331.848 18.0446   1
   2   1  -7 312.894 18.5397   2
  -2  -1   7 314.274 18.1734   2
  -2  -1   7 320.231 14.6934   3
  -2  -1   7 327.417 19.0682   1
   1   1  -7 968.146 31.6100   1
   1   1  -7 1028.42 28.2320   3
   1   1  -7 1000.72 22.3340   4
   1   1  -7 1013.08 34.7263   2
  -1  -1   7 1063.14 26.6323   3
  -1  -1   7 940.068 33.0048   2
  -1  -1   7 1002.42 33.9500   1
   0   1  -7 17.1087 4.86815   4
   0   1  -7 13.2482 5.17361   3
   0   1  -7 32.2513 7.95842   2
   0   1  -7 19.8472 6.38127   1
   0  -1   7 17.7273 7.24859   2
   0  -1   7 21.5259 4.07704   3
   0  -1   7 16.6807 3.57807   4
   0  -1   7 16.5879 6.04399   1
  -1   1  -7 381.023 18.9137   1
  -1   1  -7 349.212 16.8242   4
  -1   1  -7 359.192 22.1107   2
   1  -1   7 391.848 12.6726   3
   1  -1   7 376.223 16.5405   4
   1  -1   7 364.947 13.4083   3
   1  -1   7 402.613 21.3784   1
  -2   1  -7 3.59778 5.58772   1
  -2   1  -7 -8.8202 7.40820   1
  -2   1  -7 25.6686 9.69188   2
   2  -1   7 11.9292 5.61066   3
   2  -1   7 1.88652 6.02145   4
   2  -1   7 6.33131 3.62156   3
  -3   1  -7 259.771 18.5212   1
  -3   1  -7 261.987 16.4618   1
  -3   1  -7 249.935 24.0660   2
   3  -1   7 255.858 12.4299   3
   3  -1   7 260.555 17.9684   4
  -4   1  -7 16.5019 8.59477   1
  -4   1  -7 18.6811 14.5508   2
   7   0  -7 23.0751 14.5017   3
   7   0  -7 14.4845 11.4125   2
  -7   0   7 14.1251 13.0765   1
   6   0  -7 157.777 20.0077   3
   6   0  -7 180.101 16.6482   2
  -6   0   7 144.583 20.7531   1
   5   0  -7 89.4344 15.8468   3
   5   0  -7 99.6148 14.0673   2
  -5   0   7 118.341 16.1831   1
   4   0  -7 362.507 19.9590   2
   4   0  -7 388.420 20.9394   3
   4   0  -7 335.751 19.3918   2
   3   0  -7 276.958 16.9489   2
   3   0  -7 302.150 17.9894   3
  -3   0   7 274.969 17.1613   2
  -3   0   7 286.639 16.7697   3
  -3   0   7 307.356 18.7765   1
   2   0  -7 383.608 18.7393   3
   2   0  -7 362.419 18.4027   1
   2   0  -7 369.360 19.1332   2
  -2   0   7 353.202 16.4288   3
  -2   0   7 381.013 19.5129   2
  -2   0   7 374.175 19.4203   1
   1   0  -7 1422.26 43.0473   2
   1   0  -7 1378.37 31.8533   4
   1   0  -7 1431.58 38.6660   3
   1   0  -7 1399.99 38.8269   1
  -1   0   7 1434.21 35.9957   3
  -1   0   7 1422.73 32.3540   4
  -1   0   7 1411.31 40.9048   1
  -1   0   7 1370.04 41.7165   2
   0   0  -7 7.46933 6.36611   2
   0   0  -7 24.9539 6.85519   3
   0   0  -7 28.0240 6.20508   4
   0   0  -7 21.4796 6.20683   1
   0   0   7 10.9875 5.02417   3
   0   0   7 13.5688 4.61101   4
  -1   0  -7 247.152 14.6632   1
  -1   0  -7 237.305 15.1513   4
   1   0   7 236.032 13.9645   3
   1   0   7 236.003 14.1037   4
  -2   0  -7 865.490 38.4034   2
  -2   0  -7 918.376 27.7959   1
  -2   0  -7 927.459 28.0027   1
   2   0   7 905.244 26.5860   3
   2   0   7 925.158 30.0038   3
   2   0   7 952.087 35.3099   4
  -3   0  -7 353.122 28.2731   2
  -3   0  -7 341.806 15.7374   1
   3   0   7 359.790 22.1172   4
   3   0   7 309.378 16.0343   3
  -4   0  -7 59.4978 16.2583   2
   4   0   7 28.8300 12.5488   4
   7  -1  -7 33.2613 11.0335   2
   7  -1  -7 41.0744 14.5478   3
  -7   1   7 55.7502 14.2743   1
   6  -1  -7 216.471 23.6218   3
   6  -1  -7 263.149 16.6769   4
   6  -1  -7 274.311 19.0421   2
  -6   1   7 277.403 22.1895   1
   5  -1  -7 66.0331 11.3826   2
   5  -1  -7 41.3772 9.79228   3
   5  -1  -7 35.4010 9.30808   2
   5  -1  -7 50.7203 7.98436   4
  -5   1   7 43.2504 7.30961   4
  -5   1   7 43.8554 10.2930   1
   4  -1  -7 106.768 14.0957   3
   4  -1  -7 110.103 11.5795   2
   4  -1  -7 104.698 11.7481   2
  -4   1   7 111.786 15.7791   1
  -4   1   7 87.2897 6.40570   4
  -4   1   7 108.671 7.49491   4
   3  -1  -7 1343.98 41.6969   3
   3  -1  -7 1440.36 54.2671   1
   3  -1  -7 1329.32 38.7186   2
  -3   1   7 1261.84 38.7989   3
  -3   1   7 1286.97 29.8250   4
  -3   1   7 1307.89 38.0917   2
  -3   1   7 1312.46 29.4579   4
  -3   1   7 1361.06 41.8121   1
   2  -1  -7 731.769 28.4885   3
   2  -1  -7 721.000 26.4538   1
   2  -1  -7 731.462 28.0871   2
  -2   1   7 742.586 28.2116   1
  -2   1   7 759.670 23.3484   4
  -2   1   7 717.253 20.3544   4
  -2   1   7 690.557 27.0447   2
  -2   1   7 780.895 26.9504   3
   1  -1  -7 260.439 17.1843   2
   1  -1  -7 264.117 13.5486   4
   1  -1  -7 258.141 14.9130   1
   1  -1  -7 249.437 17.5660   3
  -1   1   7 268.981 18.5233   2
  -1   1   7 273.712 15.9662   1
  -1   1   7 249.812 15.8496   3
  -1   1   7 261.100 12.9725   4
   0  -1  -7 103.488 13.9392   2
   0  -1  -7 72.0307 10.8612   4
   0  -1  -7 96.9104 10.4244   1
   0  -1  -7 59.6056 11.4384   3
   0   1   7 72.2495 10.9944   3
   0   1   7 74.8726 9.72468   4
   0   1   7 88.5195 10.7838   1
  -1  -1  -7 52.4806 10.6483   2
   1   1   7 68.7649 10.6458   3
   1   1   7 80.2409 11.5702   4
  -2  -1  -7 555.194 33.4262   2
  -2  -1  -7 587.418 18.0651   1
   2   1   7 629.596 28.0242   4
   2   1   7 598.095 29.0408   3
   2   1   7 601.189 22.9860   3
  -3  -1  -7 35.2996 16.1100   2
   3   1   7 74.2700 10.7513   3
   3   1   7 99.5925 18.1302   4
   7  -2  -7 70.3699 17.3181   3
   7  -2  -7 79.5609 11.9211   2
  -7   2   7 97.3259 16.4740   1
   6  -2  -7 19.8531 11.4458   3
   6  -2  -7 12.6708 8.73493   4
   6  -2  -7 10.1802 8.26664   2
   5  -2  -7 135.357 13.8993   2
   5  -2  -7 188.446 20.2358   3
   5  -2  -7 157.031 14.8329   2
  -5   2   7 171.752 11.7690   4
  -5   2   7 138.256 16.9639   1
   4  -2  -7 462.329 20.5112   2
   4  -2  -7 433.421 19.1049   2
   4  -2  -7 409.951 38.9678   3
  -4   2   7 449.307 16.2572   4
  -4   2   7 461.255 17.0788   4
   3  -2  -7 631.958 34.4459   1
   3  -2  -7 601.020 23.9458   2
   3  -2  -7 603.754 27.8072   3
  -3   2   7 600.627 19.8338   4
  -3   2   7 615.065 21.6509   4
  -3   2   7 569.924 25.7545   1
  -3   2   7 573.406 23.7163   2
   2  -2  -7 1115.24 33.0492   1
   2  -2  -7 1091.22 35.1535   2
   2  -2  -7 1123.13 39.3432   3
  -2   2   7 1099.34 30.7262   4
  -2   2   7 1067.52 33.3899   4
  -2   2   7 1132.73 35.6391   1
  -2   2   7 1028.00 34.2892   2
  -2   2   7 1040.78 35.6633   3
   1  -2  -7 4.20757 5.65980   1
   1  -2  -7 2.63299 9.02810   3
   1  -2  -7 9.45538 7.28558   2
  -1   2   7 -3.6193 7.93097   2
  -1   2   7 3.44486 5.15827   4
  -1   2   7 -3.6351 5.55940   1
  -1   2   7 2.90542 8.24256   3
   0  -2  -7 428.798 27.2064   2
   0  -2  -7 444.134 27.6670   3
   0  -2  -7 410.908 16.3610   1
   0   2   7 383.237 20.2156   4
   0   2   7 428.355 18.2865   1
   0   2   7 390.632 23.1616   3
  -1  -2  -7 420.895 27.8611   2
   1   2   7 422.747 22.4568   4
   2   2   7 45.6175 9.41330   3
   2   2   7 56.1549 11.6119   4
  -3  -2  -7 34.1513 17.9084   2
   3   2   7 40.0841 14.1591   4
   3   2   7 55.2061 11.9134   3
   7  -3  -7 382.940 31.9435   3
  -7   3   7 296.996 29.3230   1
   6  -3  -7 50.7846 15.2907   3
   6  -3  -7 59.6616 13.1485   4
   6  -3  -7 63.7211 8.91327   2
  -6   3   7 56.0022 13.0011   1
   5  -3  -7 150.090 13.6705   2
   5  -3  -7 134.735 20.5425   3
   5  -3  -7 156.417 12.8168   2
  -5   3   7 134.999 11.5679   4
  -5   3   7 133.150 13.5145   4
  -5   3   7 152.141 18.2658   1
   4  -3  -7 403.531 26.0737   3
   4  -3  -7 345.486 17.7951   2
  -4   3   7 316.258 17.8591   4
  -4   3   7 384.941 22.5906   1
  -4   3   7 375.519 16.4778   4
   3  -3  -7 19.7371 9.78300   3
   3  -3  -7 21.6068 7.24092   2
  -3   3   7 22.2603 8.20540   4
  -3   3   7 25.3836 6.29612   4
  -3   3   7 32.0079 8.33830   1
  -3   3   7 31.2830 8.71047   2
   2  -3  -7 88.7209 20.7308   3
   2  -3  -7 86.6662 13.4161   2
   2  -3  -7 69.5994 8.92717   1
  -2   3   7 66.8947 11.3696   4
  -2   3   7 75.6851 11.6595   2
  -2   3   7 80.1747 12.8405   1
  -2   3   7 95.2716 11.2486   4
   1  -3  -7 699.250 30.3348   2
   1  -3  -7 697.164 23.1710   1
  -1   3   7 705.121 25.3576   1
  -1   3   7 702.126 27.2047   4
   0  -3  -7 266.064 27.0086   3
   0  -3  -7 255.725 23.5627   2
   0   3   7 245.092 13.9727   1
   0   3   7 263.562 18.2284   4
  -1  -3  -7 340.286 29.6184   2
   1   3   7 285.429 22.0872   4
  -2  -3  -7 24.7014 17.1300   2
   2   3   7 18.9291 12.8286   4
   2   3   7 0.41639 11.3004   3
   7  -4  -7 120.455 22.1325   3
   7  -4  -7 119.420 20.0075   4
  -7   4   7 83.8059 16.8162   1
   6  -4  -7 414.980 35.1309   3
  -6   4   7 472.768 30.2935   1
   5  -4  -7 444.207 31.4115   3
  -5   4   7 444.910 27.8333   1
  -5   4   7 420.727 20.7754   4
   4  -4  -7 107.829 17.8644   3
   4  -4  -7 82.7280 12.8239   2
  -4   4   7 80.1488 12.2829   4
  -4   4   7 82.8690 13.7087   1
   3  -4  -7 335.093 27.2698   3
   3  -4  -7 338.666 18.9456   2
  -3   4   7 294.418 20.3064   2
  -3   4   7 309.357 21.6709   1
   2  -4  -7 -14.081 8.37761   1
   2  -4  -7 10.5369 12.8910   3
   2  -4  -7 -5.3546 9.42535   2
  -2   4   7 -7.8348 11.2023   2
  -2   4   7 10.7932 8.19426   4
  -2   4   7 2.78879 7.97401   1
   1  -4  -7 443.535 34.8106   3
  -1   4   7 463.006 24.0703   4
  -1   4   7 439.364 20.3827   1
   0  -4  -7 272.375 29.1922   2
   0  -4  -7 307.472 32.0950   3
   0   4   7 300.777 22.2306   4
  -1  -4  -7 104.526 19.1646   2
   1   4   7 103.702 16.3301   4
   1   4   7 147.245 21.9246   3
   6  -5  -7 47.9795 18.3399   3
  -6   5   7 41.4143 17.3217   1
   5  -5  -7 320.221 34.0750   3
  -5   5   7 334.366 20.6249   4
  -5   5   7 289.499 27.6505   1
   4  -5  -7 57.9131 18.9621   3
  -4   5   7 61.9250 13.7133   1
  -4   5   7 64.8172 11.1105   4
   3  -5  -7 -1.2527 10.2052   2
  -3   5   7 -1.3029 9.12968   4
  -3   5   7 -3.8025 10.6632   1
   2  -5  -7 264.197 33.3821   3
   2  -5  -7 288.949 23.9476   2
  -2   5   7 280.726 22.0888   4
   1  -5  -7 2.97166 14.7919   2
   1  -5  -7 67.8046 21.3599   3
  -1   5   7 31.3110 11.9894   4
   0  -5  -7 313.661 41.6225   3
   0  -5  -7 217.713 31.5262   2
   0   5   7 195.643 23.9727   4
  -5   6   7 51.5088 12.6617   4
  -5   6   7 38.3438 16.7401   1
   4  -6  -7 486.789 43.6388   3
  -4   6   7 328.568 25.1493   4
  -4   6   7 399.736 31.1765   1
   3  -6  -7 23.7879 24.6852   3
  -3   6   7 14.3277 11.9182   4
   1   7  -8 39.3536 17.1369   1
   1   7  -8 87.2875 18.8281   2
   0   7  -8 34.8878 19.2071   2
   0   7  -8 62.1352 15.8599   1
  -1   7  -8 433.602 34.5822   2
  -1   7  -8 367.389 31.6160   1
   1  -7   8 516.957 41.2982   4
  -2   7  -8 27.7617 17.4635   2
  -2   7  -8 -1.1788 15.3523   1
   2  -7   8 -28.730 15.8324   4
   3   6  -8 9.03505 18.7898   2
   3   6  -8 -1.5325 14.4271   3
  -3  -6   8 1.27040 16.6427   1
   2   6  -8 1.77705 13.6566   2
   2   6  -8 14.3493 11.7945   3
  -2  -6   8 24.0330 14.9958   1
   1   6  -8 232.928 26.9998   2
   0   6  -8 81.6230 15.8215   2
   0   6  -8 50.3951 14.8809   1
  -1   6  -8 885.664 41.4306   1
  -1   6  -8 930.134 42.9068   2
   1  -6   8 966.890 34.2263   4
  -2   6  -8 242.173 26.7934   1
  -2   6  -8 180.879 27.0400   2
   2  -6   8 173.042 20.9854   4
  -3   6  -8 -6.6401 15.4913   2
  -3   6  -8 14.3457 14.1041   1
   3  -6   8 -15.636 13.0555   4
   4   5  -8 170.804 25.3575   3
   4   5  -8 130.919 19.8156   2
  -4  -5   8 206.249 28.1893   1
   3   5  -8 151.711 24.6334   2
   3   5  -8 149.142 20.7225   3
  -3  -5   8 124.686 17.1801   1
   2   5  -8 11.2516 8.93614   3
   2   5  -8 -3.5543 10.9029   2
  -2  -5   8 -3.6847 11.9318   1
   1   5  -8 27.2645 11.5080   2
  -1  -5   8 29.7732 12.7990   1
   0   5  -8 765.491 36.1198   2
   0  -5   8 766.614 25.8381   4
  -1   5  -8 -4.6842 10.9570   2
  -1   5  -8 0.19429 9.92364   1
   1  -5   8 16.3922 8.34751   4
  -2   5  -8 146.541 21.7111   1
  -2   5  -8 142.186 23.4590   2
   2  -5   8 145.650 16.0636   4
  -3   5  -8 40.7037 13.5946   1
  -3   5  -8 55.0352 15.4341   2
  -4   5  -8 120.063 18.2400   1
  -4   5  -8 135.169 21.1097   2
   5   4  -8 127.504 21.2286   2
   5   4  -8 76.8093 16.5862   3
   4   4  -8 112.577 19.5801   3
   4   4  -8 94.6570 16.3697   2
  -4  -4   8 112.473 16.6445   1
   3   4  -8 62.3391 12.6328   2
   3   4  -8 79.3074 14.6006   3
  -3  -4   8 69.9766 14.5751   1
   2   4  -8 535.942 29.4370   2
   2   4  -8 533.530 22.7890   3
  -2  -4   8 506.872 21.4673   3
  -2  -4   8 515.070 29.5850   1
   1   4  -8 172.488 11.7132   3
   1   4  -8 207.605 16.3709   3
   1   4  -8 217.497 19.8910   2
  -1  -4   8 201.531 20.7344   1
   0   4  -8 847.485 24.2071   4
   0   4  -8 884.994 36.9979   2
   0  -4   8 833.122 24.8201   4
   0  -4   8 869.583 38.1108   1
  -1   4  -8 -4.5998 9.47170   2
  -1   4  -8 6.74606 8.43195   1
  -1   4  -8 1.73073 7.88127   4
   1  -4   8 8.31621 6.19756   4
  -2   4  -8 51.6074 11.3127   1
   2  -4   8 37.3882 9.21940   4
  -3   4  -8 717.760 39.3608   2
  -3   4  -8 615.199 32.4319   1
   3  -4   8 634.596 29.1518   4
  -4   4  -8 288.635 31.3081   2
  -4   4  -8 278.604 25.8456   1
   4  -4   8 286.824 25.4151   4
   5   3  -8 133.065 21.6662   2
  -5  -3   8 142.029 25.3451   1
   4   3  -8 18.8580 10.9369   2
   4   3  -8 16.4671 10.0747   3
  -4  -3   8 28.9023 12.8071   1
   3   3  -8 21.6116 8.39095   3
   3   3  -8 2.25272 8.69341   2
  -3  -3   8 22.3236 9.88515   1
  -3  -3   8 27.9154 9.00558   3
   2   3  -8 724.336 32.1098   2
   2   3  -8 671.192 24.4046   3
  -2  -3   8 686.532 23.3081   3
  -2  -3   8 684.084 32.4990   1
   1   3  -8 989.994 37.6438   2
   1   3  -8 964.523 26.0806   3
  -1  -3   8 930.317 37.8320   1
   0   3  -8 240.680 19.3125   2
   0   3  -8 228.071 12.4200   4
   0  -3   8 236.413 11.2070   4
   0  -3   8 240.330 20.1892   1
  -1   3  -8 116.235 13.1403   4
  -1   3  -8 115.124 16.9127   2
   1  -3   8 110.192 10.6694   4
  -2   3  -8 157.170 17.0547   1
  -2   3  -8 122.286 19.5876   2
   2  -3   8 111.065 13.0101   4
  -3   3  -8 353.251 23.2827   1
  -3   3  -8 321.915 28.0732   2
   3  -3   8 331.365 21.1421   4
  -4   3  -8 170.741 27.8036   2
  -4   3  -8 146.517 21.8236   1
   4  -3   8 176.600 20.9646   4
   6   2  -8 132.957 21.6803   2
   6   2  -8 186.465 24.7159   3
  -6  -2   8 124.302 19.0396   1
   5   2  -8 48.0514 11.4417   2
   5   2  -8 48.9763 12.1011   3
  -5  -2   8 34.0359 12.9213   1
   4   2  -8 78.4995 13.6826   2
  -4  -2   8 55.0178 11.6129   1
   3   2  -8 785.689 33.1357   2
   3   2  -8 740.862 28.3823   3
  -3  -2   8 772.782 33.9190   1
  -3  -2   8 734.140 27.3389   3
   2   2  -8 203.468 13.6983   3
  -2  -2   8 250.246 12.9858   3
  -2  -2   8 194.361 22.4013   1
   1   2  -8 1092.62 28.9981   3
   1   2  -8 1011.19 49.4159   2
  -1  -2   8 1107.70 39.3686   1
  -1  -2   8 1012.14 32.0234   3
   0   2  -8 34.0329 6.08003   4
   0   2  -8 31.5138 9.01514   2
   0  -2   8 28.3035 8.03563   1
   0  -2   8 33.1800 5.23108   4
  -1   2  -8 230.476 15.8463   4
  -1   2  -8 276.997 22.1869   2
   1  -2   8 285.987 15.1802   4
  -2   2  -8 399.276 21.8829   1
  -2   2  -8 396.676 27.5737   2
   2  -2   8 339.469 19.1999   4
  -3   2  -8 6.06946 8.69166   1
  -3   2  -8 -2.7996 11.2333   2
   3  -2   8 11.0190 9.02703   4
  -4   2  -8 36.4330 15.4517   2
  -4   2  -8 32.2555 10.6406   1
   4  -2   8 39.9362 13.2899   4
   6   1  -8 183.812 21.4501   2
   6   1  -8 209.786 23.7194   3
  -6  -1   8 245.033 26.2032   1
   5   1  -8 135.364 16.6859   2
   5   1  -8 162.904 17.6583   3
  -5  -1   8 145.832 20.2617   1
   4   1  -8 77.3510 13.8719   3
   4   1  -8 91.7106 14.5501   2
  -4  -1   8 60.9469 11.9652   1
   3   1  -8 349.245 20.7991   2
   3   1  -8 318.481 19.0600   3
  -3  -1   8 325.259 18.3620   3
  -3  -1   8 355.850 22.3483   1
   2   1  -8 94.1276 14.0362   2
   2   1  -8 113.700 11.2201   3
  -2  -1   8 104.165 13.8156   1
  -2  -1   8 81.2720 10.8469   3
   1   1  -8 154.518 8.88605   4
   1   1  -8 130.990 15.5623   2
   1   1  -8 158.620 12.7018   3
  -1  -1   8 156.680 10.7233   3
  -1  -1   8 194.041 15.8955   1
  -1  -1   8 162.692 7.97812   4
   0   1  -8 813.543 24.8281   4
   0   1  -8 845.753 25.4142   3
   0   1  -8 791.262 30.2420   1
   0   1  -8 786.248 36.0569   2
   0  -1   8 850.081 22.4158   3
   0  -1   8 840.870 24.6110   4
   0  -1   8 851.993 32.7984   1
  -1   1  -8 363.936 19.8675   4
  -1   1  -8 440.357 26.9719   2
  -1   1  -8 407.390 21.2092   1
   1  -1   8 422.951 14.0859   3
   1  -1   8 402.717 12.5212   3
   1  -1   8 420.302 18.5716   4
  -2   1  -8 335.436 19.3603   1
  -2   1  -8 315.702 25.1944   2
  -2   1  -8 301.338 19.6967   1
   2  -1   8 293.939 11.3160   3
   2  -1   8 291.803 18.3004   4
  -3   1  -8 182.760 26.0529   2
  -3   1  -8 163.785 16.7097   1
   3  -1   8 190.400 19.1474   4
   4  -1   8 142.222 20.5275   4
   7   0  -8 34.5424 16.3980   3
   7   0  -8 57.9738 13.4394   2
  -7   0   8 16.1738 15.6328   1
   6   0  -8 190.101 20.0418   2
   6   0  -8 199.257 22.9023   3
  -6   0   8 160.609 23.5632   1
   5   0  -8 395.907 23.8006   2
   5   0  -8 399.098 25.7088   3
  -5   0   8 390.309 26.3010   1
   4   0  -8 885.492 33.4799   2
   4   0  -8 899.326 34.8812   3
  -4   0   8 928.349 37.2103   1
   3   0  -8 71.2538 12.8917   2
   3   0  -8 93.7190 13.0101   3
  -3   0   8 91.4541 13.5319   3
   2   0  -8 716.229 28.1052   3
   2   0  -8 705.086 30.2920   2
  -2   0   8 724.358 29.7155   1
  -2   0   8 720.241 25.2446   3
   1   0  -8 3.37609 4.80177   4
   1   0  -8 18.9376 7.21350   1
   1   0  -8 12.9696 7.74487   2
   1   0  -8 9.04620 6.44303   3
  -1   0   8 -5.1621 6.21482   3
  -1   0   8 7.32610 6.15771   1
  -1   0   8 4.85167 4.13657   4
   0   0  -8 211.418 16.1552   1
   0   0  -8 203.740 14.3805   4
   0   0  -8 194.739 17.4378   3
   0   0  -8 205.563 19.3963   2
   0   0   8 230.877 17.6188   1
   0   0   8 218.939 12.8401   4
   0   0   8 211.058 13.6703   3
  -1   0  -8 367.195 25.4630   2
  -1   0  -8 288.798 18.1017   1
   1   0   8 324.715 17.1097   3
   1   0   8 350.237 14.3594   3
   1   0   8 321.939 17.6863   4
  -2   0  -8 157.991 22.5695   2
  -2   0  -8 144.757 14.3855   1
   2   0   8 160.411 12.1650   3
   2   0   8 188.770 16.6345   4
  -3   0  -8 236.163 29.4532   2
   3   0   8 213.418 20.0261   4
   7  -1  -8 225.278 29.4857   3
   7  -1  -8 214.287 22.3702   2
  -7   1   8 196.457 27.9244   1
   6  -1  -8 29.8233 9.95269   2
   6  -1  -8 13.1122 11.8421   3
  -6   1   8 13.9593 11.6404   1
   5  -1  -8 0.65440 7.86941   2
   5  -1  -8 1.73909 10.1656   3
  -5   1   8 -4.0617 8.85802   1
   4  -1  -8 440.669 22.4063   2
  -4   1   8 410.008 24.5146   1
   3  -1  -8 312.106 21.2909   3
   3  -1  -8 260.244 18.7744   2
  -3   1   8 241.818 18.0313   4
  -3   1   8 302.769 11.3344   4
  -3   1   8 296.091 19.6978   2
  -3   1   8 319.529 20.9113   1
   2  -1  -8 -5.4862 6.77643   2
   2  -1  -8 4.29247 8.31469   3
  -2   1   8 -8.9575 7.53117   3
  -2   1   8 6.55876 4.33937   4
  -2   1   8 -1.9762 6.62768   4
  -2   1   8 -1.6289 6.53480   1
   1  -1  -8 539.976 26.4559   3
   1  -1  -8 515.518 22.1519   1
   1  -1  -8 568.064 27.4956   2
  -1   1   8 506.566 19.9191   4
  -1   1   8 539.165 25.2035   1
  -1   1   8 546.205 23.5086   3
   0  -1  -8 87.8937 13.4133   1
   0  -1  -8 90.8664 13.8455   2
   0  -1  -8 102.449 16.6019   4
   0  -1  -8 74.2469 13.2821   3
   0   1   8 75.9150 13.3773   1
   0   1   8 69.7226 11.4112   4
   0   1   8 97.6861 14.3550   3
  -1  -1  -8 315.774 16.2584   1
  -1  -1  -8 295.889 25.3834   2
   1   1   8 289.490 20.9015   3
   1   1   8 298.770 19.3143   4
  -2  -1  -8 376.060 34.5052   2
   2   1   8 360.829 19.8130   3
   2   1   8 405.237 24.1695   4
  -3  -1  -8 173.502 30.0161   2
   3   1   8 263.252 25.2782   4
   7  -2  -8 222.890 32.8982   3
  -7   2   8 294.059 28.7136   1
   6  -2  -8 96.2590 16.5330   3
   6  -2  -8 82.3030 11.9556   2
  -6   2   8 68.2078 13.8643   1
   5  -2  -8 283.702 24.3212   3
   5  -2  -8 275.950 18.2000   2
  -5   2   8 259.295 22.3894   1
  -5   2   8 234.579 12.4692   4
   4  -2  -8 76.9040 12.4361   2
   4  -2  -8 40.2326 11.2847   3
  -4   2   8 60.4159 11.6731   1
  -4   2   8 67.0007 8.48006   4
  -4   2   8 55.1469 9.66970   4
   3  -2  -8 764.512 30.1156   2
   3  -2  -8 766.116 41.9940   3
  -3   2   8 791.748 32.8143   1
  -3   2   8 698.127 29.3779   2
  -3   2   8 752.933 23.7833   4
  -3   2   8 768.686 25.6024   4
   2  -2  -8 -10.656 8.34777   2
   2  -2  -8 9.59587 9.09532   3
   2  -2  -8 -3.3609 7.79420   1
  -2   2   8 11.1879 5.44249   4
  -2   2   8 -8.5243 8.62681   4
  -2   2   8 8.35596 8.41630   1
   1  -2  -8 355.663 26.6385   3
   1  -2  -8 324.469 18.0077   1
  -1   2   8 332.443 19.6016   1
  -1   2   8 354.236 18.2341   4
   0  -2  -8 277.120 23.5101   2
   0  -2  -8 370.372 27.6717   3
   0   2   8 267.192 18.3924   4
   0   2   8 294.758 18.8851   1
  -1  -2  -8 66.0103 15.5103   2
   1   2   8 46.3846 9.69005   3
   1   2   8 52.2186 11.5331   4
  -2  -2  -8 24.5054 16.7254   2
   2   2   8 26.8848 14.1818   4
   2   2   8 19.1993 11.1611   3
   6  -3  -8 48.0864 16.4265   3
  -6   3   8 7.75305 11.9900   1
  -6   3   8 34.6050 8.27298   4
   5  -3  -8 530.452 32.6498   3
   5  -3  -8 424.077 22.1004   2
  -5   3   8 448.306 19.5999   4
  -5   3   8 489.491 29.9362   1
   4  -3  -8 5.03762 8.60433   2
   4  -3  -8 4.19474 11.1156   3
  -4   3   8 4.18276 8.43650   4
  -4   3   8 30.7409 10.3338   1
  -4   3   8 14.0312 6.37074   4
   3  -3  -8 16.5741 12.7184   3
   3  -3  -8 8.28725 8.37627   2
  -3   3   8 -0.1572 6.58116   4
  -3   3   8 8.50566 9.72949   4
  -3   3   8 18.0763 11.0468   2
   2  -3  -8 463.583 26.3468   2
   2  -3  -8 470.149 32.4468   3
   2  -3  -8 440.123 21.8575   1
  -2   3   8 468.068 21.8698   4
  -2   3   8 433.634 25.0651   1
   1  -3  -8 433.156 34.0680   3
   1  -3  -8 422.311 27.4388   2
  -1   3   8 433.401 22.4427   1
  -1   3   8 461.480 23.0538   4
   0  -3  -8 588.611 39.5766   3
   0  -3  -8 636.243 34.9796   2
   0   3   8 626.071 28.9975   4
  -1  -3  -8 184.623 23.0052   2
   1   3   8 189.920 21.6299   3
   1   3   8 174.196 22.1328   4
   6  -4  -8 441.232 38.6138   3
  -6   4   8 424.730 32.1395   1
  -6   4   8 424.414 22.4189   4
   5  -4  -8 73.5709 17.6607   3
  -5   4   8 111.894 14.2854   4
  -5   4   8 92.8538 15.5314   1
   4  -4  -8 223.026 17.9980   2
   4  -4  -8 262.401 29.7389   3
  -4   4   8 223.440 17.2550   4
  -4   4   8 219.435 22.7354   1
   3  -4  -8 29.3919 17.9429   3
   3  -4  -8 3.46377 10.5383   2
  -3   4   8 17.5021 8.96699   4
   2  -4  -8 261.373 34.8551   3
   2  -4  -8 251.197 33.2822   2
  -2   4   8 220.834 22.6129   1
  -2   4   8 200.156 19.4060   4
   1  -4  -8 131.801 24.4178   3
   1  -4  -8 151.250 27.3123   2
  -1   4   8 149.256 19.1858   4
   0  -4  -8 10.3616 17.9744   2
   0  -4  -8 75.9286 21.6513   3
   0   4   8 47.5760 13.4168   4
   5  -5  -8 43.5278 21.9858   3
  -5   5   8 12.4109 15.2550   1
  -5   5   8 5.52674 10.9910   4
   4  -5  -8 100.456 21.3886   3
  -4   5   8 68.1639 15.7698   1
  -4   5   8 79.1650 13.2524   4
   3  -5  -8 585.813 42.3991   3
  -3   5   8 595.832 32.8569   1
  -3   5   8 580.843 29.9026   4
   2  -5  -8 140.381 27.3292   3
   2  -5  -8 180.124 23.9382   2
  -2   5   8 171.975 22.7363   4
   2   6  -9 305.451 32.0973   2
  -2  -6   9 296.138 33.8117   1
   1   6  -9 65.9100 17.1035   2
   0   6  -9 278.906 29.9839   2
   0   6  -9 213.104 29.7391   1
  -1   6  -9 29.9991 14.9123   1
  -1   6  -9 24.2992 17.2739   2
  -2   6  -9 110.165 22.3885   2
   2  -6   9 82.3774 14.8472   4
   3   5  -9 67.8179 16.2036   2
  -3  -5   9 50.4066 16.3216   1
   2   5  -9 95.6227 16.0655   2
   2   5  -9 116.687 17.6012   3
  -2  -5   9 87.1870 17.7935   1
   1   5  -9 93.6011 15.5067   2
  -1  -5   9 99.8914 17.3216   1
   0   5  -9 -17.660 11.8867   2
  -1   5  -9 138.899 23.3443   1
  -1   5  -9 145.517 24.9757   2
   1  -5   9 116.054 16.3147   4
  -2   5  -9 407.180 30.5133   1
  -2   5  -9 415.356 33.8299   2
   2  -5   9 447.295 23.7819   4
  -3   5  -9 180.429 25.3144   2
  -3   5  -9 130.271 19.0390   1
   3  -5   9 207.735 23.6541   4
   4   4  -9 124.447 21.8586   3
   4   4  -9 109.536 18.3265   2
  -4  -4   9 108.007 18.5888   1
   3   4  -9 461.214 25.6211   3
   3   4  -9 492.297 31.4022   2
  -3  -4   9 518.770 35.4950   1
   2   4  -9 159.891 20.6605   2
   2   4  -9 113.024 14.4413   3
  -2  -4   9 136.628 21.6081   1
   1   4  -9 256.098 24.3722   2
   1   4  -9 281.795 15.0021   3
  -1  -4   9 284.604 24.9401   1
   0   4  -9 16.5688 10.9436   2
   0  -4   9 9.09868 6.61982   4
   0  -4   9 -7.4772 10.4942   1
  -1   4  -9 35.6441 13.4149   2
  -1   4  -9 43.6656 12.7703   1
   1  -4   9 68.0304 12.6455   4
  -2   4  -9 44.7939 15.5017   2
  -2   4  -9 45.1016 11.2882   1
  -3   4  -9 267.403 25.6823   1
  -3   4  -9 294.714 33.3929   2
   3  -4   9 268.978 23.3544   4
   5   3  -9 10.2665 13.2986   3
   5   3  -9 -1.6300 13.9793   2
  -5  -3   9 -1.3975 16.2329   1
   4   3  -9 13.1071 12.6091   2
   4   3  -9 9.14575 10.2617   3
  -4  -3   9 7.08746 13.6890   1
   3   3  -9 206.402 17.9632   3
   3   3  -9 163.456 21.2657   2
  -3  -3   9 247.379 22.9009   1
   2   3  -9 398.006 19.3941   3
   2   3  -9 357.540 26.4075   2
  -2  -3   9 421.641 18.2465   3
  -2  -3   9 391.856 27.9225   1
   1   3  -9 98.1222 14.3341   2
   1   3  -9 93.2975 10.6237   3
  -1  -3   9 101.884 17.5901   1
  -1  -3   9 95.7298 10.2328   3
   0   3  -9 153.623 20.5650   2
   0  -3   9 149.227 20.2159   1
   0  -3   9 153.381 10.6532   4
  -1   3  -9 347.672 23.5054   1
  -1   3  -9 338.472 27.8826   2
   1  -3   9 306.757 16.9498   4
  -2   3  -9 194.109 24.9415   2
  -2   3  -9 181.424 19.5620   1
   2  -3   9 158.016 17.1209   4
  -3   3  -9 367.650 32.2193   2
  -3   3  -9 257.550 23.6080   1
   3  -3   9 270.436 22.2683   4
   6   2  -9 491.851 33.6255   2
   5   2  -9 -2.7101 11.5662   2
   5   2  -9 2.56726 11.0446   3
  -5  -2   9 16.7980 13.0312   1
   4   2  -9 282.900 23.6535   2
   4   2  -9 249.901 21.6041   3
  -4  -2   9 296.495 25.4815   1
   3   2  -9 112.699 16.9290   2
   3   2  -9 89.1936 14.6087   3
  -3  -2   9 128.244 15.3459   3
  -3  -2   9 99.2826 15.2775   1
   2   2  -9 195.282 14.8062   3
   2   2  -9 150.780 19.0647   2
  -2  -2   9 211.753 13.7716   3
  -2  -2   9 202.810 19.5801   1
   1   2  -9 15.6861 6.93030   3
   1   2  -9 32.1508 10.1199   2
  -1  -2   9 30.9556 5.53169   3
  -1  -2   9 16.2038 8.64418   1
   0   2  -9 200.429 21.6743   2
   0   2  -9 179.174 13.5655   4
   0  -2   9 190.677 20.4330   1
   0  -2   9 185.464 11.5192   4
  -1   2  -9 316.150 26.5419   2
  -1   2  -9 298.526 19.8643   4
   1  -2   9 270.948 16.1847   4
  -2   2  -9 195.166 27.4525   2
  -2   2  -9 203.751 19.5883   1
   2  -2   9 183.054 17.4280   4
  -3   2  -9 17.7978 15.2947   2
  -3   2  -9 23.2942 10.6706   1
   3  -2   9 2.21676 11.3436   4
   6   1  -9 -0.1762 13.9217   3
   6   1  -9 15.1019 12.2772   2
   5   1  -9 73.1649 15.0469   3
  -5  -1   9 70.1821 15.2614   1
   4   1  -9 533.007 28.2320   2
   4   1  -9 499.404 27.2808   3
  -4  -1   9 532.158 30.9345   1
   3   1  -9 186.514 16.6201   3
   3   1  -9 204.846 18.3363   2
  -3  -1   9 174.763 16.3466   3
  -3  -1   9 162.674 18.7263   1
   2   1  -9 -0.4852 6.74878   3
   2   1  -9 -1.4153 7.91644   2
  -2  -1   9 3.31986 8.43071   1
  -2  -1   9 -0.0288 7.15717   3
   1   1  -9 205.179 11.3361   4
   1   1  -9 208.896 16.0033   3
   1   1  -9 186.310 20.1393   2
  -1  -1   9 200.924 12.7387   3
  -1  -1   9 193.887 10.2676   4
  -1  -1   9 189.721 19.8029   1
   0   1  -9 987.984 41.3651   2
   0   1  -9 945.525 28.9749   4
   0   1  -9 979.344 28.8975   3
   0  -1   9 873.432 31.6647   3
   0  -1   9 986.570 43.7250   1
   0  -1   9 954.719 28.0887   4
  -1   1  -9 470.415 31.9928   2
   1  -1   9 494.790 21.8643   4
  -2   1  -9 197.481 18.9509   1
  -2   1  -9 167.708 25.4883   2
   2  -1   9 233.123 18.7653   4
  -3   1  -9 15.7232 17.6135   2
   3  -1   9 67.7066 13.3307   4
   6   0  -9 -12.737 14.0582   3
   6   0  -9 27.2962 12.3658   2
  -6   0   9 -17.004 11.9079   1
   5   0  -9 624.042 29.8073   2
   5   0  -9 584.370 32.5508   3
  -5   0   9 573.442 33.5751   1
   4   0  -9 139.754 19.8401   3
   4   0  -9 178.418 18.4160   2
  -4   0   9 137.412 19.7824   1
   3   0  -9 86.1948 15.1905   2
   3   0  -9 80.0288 12.9297   3
  -3   0   9 86.0446 13.3429   1
   2   0  -9 20.3520 9.22342   3
   2   0  -9 26.9551 9.45545   2
  -2   0   9 21.5130 8.46089   3
  -2   0   9 38.0742 10.0584   1
   1   0  -9 91.5223 12.1652   4
   1   0  -9 109.090 18.5246   2
   1   0  -9 96.4739 16.0411   3
  -1   0   9 89.6467 16.0661   1
  -1   0   9 120.041 9.93297   4
   0   0  -9 151.478 19.7390   2
   0   0  -9 182.308 18.6959   3
   0   0  -9 148.730 16.9153   4
   0   0   9 169.416 19.4346   1
   0   0   9 169.602 13.1780   4
   0   0   9 175.947 18.9418   3
  -1   0  -9 161.889 16.6474   1
  -1   0  -9 174.308 23.8599   2
   1   0   9 142.298 12.3957   3
   1   0   9 188.358 15.8350   4
  -2   0  -9 119.903 18.2504   2
   2   0   9 147.398 17.6356   4
   6  -1  -9 61.8823 16.5983   3
   6  -1  -9 67.6103 13.3399   2
  -6   1   9 47.9006 14.0679   1
   5  -1  -9 216.412 25.6403   3
   5  -1  -9 275.573 21.0215   2
  -5   1   9 233.464 24.2629   1
   4  -1  -9 99.7649 18.6427   3
   4  -1  -9 92.2836 14.9661   2
  -4   1   9 117.889 18.2997   1
   3  -1  -9 212.443 26.4798   2
   3  -1  -9 172.575 20.3287   3
  -3   1   9 210.448 21.1706   1
  -3   1   9 184.656 9.88114   4
   2  -1  -9 765.379 34.3677   2
   2  -1  -9 780.881 34.1429   3
  -2   1   9 845.001 49.0121   1
  -2   1   9 773.702 23.6484   4
  -2   1   9 739.307 26.8641   4
   1  -1  -9 672.714 32.6751   3
   1  -1  -9 671.335 33.1744   2
  -1   1   9 647.052 23.8069   4
  -1   1   9 639.841 27.9976   3
  -1   1   9 672.346 29.5261   1
   0  -1  -9 73.0589 14.1619   2
   0  -1  -9 59.6538 14.4309   3
   0   1   9 55.6065 12.1370   1
   0   1   9 46.7520 11.0947   4
   1   1   9 103.483 14.2893   3
   1   1   9 98.6220 16.8679   4
  -2  -1  -9 112.546 21.0644   2
   2   1   9 71.6296 13.8524   4
   6  -2  -9 181.829 26.6891   3
   6  -2  -9 219.792 21.1299   2
  -6   2   9 211.001 26.8768   1
   5  -2  -9 -1.8233 10.4455   2
   5  -2  -9 -12.762 13.3543   3
  -5   2   9 -10.359 11.2175   1
   4  -2  -9 54.4727 11.1755   2
   4  -2  -9 47.4547 13.6623   3
  -4   2   9 43.0997 11.5480   1
   3  -2  -9 194.321 23.8566   3
  -3   2   9 237.277 13.5211   4
  -3   2   9 203.970 22.5431   1
   2  -2  -9 172.879 23.1749   3
   2  -2  -9 165.686 20.0433   2
  -2   2   9 165.632 20.1337   1
  -2   2   9 145.502 19.6325   4
  -2   2   9 183.785 13.5554   4
   1  -2  -9 212.597 27.9165   3
   1  -2  -9 172.305 22.5047   2
  -1   2   9 238.200 20.0029   1
  -1   2   9 152.337 22.7782   4
   0  -2  -9 191.872 28.8919   3
   0  -2  -9 154.284 25.0456   2
   0   2   9 162.973 18.0208   4
  -1  -2  -9 25.2410 17.0490   2
   1   2   9 42.9859 12.7712   4
   6  -3  -9 194.802 31.4463   3
  -6   3   9 210.321 28.0823   1
   5  -3  -9 137.998 19.1734   2
   5  -3  -9 151.680 27.2822   3
  -5   3   9 114.231 18.7846   1
   4  -3  -9 147.746 28.6346   3
   4  -3  -9 146.887 20.0040   2
  -4   3   9 195.160 22.9207   1
  -4   3   9 159.465 14.9882   4
   3  -3  -9 188.431 28.7878   3
  -3   3   9 234.311 23.9814   1
  -3   3   9 270.400 17.6146   4
   2  -3  -9 218.602 23.1816   2
   2  -3  -9 188.738 27.5759   3
  -2   3   9 190.570 22.5980   1
  -2   3   9 223.077 18.2994   4
   1  -3  -9 202.755 26.1761   2
   1  -3  -9 127.481 25.0947   3
  -1   3   9 196.474 19.0809   4
   0  -3  -9 277.824 37.0374   3
   0  -3  -9 218.128 32.3266   2
   0   3   9 185.081 23.2817   4
   5  -4  -9 203.120 34.6698   3
  -5   4   9 260.442 24.4070   4
  -5   4   9 294.748 29.1096   1
   4  -4  -9 180.406 34.2466   3
  -4   4   9 126.761 18.0516   4
  -4   4   9 168.597 26.1025   1
   3  -4  -9 -2.5056 20.0436   3
   3  -4  -9 16.6616 14.4584   2
  -3   4   9 -13.246 10.6678   4
  -2   4   9 93.4122 13.4284   4
   2   5 -10 53.7654 16.1389   2
  -2  -5  10 70.9340 17.6269   1
   1   5 -10 -10.866 14.9164   2
  -1  -5  10 13.9657 15.9162   1
   0   5 -10 24.9187 15.2380   2
  -1   5 -10 553.330 34.9181   1
  -1   5 -10 526.263 39.3247   2
   3   4 -10 114.154 18.9770   3
   3   4 -10 89.7430 18.0850   2
   2   4 -10 -9.3715 12.3743   2
  -2  -4  10 12.0715 13.2335   1
   1   4 -10 90.6710 16.2838   2
  -1  -4  10 60.2618 15.6301   1
   0   4 -10 107.907 18.7014   2
   0  -4  10 98.3714 18.9436   1
  -1   4 -10 54.1918 17.4667   2
  -2   4 -10 190.741 26.4993   1
  -2   4 -10 220.628 32.9547   2
   2  -4  10 218.780 22.0839   4
   4   3 -10 114.573 16.8375   3
   4   3 -10 87.1857 18.2330   2
  -4  -3  10 90.7023 17.8959   1
   3   3 -10 44.5636 11.7080   3
   3   3 -10 36.2715 13.1608   2
  -3  -3  10 53.8480 14.1067   1
   2   3 -10 283.151 26.3980   2
   2   3 -10 337.071 19.5131   3
  -2  -3  10 289.136 26.9264   1
   1   3 -10 371.602 28.8697   2
  -1  -3  10 395.576 29.3824   1
   0   3 -10 541.710 36.2838   2
   0  -3  10 593.190 35.5911   1
  -1   3 -10 54.9556 16.5227   2
  -1   3 -10 46.6144 12.7165   1
   1  -3  10 63.3600 9.60156   4
  -2   3 -10 8.29331 12.2725   1
  -2   3 -10 20.4656 16.9541   2
   2  -3  10 15.1818 11.2379   4
   5   2 -10 71.1702 15.2795   2
   5   2 -10 69.3025 16.1828   3
  -5  -2  10 63.1663 17.2901   1
   4   2 -10 13.5494 11.5366   3
   4   2 -10 5.34947 12.6147   2
  -4  -2  10 -20.333 13.1551   1
   3   2 -10 4.67547 10.3436   3
   3   2 -10 12.9831 10.8456   2
  -3  -2  10 7.81784 12.0199   1
   2   2 -10 291.241 26.4532   2
   2   2 -10 288.062 19.3877   3
  -2  -2  10 345.427 26.8416   1
  -1  -2  10 95.9931 16.4220   1
   0   2 -10 142.682 20.4098   2
   0  -2  10 97.2996 16.1790   1
   0  -2  10 117.779 12.0439   4
  -1   2 -10 521.770 29.9136   1
  -1   2 -10 506.161 35.4946   2
   1  -2  10 562.764 23.8736   4
  -2   2 -10 64.8054 18.1612   2
  -2   2 -10 71.0278 14.3013   1
   2  -2  10 85.5582 13.2965   4
   5   1 -10 191.711 23.2894   2
   5   1 -10 128.701 19.2865   3
  -5  -1  10 170.941 27.6548   1
   4   1 -10 338.661 24.9568   2
   4   1 -10 290.781 26.2125   3
  -4  -1  10 279.069 27.8139   1
   3   1 -10 359.501 23.8538   3
   3   1 -10 315.866 24.7253   2
  -3  -1  10 244.244 25.6506   1
   2   1 -10 71.2167 14.3367   2
   2   1 -10 91.9060 16.4476   3
  -2  -1  10 73.7732 12.4616   1
   1   1 -10 250.812 19.0109   3
   1   1 -10 257.803 25.5211   2
  -1  -1  10 276.559 23.5477   1
  -1  -1  10 208.176 12.2604   4
   0   1 -10 196.510 24.8179   2
   0  -1  10 147.693 13.1526   4
   0  -1  10 182.421 23.2112   1
  -1   1 -10 85.9138 13.1543   1
   1  -1  10 106.528 15.0331   4
   2  -1  10 264.478 21.0995   4
   6   0 -10 46.4138 14.3133   2
   6   0 -10 50.7063 18.5466   3
   5   0 -10 95.1094 17.0040   3
   5   0 -10 88.7009 14.7295   2
  -5   0  10 101.297 17.7540   1
   4   0 -10 162.953 20.3267   2
   4   0 -10 205.184 22.6383   3
  -4   0  10 144.812 19.4841   1
   3   0 -10 403.647 27.5610   2
   3   0 -10 406.492 26.8396   3
  -3   0  10 424.112 28.5919   1
   2   0 -10 -19.233 10.4371   2
   2   0 -10 26.0975 11.7992   3
  -2   0  10 -0.8593 10.5258   1
   1   0 -10 120.804 21.4660   3
   1   0 -10 112.925 17.5842   2
  -1   0  10 139.795 20.8015   1
  -1   0  10 147.739 11.9037   4
   0   0 -10 477.495 33.4224   2
   0   0  10 434.648 28.8052   1
   0   0  10 451.580 20.6434   4
  -1   0 -10 19.0287 12.9850   1
  -1   0 -10 26.8916 15.6061   2
   1   0  10 26.5333 10.3677   4
   6  -1 -10 83.7698 16.3855   2
   6  -1 -10 95.7546 20.5961   3
   5  -1 -10 298.610 28.8092   3
   5  -1 -10 232.594 23.2670   2
  -5   1  10 259.534 27.6795   1
   4  -1 -10 163.731 20.6728   2
   4  -1 -10 96.3059 18.2895   3
  -4   1  10 129.631 23.4578   1
   3  -1 -10 143.722 23.9492   3
   3  -1 -10 179.343 21.3342   2
  -3   1  10 155.880 23.6032   1
   2  -1 -10 431.968 34.6061   3
   2  -1 -10 451.023 29.2993   2
  -2   1  10 367.098 17.4299   4
  -2   1  10 388.630 28.6715   1
   1  -1 -10 127.723 17.5022   2
   1  -1 -10 102.858 18.5583   3
  -1   1  10 145.257 21.5593   1
  -1   1  10 122.329 14.6913   4
   0   1  10 -5.3365 14.4537   1
   0   1  10 -0.4536 9.83607   4
  -1  -1 -10 55.0068 19.0408   2
   1   1  10 40.8497 13.2455   4
   5  -2 -10 2.32059 13.2775   2
   5  -2 -10 -1.5814 15.3055   3
  -5   2  10 50.3058 15.1867   1
   4  -2 -10 146.960 28.3404   3
   4  -2 -10 122.668 22.7366   2
  -4   2  10 170.038 26.1221   1
   3  -2 -10 11.1941 12.7651   2
   3  -2 -10 -12.766 15.8826   3
  -3   2  10 15.2350 13.6887   1
   2  -2 -10 441.901 36.1578   3
   2  -2 -10 453.397 30.4841   2
  -2   2  10 456.149 21.8478   4
  -2   2  10 372.012 28.9424   1
   1  -2 -10 434.372 40.2047   3
   1  -2 -10 418.307 31.9937   2
  -1   2  10 557.705 47.9197   1
  -1   2  10 394.618 23.6280   4
   0  -2 -10 4.41887 17.0300   2
   0  -2 -10 10.3832 25.6432   3
   0   2  10 -14.569 12.3531   4
   5  -3 -10 71.2055 22.8635   3
  -5   3  10 88.7244 20.0382   1
   4  -3 -10 111.049 15.9030   2
   4  -3 -10 119.362 23.9501   3
  -4   3  10 104.917 18.2612   1
   3  -3 -10 60.8648 20.9048   3
   3  -3 -10 66.6013 15.5325   2
  -3   3  10 56.4649 11.9153   4
  -3   3  10 69.3447 16.9994   1
   2  -3 -10 38.5364 21.8350   3
   2  -3 -10 36.5361 16.3214   2
  -2   3  10 20.8277 11.9159   4
   2   4 -11 272.500 29.0816   2
  -2  -4  11 209.136 31.2092   1
   1   4 -11 36.1124 16.3699   2
  -1  -4  11 41.9754 17.1694   1
   0   4 -11 57.0323 19.0535   2
   3   3 -11 57.6030 17.7614   2
  -3  -3  11 63.1540 17.3643   1
   2   3 -11 94.0909 16.9860   2
  -2  -3  11 100.705 17.5693   1
   1   3 -11 213.400 29.9360   2
  -1  -3  11 174.761 27.4499   1
   0   3 -11 232.772 32.2669   2
   0  -3  11 211.901 30.2253   1
  -1   3 -11 -0.0929 13.8366   1
   4   2 -11 105.555 18.0502   2
   4   2 -11 56.4675 16.9569   3
  -4  -2  11 81.2673 19.0311   1
   3   2 -11 184.315 25.8703   2
  -3  -2  11 162.097 26.0163   1
   2   2 -11 15.1266 15.3806   2
  -2  -2  11 60.3246 14.9114   1
   1   2 -11 193.677 30.0580   2
  -1  -2  11 238.906 29.5418   1
   0   2 -11 519.661 38.8443   2
   0  -2  11 428.530 34.9232   1
   4   1 -11 135.768 25.5067   3
   4   1 -11 157.827 25.8821   2
  -4  -1  11 103.369 20.0692   1
   3   1 -11 161.647 22.9129   3
   3   1 -11 132.610 24.5277   2
  -3  -1  11 158.691 27.1002   1
   2   1 -11 -11.264 13.8691   2
  -2  -1  11 4.92194 14.3554   1
   1   1 -11 60.0726 17.1757   2
  -1  -1  11 23.4269 14.4077   1
   0   1 -11 17.9616 15.7003   2
   0  -1  11 0.89712 16.1984   1
   4   0 -11 266.295 27.3348   2
   4   0 -11 296.485 29.4472   3
  -4   0  11 297.844 30.4725   1
   3   0 -11 81.0560 16.5084   2
   3   0 -11 102.705 18.2072   3
  -3   0  11 110.956 18.9465   1
   2   0 -11 156.827 26.9165   2
   2   0 -11 149.008 25.1949   3
  -2   0  11 141.992 25.5235   1
   1   0 -11 284.416 30.2834   2
  -1   0  11 325.781 30.3771   1
   0   0 -11 -0.1306 18.1575   2
   0   0  11 -2.6234 16.6545   1
   4  -1 -11 15.3159 17.7608   3
   4  -1 -11 46.0430 14.7756   2
  -4   1  11 32.5117 16.7259   1
   3  -1 -11 5.23018 18.1480   3
   3  -1 -11 1.60216 15.1988   2
  -3   1  11 39.1657 16.2594   1
   2  -1 -11 302.924 33.8507   3
   2  -1 -11 249.197 29.3604   2
  -2   1  11 240.694 28.9169   1
   1  -1 -11 2.92189 16.9980   2
  -1   1  11 20.0900 16.7245   1
   3  -2 -11 172.732 28.1599   3
   3  -2 -11 170.230 29.8812   2
  -3   2  11 164.732 22.7549   1
   0   0   0    0.00    0.00   0

 _exptl_absorpt_process_details
)
 SADABS 2016/2: Krause, L., Herbst-Irmer, R., Sheldrick G.M. & Stalke D.,
 J. Appl. Cryst. 48 (2015) 3-10
)
 _exptl_absorpt_correction_type   multi-scan
 _exptl_absorpt_correction_T_max  0.7456
 _exptl_absorpt_correction_T_min  0.6859
 _exptl_special_details
)
 The following wavelength and cell were deduced by SADABS from the
 direction cosines etc. They are given here for emergency use only:
 CELL 0.71087    6.298    6.791    9.163   99.016  105.044  108.694
)
;
_shelx_hkl_checksum              6487
_olex2_submission_special_instructions 'No special instructions were received'
loop_
_space_group_symop_operation_xyz
'x, y, z'
'-x, -y, -z'
loop_
_atom_site_label
_atom_site_type_symbol
_atom_site_fract_x
_atom_site_fract_y
_atom_site_fract_z
_atom_site_U_iso_or_equiv
_atom_site_adp_type
_atom_site_occupancy
_atom_site_site_symmetry_order
_atom_site_calc_flag
_atom_site_refinement_flags_posn
_atom_site_refinement_flags_adp
_atom_site_refinement_flags_occupancy
Cu1 Cu 0.5000 1.0000 0.5000 0.00832(14) Uani 1 2 d S T P
O1 O 0.3413(3) 1.2026(3) 0.5406(2) 0.0107(4) Uani 1 1 d . . .
O2 O 0.7405(3) 1.2724(3) 0.4063(2) 0.0141(4) Uani 1 1 d . . .
H2A H 0.6495 1.3176 0.3391 0.021 Uiso 1 1 d GR . .
H2B H 0.8116 1.2158 0.3492 0.021 Uiso 1 1 d GR . .
O4 O -0.1193(3) 0.7093(3) -0.2921(2) 0.0133(4) Uani 1 1 d . . .
H4 H -0.2177 0.7251 -0.3664 0.020 Uiso 1 1 calc GR . .
O3 O -0.4309(3) 0.5660(3) -0.2155(2) 0.0125(4) Uani 1 1 d . . .
N1 N 0.2673(4) 0.8716(3) 0.2820(2) 0.0093(4) Uani 1 1 d . . .
C4 C 0.0317(4) 0.7954(4) 0.2524(3) 0.0107(5) Uani 1 1 d . . .
H4A H -0.0271 0.7922 0.3379 0.013 Uiso 1 1 calc R . .
C1 C -0.2128(5) 0.6610(4) -0.1911(3) 0.0097(5) Uani 1 1 d . . .
C5 C 0.3480(4) 0.8700(4) 0.1595(3) 0.0094(5) Uani 1 1 d . . .
H5 H 0.5145 0.9176 0.1794 0.011 Uiso 1 1 calc R . .
C2 C -0.0451(4) 0.7290(4) -0.0241(3) 0.0085(5) Uani 1 1 d . . .
C3 C -0.1294(4) 0.7209(4) 0.1012(3) 0.0105(5) Uani 1 1 d . . .
H3 H -0.2954 0.6652 0.0838 0.013 Uiso 1 1 calc R . .
C6 C 0.1991(4) 0.8022(4) 0.0068(3) 0.0094(5) Uani 1 1 d . . .
H6 H 0.2623 0.8054 -0.0767 0.011 Uiso 1 1 calc R . .
H1 H 0.397(6) 1.288(6) 0.592(4) 0.009(10) Uiso 1 1 d . . .
loop_
_atom_site_aniso_label
_atom_site_aniso_U_11
_atom_site_aniso_U_22
_atom_site_aniso_U_33
_atom_site_aniso_U_23
_atom_site_aniso_U_13
_atom_site_aniso_U_12
Cu1 0.0074(2) 0.0118(2) 0.0048(2) 0.00067(17) 0.00047(16) 0.00436(17)
O1 0.0103(9) 0.0106(10) 0.0079(9) -0.0019(8) 0.0007(8) 0.0037(8)
O2 0.0129(9) 0.0181(10) 0.0136(9) 0.0070(8) 0.0051(8) 0.0066(8)
O4 0.0142(9) 0.0214(10) 0.0064(9) 0.0058(8) 0.0019(7) 0.0095(8)
O3 0.0093(9) 0.0144(9) 0.0105(9) 0.0021(7) 0.0000(7) 0.0035(7)
N1 0.0102(10) 0.0103(10) 0.0078(10) 0.0024(8) 0.0026(8) 0.0048(8)
C4 0.0103(12) 0.0121(12) 0.0100(12) 0.0026(10) 0.0041(10) 0.0040(10)
C1 0.0135(12) 0.0076(12) 0.0083(12) 0.0013(9) 0.0017(10) 0.0062(10)
C5 0.0077(11) 0.0099(12) 0.0112(12) 0.0032(10) 0.0031(9) 0.0038(10)
C2 0.0112(12) 0.0055(11) 0.0088(12) 0.0019(9) 0.0024(9) 0.0039(9)
C3 0.0094(11) 0.0100(12) 0.0116(12) 0.0026(10) 0.0024(10) 0.0042(10)
C6 0.0128(12) 0.0103(12) 0.0072(12) 0.0039(10) 0.0046(10) 0.0052(10)
loop_
_atom_type_symbol
_atom_type_description
_atom_type_scat_dispersion_real
_atom_type_scat_dispersion_imag
_atom_type_scat_source
C C 0.0033 0.0016 'International Tables Vol C Tables 4.2.6.8 and 6.1.1.4'
H H 0.0000 0.0000 'International Tables Vol C Tables 4.2.6.8 and 6.1.1.4'
Cu Cu 0.3201 1.2651 'International Tables Vol C Tables 4.2.6.8 and 6.1.1.4'
N N 0.0061 0.0033 'International Tables Vol C Tables 4.2.6.8 and 6.1.1.4'
O O 0.0106 0.0060 'International Tables Vol C Tables 4.2.6.8 and 6.1.1.4'
loop_
_geom_angle_atom_site_label_1
_geom_angle_atom_site_label_2
_geom_angle_atom_site_label_3
_geom_angle
_geom_angle_site_symmetry_1
_geom_angle_site_symmetry_3
O1 Cu1 O1 180.0 2_676 .
O1 Cu1 O2 94.12(7) 2_676 .
O1 Cu1 O2 85.88(7) 2_676 2_676
O1 Cu1 O2 85.88(7) . .
O1 Cu1 O2 94.12(7) . 2_676
O1 Cu1 N1 90.09(8) 2_676 2_676
O1 Cu1 N1 90.09(8) . .
O1 Cu1 N1 89.91(8) . 2_676
O1 Cu1 N1 89.91(8) 2_676 .
O2 Cu1 O2 180.0 . 2_676
N1 Cu1 O2 88.88(8) 2_676 2_676
N1 Cu1 O2 91.12(8) 2_676 .
N1 Cu1 O2 88.88(8) . .
N1 Cu1 O2 91.12(8) . 2_676
N1 Cu1 N1 180.0 2_676 .
C4 N1 Cu1 122.41(17) . .
C4 N1 C5 118.1(2) . .
C5 N1 Cu1 119.37(17) . .
N1 C4 C3 122.4(2) . .
O4 C1 O3 126.0(2) . .
O4 C1 C2 116.1(2) . .
O3 C1 C2 117.9(2) . .
N1 C5 C6 122.6(2) . .
C3 C2 C1 121.4(2) . .
C3 C2 C6 118.3(2) . .
C6 C2 C1 120.3(2) . .
C2 C3 C4 119.2(2) . .
C5 C6 C2 119.3(2) . .
loop_
_geom_bond_atom_site_label_1
_geom_bond_atom_site_label_2
_geom_bond_distance
_geom_bond_site_symmetry_2
Cu1 O1 1.986(2) 2_676
Cu1 O1 1.987(2) .
Cu1 O2 2.4148(18) 2_676
Cu1 O2 2.4148(18) .
Cu1 N1 2.003(2) 2_676
Cu1 N1 2.003(2) .
O4 C1 1.252(3) .
O3 C1 1.257(3) .
N1 C4 1.341(3) .
N1 C5 1.347(3) .
C4 C3 1.388(4) .
C1 C2 1.516(3) .
C5 C6 1.375(3) .
C2 C3 1.385(4) .
C2 C6 1.390(3) .
