#------------------------------------------------------------------------------
#$Date: 2019-11-26 01:07:51 +0200 (Tue, 26 Nov 2019) $
#$Revision: 242235 $
#$URL: file:///home/coder/svn-repositories/cod/cif/4/13/22/4132234.cif $
#------------------------------------------------------------------------------
#
# This file is available in the Crystallography Open Database (COD),
# http://www.crystallography.net/
#
# All data on this site have been placed in the public domain by the
# contributors.
#
data_4132234
loop_
_publ_author_name
'Zhang, Linmeng'
'Zhang, Xiaocui'
'Yao, Zhuojun'
'Jiang, Shichao'
'Deng, Jiajie'
'Li, Bo'
'Yu, Zhipeng'
_publ_section_title
;
 Discovery of Fluorogenic Diarylsydnone-Alkene Photoligation: Conversion
 of ortho-Dual-Twisted Diarylsydnones into Planar Pyrazolines.
;
_journal_issue                   24
_journal_name_full               'Journal of the American Chemical Society'
_journal_page_first              7390
_journal_page_last               7394
_journal_paper_doi               10.1021/jacs.8b02493
_journal_volume                  140
_journal_year                    2018
_chemical_formula_moiety         'C16 H11 F3 N2 O3'
_chemical_formula_sum            'C16 H11 F3 N2 O3'
_chemical_formula_weight         336.27
_space_group_crystal_system      triclinic
_space_group_IT_number           2
_space_group_name_Hall           '-P 1'
_space_group_name_H-M_alt        'P -1'
_atom_sites_solution_hydrogens   geom
_atom_sites_solution_primary     direct
_audit_creation_date             2017-04-28
_audit_creation_method
;
Olex2 1.2
(compiled 2017.03.28 svn.r3405 for OlexSys, GUI svn.r5335)
;
_cell_angle_alpha                71.133(8)
_cell_angle_beta                 70.386(8)
_cell_angle_gamma                78.790(7)
_cell_formula_units_Z            2
_cell_length_a                   7.4972(6)
_cell_length_b                   10.1381(9)
_cell_length_c                   11.0921(9)
_cell_measurement_reflns_used    1702
_cell_measurement_temperature    293(2)
_cell_measurement_theta_max      26.5500
_cell_measurement_theta_min      3.9940
_cell_volume                     748.00(12)
_computing_cell_refinement
;
CrysAlisPro, Agilent Technologies,
Version 1.171.37.35 (release 13-08-2014 CrysAlis171 .NET)
(compiled Aug 13 2014,18:06:01)
;
_computing_data_collection
;
CrysAlisPro, Agilent Technologies,
Version 1.171.37.35 (release 13-08-2014 CrysAlis171 .NET)
(compiled Aug 13 2014,18:06:01)
;
_computing_data_reduction
;
CrysAlisPro, Agilent Technologies,
Version 1.171.37.35 (release 13-08-2014 CrysAlis171 .NET)
(compiled Aug 13 2014,18:06:01)
;
_computing_molecular_graphics    'Olex2 (Dolomanov et al., 2009)'
_computing_publication_material  'Olex2 (Dolomanov et al., 2009)'
_computing_structure_refinement  'ShelXL (Sheldrick, 2015)'
_computing_structure_solution    'ShelXS (Sheldrick, 2008)'
_diffrn_ambient_temperature      293.15
_diffrn_detector                 'CCD plate'
_diffrn_detector_area_resol_mean 16.0874
_diffrn_detector_type            Eos
_diffrn_measured_fraction_theta_full 0.998
_diffrn_measured_fraction_theta_max 0.998
_diffrn_measurement_details
;
#__ type_ start__ end____ width___ exp.time_
  1 omega  -83.00   12.00   1.0000    1.7500
omega____ theta____ kappa____ phi______ frames
    -      -14.9669  -77.0000  -60.0000 95

#__ type_ start__ end____ width___ exp.time_
  2 omega  -42.00   53.00   1.0000    1.7500
omega____ theta____ kappa____ phi______ frames
    -      -14.9669   77.0000   60.0000 95

#__ type_ start__ end____ width___ exp.time_
  3 omega  -87.00  -35.00   1.0000    1.7500
omega____ theta____ kappa____ phi______ frames
    -      -14.9669 -178.0000   90.0000 52

#__ type_ start__ end____ width___ exp.time_
  4 omega  -13.00   21.00   1.0000    1.7500
omega____ theta____ kappa____ phi______ frames
    -      -14.9669  -99.0000 -180.0000 34

#__ type_ start__ end____ width___ exp.time_
  5 omega    1.00   70.00   1.0000    1.7500
omega____ theta____ kappa____ phi______ frames
    -       16.8419   38.0000 -150.0000 69

#__ type_ start__ end____ width___ exp.time_
  6 omega   52.00   84.00   1.0000    1.7500
omega____ theta____ kappa____ phi______ frames
    -       16.8419   57.0000 -150.0000 32
;
_diffrn_measurement_device       'four-circle diffractometer'
_diffrn_measurement_device_type  'Xcalibur, Eos'
_diffrn_measurement_method       '\w scans'
_diffrn_orient_matrix_UB_11      0.0422962000
_diffrn_orient_matrix_UB_12      -0.0384954000
_diffrn_orient_matrix_UB_13      0.0510575000
_diffrn_orient_matrix_UB_21      -0.0480059000
_diffrn_orient_matrix_UB_22      0.0482649000
_diffrn_orient_matrix_UB_23      0.0373480000
_diffrn_orient_matrix_UB_31      -0.0780283000
_diffrn_orient_matrix_UB_32      -0.0413088000
_diffrn_orient_matrix_UB_33      0.0315713000
_diffrn_radiation_monochromator  graphite
_diffrn_radiation_probe          x-ray
_diffrn_radiation_type           MoK\a
_diffrn_radiation_wavelength     0.71073
_diffrn_reflns_av_R_equivalents  0.0153
_diffrn_reflns_av_unetI/netI     0.0348
_diffrn_reflns_Laue_measured_fraction_full 0.998
_diffrn_reflns_Laue_measured_fraction_max 0.998
_diffrn_reflns_limit_h_max       9
_diffrn_reflns_limit_h_min       -9
_diffrn_reflns_limit_k_max       12
_diffrn_reflns_limit_k_min       -10
_diffrn_reflns_limit_l_max       13
_diffrn_reflns_limit_l_min       -13
_diffrn_reflns_number            6106
_diffrn_reflns_point_group_measured_fraction_full 0.998
_diffrn_reflns_point_group_measured_fraction_max 0.998
_diffrn_reflns_theta_full        25.242
_diffrn_reflns_theta_max         26.369
_diffrn_reflns_theta_min         3.163
_diffrn_source                   'Enhance (Mo) X-ray Source'
_exptl_absorpt_coefficient_mu    0.129
_exptl_absorpt_correction_T_max  1.00000
_exptl_absorpt_correction_T_min  0.92861
_exptl_absorpt_correction_type   multi-scan
_exptl_absorpt_process_details
;
CrysAlisPro, Agilent Technologies,
Version 1.171.37.35 (release 13-08-2014 CrysAlis171 .NET)
(compiled Aug 13 2014,18:06:01)
Empirical absorption correction using spherical harmonics,
 implemented in SCALE3 ABSPACK scaling algorithm.
;
_exptl_crystal_density_diffrn    1.493
_exptl_crystal_density_method    'not measured'
_exptl_crystal_description
;
;
_exptl_crystal_F_000             344
_exptl_crystal_size_max          0.35
_exptl_crystal_size_mid          0.35
_exptl_crystal_size_min          0.3
_refine_diff_density_max         0.221
_refine_diff_density_min         -0.348
_refine_diff_density_rms         0.061
_refine_ls_extinction_method     none
_refine_ls_goodness_of_fit_ref   1.021
_refine_ls_hydrogen_treatment    constr
_refine_ls_matrix_type           full
_refine_ls_number_parameters     218
_refine_ls_number_reflns         3058
_refine_ls_number_restraints     0
_refine_ls_restrained_S_all      1.021
_refine_ls_R_factor_all          0.0865
_refine_ls_R_factor_gt           0.0517
_refine_ls_shift/su_max          0.001
_refine_ls_shift/su_mean         0.000
_refine_ls_structure_factor_coef Fsqd
_refine_ls_weighting_details
'w=1/[\s^2^(Fo^2^)+(0.0685P)^2^+0.1307P] where P=(Fo^2^+2Fc^2^)/3'
_refine_ls_weighting_scheme      calc
_refine_ls_wR_factor_gt          0.1212
_refine_ls_wR_factor_ref         0.1446
_reflns_Friedel_coverage         0.000
_reflns_number_gt                1952
_reflns_number_total             3058
_reflns_threshold_expression     'I > 2\s(I)'
_iucr_refine_instructions_details
;

    170427_s7_zlm.res created by SHELXL-2014/7

TITL 170427_s7_zlm in P-1 #2
REM reset to P-1 #2
CELL 0.71073 7.49722 10.13806 11.09213 71.1327 70.3856 78.7898
ZERR 2 0.0006 0.0009 0.00093 0.0078 0.0075 0.0071
LATT 1
SFAC C H F N O
UNIT 32 22 6 4 6
 
L.S. 4
PLAN  20
SIZE 0.3 0.35 0.35
TEMP 20
BOND $H
htab
conf
fmap 2
acta
SHEL 999 0.8
REM <olex2.extras>
REM <HklSrc "%.\\170427_s7_zlm.hkl">
REM </olex2.extras>
 
WGHT    0.068500    0.130700
FVAR      10.35799
F1    3    0.036553    0.348178    0.349749    11.00000    0.08853    0.16871 =
         0.05219    0.00830   -0.03031   -0.01932
F2    3   -0.195528    0.365575    0.517375    11.00000    0.07892    0.17880 =
         0.10550   -0.07011   -0.05007    0.04600
F3    3   -0.101945    0.172485    0.475896    11.00000    0.12744    0.11293 =
         0.14149   -0.02812   -0.08412   -0.03023
O1    5    0.698724    0.039539    0.886907    11.00000    0.06337    0.06257 =
         0.05824   -0.02055   -0.02585    0.01461
O2    5    0.658600   -0.065941    0.746798    11.00000    0.08761    0.05529 =
         0.05411   -0.02274   -0.02193    0.01821
O3    5    0.132898    0.727412    0.944780    11.00000    0.06833    0.04890 =
         0.06362   -0.02430   -0.01165   -0.00491
N1    4    0.506488    0.222195    0.861043    11.00000    0.04987    0.04689 =
         0.04098   -0.01216   -0.01592   -0.00157
N2    4    0.630608    0.160072    0.926166    11.00000    0.06063    0.06223 =
         0.05946   -0.02136   -0.02771    0.00564
C1    1    0.614604    0.033053    0.793254    11.00000    0.05807    0.05292 =
         0.03952   -0.01279   -0.01339    0.00356
C2    1    0.485632    0.154343    0.780885    11.00000    0.05227    0.04227 =
         0.03545   -0.01210   -0.01102    0.00013
C3    1    0.349075    0.192777    0.704783    11.00000    0.04906    0.03943 =
         0.03562   -0.01010   -0.00974   -0.00384
C4    1    0.166008    0.252880    0.751290    11.00000    0.05461    0.05859 =
         0.03811   -0.02023   -0.00864   -0.00340
AFIX  43
H4    2    0.128151    0.272152    0.833230    11.00000   -1.20000
AFIX   0
C5    1    0.039535    0.284423    0.677946    11.00000    0.04739    0.06003 =
         0.05028   -0.02147   -0.00821   -0.00157
AFIX  43
H5    2   -0.082122    0.326100    0.709622    11.00000   -1.20000
AFIX   0
C6    1    0.093962    0.253928    0.556898    11.00000    0.04970    0.04739 =
         0.04253   -0.01099   -0.01205   -0.00739
C7    1    0.273802    0.190164    0.511115    11.00000    0.05766    0.06340 =
         0.03851   -0.02241   -0.01102   -0.00366
AFIX  43
H7    2    0.309348    0.167579    0.430851    11.00000   -1.20000
AFIX   0
C8    1    0.400033    0.160104    0.583836    11.00000    0.04907    0.05624 =
         0.04377   -0.02080   -0.00976    0.00380
AFIX  43
H8    2    0.521029    0.117445    0.552217    11.00000   -1.20000
AFIX   0
C9    1   -0.039647    0.286438    0.476031    11.00000    0.05713    0.08000 =
         0.05237   -0.01794   -0.01741   -0.00521
C10   1    0.413994    0.356326    0.880512    11.00000    0.04938    0.04353 =
         0.04319   -0.01576   -0.01468   -0.00584
C11   1    0.427270    0.471937    0.771992    11.00000    0.06191    0.05411 =
         0.03756   -0.01339   -0.00726   -0.00551
AFIX  43
H11   2    0.496630    0.464368    0.687131    11.00000   -1.20000
AFIX   0
C12   1    0.336623    0.599836    0.789872    11.00000    0.06105    0.04598 =
         0.04155   -0.00747   -0.01219   -0.00753
AFIX  43
H12   2    0.345282    0.678992    0.717186    11.00000   -1.20000
AFIX   0
C13   1    0.233322    0.609000    0.916351    11.00000    0.04776    0.04382 =
         0.04676   -0.01906   -0.01263   -0.00809
C14   1    0.225470    0.491623    1.024521    11.00000    0.06773    0.05525 =
         0.03798   -0.01822   -0.00879   -0.01016
AFIX  43
H14   2    0.158496    0.499082    1.109781    11.00000   -1.20000
AFIX   0
C15   1    0.315184    0.364206    1.007800    11.00000    0.06694    0.04829 =
         0.03564   -0.00926   -0.01353   -0.01179
AFIX  43
H15   2    0.309313    0.285353    1.080559    11.00000   -1.20000
AFIX   0
C16   1    0.151837    0.855182    0.841084    11.00000    0.08636    0.04763 =
         0.08299   -0.01683   -0.02890    0.00241
AFIX 137
H16A  2    0.100044    0.850311    0.774533    11.00000   -1.50000
H16B  2    0.283972    0.870404    0.801478    11.00000   -1.50000
H16C  2    0.084289    0.931147    0.877185    11.00000   -1.50000
AFIX   0
HKLF 4
 
REM  170427_s7_zlm in P-1 #2
REM R1 =  0.0517 for    1952 Fo > 4sig(Fo)  and  0.0865 for all    3058 data
REM    218 parameters refined using      0 restraints
 
END  
     
WGHT      0.0682      0.1325 

REM Instructions for potential hydrogen bonds
EQIV $1 x, y, z+1
HTAB C14 F1_$1
EQIV $2 -x+1, -y, -z+2
HTAB C15 O2_$2

REM Highest difference peak  0.221,  deepest hole -0.348,  1-sigma level  0.061
Q1    1  -0.0468  0.4216  0.4196  11.00000  0.05    0.22
Q2    1  -0.1866  0.2430  0.5286  11.00000  0.05    0.21
Q3    1  -0.2750  0.3578  0.8231  11.00000  0.05    0.16
Q4    1  -0.0009  0.2229  0.4006  11.00000  0.05    0.16
Q5    1   0.7020  0.4741  0.7630  11.00000  0.05    0.16
Q6    1   0.5293 -0.1823  0.8374  11.00000  0.05    0.15
Q7    1  -0.1102  0.1337  0.4774  11.00000  0.05    0.15
Q8    1  -0.0356  0.6609  0.9432  11.00000  0.05    0.14
Q9    1  -0.2003  0.4642  0.6665  11.00000  0.05    0.14
Q10   1  -0.2399  0.3289  0.7616  11.00000  0.05    0.14
Q11   1   0.5057  0.3764  0.5943  11.00000  0.05    0.14
Q12   1  -0.1488  0.2764  0.7344  11.00000  0.05    0.14
Q13   1   0.1833  0.8890  0.7185  11.00000  0.05    0.14
Q14   1   0.4235  0.4100  0.6823  11.00000  0.05    0.14
Q15   1   0.0295  0.4716  1.0590  11.00000  0.05    0.13
Q16   1   0.7029 -0.0988  0.9979  11.00000  0.05    0.13
Q17   1   0.4978  0.5167  0.5405  11.00000  0.05    0.13
Q18   1  -0.0752  0.7937  1.0068  11.00000  0.05    0.13
Q19   1  -0.0204  0.8397  0.7981  11.00000  0.05    0.13
Q20   1  -0.0072  1.0381  0.7766  11.00000  0.05    0.13

  REM The information below was added by Olex2.
  REM
  REM R1 = 0.0517 for 1952 Fo > 4sig(Fo) and 0.0865 for all 6529 data
  REM n/a parameters refined using n/a restraints
  REM Highest difference peak 0.22, deepest hole -0.35
  REM Mean Shift 0, Max Shift 0.001.

  REM +++ Tabular Listing of Refinement Information +++
  REM R1_all = 0.0865
  REM R1_gt = 0.0517
  REM wR_ref = 0.1446
  REM GOOF = 1.021
  REM Shift_max = 0.001
  REM Shift_mean = 0
  REM Reflections_all = 6529
  REM Reflections_gt = 1952
  REM Parameters = n/a
  REM Hole = -0.35
  REM Peak = 0.22
  REM Flack = n/a

  
;
_cod_data_source_file            ja8b02493_si_003.cif
_cod_data_source_block           170427_s7_zlm
_cod_database_code               4132234
_shelx_shelxl_version_number     2014/7
_chemical_oxdiff_formula         c12h12n2o3
_shelx_space_group_comment
;
The symmetry employed for this shelxl refinement is uniquely defined
by the following loop, which should always be used as a source of
symmetry information in preference to the above space-group names.
They are only intended as comments.
;
_shelx_estimated_absorpt_t_max   0.962
_shelx_estimated_absorpt_t_min   0.956
_reflns_odcompleteness_completeness 99.84
_reflns_odcompleteness_iscentric 1
_reflns_odcompleteness_theta     26.32
_olex2_refinement_description
;
1. Fixed Uiso
 At 1.2 times of:
  All C(H) groups
 At 1.5 times of:
  All C(H,H,H) groups
2.a Aromatic/amide H refined with riding coordinates:
 C4(H4), C5(H5), C7(H7), C8(H8), C11(H11), C12(H12), C14(H14), C15(H15)
2.b Idealised Me refined as rotating group:
 C16(H16A,H16B,H16C)
;
_olex2_submission_special_instructions 'No special instructions were received'
loop_
_space_group_symop_operation_xyz
'x, y, z'
'-x, -y, -z'
loop_
_atom_site_label
_atom_site_type_symbol
_atom_site_fract_x
_atom_site_fract_y
_atom_site_fract_z
_atom_site_U_iso_or_equiv
_atom_site_adp_type
_atom_site_occupancy
_atom_site_site_symmetry_order
_atom_site_calc_flag
_atom_site_refinement_flags_posn
F1 F 0.0366(2) 0.3482(2) 0.34975(16) 0.1095(7) Uani 1 1 d .
F2 F -0.1955(2) 0.3656(2) 0.5174(2) 0.1159(8) Uani 1 1 d .
F3 F -0.1019(3) 0.1725(2) 0.4759(2) 0.1147(7) Uani 1 1 d .
O1 O 0.6987(2) 0.03954(17) 0.88691(16) 0.0614(5) Uani 1 1 d .
O2 O 0.6586(3) -0.06594(17) 0.74680(16) 0.0672(5) Uani 1 1 d .
O3 O 0.1329(2) 0.72741(17) 0.94478(17) 0.0603(4) Uani 1 1 d .
N1 N 0.5065(2) 0.22219(18) 0.86104(17) 0.0457(4) Uani 1 1 d .
N2 N 0.6306(3) 0.1601(2) 0.9262(2) 0.0587(5) Uani 1 1 d .
C1 C 0.6146(3) 0.0331(2) 0.7933(2) 0.0518(6) Uani 1 1 d .
C2 C 0.4856(3) 0.1543(2) 0.7809(2) 0.0442(5) Uani 1 1 d .
C3 C 0.3491(3) 0.1928(2) 0.7048(2) 0.0422(5) Uani 1 1 d .
C4 C 0.1660(3) 0.2529(2) 0.7513(2) 0.0504(6) Uani 1 1 d .
H4 H 0.1282 0.2722 0.8332 0.060 Uiso 1 1 calc R
C5 C 0.0395(3) 0.2844(2) 0.6779(2) 0.0532(6) Uani 1 1 d .
H5 H -0.0821 0.3261 0.7096 0.064 Uiso 1 1 calc R
C6 C 0.0940(3) 0.2539(2) 0.5569(2) 0.0469(5) Uani 1 1 d .
C7 C 0.2738(3) 0.1902(2) 0.5111(2) 0.0523(6) Uani 1 1 d .
H7 H 0.3093 0.1676 0.4309 0.063 Uiso 1 1 calc R
C8 C 0.4000(3) 0.1601(2) 0.5838(2) 0.0503(5) Uani 1 1 d .
H8 H 0.5210 0.1174 0.5522 0.060 Uiso 1 1 calc R
C9 C -0.0396(4) 0.2864(3) 0.4760(3) 0.0632(7) Uani 1 1 d .
C10 C 0.4140(3) 0.3563(2) 0.8805(2) 0.0440(5) Uani 1 1 d .
C11 C 0.4273(3) 0.4719(2) 0.7720(2) 0.0530(6) Uani 1 1 d .
H11 H 0.4966 0.4644 0.6871 0.064 Uiso 1 1 calc R
C12 C 0.3366(3) 0.5998(2) 0.7899(2) 0.0511(6) Uani 1 1 d .
H12 H 0.3453 0.6790 0.7172 0.061 Uiso 1 1 calc R
C13 C 0.2333(3) 0.6090(2) 0.9164(2) 0.0443(5) Uani 1 1 d .
C14 C 0.2255(3) 0.4916(2) 1.0245(2) 0.0535(6) Uani 1 1 d .
H14 H 0.1585 0.4991 1.1098 0.064 Uiso 1 1 calc R
C15 C 0.3152(3) 0.3642(2) 1.0078(2) 0.0504(6) Uani 1 1 d .
H15 H 0.3093 0.2854 1.0806 0.060 Uiso 1 1 calc R
C16 C 0.1518(4) 0.8552(3) 0.8411(3) 0.0729(8) Uani 1 1 d .
H16A H 0.1000 0.8503 0.7745 0.109 Uiso 1 1 calc GR
H16B H 0.2840 0.8704 0.8015 0.109 Uiso 1 1 calc GR
H16C H 0.0843 0.9311 0.8772 0.109 Uiso 1 1 calc GR
loop_
_atom_site_aniso_label
_atom_site_aniso_U_11
_atom_site_aniso_U_22
_atom_site_aniso_U_33
_atom_site_aniso_U_23
_atom_site_aniso_U_13
_atom_site_aniso_U_12
F1 0.0885(12) 0.1687(19) 0.0522(10) 0.0083(11) -0.0303(9) -0.0193(12)
F2 0.0789(11) 0.179(2) 0.1055(15) -0.0701(14) -0.0501(11) 0.0460(12)
F3 0.1274(15) 0.1129(15) 0.1415(18) -0.0281(13) -0.0841(14) -0.0302(13)
O1 0.0634(10) 0.0626(11) 0.0582(10) -0.0205(8) -0.0259(8) 0.0146(8)
O2 0.0876(12) 0.0553(11) 0.0541(11) -0.0227(9) -0.0219(9) 0.0182(9)
O3 0.0683(10) 0.0489(10) 0.0636(11) -0.0243(8) -0.0116(8) -0.0049(8)
N1 0.0499(10) 0.0469(11) 0.0410(10) -0.0122(8) -0.0159(8) -0.0016(8)
N2 0.0606(12) 0.0622(13) 0.0595(13) -0.0214(10) -0.0277(10) 0.0056(10)
C1 0.0581(13) 0.0529(14) 0.0395(12) -0.0128(11) -0.0134(11) 0.0036(11)
C2 0.0523(12) 0.0423(12) 0.0355(11) -0.0121(9) -0.0110(10) 0.0001(10)
C3 0.0491(12) 0.0394(12) 0.0356(11) -0.0101(9) -0.0097(9) -0.0038(9)
C4 0.0546(13) 0.0586(15) 0.0381(12) -0.0202(11) -0.0086(10) -0.0034(11)
C5 0.0474(12) 0.0600(15) 0.0503(14) -0.0215(11) -0.0082(11) -0.0016(11)
C6 0.0497(12) 0.0474(13) 0.0425(12) -0.0110(10) -0.0121(10) -0.0074(10)
C7 0.0577(13) 0.0634(15) 0.0385(12) -0.0224(11) -0.0110(11) -0.0037(11)
C8 0.0491(12) 0.0562(14) 0.0438(13) -0.0208(11) -0.0098(10) 0.0038(10)
C9 0.0571(15) 0.0800(19) 0.0524(16) -0.0179(14) -0.0174(13) -0.0052(13)
C10 0.0494(12) 0.0435(12) 0.0432(12) -0.0158(10) -0.0147(10) -0.0058(9)
C11 0.0619(14) 0.0541(15) 0.0376(12) -0.0134(11) -0.0073(11) -0.0055(11)
C12 0.0610(14) 0.0460(13) 0.0415(13) -0.0075(10) -0.0122(11) -0.0075(11)
C13 0.0478(12) 0.0438(13) 0.0468(13) -0.0191(10) -0.0126(10) -0.0081(9)
C14 0.0677(14) 0.0553(15) 0.0380(13) -0.0182(11) -0.0088(11) -0.0102(12)
C15 0.0669(14) 0.0483(13) 0.0356(12) -0.0093(10) -0.0135(11) -0.0118(11)
C16 0.0864(19) 0.0476(15) 0.083(2) -0.0168(14) -0.0289(16) 0.0024(14)
loop_
_atom_type_symbol
_atom_type_description
_atom_type_scat_dispersion_real
_atom_type_scat_dispersion_imag
_atom_type_scat_source
C C 0.0033 0.0016 'International Tables Vol C Tables 4.2.6.8 and 6.1.1.4'
H H 0.0000 0.0000 'International Tables Vol C Tables 4.2.6.8 and 6.1.1.4'
F F 0.0171 0.0103 'International Tables Vol C Tables 4.2.6.8 and 6.1.1.4'
N N 0.0061 0.0033 'International Tables Vol C Tables 4.2.6.8 and 6.1.1.4'
O O 0.0106 0.0060 'International Tables Vol C Tables 4.2.6.8 and 6.1.1.4'
loop_
_geom_angle_atom_site_label_1
_geom_angle_atom_site_label_2
_geom_angle_atom_site_label_3
_geom_angle
N2 O1 C1 110.79(15)
C13 O3 C16 118.5(2)
N2 N1 C2 115.32(18)
N2 N1 C10 116.35(16)
C2 N1 C10 128.29(17)
N1 N2 O1 104.06(15)
O1 C1 C2 104.28(18)
O2 C1 O1 120.00(19)
O2 C1 C2 135.7(2)
N1 C2 C1 105.51(18)
N1 C2 C3 127.37(19)
C1 C2 C3 126.99(19)
C4 C3 C2 122.69(19)
C4 C3 C8 118.36(19)
C8 C3 C2 118.82(19)
C3 C4 H4 119.5
C5 C4 C3 121.0(2)
C5 C4 H4 119.5
C4 C5 H5 120.1
C4 C5 C6 119.8(2)
C6 C5 H5 120.1
C5 C6 C9 120.9(2)
C7 C6 C5 119.9(2)
C7 C6 C9 119.1(2)
C6 C7 H7 120.0
C8 C7 C6 120.1(2)
C8 C7 H7 120.0
C3 C8 H8 119.6
C7 C8 C3 120.8(2)
C7 C8 H8 119.6
F1 C9 F2 106.7(2)
F1 C9 F3 104.3(2)
F1 C9 C6 113.5(2)
F2 C9 F3 104.4(2)
F2 C9 C6 114.4(2)
F3 C9 C6 112.7(2)
C11 C10 N1 119.29(19)
C11 C10 C15 121.8(2)
C15 C10 N1 118.91(19)
C10 C11 H11 120.3
C10 C11 C12 119.5(2)
C12 C11 H11 120.3
C11 C12 H12 120.3
C13 C12 C11 119.5(2)
C13 C12 H12 120.3
O3 C13 C12 124.5(2)
O3 C13 C14 115.6(2)
C12 C13 C14 119.9(2)
C13 C14 H14 119.5
C15 C14 C13 121.0(2)
C15 C14 H14 119.5
C10 C15 H15 120.9
C14 C15 C10 118.3(2)
C14 C15 H15 120.9
O3 C16 H16A 109.5
O3 C16 H16B 109.5
O3 C16 H16C 109.5
H16A C16 H16B 109.5
H16A C16 H16C 109.5
H16B C16 H16C 109.5
loop_
_geom_bond_atom_site_label_1
_geom_bond_atom_site_label_2
_geom_bond_distance
F1 C9 1.310(3)
F2 C9 1.317(3)
F3 C9 1.328(3)
O1 N2 1.377(2)
O1 C1 1.408(3)
O2 C1 1.214(3)
O3 C13 1.357(3)
O3 C16 1.421(3)
N1 N2 1.309(2)
N1 C2 1.349(3)
N1 C10 1.449(3)
C1 C2 1.408(3)
C2 C3 1.458(3)
C3 C4 1.387(3)
C3 C8 1.396(3)
C4 H4 0.9300
C4 C5 1.377(3)
C5 H5 0.9300
C5 C6 1.384(3)
C6 C7 1.381(3)
C6 C9 1.483(3)
C7 H7 0.9300
C7 C8 1.371(3)
C8 H8 0.9300
C10 C11 1.373(3)
C10 C15 1.377(3)
C11 H11 0.9300
C11 C12 1.384(3)
C12 H12 0.9300
C12 C13 1.380(3)
C13 C14 1.384(3)
C14 H14 0.9300
C14 C15 1.374(3)
C15 H15 0.9300
C16 H16A 0.9600
C16 H16B 0.9600
C16 H16C 0.9600
loop_
_geom_torsion_atom_site_label_1
_geom_torsion_atom_site_label_2
_geom_torsion_atom_site_label_3
_geom_torsion_atom_site_label_4
_geom_torsion
O1 C1 C2 N1 1.8(2)
O1 C1 C2 C3 -174.3(2)
O2 C1 C2 N1 179.7(3)
O2 C1 C2 C3 3.7(4)
O3 C13 C14 C15 177.43(18)
N1 C2 C3 C4 -35.5(3)
N1 C2 C3 C8 148.6(2)
N1 C10 C11 C12 178.98(18)
N1 C10 C15 C14 -178.92(18)
N2 O1 C1 O2 179.6(2)
N2 O1 C1 C2 -2.0(2)
N2 N1 C2 C1 -1.0(3)
N2 N1 C2 C3 175.0(2)
N2 N1 C10 C11 122.7(2)
N2 N1 C10 C15 -57.3(3)
C1 O1 N2 N1 1.5(2)
C1 C2 C3 C4 139.7(2)
C1 C2 C3 C8 -36.2(3)
C2 N1 N2 O1 -0.3(2)
C2 N1 C10 C11 -55.1(3)
C2 N1 C10 C15 125.0(2)
C2 C3 C4 C5 -178.3(2)
C2 C3 C8 C7 177.8(2)
C3 C4 C5 C6 1.0(3)
C4 C3 C8 C7 1.7(3)
C4 C5 C6 C7 0.9(3)
C4 C5 C6 C9 179.8(2)
C5 C6 C7 C8 -1.6(3)
C5 C6 C9 F1 133.6(3)
C5 C6 C9 F2 10.9(4)
C5 C6 C9 F3 -108.1(3)
C6 C7 C8 C3 0.2(3)
C7 C6 C9 F1 -47.5(3)
C7 C6 C9 F2 -170.2(2)
C7 C6 C9 F3 70.8(3)
C8 C3 C4 C5 -2.4(3)
C9 C6 C7 C8 179.5(2)
C10 N1 N2 O1 -178.34(17)
C10 N1 C2 C1 176.8(2)
C10 N1 C2 C3 -7.2(4)
C10 C11 C12 C13 -0.4(3)
C11 C10 C15 C14 1.2(3)
C11 C12 C13 O3 -177.30(19)
C11 C12 C13 C14 1.8(3)
C12 C13 C14 C15 -1.8(3)
C13 C14 C15 C10 0.3(3)
C15 C10 C11 C12 -1.1(3)
C16 O3 C13 C12 -7.9(3)
C16 O3 C13 C14 173.0(2)
loop_
_refln_index_h
_refln_index_k
_refln_index_l
_refln_F_squared_meas
_refln_F_squared_sigma
_refln_scale_group_code
0 0 -2 27710.3 496.975 2
0 0 -2 26455.6 470.931 6
0 0 2 27987.8 507.874 2
0 0 -3 151639 1361.64 6
0 0 3 151650 1449.68 2
0 0 -3 150820 1435.15 2
0 0 -4 91980 1309.76 2
0 0 -4 91764.7 1236.55 6
0 0 4 93622.5 1312.26 2
0 0 5 38470.2 949.978 2
0 0 -5 40247.7 919.907 6
0 0 -5 41219.3 987.289 2
0 0 6 35.6321 129.557 2
0 0 7 11963.5 645.723 2
0 0 8 4746.65 455.96 2
0 0 9 9661.55 701.78 2
0 0 10 201.297 193.142 2
0 0 11 2271.35 408.218 2
0 0 12 321.243 256.803 2
0 -1 12 280.644 237.226 2
0 -1 11 313.133 202.073 2
0 -1 10 2229.23 409.094 2
0 -1 9 -34.2891 177.02 2
0 -1 8 1187.35 278.599 2
0 -1 7 12076.2 679.732 2
0 -1 6 4911.56 410.314 2
0 -1 5 5154.18 382.293 2
0 1 -5 4881.65 327.715 5
0 1 -5 4991.93 367.235 2
0 1 -5 4800.3 317.035 6
0 1 -4 2601.59 209.077 6
0 1 -4 2462.02 234.534 2
0 -1 4 2122.22 223.263 2
0 1 -4 2582.55 214.43 5
0 1 -3 57651.1 836.3 5
0 1 -3 56356.3 806.34 6
0 -1 3 56117.3 953.193 2
0 1 -3 56930.9 940.862 2
0 -1 2 47334.5 743.678 2
0 1 -2 47384.8 620.651 5
0 1 -2 48597.8 758.802 2
0 -1 2 46859.8 591.862 6
0 1 -2 46429.1 583.774 6
0 1 -1 136103 1031.11 2
0 1 -1 134545 760.992 5
0 -1 1 135207 1050.18 2
0 -1 1 136213 654.283 6
0 -1 1 134158 744.021 5
0 1 -1 136252 648.974 6
0 1 2 78110 861.983 2
0 -1 -2 76869.3 851.729 6
0 -1 -2 78145 864.108 2
0 1 3 118539 1252.1 2
0 -1 -3 118453 1261.98 6
0 -1 -3 116926 1265 2
0 -1 -4 36548.4 813.106 2
0 -1 -4 36870.7 815.558 6
0 1 4 37355.5 824.639 2
0 -1 -5 2141.12 235.859 2
0 -1 -5 2477.26 243.508 6
0 1 5 2056.6 227.853 2
0 1 6 140575 1982.47 2
0 1 7 192.407 137.741 2
0 1 8 -88.6586 173.245 2
0 1 9 5578.96 513.397 2
0 1 10 5127.9 543.381 2
0 1 11 232.105 219.949 2
0 1 12 1250.17 350.784 2
0 1 13 861.06 322.171 2
0 -2 12 73.5485 185.041 2
0 -2 11 -602.428 270.673 2
0 -2 10 983.948 302.396 2
0 -2 9 7570.05 659.902 2
0 -2 8 7781.81 635.703 2
0 -2 7 2018.8 319.932 2
0 2 -6 39763.4 972.613 6
0 -2 6 39809.6 1193.71 2
0 -2 5 22866.1 833.044 2
0 2 -5 22835.6 697.345 5
0 2 -5 21935 645.064 6
0 2 -4 16174.6 619.183 2
0 2 -4 16309.1 526.503 5
0 2 -4 17312.9 501.8 6
0 -2 4 17642.7 673.996 2
0 2 -3 19120.6 447.76 6
0 -2 3 19546 643.555 2
0 2 -3 19360.5 617.387 2
0 2 -3 19768.9 503.264 5
0 2 -2 96618.4 926.374 5
0 2 -2 94839 1219.88 2
0 -2 2 96950.1 789.901 6
0 -2 2 95413.6 1283.09 2
0 -2 2 94587.3 886.088 5
0 2 -1 28490 616.881 2
0 2 -1 28609.4 400.064 5
0 -2 1 28446.6 393.199 5
0 -2 1 28479.1 587.555 1
0 2 -1 28658.7 595.054 1
0 -2 0 281221 1721.23 1
0 2 0 278422 1719.21 1
0 2 1 355995 1928.51 1
0 -2 -1 356491 1934.7 1
0 -2 -2 81327.6 561.555 3
0 -2 -2 80210.4 983.31 1
0 2 2 82120.4 986.453 1
0 2 2 80380.2 567.736 3
0 -2 -3 70898.5 1021.15 6
0 -2 -3 72662.7 1037.34 1
0 2 3 71098.5 1058.75 2
0 -2 -4 29739.9 766.684 2
0 -2 -4 27355.8 727.707 1
0 -2 -4 29322.1 754.279 6
0 2 4 28938.6 744.936 2
0 -2 -5 72791.5 1323.77 2
0 -2 -5 71548 1291.4 6
0 2 5 71899.8 1290.6 2
0 2 6 10708.2 559.919 2
0 2 7 523.646 176.425 2
0 2 8 -84.356 138.571 2
0 2 9 172.905 169.734 2
0 2 10 3601.34 455.597 2
0 2 11 1894.28 374.549 2
0 2 12 985.626 302.011 2
0 2 13 719.907 269.808 2
0 -3 11 -274.013 245.377 2
0 -3 10 28.1493 178.281 2
0 -3 9 4891.49 584.418 2
0 -3 8 2154.15 378.801 2
0 -3 7 1352.88 301.14 2
0 -3 6 -137.068 197.948 2
0 3 -5 3551.09 290.411 5
0 -3 5 4299.06 405.194 2
0 -3 4 17986.6 761.39 2
0 3 -4 18812.6 584.752 5
0 3 -3 417.918 143.687 1
0 3 -3 249.884 107.21 2
0 -3 2 12392.4 264.615 6
0 -3 2 12135.8 332.032 5
0 3 -2 12415.2 520.15 2
0 3 -2 11989.6 349.781 5
0 3 -2 12305.5 507.145 1
0 -3 1 136960 1534.13 1
0 3 -1 134109 1545.53 1
0 -3 1 137678 990.359 5
0 3 0 4745.35 284.745 1
0 -3 0 5015.23 286.767 1
0 -3 -1 54367.1 932.707 1
0 3 1 53924.7 914.431 1
0 3 2 5888.63 200.447 3
0 3 2 6141.23 320.368 1
0 -3 -2 5993.88 317.562 1
0 -3 -3 147335 1645.84 1
0 3 3 149006 1644.99 1
0 -3 -3 149432 1545.61 6
0 3 3 148627 915.092 3
0 -3 -3 149113 907.203 3
0 -3 -4 13130.8 522.693 6
0 -3 -4 12099.6 306.076 3
0 3 4 13202 551.248 2
0 -3 -4 12742.6 526.805 1
0 -3 -5 10590.5 328.17 3
0 -3 -5 11951.5 546.802 6
0 3 5 10357.6 521.469 2
0 -3 -5 10548 515.234 1
0 3 6 17001.8 721.119 2
0 3 7 418.374 175.867 2
0 3 8 -80.3444 154.335 2
0 3 9 1213.65 266.016 2
0 3 10 279.775 205.641 2
0 3 11 11854 851.479 2
0 3 12 79.8114 180.805 2
0 3 13 851.26 300.49 2
0 -4 11 1117.19 344.951 2
0 4 -11 1304.5 382.362 1
0 -4 10 3481.74 539.185 2
0 4 -10 3592.68 534.292 1
0 -4 9 547.736 262.2 2
0 -4 8 -58.1358 219.782 2
0 4 -7 996.103 285.776 1
0 -4 7 732.246 265.541 2
0 -4 6 239.24 160.718 2
0 4 -6 308.255 197.174 1
0 4 -5 4147.29 411.13 1
0 -4 5 3997.72 429.635 2
0 4 -5 4273.03 325.927 5
0 4 -4 15113.7 531.714 5
0 4 -4 16391 737.591 1
0 4 -3 1044.15 137.107 5
0 4 -3 793.959 179.493 1
0 4 -2 16050.9 662.248 2
0 4 -2 15839.6 648.238 1
0 4 -2 15954.1 427.798 5
0 -4 2 15900.9 409.039 5
0 -4 1 35522.2 569.36 5
0 4 -1 36947.5 928.494 1
0 -4 1 36375.5 905.72 1
0 -4 0 2286.63 235.832 1
0 4 0 1907.03 227.051 1
0 4 1 5665.22 360.698 1
0 -4 -1 5983.39 366.66 1
0 4 2 449.355 131.363 1
0 -4 -2 514.424 133.378 1
0 4 3 28307.4 804.126 1
0 -4 -3 28822.9 818.32 1
0 -4 -3 27395.8 697.493 6
0 4 3 29421.5 501.911 3
0 4 4 4250.58 337.747 1
0 -4 -4 3929 305.194 6
0 -4 -4 4266.34 337.965 1
0 4 5 29853.6 940.864 2
0 -4 -5 27753.6 492.705 3
0 4 6 8186.5 531.406 2
0 -4 -6 7696.46 294.054 3
0 4 7 8353.68 569.04 2
0 -4 -7 8380.75 349.486 3
0 4 8 3572.67 405.712 2
0 -4 -8 3238.79 247.458 3
0 4 9 1353.92 292.739 2
0 4 10 1507.86 314.94 2
0 4 11 225.364 232.829 2
0 4 12 478.549 262.06 2
0 4 13 -510.68 275.613 2
0 5 -10 933.173 301.983 1
0 5 -9 694.454 274.309 1
0 5 -8 265.34 209.058 1
0 5 -7 402.262 219.607 1
0 5 -6 797.29 232.175 1
0 5 -5 3269.11 410.266 1
0 5 -5 3311.23 289.919 5
0 5 -4 722.003 224.375 1
0 5 -4 924.247 141.979 5
0 -5 3 9296.47 356.865 5
0 5 -3 9584.31 595.451 1
0 5 -3 8880.57 373.948 5
0 -5 2 870.592 118.405 5
0 5 -2 882.885 215.515 1
0 -5 1 14799.1 407.511 5
0 5 -1 14837 671.549 1
0 -5 0 15485 432.371 5
0 5 0 15264.1 660.539 1
0 -5 0 14761.1 277.752 6
0 -5 -1 4167.28 343.992 1
0 5 1 4012.7 343.035 1
0 -5 -2 1788.83 245.109 1
0 5 2 1617.85 240.962 1
0 -5 -2 1783.2 175.786 6
0 -5 -3 66785.1 1118.8 6
0 5 3 65545.2 885.246 3
0 5 3 67747.2 1358.07 1
0 -5 -4 29437.7 826.769 6
0 5 4 28095.8 524.883 3
0 5 4 28352.1 911.88 1
0 5 5 65382.4 1451.63 1
0 -5 -6 1610.29 125.187 3
0 5 6 1293.66 253.631 2
0 -5 -7 145.403 64.115 3
0 5 7 55.1163 128.941 2
0 5 8 169.455 188.748 2
0 -5 -8 117.539 70.2247 3
0 5 9 585.887 207.799 2
0 -5 -9 391.571 100.187 3
0 5 10 15384.5 935.836 2
0 5 11 -45.2115 167.647 2
0 5 12 234.309 225.463 2
0 5 13 146.306 262.25 2
0 6 -9 -110.374 242.439 1
0 6 -8 281.272 224.949 1
0 6 -7 643.315 301.773 1
0 6 -6 10965.6 789.913 1
0 6 -5 2054.03 365.998 1
0 6 -4 188.03 187.9 1
0 6 -4 -151.718 80.5717 5
0 6 -3 6200.29 532.533 1
0 -6 2 3641.1 220.73 5
0 6 -2 3925.59 410.767 1
0 6 -1 1723.21 288.24 1
0 -6 1 1318.61 144.282 5
0 -6 0 11301.7 237.029 6
0 -6 0 12541.5 425.586 5
0 6 0 11402.6 634.311 1
0 -6 -1 97.1769 66.695 6
0 6 1 67.4807 152.386 1
0 -6 -2 71841.5 1041.27 6
0 6 2 76109.1 1566.28 1
0 6 3 20435.4 568.128 3
0 6 3 20718.5 833.358 1
0 -6 -3 20092.1 640.318 6
0 -6 -4 369.681 137.366 6
0 6 4 455.815 100.139 3
0 6 4 276.5 157.892 1
0 6 5 2891.48 179.207 3
0 6 5 3275.32 374.28 1
0 6 6 700.759 206.973 2
0 6 6 626.381 207.071 1
0 6 7 1520.68 302.167 2
0 6 8 1465.53 314.91 2
0 6 9 3794.93 473.38 2
0 6 10 2255.1 411.411 2
0 6 11 2107.72 404.937 2
0 6 12 314.51 221.866 2
0 6 13 1184.19 346.954 2
0 7 -8 387.385 258.863 1
0 7 -7 1051.47 324.048 1
0 7 -6 2881.4 469.057 1
0 7 -5 78.0687 208.905 1
0 7 -4 1006.92 297.345 1
0 7 -3 799.307 262.866 1
0 -7 2 7037.57 311.387 5
0 7 -2 6873.59 581.261 1
0 7 -1 20344.4 952.82 1
0 -7 1 19671.5 538.366 5
0 7 0 513.95 211.594 1
0 -7 0 281.724 98.6393 5
0 7 1 5234.29 474 1
0 -7 -1 5167.42 233.661 6
0 -7 -2 17996.6 534.806 6
0 7 2 17573.6 837.43 1
0 -7 -3 117.727 104.649 6
0 7 3 49.172 162.497 1
0 7 4 1254.2 264.023 1
0 -7 -4 1057.96 194.58 6
0 7 4 876.659 138.794 3
0 7 5 4990.76 473.589 1
0 7 5 4110.93 244.967 3
0 7 6 806.104 270.796 1
0 7 7 15712.3 875.248 1
0 7 7 13852.7 846.735 2
0 7 8 43821.4 1524.68 2
0 7 9 12810.3 877.523 2
0 7 10 262.129 217.074 2
0 7 11 1621.43 378.951 2
0 7 12 628.942 276.928 2
0 8 -7 482.944 332.334 1
0 8 -6 652.935 278.271 1
0 8 -5 795.961 283.242 1
0 8 -4 313.214 235.184 1
0 8 -3 -35.3136 222.539 1
0 8 -2 9806.93 744.374 1
0 -8 2 9498.63 362.033 5
0 8 -1 6840.11 614.025 1
0 -8 1 6446.23 323.729 5
0 8 0 1910.03 362.227 1
0 -8 0 1974.59 207.887 5
0 -8 -1 6205.6 245.982 6
0 -8 -1 6713.13 386.895 5
0 8 1 6982.02 592.339 1
0 -8 -2 128.834 93.9955 6
0 8 2 30.0252 190.814 1
0 8 3 451.91 212.831 1
0 -8 -3 297.303 131.794 6
0 8 4 -252.599 107.231 3
0 8 4 -77.0232 164.547 1
0 8 5 4917.08 305.595 3
0 8 5 5870.83 548.179 1
0 8 6 1286.11 301.996 1
0 8 7 87.6831 197.605 1
0 8 7 230.218 209.372 2
0 8 8 -81.1296 231.164 2
0 8 9 -31.1599 200.887 2
0 8 10 296.294 210.573 2
0 8 11 23.0318 165.099 2
0 8 12 1009.71 347.908 2
0 9 -6 725.552 340.331 1
0 9 -5 1120.58 333.954 1
0 9 -4 48.6898 208.277 1
0 9 -3 476.498 259.901 1
0 9 -2 1756.71 377.919 1
0 9 -1 6548.12 640.72 1
0 -9 0 24097 680.654 5
0 9 0 25651.7 1209.2 1
0 -9 -1 1466.93 207.929 5
0 9 1 1607.36 359.02 1
0 9 2 -210.587 266.972 1
0 9 3 153.655 195.671 1
0 9 4 19279.7 1020.57 1
0 9 5 5033.29 577.829 1
0 9 6 4221.53 521.657 1
0 9 7 154.574 217.852 1
0 9 8 1882.22 387.535 1
0 9 8 1972.65 378.995 2
0 9 9 175.277 238.563 2
0 9 10 -57.2374 173.985 2
0 9 11 309.023 237.822 2
0 10 -4 -25.8871 219.025 1
0 10 -3 -525.565 282.206 1
0 10 -2 476.431 248.79 1
0 10 -1 449.412 267.901 1
0 10 0 2024.3 423.539 1
0 10 1 127.345 229.626 1
0 10 2 4839.85 586.305 1
0 10 3 4799.13 577.025 1
0 10 4 721.241 295.008 1
0 10 5 732.441 323.05 1
0 10 6 4270.63 528.563 1
0 10 7 504.528 275.093 1
0 10 8 -27.8259 172.797 2
0 10 8 -120.386 170.921 1
0 10 9 30.6668 157.32 2
0 10 10 1105.17 322.509 2
0 11 -2 910.568 356.258 1
0 11 -1 147.384 214.457 1
0 11 0 14.7169 243.335 1
0 11 1 135.74 214.776 1
0 11 2 643.079 299.847 1
0 11 3 315.822 287.075 1
0 11 4 1323.79 357.934 1
0 11 5 5354.69 627.027 1
0 11 6 168.662 239.14 1
0 11 7 263.862 241.271 1
0 11 8 -13.4612 216.325 2
0 11 8 287.057 248.803 1
0 11 9 -129.545 203.202 2
0 12 0 -177.245 245.45 1
0 12 1 339.948 286.421 1
0 12 2 276.579 242.71 1
0 12 3 370.229 296.07 1
0 12 4 171.004 198.298 1
0 12 5 543.809 321.426 1
0 12 6 3669.72 561.14 1
0 12 7 70.4313 249.886 1
-1 12 4 -241.179 285.164 1
-1 12 3 -949.307 350.241 1
-1 12 2 121.43 241.209 1
-1 12 1 140.699 224.141 1
-1 11 8 599.676 277.644 1
-1 11 7 51.1137 207.545 1
-1 11 7 -108.762 244.53 2
-1 11 6 4429.98 608.102 1
-1 11 5 2062.75 426.558 1
-1 11 4 215.405 229.094 1
-1 11 3 -40.8754 202.381 1
-1 11 2 183.471 257.55 1
-1 11 1 540.598 285.304 1
-1 11 0 -154.517 245.241 1
-1 11 -1 294.972 222.694 1
-1 11 -2 359.809 239.835 1
-1 11 -3 -541.564 301.936 1
-1 10 9 -160.632 208.686 2
-1 10 8 194.136 237.165 2
-1 10 7 1810.73 390.123 1
-1 10 7 1345.68 367.979 2
-1 10 6 33.055 187.14 1
-1 10 5 934.074 350.806 1
-1 10 4 1917.44 424.567 1
-1 10 3 1110.01 342.795 1
-1 10 2 540.25 308.84 1
-1 10 1 -54.8579 209.821 1
-1 10 0 91.3531 188.827 1
-1 10 -1 1402 344.685 1
-1 10 -2 706.819 287.72 1
-1 10 -3 185.185 249.677 1
-1 10 -4 -281.82 257.905 1
-1 10 -5 206.331 240.781 1
-1 9 10 903.081 300.625 2
-1 9 9 891.145 304.825 2
-1 9 8 -103.595 251.124 2
-1 9 7 1706.91 367.532 1
-1 9 7 1634.56 383.557 2
-1 9 6 9895.96 800.173 1
-1 9 5 13145.5 895.375 1
-1 9 4 756.011 304.685 1
-1 9 3 4477.78 527.315 1
-1 9 2 5835.03 591.904 1
-1 9 1 1747.35 372.755 1
1 -9 -1 1858.27 269.25 5
-1 9 0 634.405 290.949 1
1 -9 0 751.59 179.55 5
1 -9 1 1821.15 243.455 5
-1 9 -1 1650.6 380.648 1
-1 9 -2 1434.61 359.206 1
-1 9 -3 -912.851 300.848 1
-1 9 -4 665.802 232.308 1
-1 9 -5 3028.38 514.694 1
-1 9 -6 481.65 317.825 1
-1 8 11 1896.58 427.862 2
-1 8 10 139.994 231.374 2
-1 8 9 -39.0405 200.793 2
-1 8 8 353.211 258.392 2
-1 8 7 12406.7 878.484 2
-1 8 6 5840.1 594.004 1
-1 8 6 5356.54 583.327 2
-1 8 5 9030.41 707.532 1
-1 8 4 4186.81 497.303 1
-1 8 4 3437.25 239.273 3
-1 8 3 -29.1728 190.278 1
-1 8 2 9184.83 678.766 1
-1 8 1 27907.2 1158.03 1
-1 8 0 7629.4 626.046 1
1 -8 0 7603.44 471.515 5
-1 8 -1 2975.14 435.583 1
1 -8 1 3127.59 305.29 5
1 -8 2 628.496 159.666 5
-1 8 -2 465.41 218.898 1
1 -8 3 2123.04 239.636 5
-1 8 -3 1888.32 357.289 1
-1 8 -4 549.835 260.778 1
-1 8 -5 2057.53 412.042 1
-1 8 -6 410.34 267.061 1
-1 8 -7 -75.3356 233.899 1
-1 8 -8 1187.42 369.446 1
-1 7 11 1258.5 362.196 2
-1 7 10 2011.27 402.651 2
-1 7 9 5127.39 581.975 2
-1 7 8 601.323 279.983 2
-1 7 7 -247.919 211.979 2
-1 7 6 -107.904 190.219 1
-1 7 6 101.389 210.598 2
-1 7 5 41666.5 1383.8 1
-1 7 4 13545.5 386.174 3
-1 7 4 15595.4 833.67 1
-1 7 3 274.835 193.629 1
-1 7 2 26.4628 180.35 1
-1 7 1 24751.9 1010.51 1
-1 7 0 16831.4 840.502 1
1 -7 0 16425.8 650.196 5
-1 7 -1 29353.1 1127.66 1
1 -7 1 28287.3 826.28 5
1 -7 2 -3.99153 40.4566 6
-1 7 -2 -61.4441 152.736 1
1 -7 2 25.7094 106.957 5
1 -7 3 570.383 63.8876 6
1 -7 3 571.114 161.903 5
-1 7 -3 702.86 278.98 1
-1 7 -4 1358.62 333.05 1
1 -7 4 1159.9 184.745 5
-1 7 -5 204.135 186.413 1
-1 7 -6 4175.45 538.51 1
-1 7 -7 1164.67 326.812 1
-1 7 -8 31.6369 243.019 1
-1 7 -9 -97.1856 244.518 1
-1 6 12 16.0105 163.581 2
-1 6 11 150.122 233.48 2
-1 6 10 1978.98 399.88 2
-1 6 9 2950.02 447.639 2
-1 6 8 229.797 215.579 2
-1 6 7 10482.4 736.657 2
-1 6 6 77825.1 1872.42 2
-1 6 5 32890.2 1179.53 2
-1 6 5 32935.9 1178.13 1
-1 6 4 4498.2 426.862 1
-1 6 4 4021 155.201 3
-1 6 3 12283 678.692 1
-1 6 2 1901.46 290.756 1
-1 6 1 2381.46 312.011 1
-1 6 0 10190 603.536 1
1 -6 0 9980.03 473.603 5
-1 6 -1 83.6119 152.533 1
1 -6 1 25.9891 99.5757 5
1 -6 2 3038.54 269.951 5
-1 6 -2 3083.4 364.636 1
1 -6 3 602.714 152.236 5
-1 6 -3 759.345 229.093 1
1 -6 3 923.838 104.588 6
1 -6 4 259.252 134.138 5
1 -6 4 427.904 90.9522 6
-1 6 -4 183.92 178.224 1
-1 6 -5 20590.8 1003.6 1
-1 6 -6 346.39 237.559 1
-1 6 -7 391.526 196.146 1
-1 6 -8 2769.82 455.936 1
-1 6 -9 1913.7 420.644 1
-1 6 -10 772.853 326.791 1
-1 5 12 2139.46 435.645 2
-1 5 11 99.6513 176.009 2
-1 5 10 3472.55 493.356 2
-1 5 9 1446.85 319.491 2
-1 5 8 166.381 178.45 2
-1 5 7 5339.12 510.856 2
-1 5 6 10512 663.653 2
-1 5 5 52.5731 129.581 2
-1 5 4 21519.9 849.627 1
-1 5 3 674.311 77.2307 3
-1 5 3 570.875 182.909 1
-1 5 2 28260.4 907.751 1
-1 5 1 11453 578.408 1
-1 5 0 20112.8 763.063 1
1 -5 1 50676.8 989.754 5
-1 5 -1 53636.7 1257.65 1
1 -5 2 78.5058 90.827 5
-1 5 -2 -7.171 134.646 1
1 -5 3 7046.34 274.208 6
1 -5 3 6824.3 378.934 5
-1 5 -3 6736.98 485.794 1
-1 5 -4 16882.7 647.135 5
1 -5 4 17534.2 621.418 5
-1 5 -4 16740.3 802.666 1
1 -5 4 17373.2 479.333 6
-1 5 -5 335.669 200.864 1
1 -5 5 438.778 146.939 5
1 -5 5 563.679 126.798 6
-1 5 -6 4052.04 457.789 1
-1 5 -7 -95.6278 203.521 1
-1 5 -8 917.168 278.375 1
-1 5 -9 666.176 261.244 1
-1 5 -10 2473.84 429.7 1
-1 5 -11 866.998 306.152 1
-1 4 12 384.623 241.82 2
-1 4 11 1907.03 377.913 2
-1 4 10 -234.832 205.166 2
-1 4 9 171.682 232.211 2
-1 4 8 -50.3281 174.274 2
-1 4 7 2367.05 125.39 4
1 -4 -7 2569.92 152.98 3
-1 4 6 30027.5 1053.1 2
-1 4 5 284.288 152.833 2
-1 4 4 1342.55 228.621 1
-1 4 4 957.319 208.56 2
1 -4 -3 5049.76 374.691 1
-1 4 3 4888.68 376.209 1
1 -4 -2 26084.7 799.436 1
-1 4 2 25772 792.419 1
-1 4 1 113125 1606.37 1
1 -4 -1 114263 1632.14 1
-1 4 0 7275.01 413.915 1
1 -4 0 6698.66 395.458 1
1 -4 1 19420.3 671.931 1
-1 4 -1 18236.4 658.394 1
1 -4 1 18581.7 557.849 5
1 -4 2 7399.24 429.441 1
1 -4 2 7118.16 353.055 5
-1 4 -2 7050.2 433.554 1
1 -4 3 5136.18 247.11 6
-1 4 -3 5056.45 384.268 2
-1 4 -3 5260.74 399.698 1
-1 4 -3 5666.95 339.321 5
1 -4 3 4968.86 311.827 5
-1 4 -4 16313.1 717.507 1
1 -4 4 16586.7 494.657 6
1 -4 4 16319.6 579.975 5
-1 4 -4 16648.3 619.082 5
1 -4 5 4052.36 282.103 6
-1 4 -5 3984.96 336.292 5
-1 4 -5 4068.93 394.186 1
1 -4 5 4351.5 336.488 5
-1 4 -6 2634.03 357.22 1
-1 4 -7 869.029 238.748 1
-1 4 -8 2771.72 404.991 1
-1 4 -9 4168.96 506.272 1
-1 4 -10 2216.28 415.545 1
-1 4 -11 406.528 262.314 1
-1 4 -12 960.996 347.595 1
-1 3 12 112.546 173.974 2
-1 3 11 -139.343 229.953 2
-1 3 10 7216 676.342 2
-1 3 9 1185.41 298.692 2
-1 3 8 -108.621 182.603 2
-1 3 7 -58.3124 158.324 2
-1 3 6 12961.2 251.528 4
-1 3 6 13746 696.773 2
-1 3 5 9133.55 536.165 2
1 -3 -4 10428.2 525.314 1
-1 3 4 11380.9 553.397 2
-1 3 3 68813.8 1260.44 2
-1 3 3 70409.7 1255.07 1
1 -3 -3 68504.4 1235.6 1
1 -3 -2 3721 276.836 1
-1 3 2 4082.06 291.363 1
-1 3 1 857.288 140.039 1
1 -3 -1 1052.84 146.151 1
1 -3 0 2884.81 230.604 1
-1 3 0 2684.5 225.082 1
1 -3 1 25589 604.002 5
-1 3 -1 24843.1 668.092 1
1 -3 1 23999.2 650.683 1
1 -3 2 1300.63 154.417 5
-1 3 -2 1218.86 164.144 2
-1 3 -2 1048.26 162.135 1
-1 3 -2 1263.86 151.727 5
1 -3 2 1185.3 160.396 1
-1 3 -3 154771 1854.22 1
-1 3 -3 155648 1849.86 2
-1 3 -3 152326 1657.82 5
1 -3 3 155132 1622.13 5
-1 3 -4 21687.6 678.512 5
-1 3 -4 20770.8 727.333 2
1 -3 4 21901.7 655.968 5
-1 3 -4 22107.6 746.015 1
1 -3 4 21724.2 568.125 6
1 -3 5 2573.36 228.296 6
-1 3 -5 2499.48 294.378 1
-1 3 -5 2222.12 252.166 5
1 -3 5 2466.02 307.877 2
1 -3 6 5114.92 455.364 2
1 -3 6 4825.12 350.29 6
-1 3 -6 4901.24 424.703 1
1 -3 7 1226.16 273.546 2
1 -3 8 1633.58 339.175 2
1 -3 9 1890.52 371.687 2
1 -3 10 747.493 291.92 2
1 -3 11 3222.92 520.157 2
-1 3 -12 1537.68 377.747 1
1 -3 12 795.593 314.239 2
-1 2 12 942.711 297.737 2
-1 2 11 214.308 195.048 2
-1 2 10 1511.14 359.293 2
-1 2 9 -62.4026 181.38 2
-1 2 8 758.12 239.05 2
-1 2 7 98.5666 153.21 2
-1 2 6 8893.57 553.547 2
-1 2 5 725.56 176.539 2
1 -2 -4 33697.6 884.493 1
-1 2 4 33466.3 437.694 4
1 -2 -4 34365.1 913.375 2
-1 2 4 33632.2 895.051 2
1 -2 -3 852.852 142.583 2
1 -2 -3 924.415 149.866 1
-1 2 3 1058.02 159.313 2
-1 2 2 162.813 83.8981 1
-1 2 2 -40.921 65.0805 2
1 -2 -2 52.7776 72.5672 1
1 -2 -1 4359.63 246.533 1
-1 2 1 4385.32 245.482 1
1 -2 0 116875 1184.21 1
-1 2 0 115873 1166.06 1
1 -2 1 97652.7 1077.85 1
-1 2 -1 98575 1099.25 1
1 -2 1 97711.7 1073.24 5
-1 2 -2 1089.45 132.9 2
1 -2 2 1098.33 130.621 5
-1 2 -2 1062.39 128.098 5
-1 2 -2 1147.5 139.623 1
1 -2 2 1225.53 135.75 1
-1 2 -3 8699.08 381.052 5
-1 2 -3 7917.24 365.332 1
1 -2 3 7766.01 346.703 5
-1 2 -3 8119.49 370.901 2
1 -2 4 35609 803.031 5
-1 2 -4 37659.2 869.007 5
-1 2 -4 37316.5 886.437 2
1 -2 4 36609.2 745.317 6
1 -2 4 36628.7 913.654 2
1 -2 5 9254.27 509.7 2
1 -2 5 9221.15 423.517 6
-1 2 -5 9271.04 481.988 2
-1 2 -5 9360.51 482.345 5
1 -2 6 397.135 159.362 2
1 -2 6 443.04 143.255 6
1 -2 7 5308.69 465.3 2
1 -2 8 -19.9787 150.754 2
1 -2 9 32956.7 1289.11 2
1 -2 10 1602.16 338.241 2
1 -2 11 170.038 144.424 2
1 -2 12 1102.37 314.844 2
-1 1 12 388.789 253.938 2
-1 1 11 1581.12 353.745 2
-1 1 10 322.846 256.092 2
-1 1 9 331.467 201.246 2
-1 1 8 -55.0964 183.175 2
-1 1 7 231.932 157.194 2
-1 1 6 866.134 210.85 2
-1 1 5 27070.9 868.326 2
1 -1 -4 16459.2 613.453 2
-1 1 4 16198.9 609.468 2
-1 1 3 55721.3 1000.83 2
-1 1 3 55340.3 508.679 4
-1 1 2 18016.8 496.069 2
1 -1 -2 18803.5 508.466 2
1 -1 -1 22921.4 477.697 1
1 -1 -1 22354.9 468.49 2
-1 1 1 22722.4 472.483 2
-1 1 0 101780 845.194 1
1 -1 0 101849 856.862 1
-1 1 -1 8195.05 281.158 5
1 -1 1 8118.18 232.015 1
-1 1 -1 7933.84 232.297 1
1 -1 1 7493.11 271.381 5
-1 1 -2 75854.2 812.289 2
1 -1 2 75427.3 932.438 5
-1 1 -2 76705.2 810.122 1
1 -1 2 77256.1 851.719 2
-1 1 -2 75398.7 937.138 5
1 -1 3 234301 1756.82 2
-1 1 -3 234722 1885.7 5
-1 1 -3 239456 1725.28 2
1 -1 3 234634 1800.7 5
1 -1 3 233973 1673.15 6
-1 1 -4 5295.51 299.912 2
-1 1 -4 5352.93 319.859 5
1 -1 4 4921.87 301.833 5
1 -1 4 4914.08 284.899 6
1 -1 4 5184.78 300.971 2
-1 1 -5 -29.3758 104.19 2
1 -1 5 -22.6229 91.3826 6
1 -1 5 -35.8712 103.072 2
-1 1 -5 -58.3779 97.3201 5
-1 1 -6 53.0466 95.5784 2
1 -1 6 64.5186 116.848 2
1 -1 6 -1.15681 113.895 6
1 -1 7 95914.1 1782.61 2
1 -1 8 21020.5 907.004 2
1 -1 9 14068.8 809.626 2
1 -1 10 -44.4826 174.117 2
1 -1 11 681.613 279.471 2
1 -1 12 -122.746 224.27 2
1 -1 13 -611.561 273.315 2
-1 0 12 4872.24 636.438 2
-1 0 11 3496.21 509.143 2
-1 0 10 1799.79 382.786 2
-1 0 9 -9.32771 181.862 2
-1 0 8 1461.15 306.313 2
1 0 -7 4932.75 152.202 4
-1 0 7 5322.09 469.223 2
-1 0 6 38214.6 1127.7 2
1 0 -6 35636.3 454.402 4
1 0 -5 31498.9 438.026 4
-1 0 5 33023.4 963.313 2
1 0 -4 10513.4 251.186 4
1 0 -4 10485.9 496.025 2
-1 0 4 9730.65 482.457 2
1 0 -3 45023.6 500.731 4
1 0 -3 45771.6 911.971 2
-1 0 3 44437.6 905.407 2
1 0 -2 209193 1662.85 2
1 0 -2 207728 1043.91 4
-1 0 1 449456 1970.25 2
1 0 -1 452967 1985.37 2
1 0 2 176304 944.959 2
1 0 2 175173 1314.03 5
-1 0 -2 174329 1338.88 5
-1 0 -2 174511 940.399 2
1 0 3 19714.1 433.049 2
1 0 3 19700.8 509.048 5
-1 0 -3 20324.8 439.577 2
1 0 3 20256.6 497.109 6
-1 0 -3 20443.9 531.813 5
-1 0 -4 11693.6 453.651 5
-1 0 -4 11882.6 413.253 2
1 0 4 11866.4 439.983 6
1 0 4 12057 415.004 2
1 0 5 12445.3 505.09 6
-1 0 -5 12688.5 528.646 5
1 0 5 12228.4 484.38 2
-1 0 -5 12443.2 495.522 2
-1 0 -6 35179.7 925.621 2
1 0 6 35262.9 934.958 6
1 0 6 34593.1 915.172 2
1 0 7 1089.62 224.111 2
1 0 7 1202.84 217.381 6
1 0 8 3569.96 385.754 2
1 0 9 10449.2 677.432 2
1 0 10 11216.3 758.808 2
1 0 11 1220.94 296.308 2
1 0 12 498.164 200.895 2
1 0 13 341.742 225.722 2
-1 -1 11 -455.996 252.078 2
-1 -1 10 238.227 234.75 2
-1 -1 9 1170.16 324.792 2
-1 -1 8 16341.3 904.505 2
-1 -1 7 29252.8 1109.77 2
-1 -1 6 788.624 199.26 2
-1 -1 5 1747.41 261.633 2
1 1 -5 1854.13 225.059 6
1 1 -4 174.527 105.92 2
-1 -1 4 358.04 152.831 2
1 1 -3 2945.48 258.061 2
-1 -1 3 2910.84 261.14 2
1 1 -2 404566 2471 2
-1 -1 2 408015 2509.37 2
-1 -1 1 619578 2604.98 2
1 1 -1 620126 2586.75 2
1 1 0 65855.2 719.306 3
1 1 0 65087.9 670.326 2
-1 -1 0 65349.1 688.348 2
-1 -1 -1 120763 977.39 3
1 1 1 122813 684.417 1
-1 -1 -1 121937 681.211 1
-1 -1 -1 121212 843.791 5
1 1 1 121843 976.001 3
-1 -1 -2 87242.5 701.598 4
1 1 2 86959.3 700.293 4
-1 -1 -2 85202.4 863.681 3
-1 -1 -2 86130.5 882.15 5
-1 -1 -2 85587.3 651.459 1
1 1 2 86712.5 640.556 1
1 1 2 86675.1 707.214 2
1 1 2 86847.8 876.159 5
-1 -1 -3 326195 2046.19 5
1 1 3 325963 1727.49 2
1 1 3 325910 2027.42 6
1 1 3 324188 1350.58 4
-1 -1 -3 328149 1348.43 4
-1 -1 -3 325705 1773.15 2
-1 -1 -4 8210.41 377.783 5
1 1 4 8082.09 333.049 2
-1 -1 -4 8335.96 218.581 4
1 1 4 7989.27 370.353 6
-1 -1 -4 7974.84 368.674 6
-1 -1 -4 8155.39 339.382 2
1 1 5 4538.55 298.51 2
-1 -1 -5 4155.55 160.232 4
1 1 5 4079.83 307.972 6
-1 -1 -5 4156.91 283.568 2
-1 -1 -5 3803.8 282.945 6
-1 -1 -5 3987.59 301.764 5
1 1 6 542.824 173.013 6
1 1 6 318.603 120.469 2
-1 -1 -6 211.905 101.015 2
-1 -1 -6 470.468 60.9718 4
-1 -1 -7 3571.9 143.24 4
1 1 7 3801.92 345.652 2
1 1 8 5763.14 451.304 2
1 1 9 485.507 170.291 2
1 1 10 149.063 180.155 2
1 1 11 -42.7541 205.039 2
1 1 12 433.041 214.972 2
1 1 13 5099.3 600.769 2
-1 -2 11 1407.82 367.696 2
-1 -2 10 1777.7 383.816 2
-1 -2 9 722.091 286.705 2
-1 -2 8 7137 629.486 2
-1 -2 7 24981.1 1080.05 2
-1 -2 6 793.305 236.116 2
1 2 -5 49742.8 1031.03 6
-1 -2 5 49797.1 1301.12 2
-1 -2 4 131952 1924.14 2
1 2 -4 128048 1493.75 6
1 2 -3 9909.5 479.646 2
-1 -2 3 9433.75 481.602 2
-1 -2 2 51414.8 1010.4 2
1 2 -2 54058.6 1000.04 2
-1 -2 1 789615 3564.83 2
1 2 -1 802004 3412.96 2
1 2 0 249949 1749.22 2
1 2 0 248118 1645.38 1
-1 -2 -1 1398.94 120.402 1
1 2 1 1322.64 119.135 1
-1 -2 -1 1430.61 86.6891 5
1 2 1 1570.5 134.709 3
-1 -2 -2 11644.3 329.796 1
1 2 2 12038.1 331.377 1
1 2 2 11958.1 345.539 3
1 2 2 11664.1 330.587 6
-1 -2 -2 12204.9 328.531 5
-1 -2 -2 11194.8 337.888 3
1 2 3 963.256 122.929 6
-1 -2 -3 1040.27 113.61 1
1 2 3 816.295 103.503 1
-1 -2 -3 1038.17 129.763 6
-1 -2 -3 925.559 111.312 3
-1 -2 -4 114243 1391.06 6
1 2 4 113689 1400.08 6
1 2 4 113924 851.706 4
-1 -2 -4 113267 1270.51 1
1 2 4 113580 1313.1 2
-1 -2 -5 48845.3 984.462 2
1 2 5 48066.9 958.764 2
-1 -2 -5 49776.1 949.66 1
1 2 5 49511.3 1043.86 6
-1 -2 -5 48412.5 1021.03 6
1 2 5 48376.6 525.386 4
1 2 6 42531.7 1000.14 2
-1 -2 -6 41950.3 1014.95 2
1 2 6 42555.6 1065.92 6
1 2 7 17938.4 712.161 2
1 2 8 45.8247 127.243 2
1 2 9 743.541 214.494 2
1 2 10 439.263 187.885 2
1 2 11 1268.71 304.69 2
1 2 12 301.668 239.269 2
1 2 13 -390.204 221.03 2
1 2 14 381.482 211.782 2
-1 -3 11 246.225 221.691 2
-1 -3 10 132.166 200.211 2
-1 -3 9 46.4067 209.817 2
-1 -3 8 7455.4 679.22 2
-1 -3 7 6697.21 609.382 2
-1 -3 6 5172.46 502.835 2
1 3 -5 8260.59 420.924 5
-1 -3 5 8462.92 595.356 2
1 3 -5 8463.44 420.524 6
1 3 -4 35188.5 741.365 6
1 3 -4 36313.6 764.583 5
-1 -3 4 37306.1 1128.56 2
1 3 -3 14577.9 416.005 5
1 3 -3 14422.1 410.625 6
-1 -3 3 14325.1 656.396 2
-1 -3 2 96765.9 1567.77 2
1 3 -2 97845 832.17 5
1 3 -2 96750.3 1484.23 2
1 3 -1 2639.28 238.099 2
1 3 -1 2668.22 241.085 1
-1 -3 0 253274 2002.56 1
1 3 0 255296 2029.69 1
1 3 1 259257 1243.32 6
1 3 1 259565 1958.27 1
-1 -3 -1 260301 1942.81 1
1 3 2 10598.4 363.845 3
1 3 2 10654.1 326.329 6
-1 -3 -2 10179.9 383.822 1
1 3 2 11002.7 396.125 1
1 3 3 2648.73 201.524 6
1 3 3 3021.35 218.695 1
-1 -3 -3 2680.25 209.403 1
1 3 3 2689.72 187.383 3
-1 -3 -3 2736.85 201.878 6
-1 -3 -3 2562.6 186.85 3
-1 -3 -4 35388.9 692.682 3
-1 -3 -4 36012.6 792.499 1
1 3 4 35703.1 806.271 6
-1 -3 -4 34721.9 794.465 6
1 3 4 35879.1 792.337 1
-1 -3 -5 4794.45 275.812 3
1 3 5 5073.92 340.492 2
1 3 5 4629.41 340.889 6
-1 -3 -5 5392.55 354.982 6
-1 -3 -5 4750.45 318.546 1
1 3 6 8760.04 481.072 2
-1 -3 -6 8557.8 461.097 1
1 3 6 8465.72 246.163 4
1 3 7 21660.4 800.124 2
1 3 8 -17.3052 114.809 2
1 3 9 2868.42 364.929 2
1 3 10 115.583 156.683 2
1 3 11 3133.77 426.291 2
1 3 12 -87.9694 197.113 2
1 3 13 349.046 210.646 2
1 3 14 656.079 295.969 2
-1 -4 10 801.497 317.763 2
-1 -4 9 -108.013 211.319 2
-1 -4 8 2690.07 453.215 2
-1 -4 7 425.679 234.521 2
1 4 -6 -274.538 107.437 6
-1 -4 6 -249.96 227.158 2
1 4 -5 13086.6 487.244 6
1 4 -5 13331 527.867 5
-1 -4 5 13642.1 797.492 2
1 4 -4 2099.5 195.436 5
1 4 -4 1857.95 167.465 6
-1 -4 4 1693.55 303.151 2
1 4 -3 13489.2 354.074 6
1 4 -3 13851.8 676.76 1
1 4 -3 14079.1 401.082 5
1 4 -2 96779.6 803.281 5
1 4 -2 97688.7 703.093 6
1 4 -1 12296.6 555.549 1
1 4 -1 12783.5 581.642 2
1 4 0 22803.2 707.47 1
-1 -4 0 23283.1 712.604 1
-1 -4 -1 12975.7 523.482 1
1 4 1 13887 543.23 1
1 4 1 13188.2 293.783 6
1 4 2 2120.23 158.146 6
1 4 2 1995.88 181.026 3
1 4 2 1820.85 201.327 1
-1 -4 -2 1889.02 205.702 1
1 4 3 8929.47 428.469 1
-1 -4 -3 8420.1 419.7 1
-1 -4 -3 8567.15 356.595 6
1 4 3 8470.66 365.011 6
1 4 3 8629.7 358.837 3
-1 -4 -4 11213.6 398.77 3
1 4 4 11229.3 492.8 1
-1 -4 -4 12034.9 483.018 6
1 4 4 11453.3 406.283 3
-1 -4 -4 11673.8 509.477 1
1 4 5 49554.3 1088.01 1
-1 -4 -5 46834.7 1047.36 6
-1 -4 -5 48319.3 1083.15 1
-1 -4 -5 47228.7 848.909 3
1 4 5 48456.7 1114.88 2
-1 -4 -6 26169.2 845.554 1
-1 -4 -6 25151.8 663.282 3
1 4 6 26302.9 876.216 2
-1 -4 -7 4740.45 315.712 3
1 4 7 4690.2 401.544 2
1 4 7 4629.93 205.122 4
-1 -4 -8 817.411 163.355 3
1 4 8 1059.68 236.917 2
1 4 9 3010.29 383.605 2
-1 -4 -9 3015.55 301.708 3
1 4 10 2409.12 365.661 2
1 4 11 13658.2 862.776 2
1 4 12 6415.94 640.082 2
1 4 13 54.5606 156.159 2
1 4 14 571.163 226.869 2
-1 -5 9 1131.59 350.816 2
1 5 -9 865.859 331.67 1
-1 -5 8 1467.52 368.679 2
1 5 -8 1128.18 347.081 1
1 5 -7 81.9083 211.161 1
-1 -5 7 -32.5411 217.182 2
1 5 -6 683.361 276.946 1
1 5 -5 189.358 93.4076 5
1 5 -5 -17.2623 164.952 1
1 5 -4 1906.39 180.197 5
1 5 -4 2049 316.435 1
1 5 -3 915.107 228.991 1
1 5 -3 1015.16 109.298 5
1 5 -2 29497.7 998.745 1
1 5 -1 23653.8 850.465 1
1 5 0 59944.3 1293.97 1
1 5 1 56948 1230.86 1
-1 -5 -1 58803.1 1237.15 1
-1 -5 -2 1296.39 195.915 1
1 5 2 1510.85 218.532 1
1 5 3 6971.65 430.148 1
-1 -5 -3 7048.14 434.848 1
1 5 3 6650.08 349.974 3
-1 -5 -3 7120.89 335.25 6
-1 -5 -4 14972.3 554.224 6
-1 -5 -4 14439.8 627.879 1
1 5 4 14634.2 497.966 3
1 5 4 13960 612.355 1
-1 -5 -5 36406.8 758.316 3
-1 -5 -5 37702.3 964.493 6
1 5 5 38097.4 1028.11 1
1 5 5 37143.6 759.522 3
-1 -5 -6 5636.5 319.618 3
1 5 6 5532.78 423.578 1
1 5 6 5676.7 447.25 2
-1 -5 -7 186.926 106.782 3
1 5 7 194.717 152.077 2
-1 -5 -8 1.27009 97.6675 3
1 5 8 86.0967 150.298 2
1 5 8 31.6856 58.862 4
-1 -5 -9 536.978 155.94 3
1 5 9 553.871 213.89 2
1 5 9 541.766 64.6101 4
1 5 10 4865.34 519 2
-1 -5 -10 4816.08 384.937 3
-1 -5 -11 125.806 129.038 3
1 5 11 -110.701 185.472 2
1 5 12 61.4389 170.13 2
1 5 13 -24.8018 177.283 2
1 5 14 112.034 164.973 2
1 6 -9 -485.116 255.612 1
1 6 -8 -351.75 235.272 1
1 6 -7 11.688 216.283 1
1 6 -6 243.203 201.009 1
1 6 -5 1457.96 313.19 1
1 6 -4 -24.9649 53.3305 5
1 6 -4 240.301 197.4 1
1 6 -3 167.955 176.872 1
1 6 -2 278.021 164.145 1
1 6 -1 908.88 243.196 1
1 6 0 11253.5 628.982 1
-1 -6 0 9076 195.213 5
1 6 1 9540.05 574.283 1
1 6 2 15602.1 708.463 1
1 6 3 63116.3 1155.44 3
1 6 3 65060.7 1416.56 1
-1 -6 -3 64778.4 1027.67 6
-1 -6 -4 53580.9 1061.71 6
1 6 4 51017.9 1007.28 3
1 6 4 52913.9 1303.45 1
1 6 5 2855.76 239.403 3
1 6 5 2812.02 331.717 1
1 6 6 5765.77 465.794 1
1 6 7 5289.71 478.34 2
-1 -6 -7 5620.1 323.934 3
1 6 7 5728.76 477.805 1
-1 -6 -8 2419.11 234.879 3
1 6 8 2249.17 355.496 2
-1 -6 -9 3376.61 286.09 3
1 6 9 3632.11 217.619 4
1 6 9 3046.91 407.693 2
1 6 10 1721.97 342.506 2
-1 -6 -10 937.946 178.749 3
1 6 11 204.388 201.288 2
1 6 12 1819.26 373.907 2
1 6 13 54.6363 153.852 2
1 7 -8 414.306 247.056 1
1 7 -7 688.136 320.008 1
1 7 -6 197.827 220.397 1
1 7 -5 267.021 209.483 1
1 7 -4 2754.11 428.67 1
1 7 -3 3775.14 475.227 1
1 7 -2 216.945 169.955 1
1 7 -1 6927.88 568.131 1
1 7 0 7098.2 559.205 1
-1 -7 0 5944.77 166.259 5
1 7 1 -122.824 175.481 1
1 7 2 919.29 229.217 1
-1 -7 -3 979.732 146.37 6
1 7 3 934.169 244.636 1
1 7 3 1267.08 197.909 3
1 7 4 382.082 130.533 3
-1 -7 -4 406.781 120.77 6
1 7 4 178.162 165.316 1
1 7 5 9010.72 446.526 3
1 7 5 8658.81 586.342 1
1 7 6 6398.12 532.875 1
1 7 6 6634.53 361.301 3
1 7 7 24747.9 1064.9 2
1 7 7 22815.7 1001.58 1
1 7 8 28672.3 1186.9 2
1 7 9 13939.6 877.53 2
-1 -7 -9 14678.8 535.706 3
1 7 10 5409.38 580.307 2
1 7 11 -25.2261 216.498 2
1 7 12 -315.514 224.592 2
1 7 13 2229.11 450.061 2
1 8 -7 529.179 317.393 1
1 8 -6 388.129 280.082 1
1 8 -5 222.372 245.003 1
1 8 -4 340.431 237.843 1
1 8 -3 -189.719 245.73 1
1 8 -2 1811.24 368.985 1
1 8 -1 383.601 243.916 1
1 8 0 32362.8 1266.11 1
1 8 1 29494 1170.57 1
-1 -8 -1 27278.1 552.799 5
1 8 2 1995.52 332.871 1
1 8 3 3069.96 397.704 1
-1 -8 -4 2390.37 251.451 6
1 8 4 2246.58 344.21 1
1 8 5 10693.1 705.546 1
1 8 5 10717.7 525.048 3
1 8 6 10562.5 496.778 3
1 8 6 10104 699.319 1
1 8 7 23159.3 1065.83 1
1 8 8 1599.7 348.491 1
1 8 8 1438.81 353.659 2
1 8 9 -67.2866 187.848 2
1 8 10 758.33 275.238 2
1 8 11 2246.31 415.264 2
1 8 12 -397.946 228.655 2
1 8 13 498.461 278.892 2
1 9 -5 312.481 258.881 1
1 9 -4 316.46 266.831 1
1 9 -3 33.7745 186.515 1
1 9 -2 -59.0254 194.537 1
1 9 -1 1835.88 377.459 1
1 9 0 -18.249 184.191 1
1 9 1 7692.98 678.25 1
1 9 2 13060.1 845.186 1
1 9 3 887.38 279.243 1
1 9 4 408.153 242.354 1
1 9 5 15.0719 204.047 1
1 9 6 8097.19 679.896 1
1 9 7 2200.08 391.538 1
1 9 8 978.736 278.57 1
1 9 8 645.754 283.68 2
1 9 9 -39.0779 221.407 2
1 9 10 519.122 262.964 2
1 9 11 189.093 179.163 2
1 9 12 2562.57 478.442 2
1 10 -4 -225.755 225.97 1
1 10 -3 82.1097 232.532 1
1 10 -2 165.519 256.751 1
1 10 -1 125.109 193.815 1
1 10 0 3399.7 508.588 1
1 10 1 657.007 279.205 1
1 10 2 614.411 272.278 1
1 10 3 -120.981 195.65 1
1 10 4 3849.61 514.959 1
1 10 5 6819.11 660.558 1
1 10 6 151.285 218.637 1
1 10 7 95.514 211.835 1
1 10 8 -17.0238 213.584 1
1 10 9 246.25 208.376 1
1 10 9 196.818 199.007 2
1 10 10 -59.8652 158.692 2
1 10 11 267.049 202.862 2
1 11 -2 -353.849 253.783 1
1 11 -1 256.119 214.008 1
1 11 0 1083.98 341.153 1
1 11 1 226.131 232.633 1
1 11 2 -177.069 251.598 1
1 11 3 -243.522 220.146 1
1 11 4 381.641 227.143 1
1 11 5 -5.07565 218.591 1
1 11 6 2443.49 454.379 1
1 11 7 251.79 177.622 1
1 11 8 -125.481 218.339 1
1 11 9 108.377 162.935 2
1 11 9 -248.907 207.877 1
1 11 10 89.0203 172.127 2
1 12 0 450.383 299.349 1
1 12 1 -300.715 245.815 1
1 12 2 112.243 213.652 1
1 12 3 77.0927 212.231 1
1 12 4 813.669 253.915 1
1 12 5 712.035 315.805 1
1 12 6 302.386 266.498 1
1 12 7 115.586 167.539 1
1 12 8 17.2016 217.345 1
-2 11 6 931.166 353.371 2
-2 11 6 887.82 321.625 1
-2 11 5 581.749 321.55 1
-2 11 4 -249.618 200.8 1
-2 11 3 362.458 283.102 1
-2 11 2 -591.211 266.708 1
-2 11 1 712.003 276.383 1
-2 11 0 122.477 186.59 1
-2 11 -1 271.364 265.825 1
-2 11 -2 957.828 313.647 1
-2 10 8 294.127 237.062 2
-2 10 7 1579.06 370.501 2
-2 10 6 895.264 339.651 2
-2 10 6 428.697 239.659 1
-2 10 5 -90.9793 228.015 1
-2 10 4 49.8862 196.323 1
-2 10 3 289.937 268.572 1
-2 10 2 -568.007 274.461 1
2 -10 -2 -90.3931 142.945 5
2 -10 -1 1606.99 294.598 5
-2 10 1 933.34 291.102 1
-2 10 0 1748.72 392.258 1
-2 10 -1 434.037 248.907 1
-2 10 -2 728.123 268.681 1
-2 10 -3 64.0656 214.432 1
-2 10 -4 349.3 266.093 1
-2 10 -5 457.871 267.516 1
-2 9 9 -549.484 297.943 2
-2 9 8 259.382 226.43 2
-2 9 7 953.203 300.446 2
-2 9 6 1360.69 382.229 1
-2 9 6 1158.19 341.133 2
-2 9 5 56.0712 217.598 1
-2 9 4 1357.84 353.875 1
-2 9 3 168.706 208.8 1
-2 9 2 548.984 243.586 1
2 -9 -1 4727.86 461.302 5
-2 9 1 4805.94 569.581 1
-2 9 0 3413.52 491.575 1
2 -9 0 3143.19 373.945 5
-2 9 -1 430.058 231.941 1
2 -9 1 342.237 146.417 5
-2 9 -2 637.832 274.676 1
2 -9 2 905.355 205.037 5
-2 9 -3 601.264 237.706 1
-2 9 -4 9.53083 204.16 1
-2 9 -5 3199.28 500.413 1
-2 9 -6 -475.604 269.535 1
-2 9 -7 -592.881 320.56 1
-2 8 10 435.399 237.669 2
-2 8 9 72.9298 247.978 2
-2 8 8 656.811 303.047 2
-2 8 7 383.052 239.107 2
-2 8 6 1641.49 396.689 2
-2 8 5 1022.07 311.791 1
-2 8 5 897.579 284.18 2
-2 8 4 -140.793 232.675 1
-2 8 3 5621.82 564.196 1
-2 8 2 9993.52 727.643 1
-2 8 1 53.7742 197.132 1
-2 8 0 1430.39 329.657 1
2 -8 0 927.844 222.223 5
2 -8 1 -37.1028 136.144 5
-2 8 -1 -198 216.457 1
2 -8 2 3484.13 368.746 5
-2 8 -2 3108.41 438.872 1
-2 8 -3 -63.3092 225.775 1
2 -8 3 -307.188 143.575 5
2 -8 4 75.4358 103.779 5
-2 8 -4 -136.67 222.391 1
-2 8 -5 193.986 220.886 1
-2 8 -6 3145.37 510.068 1
-2 8 -7 730.429 339.534 1
-2 8 -8 1291.75 327.318 1
-2 7 10 5293.3 644.541 2
-2 7 9 -33.0563 228.057 2
-2 7 8 568.818 258.927 2
-2 7 7 15700.8 968.346 2
-2 7 6 13791.9 879.277 2
-2 7 5 238.078 244.274 1
-2 7 5 -38.5387 223.218 2
-2 7 4 1301.68 303.152 1
-2 7 3 9461.32 677.485 1
-2 7 2 142.372 186.778 1
-2 7 1 -37.2027 156.426 1
-2 7 0 884.561 262.339 1
2 -7 0 385.757 169.944 5
2 -7 1 11749.7 635.168 5
-2 7 -1 11853.6 731.828 1
2 -7 2 21892.4 846.827 5
-2 7 -2 23656.5 1041.44 1
-2 7 -3 22650.7 1044.64 1
2 -7 3 23551.2 879.936 5
2 -7 4 6869.8 485.79 5
-2 7 -4 7297.73 625.415 1
2 -7 5 1050.64 223.11 5
-2 7 -5 834.214 280.556 1
-2 7 -6 784.974 286.355 1
2 -7 6 606.132 187.775 5
-2 7 -7 -46.456 193.955 1
-2 7 -8 319.671 217.676 1
-2 7 -9 -747.818 304.604 1
-2 6 11 2285.74 446.724 2
-2 6 10 -0.42055 243.542 2
-2 6 9 4779.58 595.035 2
-2 6 8 395.707 222.322 2
-2 6 7 27877.5 1234.68 2
-2 6 6 19896.3 1005.88 2
-2 6 5 34246.4 1262.61 2
-2 6 4 1532.45 306.26 1
-2 6 4 898.374 223.879 2
-2 6 3 3766.88 407.75 1
-2 6 2 18323 835.969 1
-2 6 1 14129.7 728.976 1
2 -6 0 1236.89 217.951 5
-2 6 0 1016.35 230.971 1
-2 6 -1 26.8809 152.719 1
2 -6 1 -47.5662 126.405 5
2 -6 2 9269.06 532.171 5
-2 6 -2 9089.38 603.008 1
-2 6 -3 5461.42 483.982 1
2 -6 3 4532.29 383.876 5
2 -6 4 293.042 128.915 5
-2 6 -4 837.006 245.411 1
2 -6 5 206.5 100.103 6
-2 6 -5 124.626 171.275 1
2 -6 5 148.365 119.646 5
2 -6 6 421.593 160.215 5
-2 6 -6 313.227 194.135 1
-2 6 -7 2652.65 418.95 1
-2 6 -8 1268.55 324.293 1
-2 6 -9 26.2866 219.172 1
-2 6 -10 -496.73 272.578 1
-2 5 11 283.622 241.839 2
-2 5 10 480.889 252.745 2
-2 5 9 3396.5 483.8 2
-2 5 8 2982.91 456.998 2
-2 5 7 55058 1655.31 2
-2 5 6 -88.6961 238.695 2
-2 5 5 19515 910.481 2
-2 5 4 1425.31 274.684 1
-2 5 4 1141.01 267.069 2
-2 5 3 20891.2 863.396 1
-2 5 2 16557.8 738.61 1
-2 5 1 6544.54 460.291 1
-2 5 0 4245.97 381.277 1
2 -5 1 4020.59 345.626 5
-2 5 -1 3483 339.947 1
2 -5 2 15936.3 659.093 5
-2 5 -2 15940.2 712.692 1
2 -5 3 3697.64 334.531 5
-2 5 -3 3067.12 336.001 1
-2 5 -4 9069.33 583.344 1
2 -5 4 9559.59 540.998 5
-2 5 -5 6943.31 535.179 1
2 -5 5 6282.82 454.588 5
2 -5 5 6387.01 368.038 6
2 -5 6 1790.86 225.16 6
-2 5 -6 1554.52 304.829 1
2 -5 6 1499.42 258.359 5
-2 5 -7 3611.23 444.052 1
2 -5 7 3408.11 322.179 6
-2 5 -8 211.662 167.398 1
-2 5 -9 166.595 193.715 1
-2 5 -10 321.171 273.373 1
-2 5 -11 542.88 313.663 1
-2 4 11 533.016 236.611 2
-2 4 10 52.1653 220.06 2
-2 4 9 115.622 210.491 2
-2 4 8 235.451 208.993 2
-2 4 7 3048.8 407.788 2
-2 4 7 3273.9 190.009 4
-2 4 6 8121.78 607.896 2
-2 4 6 7989.05 336.053 4
-2 4 5 4206.98 418.279 2
-2 4 4 7312.31 511.792 2
-2 4 3 67429.2 1433.71 1
-2 4 3 67842.9 1431.49 2
-2 4 2 5436.24 407.023 1
2 -4 -1 180898 2171.17 1
-2 4 1 180523 2142.84 1
2 -4 0 23033.5 760.168 1
-2 4 0 22021.4 737.788 1
-2 4 -1 422.997 133.618 1
2 -4 1 344.423 128.618 1
2 -4 1 437.704 146.078 5
2 -4 2 8247.92 459.148 1
-2 4 -2 7848.29 458.156 1
2 -4 2 8806.65 466.826 5
-2 4 -3 859.203 171.476 2
-2 4 -3 827.452 171.967 1
2 -4 3 967.848 181.223 1
2 -4 3 668.699 156.338 5
-2 4 -4 7032.66 473.176 1
2 -4 4 7322.28 450.394 5
-2 4 -5 1304.72 254.392 1
2 -4 5 819.054 157.643 6
2 -4 5 944.556 190.11 5
2 -4 6 8070.49 516.205 5
2 -4 6 7659.45 440.546 6
-2 4 -6 7598.48 550.78 1
-2 4 -7 -2.46903 176.714 1
2 -4 7 121.37 103.928 6
2 -4 8 8672.03 552.869 6
-2 4 -8 9121.8 670.275 1
-2 4 -9 118.625 191.046 1
-2 4 -10 5907.93 604.807 1
-2 4 -11 -970.736 304.201 1
-2 4 -12 -1597.96 393.06 1
-2 3 11 437.809 228.37 2
-2 3 10 314.319 236.094 2
-2 3 9 1008.04 289.345 2
-2 3 8 15126.5 892.192 2
-2 3 7 6879.28 578.569 2
2 -3 -6 22285.5 461.836 3
-2 3 6 22272.8 946.998 2
-2 3 6 22365.8 471.577 4
-2 3 5 -17.3946 144.076 2
2 -3 -5 45.0174 30.3349 3
-2 3 5 -5.80252 60.5896 4
-2 3 4 14423.8 664.224 2
-2 3 3 24224.8 810.592 2
-2 3 2 30204 848.721 2
-2 3 2 30521.5 848.099 1
-2 3 2 29434.5 421.01 3
2 -3 -2 30197.7 839.963 1
2 -3 -1 461.727 126.226 1
-2 3 1 671.571 150.77 1
-2 3 0 22477.3 655.661 1
2 -3 0 22481.7 666.933 1
2 -3 1 4912.69 313.995 1
-2 3 -1 5011.91 310.108 1
2 -3 1 5088.74 333.94 5
2 -3 2 2357.85 240.36 5
2 -3 2 2455.16 225.542 1
-2 3 -2 2562.76 231.994 1
-2 3 -3 30066.3 793.972 1
-2 3 -3 29475.9 835.561 5
-2 3 -3 31136.2 810.707 2
2 -3 3 29113.9 829.882 5
2 -3 3 30492.7 787.634 1
-2 3 -4 5792.28 376.508 1
2 -3 4 5355.26 374.717 5
-2 3 -4 4805.3 361.132 5
-2 3 -4 5405.23 356.202 2
-2 3 -5 9196.76 500.984 2
-2 3 -5 9718.21 519.979 1
2 -3 5 9281.28 515.844 5
2 -3 5 8797.78 441.098 6
2 -3 6 13601.7 650.873 5
-2 3 -6 13149 644.925 1
2 -3 6 13433.9 580.076 6
-2 3 -7 7700.45 536.079 1
2 -3 7 7101.31 467.499 6
-2 3 -8 491.236 204.282 1
2 -3 8 466.6 179.769 6
2 -3 8 -13.0499 209.412 2
-2 3 -9 4845.24 495.973 1
2 -3 9 5270.69 551.883 2
-2 3 -10 6298.94 594.577 1
2 -3 10 6494.5 637.568 2
-2 3 -11 297.152 210.929 1
2 -3 11 609.359 249.436 2
2 -3 12 923.432 322.782 2
-2 3 -12 1006.84 330.498 1
-2 2 11 664.209 276.937 2
-2 2 10 981.336 281.066 2
-2 2 9 1820.57 374.064 2
-2 2 8 -36.3149 215.965 2
-2 2 7 40.8851 180.86 2
-2 2 6 1307 269.505 2
-2 2 5 3729.85 365.006 2
-2 2 5 3715.81 192.175 4
-2 2 4 742.263 174.172 2
2 -2 -4 562.245 81.1758 3
-2 2 4 597.889 98.5504 4
2 -2 -3 3240.13 287.772 2
2 -2 -3 2560.8 141.485 3
-2 2 3 2462.87 259.357 2
2 -2 -3 2490.75 259.659 1
2 -2 -2 6596.58 368.913 1
-2 2 2 6811.41 373.161 2
-2 2 1 58559 998.516 1
-2 2 1 58988.9 713.695 3
2 -2 -1 58209 1000.36 1
-2 2 1 58852.1 987.374 2
2 -2 0 137512 1416.76 1
-2 2 0 136133 1397.02 1
2 -2 1 15262 537.098 5
2 -2 1 15042 453.26 1
-2 2 -1 15371.2 455.039 1
2 -2 2 102422 1174.84 1
-2 2 -2 104570 1187.62 1
-2 2 -2 101467 1397.6 5
2 -2 2 102302 1409.69 5
-2 2 -3 1670.14 209.704 5
2 -2 3 1680.02 203.167 5
-2 2 -3 1696.8 171.717 1
-2 2 -3 1754.19 172.023 2
-2 2 -4 42248.9 882.791 1
2 -2 4 42398.6 988.455 5
-2 2 -4 41439.6 1008.67 5
-2 2 -4 43477.3 874.887 2
2 -2 5 17134 660.004 5
2 -2 5 16733.1 600.606 6
-2 2 -5 16366.2 591.938 2
-2 2 -5 16856.2 604.415 1
-2 2 -6 23020.5 769.125 2
2 -2 6 24223.1 836.321 5
-2 2 -6 24085.8 793.621 1
2 -2 6 23255.7 827.022 2
2 -2 6 22885.6 755.885 6
2 -2 7 25820.6 941.103 2
2 -2 7 26651.3 882.73 6
2 -2 8 1030.06 233.082 2
2 -2 8 1380.88 258.922 6
2 -2 9 10734.3 716.477 2
2 -2 9 11473.6 679.306 6
2 -2 10 719.627 248.576 2
2 -2 11 6408.78 635.68 2
2 -2 12 965.324 277.314 2
2 -2 13 886.064 317.984 2
-2 1 11 -293.191 230.866 2
-2 1 10 856.271 292.757 2
-2 1 9 -77.315 240.084 2
-2 1 8 1733.58 327.984 2
-2 1 7 632.486 227.176 2
-2 1 6 762.039 209.531 2
-2 1 5 5744.71 446.563 2
-2 1 4 5784.76 409.187 2
-2 1 3 19983.6 677.34 2
2 -1 -3 20220.9 680.681 2
2 -1 -3 19812.9 472.538 3
-2 1 3 19622.2 450.706 4
-2 1 2 1997.92 206.896 2
-2 1 2 1671.34 140.365 4
2 -1 -2 1735.4 185.976 2
2 -1 -2 1961.34 143.594 3
2 -1 -1 6552.72 307.977 1
-2 1 1 5995.81 238.003 3
2 -1 -1 6336.41 303.027 2
-2 1 1 5954.23 287.908 2
2 -1 -1 6500.31 249.815 3
-2 1 1 6158.63 270.369 4
-2 1 0 96125.2 984.951 2
2 -1 0 97779.6 1024.17 1
-2 1 0 96397.8 1015.71 3
2 -1 1 150263 1127.48 1
2 -1 1 149701 1549.04 5
-2 1 -1 150218 1119.79 1
-2 1 -2 4496.53 283.281 5
2 -1 2 4229.11 184.036 1
2 -1 2 4178.81 276.077 5
-2 1 -2 4517.47 191.555 1
-2 1 -3 2645.21 163.411 2
-2 1 -3 2920.67 177.463 1
2 -1 3 2916.65 245.222 5
-2 1 -3 2653.23 237.325 5
-2 1 -4 2582.58 196.046 1
2 -1 4 2870.2 261.729 5
-2 1 -4 3140.7 209.175 2
-2 1 -4 2413.78 242.984 5
2 -1 4 2969.35 216.516 2
-2 1 -5 83424.2 1493.95 5
2 -1 5 85328.2 1342.15 6
-2 1 -5 85601.3 1224.15 2
2 -1 5 82701.3 1249.16 2
2 -1 5 84363.3 1421.41 5
2 -1 6 1668.28 218.671 2
-2 1 -6 2090.34 231.608 2
2 -1 6 2229.87 254.077 6
2 -1 6 1830.48 251.191 5
2 -1 7 2111.41 267.368 2
2 -1 7 2148.99 281.731 6
2 -1 8 47856.9 1291.12 6
2 -1 8 47736.2 1298.88 2
2 -1 9 18250.5 864.265 2
2 -1 9 18546.8 869.021 6
2 -1 10 4604.52 494.944 2
2 -1 11 1640.12 338.038 2
2 -1 12 444.524 222.862 2
2 -1 13 131.97 187.848 2
-2 0 11 -375.147 245.533 2
-2 0 10 268.633 225.011 2
-2 0 9 718.51 270.277 2
-2 0 8 415.67 225.461 2
-2 0 7 637.613 228.146 2
-2 0 6 1302.34 248.212 2
2 0 -6 1241.49 121.987 4
2 0 -5 7307.9 279.918 4
-2 0 5 7173.08 502.056 2
-2 0 4 48601.7 1158.64 2
2 0 -4 47619.8 709.253 4
2 0 -3 11469.1 511.61 2
2 0 -3 11472.5 353.018 4
-2 0 3 11662.7 525.98 2
2 0 -2 233189 2029.05 2
2 0 -2 233106 1560.62 4
-2 0 2 227842 2045.9 2
-2 0 1 178406 1525.55 2
2 0 -1 173964 1500.48 2
2 0 -1 174146 1362.24 4
2 0 -1 175536 1446.64 3
-2 0 1 172651 1341.34 4
-2 0 0 2454.44 175.45 3
-2 0 0 2223.83 159.505 4
-2 0 0 2386.62 145.858 2
2 0 0 2331.19 169.828 3
2 0 0 2619.85 150.455 2
2 0 0 2519.37 170.066 4
-2 0 -1 11947.4 214.339 2
-2 0 -1 11117.6 352.819 4
2 0 1 12384.4 419.923 5
2 0 1 11866.4 243.297 1
-2 0 -1 11721.4 389.977 3
2 0 2 171.878 85.4664 5
-2 0 -2 237.147 85.7091 5
-2 0 -2 159.897 61.3767 4
-2 0 -3 46612.6 488.112 1
2 0 3 45617.9 890.628 5
2 0 3 47480.8 519.618 2
-2 0 -3 47240.1 498.719 2
-2 0 -3 47531.6 917.784 5
-2 0 -4 44455.1 975.201 5
2 0 4 44094.3 935.128 5
2 0 4 45885 684.653 2
-2 0 -4 44639.6 668.503 2
2 0 5 108967 1524.14 6
2 0 5 107023 1581.97 5
-2 0 -5 107981 1272.37 2
2 0 5 110314 1295.97 2
-2 0 -5 108856 1653.76 5
-2 0 -6 2452.15 231.534 2
2 0 6 2620.48 238.233 2
2 0 6 2732.71 276.142 6
2 0 7 40.0213 135.93 6
-2 0 -7 188.909 98.657 2
2 0 7 174.187 113.016 2
2 0 8 5176.63 423.413 2
-2 0 -8 5640.47 305.64 4
2 0 8 5462.35 458.42 6
2 0 9 12971.6 704.173 2
2 0 9 12126.9 711.073 6
-2 0 -9 11770 437.254 4
2 0 10 14995 830.837 2
2 0 11 9557.14 712.338 2
2 0 12 573.914 208.326 2
2 0 13 725.792 255.348 2
2 0 14 -106.905 189.022 2
-2 -1 11 -187.435 204.781 2
-2 -1 10 759.385 302.209 2
-2 -1 9 1168.15 331.05 2
-2 -1 8 890.699 285.364 2
2 1 -7 9180.85 349.25 4
-2 -1 7 8891.13 664.176 2
-2 -1 6 187.617 200.842 2
2 1 -6 -0.40211 64.1359 4
-2 -1 5 353.202 172.055 2
2 1 -5 187.942 82.4175 4
-2 -1 4 64314.8 1387.29 2
2 1 -4 62356.2 902.694 4
-2 -1 3 128.304 112.375 2
2 1 -3 45.4341 65.0029 4
2 1 -3 -34.355 96.7773 2
2 1 -2 219.093 81.0893 4
-2 -1 2 253.126 117.764 2
2 1 -2 175.41 104.021 2
2 1 -1 214686 1582.53 4
2 1 -1 215784 1761.98 3
2 1 -1 215307 1775.73 2
-2 -1 1 215650 1791.03 2
2 1 0 107559 1222.06 3
2 1 0 112613 1115.02 4
-2 -1 0 108919 1060.81 2
-2 -1 0 109412 1205.55 3
2 1 0 111621 1051.56 2
-2 -1 -1 411270 2376.3 3
2 1 1 414673 2376.15 3
2 1 1 410910 2131.38 4
-2 -1 -1 413690 1614.18 2
-2 -1 -1 410899 2121.87 4
-2 -1 -1 414908 2163.05 5
2 1 1 414368 2186.18 5
2 1 1 410106 1572.99 2
2 1 2 994945 3608.44 5
-2 -1 -2 999999 3258.8 4
-2 -1 -2 998702 3658.12 5
2 1 2 994931 3739.79 3
2 1 2 996452 3301.91 4
-2 -1 -2 995346 3835.43 3
2 1 3 49444.8 884.527 5
2 1 3 50448.5 500.359 2
-2 -1 -3 50172.5 905.513 5
-2 -1 -3 48569.3 735.034 4
-2 -1 -3 50030.9 904.187 3
2 1 3 49890.2 748.198 4
-2 -1 -3 50501.1 435.785 1
-2 -1 -4 63163.1 1125.84 5
2 1 4 64127.1 1090.45 5
-2 -1 -4 63016.5 784.726 2
2 1 4 64514.8 761.653 2
-2 -1 -4 63273.1 840.028 4
2 1 5 1195.62 179.975 5
-2 -1 -5 934.722 169.45 5
-2 -1 -5 1136.32 128.044 4
2 1 5 1396.28 192.927 6
-2 -1 -5 1112.56 133.535 2
2 1 5 1018.94 129.925 2
2 1 6 20658.9 727.37 6
-2 -1 -6 20957 633.146 2
-2 -1 -6 19950.9 490.211 4
2 1 6 20622.9 621.613 2
2 1 7 2860.67 266.591 2
-2 -1 -7 3010.06 282.102 2
-2 -1 -7 2863.41 195.3 4
2 1 7 3063.89 332.931 6
2 1 8 1285.18 219.737 2
2 1 8 1542.83 267.551 6
-2 -1 -8 1312.27 137.876 4
2 1 9 9268.31 623.513 6
-2 -1 -9 10509.2 353.874 4
2 1 9 10313.3 609.602 2
2 1 10 35694.1 1229.04 2
2 1 11 593.823 234.396 2
2 1 12 298.973 165.103 2
2 1 13 716.917 269.157 2
2 1 14 1174.99 319.651 2
-2 -2 10 -17.9964 206.213 2
-2 -2 9 2201.14 417.969 2
-2 -2 8 983.258 279.172 2
-2 -2 7 49.7726 144.614 2
-2 -2 6 370.568 218.393 2
-2 -2 5 37674.3 1208.29 2
-2 -2 4 44845.1 1226.45 2
-2 -2 3 21074.7 771.413 2
-2 -2 2 5937.96 379.455 2
2 2 -2 5760.2 362.04 2
2 2 -1 161136 1714.73 2
-2 -2 1 157092 1704.68 2
2 2 0 42541.8 596.698 5
-2 -2 0 43344.2 807.941 2
2 2 0 43419.4 774.268 2
2 2 0 43121.6 836.868 3
2 2 1 169312 1643.36 3
-2 -2 -1 168884 1614.1 3
2 2 1 170098 1367.13 2
2 2 1 169171 1293.64 1
-2 -2 -1 167638 1257.82 5
2 2 1 166967 1242.66 5
2 2 2 371078 2064.47 5
-2 -2 -2 376970 2443.86 3
-2 -2 -2 373505 1695.88 1
2 2 2 373246 2442.34 3
-2 -2 -2 376076 2111.8 5
2 2 2 373089 1744.61 1
2 2 2 375030 2130.86 4
2 2 3 84720.1 1095 5
-2 -2 -3 84140.9 1128.61 5
-2 -2 -3 83326.6 1193.38 3
-2 -2 -3 82359.2 801.665 1
2 2 3 81044.9 979.414 4
2 2 3 84289.6 790.392 1
2 2 3 83526.2 1163.96 3
2 2 4 3113.4 194.909 2
-2 -2 -4 3024.5 247.571 5
2 2 4 3237.43 255.738 6
2 2 4 3091.63 243.814 5
-2 -2 -4 2937.99 247.702 3
-2 -2 -4 3097.97 181.205 1
2 2 4 2774.75 189.103 4
-2 -2 -5 6414.17 392.468 5
2 2 5 6822.29 395.633 6
2 2 5 6715.09 281.114 4
2 2 5 6167.07 308.231 2
-2 -2 -5 6356.16 296.175 1
2 2 6 1404.89 221.947 6
-2 -2 -6 1237.7 157.816 1
2 2 6 1464.21 181.786 2
-2 -2 -6 1238.25 170.265 2
-2 -2 -7 8777.55 447.633 1
2 2 7 8724.86 526.26 6
-2 -2 -7 8368.15 463.624 2
2 2 7 8317.03 448.231 2
2 2 8 1559.53 276.524 6
2 2 8 1558.65 235.859 2
2 2 9 4681.34 416.518 2
2 2 9 4389.16 452.434 6
2 2 10 -131.909 202.086 2
2 2 11 121.759 174.051 2
2 2 12 2211.28 370.62 2
2 2 13 760.214 252.573 2
2 2 14 -133.495 183.706 2
-2 -3 10 1923.44 436.789 2
-2 -3 9 71.5202 200.601 2
-2 -3 8 1296.11 344.623 2
-2 -3 7 3738.86 501.039 2
-2 -3 6 419.867 269.973 2
2 3 -5 38357.5 973.541 6
-2 -3 5 40288.9 1324.6 2
-2 -3 4 1528.98 275.621 2
-2 -3 3 64687 1471.09 2
2 3 -2 89.3245 111.032 2
-2 -3 2 -19.235 124.265 2
-2 -3 1 96418.7 1527.51 2
2 3 -1 97440.5 1465.55 2
2 3 0 608.398 130.928 1
2 3 0 569.7 119.84 2
2 3 0 628.631 66.4799 5
-2 -3 -1 9773.21 272.191 5
2 3 1 9725.29 425.516 3
2 3 1 10079.2 394.38 1
2 3 1 9793.37 406.69 2
2 3 1 9752.91 258.272 5
2 3 2 9180.88 414.197 3
2 3 2 10052.7 317.343 5
-2 -3 -2 10012.6 329.768 5
-2 -3 -2 9599.17 356.617 1
2 3 2 8998.52 353.428 1
-2 -3 -2 9719.34 419.342 3
2 3 3 18413.9 586.325 3
-2 -3 -3 18348.4 581.159 3
2 3 3 19109.6 496.375 1
-2 -3 -3 18161 487.212 1
-2 -3 -3 19208.1 524.197 5
-2 -3 -4 165.26 73.1955 1
-2 -3 -4 219.751 100.4 3
2 3 4 296.41 103.727 6
-2 -3 -4 329.559 114.949 5
2 3 4 215.17 77.3703 1
2 3 4 298.512 107.052 3
2 3 5 69690 944.351 4
-2 -3 -5 68915.2 1070.7 1
-2 -3 -5 71311.3 1265.75 5
2 3 5 69143.9 1117.06 2
-2 -3 -5 69117.8 1204.69 3
2 3 6 81446.6 996.17 4
2 3 6 83405.6 1322.76 2
-2 -3 -6 83756.7 1385.64 3
-2 -3 -6 81888.1 1273.54 1
2 3 6 83550.6 1492.37 6
2 3 7 1425.72 209.251 2
-2 -3 -7 1899.85 223.301 1
2 3 7 1667.27 265.391 6
-2 -3 -7 1726.37 233.268 3
2 3 8 9589.54 603.407 6
2 3 8 9865.7 548.883 2
2 3 9 3578.1 369.943 2
2 3 9 3393.41 404.809 6
2 3 10 2152.51 328.297 2
2 3 11 4061.1 454.987 2
2 3 12 2950.5 418.827 2
2 3 13 270.4 161.239 2
2 3 14 1049.81 289.377 2
-2 -4 9 -83.1508 221.259 2
-2 -4 8 -174.712 229.666 2
-2 -4 7 194.568 195.266 2
-2 -4 6 -149.392 237.453 2
-2 -4 5 4002.03 474.483 2
2 4 -5 3222.94 285.575 6
2 4 -5 3610.43 277.992 5
2 4 -4 656.385 122.522 5
-2 -4 4 605.096 223.224 2
2 4 -4 701.002 143.198 6
2 4 -3 881.684 112.975 5
-2 -4 3 727.409 227.499 2
-2 -4 2 27244.7 972.568 2
2 4 -2 28465.7 940.022 1
2 4 -2 26963.9 432.828 5
2 4 -1 10871.4 543.832 1
2 4 0 1442.03 207.166 2
2 4 0 1615.72 223.034 1
-2 -4 -1 65837.9 1159.73 1
2 4 1 68515.5 1207.24 3
2 4 1 65567.4 1156.33 1
-2 -4 -1 65088.8 599.325 5
2 4 2 4439.07 314.148 3
-2 -4 -2 3991.88 282.988 1
2 4 2 4530.49 306.557 1
-2 -4 -2 4882.4 222.047 5
2 4 3 3567.14 262.751 1
2 4 3 3533.15 278.025 3
-2 -4 -3 3633.45 276.678 3
2 4 3 3364.75 239.171 6
-2 -4 -3 3440.12 223.611 5
-2 -4 -3 3359.88 255.287 1
-2 -4 -4 4417.22 310.999 3
2 4 4 5190.85 327.505 6
2 4 4 5053.78 311.808 1
-2 -4 -4 4664.85 299.818 5
-2 -4 -4 5083.78 319.046 1
2 4 4 4721.3 319.286 3
-2 -4 -5 5540.91 362.806 5
2 4 5 4797.54 344.761 6
-2 -4 -5 5024.66 327.337 1
-2 -4 -5 4793.74 329.646 3
2 4 5 4946.24 323.199 1
-2 -4 -6 7925.18 435.814 3
2 4 6 7380.44 438.579 2
2 4 6 8844.44 506.041 6
2 4 6 7382.3 333.238 4
-2 -4 -6 7463.46 422.995 1
-2 -4 -7 -22.5869 101.017 1
-2 -4 -7 109.593 117.234 3
2 4 7 -19.0286 96.8172 2
2 4 7 -80.7766 137.17 6
2 4 7 57.3266 66.4581 4
-2 -4 -8 64.2659 119.97 3
2 4 8 175.132 137.166 2
2 4 8 27.4263 177.235 6
2 4 8 91.3911 70.2074 4
2 4 9 5063.46 444.454 2
-2 -4 -9 4517.45 394.54 3
-2 -4 -10 1193.8 235.774 3
2 4 10 1030.99 250.671 2
2 4 11 1609.93 310.983 2
-2 -4 -11 911.31 234.447 3
-2 -4 -12 1486.05 300.854 3
2 4 12 1259.18 306.185 2
2 4 13 1917.09 365.179 2
2 4 14 1447.72 333.634 2
-2 -5 9 2677.11 518.95 2
2 5 -9 2890.3 492.31 1
-2 -5 8 -218.662 204.119 2
-2 -5 7 464.795 261.6 2
-2 -5 6 1446.56 351.746 2
2 5 -6 1487.25 347.475 1
2 5 -5 3527.21 456.454 1
-2 -5 5 4250.68 520.944 2
2 5 -4 519.137 229.719 1
2 5 -4 710.702 124.032 6
2 5 -4 519.255 104.16 5
2 5 -3 8355.47 313.783 6
2 5 -3 8349.1 600.787 1
2 5 -3 8013.94 268.5 5
2 5 -2 -5.88384 161.67 1
2 5 -1 43327.3 1189.44 1
2 5 0 74284.4 1459.27 1
2 5 1 13938.6 354.651 6
2 5 1 15270.6 639.674 1
-2 -5 -1 13899.1 605.356 1
2 5 2 31095.7 865.352 3
2 5 2 31191 613.144 6
-2 -5 -2 29649.2 857.801 1
2 5 2 29781.2 871.348 1
-2 -5 -2 30886.5 537.463 5
2 5 3 71748.5 1286.69 3
-2 -5 -3 72800.3 1001.57 5
2 5 3 69692.9 1064.45 6
-2 -5 -3 72457.9 1313.2 1
2 5 3 71481.1 1314.7 1
2 5 4 4654.56 334.9 3
-2 -5 -4 4566.35 329.125 3
2 5 4 4606.92 342.089 1
-2 -5 -4 5061.87 310.499 5
2 5 4 4271.55 300.174 6
-2 -5 -4 4777.37 354.664 1
-2 -5 -5 3512.79 294.133 3
2 5 5 4047.51 325.897 6
-2 -5 -5 4028.06 310.997 5
2 5 5 3409.31 290.259 3
-2 -5 -5 3647.56 320.697 1
2 5 5 3563.01 310.872 1
-2 -5 -6 9666.83 487.634 3
2 5 6 10735.9 566.128 6
-2 -5 -6 9923.28 531.032 1
2 5 6 9856.32 515.859 1
-2 -5 -7 1645.7 227.349 3
2 5 7 1893.71 292.505 6
2 5 7 1223.63 232.037 2
-2 -5 -8 2777.98 303.246 3
2 5 8 3387.17 362.393 2
2 5 8 3090.53 224.912 4
-2 -5 -9 1097.21 204.331 3
2 5 9 1382.51 265.74 2
2 5 9 1423.45 147.56 4
2 5 10 14562.6 815.737 2
-2 -5 -10 16578.1 761.484 3
-2 -5 -11 1035.21 238.88 3
2 5 11 1088.56 278.938 2
-2 -5 -12 118.873 141.169 3
2 5 12 133.121 161.658 2
2 5 13 250.494 221.045 2
2 5 14 -90.6174 153.251 2
2 6 -8 409.549 243.088 1
2 6 -7 116.968 235.875 1
2 6 -6 2315.28 425.607 1
2 6 -5 -25.1766 208.88 1
2 6 -4 1436.57 322.66 1
2 6 -3 1028.3 262.22 1
2 6 -2 26230.6 1055.45 1
2 6 -1 4705.57 448.433 1
2 6 0 -50.6885 173.083 1
2 6 1 40649.2 552.775 6
2 6 1 43389.7 1190.28 1
-2 -6 -2 1975.12 141.349 5
2 6 2 1950.52 274.316 1
2 6 2 2150.56 171.811 6
2 6 3 11951 566.008 3
2 6 3 11610.4 594.59 1
-2 -6 -3 11051.9 400.719 5
2 6 3 10658.3 423.186 6
2 6 4 -61.4377 112.587 3
-2 -6 -4 -26.4526 95.4922 5
2 6 4 90.4632 140.82 1
2 6 4 133.111 116.032 6
2 6 5 27200.5 905.97 1
2 6 5 28353.3 851.373 6
2 6 5 27876.5 838.756 3
-2 -6 -6 1804.28 227.336 3
2 6 6 1799.63 227.661 3
2 6 6 2166.94 282.824 6
2 6 6 1837.95 257.496 1
-2 -6 -7 263.931 130.017 3
2 6 7 244.271 169.085 2
2 6 7 176.38 140.106 1
-2 -6 -8 592.15 164.566 3
2 6 8 701.904 207.364 2
-2 -6 -9 -53.252 143.284 3
2 6 9 -135.15 109.936 4
2 6 9 -35.5408 153.106 2
-2 -6 -10 3358.91 355.064 3
2 6 10 4441.57 486.03 2
-2 -6 -11 1395.9 257.525 3
2 6 11 1141.34 299.034 2
2 6 12 886.093 253.894 2
2 6 13 69.1752 160.708 2
2 6 14 -674.071 263.397 2
2 7 -7 -972.247 338.038 1
2 7 -6 164.118 216.975 1
2 7 -5 287.029 260.967 1
2 7 -4 8122.28 720.493 1
2 7 -3 248.001 253.388 1
2 7 -2 184.793 215.999 1
2 7 -1 25457.4 1073.94 1
2 7 0 15386.7 811.339 1
2 7 1 18350.3 864.418 1
2 7 2 383.091 178.902 1
-2 -7 -2 188.551 62.9334 5
2 7 3 253.418 197.671 1
-2 -7 -3 536.05 112.029 5
-2 -7 -4 87107.7 1311.82 5
2 7 4 86644.9 1755.86 1
2 7 5 2650.86 332.982 1
2 7 6 2642.57 342.288 1
2 7 7 8377.27 580.401 1
2 7 8 885.517 244.523 1
-2 -7 -8 698.072 166.161 3
2 7 8 826.667 240.495 2
-2 -7 -9 3881.94 349.753 3
2 7 9 3942.83 451.967 2
-2 -7 -10 829.707 197.603 3
2 7 10 627.636 239.981 2
2 7 11 17.4033 178.389 2
2 7 12 391.544 205.897 2
2 7 13 109.351 164.967 2
2 7 14 -216.18 215.479 2
2 8 -6 -428.335 250.974 1
2 8 -5 1253.58 362.843 1
2 8 -4 941.362 333.191 1
2 8 -3 -196.175 228.3 1
2 8 -2 6105.21 616.008 1
2 8 -1 10292.8 753.463 1
2 8 0 2029.4 375.605 1
2 8 1 3812.96 452.893 1
-2 -8 -2 433.969 67.4532 5
2 8 2 264.204 185.057 1
2 8 3 3433.04 412.802 1
-2 -8 -3 2976.43 216.621 5
2 8 4 90.8831 169.723 1
-2 -8 -4 33.5532 106.593 5
2 8 5 -107.449 172.94 1
2 8 6 4221.92 452.605 1
2 8 7 7893.5 620.347 1
2 8 8 -42.3458 210.452 1
2 8 9 30904.3 1296.51 2
2 8 10 4897.96 559.583 2
2 8 11 4325.69 530.056 2
2 8 12 -4.68276 151.273 2
2 8 13 1080.17 308.098 2
2 9 -5 442.572 275.642 1
2 9 -4 191.058 232.803 1
2 9 -3 154.718 195.459 1
2 9 -2 2079.74 429.735 1
2 9 -1 10761.6 829.849 1
2 9 0 692.694 296.52 1
2 9 1 8390.78 698.679 1
2 9 2 27.8877 212.184 1
2 9 3 1616.7 338.958 1
2 9 4 21391.6 1039.59 1
2 9 5 -63.7216 223.007 1
2 9 6 1736.05 343.139 1
2 9 7 752.861 270.091 1
2 9 8 6094.21 594.423 1
2 9 9 140.265 221.699 1
2 9 9 74.6291 211.129 2
2 9 10 2380.37 438.208 2
2 9 11 1287.28 338.7 2
2 9 12 451.999 243.33 2
2 9 13 213.16 206.466 2
2 10 -3 175.42 234.565 1
2 10 -2 -82.1937 226.956 1
2 10 -1 463.965 282.72 1
2 10 0 8540.57 774.464 1
2 10 1 6167.82 654.504 1
2 10 2 568.437 240.056 1
2 10 3 1365.99 335.764 1
2 10 4 5943.58 612.846 1
2 10 5 5089.89 569.554 1
2 10 6 -93.655 201.418 1
2 10 7 1471 344.019 1
2 10 8 144.303 210.24 1
2 10 9 -266.592 201.198 2
2 10 9 -195.773 204.385 1
2 10 10 1332.79 333.1 2
2 10 11 1097.97 338.597 2
2 10 12 58.3122 180.078 2
2 11 -2 30.176 236.18 1
2 11 -1 -282.051 223.667 1
2 11 0 -45.2896 224.961 1
2 11 1 -3.35814 165.887 1
2 11 2 141.77 230.776 1
2 11 3 1548.67 398.112 1
2 11 4 1989.41 401.202 1
2 11 5 -57.9574 190.079 1
2 11 6 666.912 309.747 1
2 11 7 210.584 233.957 1
2 11 8 993.342 295.825 1
2 11 9 -1095.63 314.489 1
2 11 10 758.936 282.11 2
2 11 10 631.409 277.124 1
2 11 11 606.593 316.3 2
2 12 1 445.863 278.928 1
2 12 2 -66.0297 227.315 1
2 12 3 -214.596 234.745 1
2 12 4 -371.587 230.791 1
2 12 5 224.604 213.391 1
2 12 6 319.907 228.051 1
2 12 7 72.051 207.018 1
2 12 8 -139.792 187.221 1
2 12 9 -1250.66 356.448 1
-3 11 4 -128.082 216.741 1
-3 11 3 -56.1826 236.668 1
-3 11 2 595.672 320.794 1
-3 11 1 1220.62 368.943 1
-3 11 0 -386.081 272.573 1
-3 11 -1 227.046 252.625 1
-3 11 -2 -32.2365 258.094 1
-3 10 6 51.0881 228.604 2
-3 10 5 364.202 263.884 2
-3 10 5 95.9284 182.135 1
-3 10 4 185.583 189.337 1
-3 10 3 165.977 182.897 1
-3 10 2 60.4036 186.542 1
3 -10 -2 -96.6931 156.881 5
-3 10 1 83.4879 165.459 1
3 -10 -1 8.58094 122.654 5
3 -10 0 161.021 168.883 5
-3 10 0 -27.7053 190.06 1
-3 10 -1 1290.74 370.993 1
-3 10 -2 451.257 268.531 1
-3 10 -3 -684.791 307.205 1
-3 10 -4 3039.94 527.714 1
-3 10 -5 1.86814 294.28 1
-3 9 8 524.489 262.926 2
-3 9 7 8.46582 250.353 2
-3 9 6 -686.782 280.433 2
-3 9 5 85.409 189.864 2
-3 9 5 435.123 275.835 1
-3 9 4 438.453 272.645 1
-3 9 3 181.917 212.595 1
-3 9 2 3916 520.136 1
-3 9 1 -13.4536 199.168 1
3 -9 -1 206.842 202.963 5
3 -9 0 -48.8835 163.659 5
-3 9 0 -35.0173 186.027 1
3 -9 1 1362.67 284.08 5
-3 9 -1 1636.29 358.016 1
-3 9 -2 171.983 203.267 1
3 -9 2 -451.636 201.267 5
-3 9 -3 1116.05 333.698 1
3 -9 3 1543.65 298.583 5
-3 9 -4 -3.14882 243.571 1
-3 9 -5 192.367 193.839 1
-3 9 -6 -175.691 310.978 1
-3 9 -7 678.086 291.601 1
-3 8 9 -432.746 244.818 2
-3 8 8 370.572 287.393 2
-3 8 7 430.342 244.76 2
-3 8 6 -364.097 223.673 2
-3 8 5 271.359 207.817 2
-3 8 4 -6.25286 214.036 1
-3 8 4 284.416 204.621 2
-3 8 3 7908.11 685.268 1
-3 8 2 6860.89 630.582 1
3 -8 -1 1032.31 268.345 5
-3 8 1 350.027 266.426 1
3 -8 0 11295 739.12 5
-3 8 0 10580.4 763.102 1
-3 8 -1 1491.24 331.856 1
3 -8 1 1151.47 262.498 5
-3 8 -2 -42.6104 163.83 1
3 -8 2 -61.9516 145.908 5
-3 8 -3 -102.504 193.677 1
3 -8 3 70.8269 147.256 5
-3 8 -4 5852.1 608.133 1
3 -8 4 6087.02 535.202 5
3 -8 5 3972.43 443.015 5
-3 8 -5 4086.93 517.21 1
-3 8 -6 1063.19 348.525 1
-3 8 -7 31.1602 231.274 1
-3 8 -8 -1003.34 329.71 1
-3 7 9 565.383 272.554 2
-3 7 8 203.991 244.802 2
-3 7 7 162.762 198.945 2
-3 7 6 294.256 239.866 2
-3 7 5 4.63287 167.905 2
-3 7 4 4420.68 515.458 1
-3 7 4 4031.38 504.202 2
-3 7 3 17.5573 42.9501 3
-3 7 3 -158.437 245.677 1
-3 7 2 5863.34 546.239 1
-3 7 1 989.422 277.589 1
-3 7 0 3709.67 442.664 1
3 -7 0 3291.48 399.029 5
-3 7 -1 2891.91 395.612 1
3 -7 1 2321.1 332.392 5
3 -7 2 4045.04 425.84 5
-3 7 -2 4467.35 478.767 1
-3 7 -3 78.7342 172.306 1
3 -7 3 -241.723 214.166 5
-3 7 -4 2832.65 416.212 1
3 -7 4 3410.83 398.53 5
3 -7 5 426.178 201.419 5
-3 7 -5 -45.8642 165.041 1
3 -7 6 132.247 129.163 5
-3 7 -6 211.366 154.818 1
-3 7 -7 673.405 270.289 1
3 -7 7 978.963 247.162 5
-3 7 -8 150.407 227.439 1
-3 7 -9 514.087 260.766 1
-3 6 10 2142.82 456.592 2
-3 6 9 4926.8 620.246 2
-3 6 8 3268.72 489.126 2
-3 6 7 1718.72 367.153 2
-3 6 6 4108.84 507.117 2
-3 6 5 11149.9 763.336 2
-3 6 4 5752.1 546.649 2
-3 6 3 682.639 76.5996 3
-3 6 3 650.331 219.858 2
-3 6 3 628.618 240.464 1
-3 6 2 9908.18 651.585 1
-3 6 1 1112.23 265.945 1
3 -6 0 3274.4 378.837 5
-3 6 0 2848.77 360.352 1
3 -6 1 12078.1 688.326 5
-3 6 -1 10592.3 653.643 1
3 -6 2 15551.1 777.784 5
-3 6 -2 15610.4 785.808 1
-3 6 -3 2256.77 340.234 1
3 -6 3 2592.37 355.61 5
-3 6 -4 6947.87 580.97 1
3 -6 4 7486.57 559.139 5
3 -6 5 11461.2 690.475 5
-3 6 -5 12694.2 765.975 1
3 -6 6 -21.0374 100.91 6
-3 6 -6 104.413 176.627 1
3 -6 6 -9.94626 149.754 5
3 -6 7 44.8081 140.954 5
-3 6 -7 132.145 182.134 1
-3 6 -8 1498.83 329.717 1
-3 6 -9 187.422 182.2 1
-3 5 10 1582.59 388.91 2
-3 5 9 -473.85 263.099 2
-3 5 8 7536.85 711.228 2
-3 5 7 6880.96 646.401 2
-3 5 6 4262.92 506.596 2
-3 5 5 1691.01 330.487 2
-3 5 4 10587.9 681.356 2
-3 5 3 10063.6 642.7 2
-3 5 3 8896.81 217.507 3
-3 5 2 1437.97 262.662 1
-3 5 2 1324.37 142.546 3
-3 5 1 3526.85 368.436 1
-3 5 0 970.89 213.832 1
3 -5 1 2547.54 323.311 5
-3 5 -1 2379.23 295.87 1
3 -5 2 760.566 198.578 5
-3 5 -2 545.737 174.964 1
-3 5 -3 954.885 218.518 1
3 -5 3 1098.58 226.885 5
3 -5 4 -2.41659 144.008 5
-3 5 -4 -39.7978 156.488 1
3 -5 5 71.4333 161.694 5
-3 5 -5 174.695 146.537 1
3 -5 6 8567.75 500.382 6
-3 5 -6 8854.36 628.024 1
3 -5 6 8052.97 575.524 5
3 -5 7 1481.27 233.501 6
-3 5 -7 1753.59 334.78 1
3 -5 7 1754.5 296.259 5
3 -5 8 1303.36 272.854 5
3 -5 8 1173.88 238.72 6
-3 5 -8 935.921 240.498 1
-3 5 -9 639.908 244.413 1
-3 5 -10 538.377 253.606 1
-3 4 10 5395.14 652.769 2
-3 4 9 272.81 247.68 2
-3 4 8 -106.554 232.143 2
-3 4 7 2003.3 379.278 2
-3 4 6 9868.4 709.904 2
-3 4 6 10147.1 439.623 4
-3 4 5 68299.7 1703.87 2
-3 4 5 67224.9 1181.94 4
-3 4 4 25028.9 982.042 2
-3 4 3 23956.2 913.292 2
-3 4 2 25037.6 528.815 3
-3 4 2 25530.8 904.065 1
-3 4 2 23450.1 862.825 2
-3 4 1 43282.4 1131.2 1
-3 4 1 41550.6 796.457 3
-3 4 0 36.0095 129.271 1
3 -4 1 9400.74 511.168 1
-3 4 -1 9650.5 506.894 1
3 -4 1 9502.06 558.501 5
3 -4 2 735.398 160.12 1
-3 4 -2 789.832 165.371 1
-3 4 -3 11200.6 560.449 1
3 -4 3 11519.2 552.599 1
3 -4 3 11723.5 626.197 5
3 -4 4 9930.39 592.262 5
-3 4 -4 8411.26 501.443 1
-3 4 -4 8542.68 498.467 2
3 -4 5 964.701 223.611 5
-3 4 -5 1246.2 242.034 1
-3 4 -6 2219.22 303.173 1
3 -4 6 2340.26 315.931 5
-3 4 -7 91.133 143.291 1
3 -4 7 200.954 119.569 6
3 -4 7 -83.743 151.008 5
-3 4 -8 57.0648 157.932 1
3 -4 8 488.794 186.665 6
3 -4 8 96.3176 145.977 5
-3 4 -9 329.575 195.269 1
3 -4 9 303.048 160.92 6
-3 4 -10 1576.95 331.609 1
-3 3 10 55.4875 255.683 2
-3 3 9 2347.87 436.641 2
-3 3 8 10534 804.016 2
-3 3 7 7739.04 650.85 2
3 -3 -6 1757.28 152.673 3
-3 3 6 1848.13 182.654 4
-3 3 6 1645.57 326.921 2
3 -3 -5 404.966 68.7453 3
-3 3 5 374.896 175.937 2
-3 3 5 377.187 111.484 4
-3 3 4 18033.3 582.427 4
-3 3 4 18893.8 818.583 2
-3 3 3 5540.7 425.142 2
-3 3 2 2870.39 184.005 3
-3 3 2 2508.7 287.813 2
-3 3 1 37679.4 965.233 1
-3 3 1 37726.1 958.146 2
3 -3 -1 38495.7 984.017 1
-3 3 1 37608.6 735.613 3
3 -3 0 73646.9 1294.37 1
-3 3 0 73513.4 1274.91 1
3 -3 1 14959.7 663.716 5
-3 3 -1 14628.4 552.109 1
3 -3 1 14791 561.313 1
3 -3 2 4720.8 315.768 1
3 -3 2 5121.91 401.985 5
-3 3 -2 5034.47 327.617 1
3 -3 3 8781.06 419.674 1
3 -3 3 9273.46 536.278 5
-3 3 -3 8451.96 425.582 1
3 -3 4 7795.74 510.396 5
-3 3 -4 7243.52 409.495 1
-3 3 -4 7310.11 402.281 2
-3 3 -5 1531.85 200.971 2
-3 3 -5 1918.52 237.952 1
3 -3 5 1988.91 286.139 5
-3 3 -6 857.523 165.111 2
3 -3 6 380.955 168.414 5
-3 3 -6 760.92 178.356 1
-3 3 -7 984.119 219.172 1
3 -3 7 675.026 186.397 6
3 -3 7 857.769 232.841 5
-3 3 -8 7589.57 544.746 1
3 -3 8 8061.18 594.769 5
3 -3 8 8290.41 554.149 6
3 -3 9 2125.24 311.933 6
-3 3 -9 2053.04 326.906 1
-3 3 -10 403.473 174.264 1
3 -3 10 842.803 254.362 6
-3 3 -11 -351.138 198.282 1
-3 2 10 2777.99 475.777 2
-3 2 9 975.959 298.253 2
-3 2 8 282.099 248.539 2
-3 2 7 19858.2 1017.97 2
3 -2 -6 20801.8 631.895 3
-3 2 6 22277.9 1010.03 2
3 -2 -5 20778 580.578 3
-3 2 5 21055.7 912.147 2
-3 2 5 21087.8 572.67 4
3 -2 -4 1086.12 133.969 3
-3 2 4 1019.57 216.488 2
-3 2 4 1075.9 144.51 4
-3 2 3 5838 420.442 2
-3 2 3 6182.31 330.623 4
3 -2 -3 5830.93 275.73 3
-3 2 2 63407.6 1230.58 2
-3 2 2 62935.2 1077.86 4
3 -2 -2 62562.6 1261.99 1
-3 2 1 99550.2 1194.93 3
-3 2 1 98278.4 1406.15 2
3 -2 -1 100478 1464.38 1
-3 2 0 4843.92 301.749 1
-3 2 0 4730.02 287.952 2
3 -2 0 4611.6 299.76 1
-3 2 0 4802.48 290.669 3
3 -2 1 2611.45 277.78 5
3 -2 1 2592.4 212.856 1
-3 2 -1 2709.61 217.886 1
-3 2 -2 6324.25 307.851 1
3 -2 2 6395.76 310.712 1
3 -2 2 6716.71 429.334 5
3 -2 3 53962 1217.63 5
-3 2 -3 53041.7 867.305 2
3 -2 3 53910.1 874.873 1
-3 2 -3 53196.6 892.132 1
-3 2 -4 7057.61 331.065 2
-3 2 -4 7700.45 364.865 1
3 -2 5 20268.1 803.264 5
-3 2 -5 19860.4 623.46 1
-3 2 -5 21523.2 630.724 2
3 -2 6 5508.91 449.138 5
-3 2 -6 5713.01 371.935 1
-3 2 -6 5443.5 351.567 2
3 -2 7 299.982 140.887 6
-3 2 -7 254.594 147.691 1
3 -2 7 310.399 168.496 5
-3 2 -7 313.835 146.336 2
-3 2 -8 5711.25 437.717 1
3 -2 8 6314.71 529.049 5
3 -2 8 6147.75 483.951 6
-3 2 -9 1832.22 290.015 1
3 -2 9 1887.04 329.329 2
3 -2 9 2517.82 343.067 6
-3 2 -10 66.4339 163.667 1
3 -2 10 326.477 210.144 6
3 -2 10 -155.733 205.726 2
-3 2 -11 1644.98 310.88 1
3 -2 11 1527.85 323.241 2
3 -2 11 1470.86 315.534 6
3 -2 12 285.946 197.586 2
-3 1 10 269.319 247.924 2
-3 1 9 -363.188 245.691 2
-3 1 8 -151.287 240.61 2
-3 1 7 12748.3 809.537 2
-3 1 6 5633.58 525.638 2
3 -1 -5 542.45 136.322 3
-3 1 5 441.235 186.252 2
3 -1 -4 1516.78 178.558 3
-3 1 4 1270.2 223.887 2
3 -1 -3 1939.96 191.209 3
-3 1 3 2020.58 187.693 4
-3 1 3 2091.59 260.745 2
3 -1 -2 -17.125 69.2494 3
-3 1 2 -68.1787 123.871 2
3 -1 -2 8.76773 83.5091 2
-3 1 2 -222.402 90.9241 4
3 -1 -1 8814.7 417.944 1
-3 1 1 9731.58 390.46 3
3 -1 -1 9816.39 429.432 2
-3 1 1 9413.33 406.273 4
-3 1 1 9900.25 430.276 2
3 -1 -1 9912.61 392.96 3
-3 1 0 46707.9 881.769 3
-3 1 0 46230.4 797.023 2
-3 1 0 45649.7 891.807 4
3 -1 0 46185.9 840.607 1
-3 1 -1 1787.72 143.199 2
3 -1 1 1417.77 198.693 5
3 -1 1 1756.87 150.527 1
-3 1 -1 1713.28 190.62 3
3 -1 2 50429 1101.42 5
3 -1 2 50632 691.87 1
-3 1 -2 49760.7 677.399 1
3 -1 3 588.527 84.0696 1
-3 1 -3 484.098 78.5167 1
-3 1 -3 638.33 80.5299 2
-3 1 -3 626.107 157.276 5
3 -1 3 487.062 168.856 5
3 -1 4 88471.9 1547.78 5
-3 1 -4 88033.7 915.39 2
-3 1 -4 87059.7 972.404 1
-3 1 -5 34758.7 688.552 2
-3 1 -5 34777.2 705.725 1
3 -1 5 35849.9 1029.23 5
-3 1 -6 48001.7 933.508 2
-3 1 -6 47593.3 922.065 1
3 -1 6 47875 1229.42 5
3 -1 6 47142 984.234 2
3 -1 7 74.9135 144.801 5
-3 1 -7 349.318 133.41 1
3 -1 7 258.138 135.897 2
3 -1 7 532.517 171.639 6
-3 1 -7 342.036 112.619 2
3 -1 8 3623.4 389.891 6
3 -1 8 2859.78 323.945 2
3 -1 9 16733.4 793.061 2
3 -1 9 16913.7 833.525 6
3 -1 10 64.1314 141.261 2
3 -1 10 351.537 209.063 6
3 -1 11 676.116 229.404 2
3 -1 11 705.256 247.642 6
3 -1 12 -126.998 163.413 2
-3 0 10 657.667 335.777 2
-3 0 9 -22.0623 175.404 2
-3 0 8 1632.66 363.041 2
-3 0 7 881.06 284.892 2
-3 0 6 6094.31 544.718 2
-3 0 5 11596.7 681.564 2
-3 0 4 4101.52 389.974 2
3 0 -4 4672.48 281.009 4
3 0 -3 3107.45 257.283 3
-3 0 3 2866.56 304.151 2
3 0 -3 2904.51 230.095 4
3 0 -2 7196.39 372.753 3
3 0 -2 6604.67 389.878 2
-3 0 2 6627.47 395.762 2
-3 0 2 6186.79 320.361 4
3 0 -2 6922.8 341.98 4
3 0 -1 36929.9 803.821 2
3 0 -1 36767.7 812.545 3
-3 0 1 37090.2 819.13 2
-3 0 1 34250.8 743.142 4
3 0 -1 36571.9 771.308 4
-3 0 0 15332.8 527.522 3
-3 0 0 14218.8 481.32 4
-3 0 0 15267.8 446.859 2
3 0 0 14506.9 432.451 2
3 0 0 14761.1 514.951 3
-3 0 -1 13714 512.731 3
3 0 1 13843.1 338.628 2
-3 0 -1 13760.9 337.714 2
3 0 1 13311.3 530.748 5
-3 0 -1 13315.7 477.523 4
3 0 1 14303.9 506.351 3
3 0 1 14001.4 364.298 1
3 0 2 28306.6 779.594 5
-3 0 -2 28503.5 778.169 5
3 0 2 27380.4 386.262 1
-3 0 -2 27601.8 691.773 4
-3 0 -2 27075.3 743.735 3
-3 0 -3 206506 2224.31 5
3 0 3 207977 2180.91 5
-3 0 -3 207661 1926.66 4
-3 0 -3 207968 2143.25 3
3 0 4 41376.7 1024.06 5
-3 0 -4 43017.4 1059.56 5
-3 0 -4 39992.9 459.133 1
-3 0 -4 43338 894.447 4
-3 0 -4 40145 457.052 2
-3 0 -5 17600.8 421.931 2
3 0 5 17939 705.931 5
-3 0 -5 16980.3 398.151 1
3 0 5 17259.6 436.166 2
-3 0 -5 17260.8 582.236 4
3 0 6 28058 931.557 5
3 0 6 27361.2 665.772 2
-3 0 -6 27229.7 642.188 2
-3 0 -6 28992.3 766.748 4
3 0 7 802.155 156.891 2
3 0 7 568.695 176.764 6
3 0 7 440.992 178.936 5
-3 0 -7 724.078 143.596 2
-3 0 -7 790.075 154.674 4
3 0 8 368.972 153.891 2
3 0 8 534.242 198.868 6
-3 0 -8 313.764 112.893 2
3 0 9 11308.6 618.453 2
3 0 9 11786 710.409 6
3 0 10 24820.3 988.047 2
3 0 10 24140.4 1058.85 6
3 0 11 8623.63 687.505 6
3 0 11 8662.72 637.187 2
3 0 12 -132.766 161.933 2
3 0 13 346.78 223.013 2
-3 -1 10 2465.48 485.235 2
-3 -1 9 558.201 255.6 2
-3 -1 8 134.215 171.907 2
-3 -1 7 1661.26 342.614 2
3 1 -7 1935.52 195.33 4
-3 -1 6 1017.77 259.502 2
3 1 -6 1170.57 155.436 4
-3 -1 5 693.425 234.828 2
3 1 -5 605.187 131.69 4
-3 -1 4 1199.98 248.505 2
3 1 -4 1062.22 157.468 4
3 1 -3 58748.8 1006.77 4
-3 -1 3 61757.4 1363.76 2
3 1 -2 28280.3 787.624 3
3 1 -2 27882.6 816.492 2
3 1 -2 28340.8 700.825 4
-3 -1 2 27549 821.467 2
3 1 -1 53875.3 1055.29 3
3 1 -1 56500.3 1029.99 2
-3 -1 1 56182.4 1049.35 2
3 1 -1 54364.5 952.449 4
3 1 0 4558.2 308.738 3
-3 -1 0 5396.27 329.417 3
3 1 0 5040.37 269.017 2
-3 -1 0 5136.93 279.853 2
-3 -1 0 4738.6 281.356 4
3 1 0 4676.46 289.664 4
-3 -1 -1 5252.77 333.44 3
3 1 1 5351.1 223.449 2
-3 -1 -1 5409.08 229.785 2
3 1 1 5535.54 329.352 5
3 1 1 5255.13 301.992 4
3 1 1 5179.67 326.916 3
-3 -1 -2 45548.5 983.546 3
3 1 2 44586.6 869.445 4
-3 -1 -2 45376.4 936.4 5
3 1 2 46150.8 448.964 2
3 1 2 44826.3 940.814 5
-3 -1 -2 46572.5 868.632 4
3 1 2 47207.6 968.534 3
3 1 3 14080.2 555.654 5
-3 -1 -3 14446.3 564.331 5
-3 -1 -3 14024.2 486.696 4
3 1 3 13874.9 491.045 4
-3 -1 -3 14432.3 577.075 3
3 1 4 299477 2641.38 5
-3 -1 -4 294975 2688.26 5
-3 -1 -4 294023 2236.73 4
-3 -1 -4 301147 2680.26 3
3 1 5 104909 1636.46 5
3 1 5 103346 945.304 2
-3 -1 -5 100024 839.841 1
-3 -1 -5 99725.6 1314.01 4
-3 -1 -6 24950.2 670.752 4
3 1 6 25909.6 871.846 5
3 1 6 26660.5 602.556 2
-3 -1 -6 25400.3 607.618 2
-3 -1 -7 4102.2 289.875 2
3 1 7 4044.96 379.621 6
3 1 7 4044.71 387.674 5
3 1 7 4456.58 297.37 2
-3 -1 -7 4129.03 289.235 4
-3 -1 -8 12861 575.577 2
3 1 8 13160.3 702.184 6
-3 -1 -8 12630.2 496.427 4
3 1 9 77065.1 1793.41 6
-3 -1 -9 76535 1218.99 4
3 1 10 2371.7 319.4 2
3 1 10 2579.62 374.3 6
3 1 11 1291.05 262.722 2
3 1 11 1143.09 301.956 6
3 1 12 367.571 175.241 2
3 1 13 -181.681 169.763 2
-3 -2 9 298.6 267.861 2
-3 -2 8 1130.05 314.777 2
-3 -2 7 2692.19 432.257 2
3 2 -7 3419.75 281.945 4
-3 -2 6 4435.21 493.931 2
3 2 -6 4733.35 328.507 4
-3 -2 5 33.2782 187.653 2
3 2 -5 64.8379 106.211 4
-3 -2 4 4655.95 444.944 2
3 2 -4 4914.63 326.938 4
-3 -2 3 44554.6 1207.12 2
3 2 -3 42439.4 932.45 4
-3 -2 2 5343.68 392.353 2
3 2 -2 5012.55 327.218 4
3 2 -1 7207.88 399.42 2
3 2 -1 6874.21 405.765 3
-3 -2 1 7054.23 406.581 2
3 2 -1 7529.75 382.221 4
3 2 0 150410 1841.33 3
3 2 0 151894 1597.97 2
3 2 0 148453 1644.6 4
3 2 0 152161 1529.48 5
-3 -2 0 150318 1641.73 2
3 2 1 33756.6 864.84 3
-3 -2 -1 34409.3 865.037 3
3 2 1 35529 686.382 2
3 2 1 33994.2 732.275 5
-3 -2 -1 32781.9 680.209 2
3 2 1 33974.2 782.347 4
-3 -2 -2 5005.92 351.569 3
-3 -2 -2 4878.44 299.543 5
3 2 2 5113.98 218.425 1
3 2 2 5516.69 311.324 5
3 2 2 5538.55 230.341 2
3 2 2 5026.66 303.607 4
3 2 2 5300.75 346.846 3
-3 -2 -3 105567 1574.03 3
3 2 3 108166 1433.78 5
-3 -2 -3 107815 1461.19 5
3 2 3 106814 792.852 1
3 2 3 107067 1349.78 4
3 2 3 106368 1525.87 3
-3 -2 -4 6120.52 327.972 4
3 2 4 5965.49 218.206 2
-3 -2 -4 5892.64 379.168 5
3 2 4 5828.54 365.074 5
-3 -2 -4 5925.34 181.253 1
3 2 4 6051.24 328.845 4
-3 -2 -5 82802.3 1191.25 4
3 2 5 83785 918.143 2
3 2 5 84479.8 1437.81 5
-3 -2 -5 85017 1512.04 5
-3 -2 -5 81961 829.052 1
3 2 5 80795.2 1175.95 4
-3 -2 -5 80169.4 1462.43 3
-3 -2 -6 272.845 125.006 3
3 2 6 367.863 146.653 6
-3 -2 -6 241.033 70.7191 1
3 2 6 398.052 164.15 5
3 2 6 328.203 91.2827 2
-3 -2 -6 254.228 95.6025 4
3 2 7 16196.9 725.941 6
3 2 7 17387.8 576.023 2
-3 -2 -7 16475.1 538.443 4
-3 -2 -7 16108.5 529.1 1
3 2 8 5510.66 465.434 6
3 2 8 5401.25 367.737 2
-3 -2 -8 5376.7 313.517 4
-3 -2 -8 5155.33 347.932 1
3 2 9 5470.09 408.791 2
3 2 9 5773.47 506.584 6
-3 -2 -9 5154.15 387.057 1
3 2 10 7308.03 609.581 6
3 2 10 6805.67 499.551 2
3 2 11 1140.9 253.006 2
3 2 11 1334.93 307.745 6
3 2 12 44.1264 179.278 2
3 2 13 146.529 121.117 2
-3 -3 9 408.13 231.995 2
-3 -3 8 348.381 212.381 2
3 3 -7 3295.96 307.243 4
-3 -3 7 3811.72 534.752 2
3 3 -6 30759.2 886.175 4
-3 -3 6 31252.6 1321.26 2
-3 -3 5 29196.7 1193.8 2
-3 -3 4 145.271 177.652 2
-3 -3 3 12069.2 683.492 2
-3 -3 2 81942.4 1631.08 2
3 3 -1 13014.1 576.972 2
-3 -3 1 12341.9 596.717 2
3 3 0 10693.4 525.488 3
-3 -3 0 11725.7 526.984 2
3 3 0 11323 384.437 5
3 3 0 10969.1 487.296 2
3 3 1 17193.9 651.374 3
3 3 1 16190.7 525.93 1
3 3 1 16451.6 543.292 2
3 3 1 15826.4 461.279 5
3 3 2 3330.01 293.32 3
-3 -3 -2 3654.69 317.631 3
3 3 2 3889.09 247.293 5
3 3 2 3598.09 243.966 2
3 3 2 3605.92 270.975 4
-3 -3 -2 3859.06 253.868 5
3 3 2 3599.81 233.97 1
-3 -3 -3 61105.7 1230.9 3
-3 -3 -3 61596.6 835.408 1
3 3 3 61177.8 1018.92 5
-3 -3 -3 60878.5 1054.8 5
3 3 3 60523.8 849.241 1
3 3 3 60028.9 1067.93 4
3 3 3 62408.6 1232.71 3
3 3 4 82.9143 115.396 3
-3 -3 -4 -15.6535 123.3 3
-3 -3 -4 149.974 127.529 5
3 3 4 92.1929 110.841 5
-3 -3 -4 16.7083 50.1985 1
3 3 4 -158.415 128.142 4
3 3 4 50.5512 64.1888 1
-3 -3 -5 4602 358.041 5
3 3 5 4889.36 274.677 2
3 3 5 5073.96 355.278 5
-3 -3 -5 5280.45 261 1
3 3 5 5440.48 321.108 4
-3 -3 -5 5115.7 383.734 3
3 3 6 8133.82 376.361 2
3 3 6 7151.62 463.346 6
-3 -3 -6 7494.08 341.372 1
3 3 6 6951.11 363.939 4
-3 -3 -6 7435.8 483.554 3
-3 -3 -7 -15.4645 90.4462 1
-3 -3 -7 -54.8936 107.707 3
3 3 7 87.7312 145.379 6
3 3 7 51.9564 91.8174 2
3 3 7 42.3224 82.8953 4
-3 -3 -8 594.777 194.32 3
3 3 8 929.121 228.538 6
-3 -3 -8 719.382 145.019 1
3 3 8 922.928 177.146 2
3 3 9 39792 1290.99 6
3 3 9 38933.6 1076.73 2
-3 -3 -9 37993.8 1228.62 3
3 3 10 4249.22 491.709 6
3 3 10 4332.97 406.531 2
3 3 11 263.593 247.79 6
3 3 11 308.093 160.903 2
3 3 12 1535.79 294.794 2
3 3 13 272.658 185.311 2
3 3 14 139.546 146.783 2
-3 -4 9 -622.924 298.37 2
-3 -4 8 493.037 302.174 2
-3 -4 7 814.686 311.086 2
-3 -4 6 5377.21 609.894 2
-3 -4 5 -196.914 252.855 2
-3 -4 4 580.827 273.479 2
-3 -4 3 11559.6 720.938 2
-3 -4 2 22833.1 943.048 2
3 4 -1 13307.2 632.744 1
3 4 -1 13117.8 373.65 5
3 4 0 30619.6 891.749 2
3 4 0 30888 894.601 1
3 4 0 30104.4 530.642 5
3 4 1 836.223 159.444 2
3 4 1 849.109 164.053 1
3 4 1 834.439 103.493 5
3 4 2 291.293 102.9 1
3 4 2 414.837 141.325 3
3 4 2 284.317 104.619 2
3 4 2 303.775 78.3977 5
-3 -4 -2 344.169 93.5808 5
-3 -4 -3 380.402 102.378 1
3 4 3 210.267 102.718 3
-3 -4 -3 310.486 134.897 3
3 4 3 409.305 102.95 5
-3 -4 -3 322.867 112.406 5
3 4 3 378.291 103.702 1
-3 -4 -4 11435.8 563.935 3
-3 -4 -4 11203.3 436.089 1
-3 -4 -4 11075.9 495.335 5
3 4 4 11752.5 448.831 1
3 4 4 10839.4 543.882 3
-3 -4 -5 1568.77 176.27 1
-3 -4 -5 1782.66 247.539 3
3 4 5 1807.45 231.199 6
-3 -4 -5 1315.47 195.782 5
3 4 5 1699.7 202.771 4
3 4 5 1806.24 184.511 1
-3 -4 -6 6323.75 447.301 3
3 4 6 6251.85 343.994 1
3 4 6 5631.37 357.521 2
3 4 6 6853.51 459.031 6
-3 -4 -6 6165.34 351.432 1
3 4 6 6025.65 348.925 4
-3 -4 -7 -63.5143 128.678 3
3 4 7 87.063 156.828 6
3 4 7 59.3635 94.6508 2
3 4 7 1.23386 83.8619 4
-3 -4 -7 84.3159 80.4859 1
3 4 8 20290.9 878.552 6
-3 -4 -8 19629.5 717.473 1
3 4 8 18595.5 589.011 4
3 4 8 18583.8 716.087 2
-3 -4 -8 20230.7 847.56 3
-3 -4 -9 2740.17 350.955 3
3 4 9 2717.11 313.209 2
3 4 9 2789.64 388.125 6
3 4 10 22221.9 1046.65 6
3 4 10 20876.7 874.531 2
-3 -4 -10 21670.8 966.363 3
-3 -4 -11 549.156 218.9 3
3 4 11 466.222 218.91 6
3 4 11 673.038 202.43 2
-3 -4 -12 477.632 227.059 3
3 4 12 475.274 199.854 2
-3 -4 -13 -449.426 217.228 3
3 4 13 175.561 161.907 2
3 4 14 777.373 246.91 2
-3 -5 8 29.526 204.494 2
-3 -5 7 304.918 231.883 2
-3 -5 6 597.764 280.588 2
-3 -5 5 6353.91 659.957 2
-3 -5 4 118.581 208.458 2
3 5 -3 2449.84 364.438 1
3 5 -3 3025.44 188.421 5
3 5 -2 990.791 236.471 1
3 5 -2 1045.57 97.1335 5
3 5 -1 28117.2 980.013 1
3 5 0 3074.46 330.21 1
3 5 1 1252.61 214.06 1
3 5 2 15521.9 627.827 1
-3 -5 -2 15422.5 431.685 5
-3 -5 -3 14951.1 587.967 1
-3 -5 -3 14525.6 491.015 5
3 5 3 14787.5 593.022 1
-3 -5 -4 3755.4 346.556 3
3 5 4 4540.12 324.94 6
-3 -5 -4 4593.59 331.642 1
-3 -5 -4 4821.01 320.934 5
3 5 4 4343.62 323.008 1
-3 -5 -5 1029.46 209.556 3
3 5 5 813.569 171.149 6
-3 -5 -5 914.425 171.303 5
-3 -5 -5 765.787 153.278 1
3 5 5 1196.24 181.904 1
3 5 6 462.518 137.699 1
-3 -5 -6 376.109 147.344 3
3 5 6 411.369 134.681 4
-3 -5 -6 434.11 127.8 1
3 5 6 393.849 143.873 6
-3 -5 -7 -21.7112 88.3488 1
-3 -5 -7 116.931 128.191 3
3 5 7 48.0966 142.09 6
3 5 7 -28.4501 95.7091 4
3 5 7 124.067 125.265 2
-3 -5 -8 6668.5 496.203 3
3 5 8 6262.58 457.413 2
3 5 8 7180.47 394.939 4
3 5 8 6918.68 529.23 6
-3 -5 -9 2207.31 322.222 3
3 5 9 1821.65 322.195 6
3 5 9 2129.95 315.845 2
3 5 9 2165.69 221.664 4
3 5 10 15540.3 893.733 6
3 5 10 15216.3 790.934 2
-3 -5 -10 15342.1 799.872 3
-3 -5 -11 1816.88 316.38 3
3 5 11 2123.88 326.707 2
-3 -5 -12 122.998 203.2 3
3 5 12 -34.2455 146.388 2
3 5 13 6312.94 605.225 2
-3 -5 -13 6305.59 603.525 3
3 5 14 125.265 149.991 2
3 6 -7 1246.08 384.136 1
3 6 -6 582.371 271.612 1
3 6 -5 -67.7132 230.648 1
3 6 -4 1058.4 334.934 1
3 6 -3 2832.38 412.019 1
3 6 -2 184.404 179.245 1
3 6 -1 1834.9 310.525 1
3 6 0 65.685 168.972 1
3 6 1 1891.97 282.626 1
3 6 2 96.4665 134.125 1
-3 -6 -2 23.318 47.055 5
3 6 3 1958.35 203.004 6
-3 -6 -3 1725.04 168.837 5
3 6 3 1789.65 265.389 1
3 6 4 1257.62 218.282 1
3 6 4 1099.17 184.279 6
-3 -6 -4 987.84 159.418 5
-3 -6 -5 7578.97 500.318 3
3 6 5 7484.83 473.054 1
3 6 5 6887.16 438.176 6
-3 -6 -5 7337.88 439.326 5
-3 -6 -6 3662.3 361.03 3
3 6 6 3290.84 340.087 6
3 6 6 3536.02 335.419 1
-3 -6 -7 3361.64 353.822 3
3 6 7 3959.89 392.73 6
3 6 7 3499.4 332.72 1
-3 -6 -8 4315.44 400.797 3
3 6 8 4466.23 427.001 2
3 6 8 4493.4 442.413 6
3 6 8 4238.28 327.239 4
-3 -6 -9 926.81 228.863 3
3 6 9 768.83 239.09 6
3 6 9 858.315 220.547 2
3 6 9 720.272 154.063 4
3 6 10 102.708 179.506 2
3 6 10 214.109 209.39 6
3 6 10 346.666 125.384 4
-3 -6 -11 3691.07 422.033 3
3 6 11 4239.29 466.983 2
-3 -6 -12 2246.74 336.146 3
3 6 12 2347.87 371.509 2
3 6 13 59.6799 163.212 2
3 6 14 1725.55 371.628 2
3 7 -6 147.46 203.895 1
3 7 -5 1387.22 350.027 1
3 7 -4 139.412 183.152 1
3 7 -3 1472.8 343.473 1
3 7 -2 10345.9 753.305 1
3 7 -1 12265.8 783.404 1
3 7 0 -1.48987 32.4859 6
3 7 0 27.277 176.204 1
3 7 1 305.575 63.6167 6
3 7 1 570.575 187.44 1
3 7 2 8303.88 581.838 1
3 7 2 7385.35 327.503 6
-3 -7 -3 10035.2 376.688 5
3 7 3 10881 450.37 6
3 7 3 11580.1 652.766 1
3 7 4 6762.37 402.149 6
-3 -7 -4 6434.08 363.573 5
3 7 4 6628.83 491.765 1
3 7 5 5334.43 392.097 6
-3 -7 -5 5290.59 378.103 5
3 7 5 5476.12 448.265 1
3 7 6 -26.6042 129.561 1
3 7 6 -50.4705 152.405 6
-3 -7 -7 214.895 137.914 3
3 7 7 334.445 182.912 6
3 7 7 267.887 159.387 1
-3 -7 -8 4765.87 429.963 3
3 7 8 5228.61 490.301 2
3 7 8 5038.84 481.909 6
3 7 8 5652.25 480.948 1
-3 -7 -9 299.116 161.528 3
3 7 9 222.616 171.165 2
3 7 9 282.597 125.68 4
-3 -7 -10 -114.799 158.065 3
3 7 10 -125.114 176.793 2
3 7 10 7.992 103.727 4
-3 -7 -11 146.442 177.798 3
3 7 11 407.596 198.914 2
3 7 12 1096.71 290.12 2
3 7 13 94.9753 156.451 2
3 7 14 430.528 214.501 2
3 8 -5 694.388 304.903 1
3 8 -4 389.923 261.12 1
3 8 -3 5050.61 597.408 1
3 8 -2 411.686 298.484 1
3 8 -1 335.699 215.376 1
3 8 0 1929.33 356.724 1
3 8 1 2914.25 410.361 1
3 8 2 7128.61 301.673 6
3 8 2 7656.2 606.429 1
3 8 3 4129.06 278.855 6
-3 -8 -3 4050.65 223.153 5
3 8 3 4605.31 467.192 1
3 8 4 2256 340.478 1
3 8 4 2823.04 269.954 6
-3 -8 -4 2291.67 220.645 5
3 8 5 1804.91 307.593 1
-3 -8 -5 1577.71 220.853 5
3 8 5 1398.74 222.775 6
3 8 6 1120.05 224.659 6
3 8 6 1668.24 291.955 1
3 8 7 796.311 224.398 1
3 8 8 1673.38 306.652 1
3 8 9 5335.34 510.683 1
-3 -8 -9 5805.89 477.964 3
3 8 9 5500.08 555.744 2
-3 -8 -10 1029.29 229.6 3
3 8 10 1192.55 296.956 2
3 8 10 991.644 190.305 4
3 8 11 46.0224 175.334 2
3 8 12 1523.36 345.927 2
3 8 13 253.983 210.081 2
3 8 14 -567.847 257.3 2
3 9 -4 564.949 280.294 1
3 9 -3 994.728 336.868 1
3 9 -2 1156.5 325.684 1
3 9 -1 2099.54 399.546 1
3 9 0 2680.68 447.535 1
3 9 1 792.431 283.808 1
3 9 2 7465.81 647.599 1
3 9 3 10322.6 739.914 1
3 9 4 559 234.82 1
3 9 5 110.933 154.798 1
3 9 6 1272.36 298.933 1
3 9 7 6981.29 604.05 1
3 9 8 5961.6 564.842 1
3 9 9 6470.69 624.227 2
3 9 9 6719.97 614.101 1
3 9 10 2580.44 424.592 2
3 9 10 1904.2 275.255 4
3 9 11 65.4319 176.446 2
3 9 12 8.18322 184.838 2
3 9 13 -54.1487 145.043 2
3 10 -3 418.505 236.577 1
3 10 -2 2005.22 423.759 1
3 10 -1 80.8243 180.64 1
3 10 0 1281.86 372.231 1
3 10 1 2010.1 427.761 1
3 10 2 15228.7 976.392 1
3 10 3 13516.8 907.835 1
3 10 4 52.2917 207.25 1
3 10 5 611.625 276.87 1
3 10 6 1078.36 282.413 1
3 10 7 -43.8867 199.104 1
3 10 8 471.593 227.781 1
3 10 9 977.665 274.363 1
3 10 10 174.734 164.378 1
3 10 10 -84.0002 213.985 2
3 10 11 519.892 261.559 2
3 10 12 156.466 193.874 2
3 11 -1 1685.48 428.5 1
3 11 0 887.011 332.054 1
3 11 1 640.909 275.47 1
3 11 2 -30.6101 196.945 1
3 11 3 1262.99 357.863 1
3 11 4 454.083 248.84 1
3 11 5 2308.85 421.657 1
3 11 6 1221.36 326.016 1
3 11 7 3349.7 489.489 1
3 11 8 173.132 186.313 1
3 11 9 -108.498 175.47 1
3 11 10 706.966 291.741 2
3 11 10 533.542 239.533 1
3 11 11 -2.70593 189.29 2
3 12 1 1473.95 388.687 1
3 12 2 491.142 310.023 1
3 12 3 548.144 302.472 1
3 12 4 337.299 294.261 1
3 12 5 1187.88 332.844 1
3 12 6 291.538 225.603 1
3 12 7 1169.88 337.228 1
3 12 8 399.303 227.525 1
3 12 9 1555.83 363.064 1
3 12 10 443.998 287.425 1
4 -11 -3 770.644 280.371 5
4 -11 -2 166.437 181.633 5
-4 10 5 -344.224 269.11 2
-4 10 4 1149.53 389.274 1
-4 10 4 268.11 306.026 2
-4 10 3 -94.8488 226.72 1
-4 10 3 188.084 219.13 2
-4 10 2 212.589 211.925 1
4 -10 -2 523.717 243.72 5
4 -10 -1 971.683 288.435 5
-4 10 1 991.392 313.646 1
4 -10 0 957.759 281.295 5
-4 10 0 977.978 341.23 1
-4 10 -1 1437.15 349.214 1
4 -10 1 2552.53 426.116 5
-4 10 -2 997.875 364.054 1
-4 10 -3 3355.73 542.544 1
-4 10 -4 211.246 245.13 1
-4 9 6 -156.243 235.158 2
-4 9 5 -237.549 220.77 2
-4 9 4 463.743 279.821 2
-4 9 3 40.1798 211.222 1
-4 9 3 341.826 230.459 2
-4 9 2 308.075 255.237 1
4 -9 -1 665.457 260.565 5
-4 9 1 86.0748 214.895 1
-4 9 0 345.231 219.495 1
4 -9 0 -289.071 210.245 5
-4 9 -1 28.3551 214.758 1
4 -9 1 239.074 182.653 5
4 -9 2 1465.79 326.565 5
-4 9 -2 1330.15 348.232 1
4 -9 3 444.272 192.79 5
-4 9 -3 -458.759 258.664 1
-4 9 -4 209.684 240.936 1
-4 9 -5 879.607 299.703 1
-4 8 7 167.341 220.706 2
-4 8 6 19.0471 152.013 2
-4 8 5 367.223 253.366 2
-4 8 4 528.963 226.321 2
-4 8 3 -194.324 238.996 1
-4 8 3 108.203 225.767 2
-4 8 2 953.684 310.475 1
-4 8 1 1072.47 305.243 1
4 -8 -1 824.351 281.125 5
-4 8 0 539.984 267.382 1
4 -8 0 280.124 190.493 5
-4 8 -1 -263.962 189.283 1
4 -8 1 -112.876 164.617 5
4 -8 2 636.918 231.386 5
-4 8 -2 1248.08 318.951 1
-4 8 -3 2853.82 425.43 1
4 -8 3 3325.55 445.142 5
-4 8 -4 276.376 213.554 1
4 -8 4 438.602 223.42 5
-4 8 -5 124.428 208.916 1
4 -8 5 -160.404 176.561 5
-4 8 -6 -794.058 275.013 1
-4 7 8 -765.58 312.119 2
-4 7 7 39.2298 213.855 2
-4 7 6 436.597 252.693 2
-4 7 5 162.339 224.768 2
-4 7 4 838.38 270.53 2
-4 7 3 1798.43 363.041 1
-4 7 3 2336.26 400.354 2
-4 7 2 10093.9 724.66 2
-4 7 2 11907.5 800.408 1
-4 7 1 6670.18 598.338 1
4 -7 0 3593.85 464.149 5
-4 7 0 4574.91 496.935 1
-4 7 -1 104.384 166.813 1
4 -7 1 -65.3084 220.935 5
4 -7 2 8859.49 682.88 5
-4 7 -2 8880.73 668.17 1
-4 7 -3 -128.235 195.448 1
4 -7 3 -40.9787 175.847 5
4 -7 4 4800.96 514.118 5
-4 7 -4 4676.94 507.046 1
-4 7 -5 160.465 191.222 1
4 -7 5 98.4869 172.84 5
-4 7 -6 418.252 223.625 1
4 -7 6 914.633 262.037 5
4 -7 7 171.489 164.66 5
-4 7 -7 94.0752 161.59 1
-4 6 9 -44.8976 213.624 2
-4 6 8 685.042 278.857 2
-4 6 7 2707.49 455.12 2
-4 6 6 -115.578 248.493 2
-4 6 5 307.739 222.537 2
-4 6 4 8278.95 674.163 2
-4 6 3 1949.96 339.933 2
-4 6 2 -0.3117 80.4552 3
-4 6 2 128.196 200.045 1
-4 6 2 158.185 190.439 2
-4 6 1 4215.34 460.134 1
-4 6 1 4376.19 326.151 3
4 -6 0 1462.59 295.853 5
-4 6 0 1710.13 309.362 1
-4 6 -1 2408.22 352.251 1
4 -6 1 2453.08 385.291 5
4 -6 2 63.25 172.16 5
-4 6 -2 -184.263 238.067 1
-4 6 -3 629.737 244.219 1
4 -6 3 795.925 287.99 5
4 -6 4 44951.4 1468.95 5
-4 6 -4 44180.4 1363.53 1
4 -6 5 5173.13 536.778 5
-4 6 -5 4099.26 456.481 1
-4 6 -6 264.133 175.85 1
4 -6 6 678.594 237.523 5
4 -6 7 442.342 194.937 5
-4 6 -7 405.448 232.521 1
4 -6 8 589.763 200.629 5
-4 6 -8 1105.1 249.339 1
4 -6 9 308.634 179.254 5
-4 5 9 791.626 299.094 2
-4 5 8 241.434 221.077 2
-4 5 7 212.937 161.465 2
-4 5 6 6868.36 646.214 2
-4 5 5 1799.1 360.329 2
-4 5 4 4447.79 482.219 2
-4 5 3 11918.6 727.783 2
-4 5 2 358.96 107.335 3
-4 5 2 92.0583 138.015 2
-4 5 1 51.8474 87.6832 3
-4 5 1 109.427 170.253 1
-4 5 1 -73.9221 131.602 2
-4 5 0 1423.06 260.181 1
4 -5 0 1351.93 272.589 5
-4 5 -1 908.749 223.372 1
4 -5 1 413.852 199.978 5
-4 5 -2 853.303 205.525 1
4 -5 2 1319.11 290.732 5
4 -5 3 27064.6 1092.5 5
-4 5 -3 26439.2 953.165 1
4 -5 4 28346.3 1132.48 5
-4 5 -4 25958.9 968.704 1
-4 5 -5 717.027 217.508 1
4 -5 5 610.387 230.479 5
4 -5 6 240.809 191.25 5
-4 5 -6 327.106 183.612 1
4 -5 7 795.551 203.334 6
4 -5 7 1114.41 268.003 5
-4 5 -7 1041.81 218.854 1
4 -5 8 694.143 251.357 5
-4 5 -8 880.084 231.433 1
4 -5 8 910.591 218.662 6
4 -5 9 275.056 183.361 5
-4 4 9 30.9977 189.422 2
-4 4 8 243.115 224.041 2
-4 4 7 80.8964 192.429 2
-4 4 6 461.563 242.205 2
-4 4 5 15944 892.239 2
-4 4 4 5017.21 488.889 2
-4 4 3 277.007 185.428 2
-4 4 2 925.595 139.57 3
-4 4 2 590.605 192.495 2
-4 4 1 203.764 84.4777 3
-4 4 1 11.904 133.041 2
-4 4 0 1633.91 213.212 3
-4 4 0 1475.57 234.047 2
-4 4 0 1609.46 241.953 1
4 -4 1 127.304 157.966 5
-4 4 -1 44.1769 112.086 1
-4 4 -2 1032.37 195.153 1
4 -4 2 1025.61 242.768 5
4 -4 3 3342.72 392.421 5
-4 4 -3 3647.18 334.332 1
4 -4 4 5193.08 486.302 5
-4 4 -4 4975.44 376.6 2
-4 4 -4 4552.97 377.19 1
-4 4 -5 1004.63 212.932 1
-4 4 -5 821.162 168.361 2
4 -4 5 1153.15 262.643 5
4 -4 6 129.052 188.599 5
-4 4 -6 287.724 144.622 1
4 -4 7 6516.87 569.684 5
-4 4 -7 7775.24 542.153 1
4 -4 8 195.55 200.093 5
4 -4 8 4.74804 156.135 6
-4 4 -8 187.951 170.201 1
4 -4 9 1150.99 275.622 5
4 -4 9 1222.79 274.993 6
-4 4 -9 1559.33 299.431 1
4 -4 10 -418.411 188.292 6
-4 3 9 728.766 309.399 2
-4 3 8 157.605 242.432 2
-4 3 7 72.5176 184.519 2
-4 3 6 6861.02 619.873 2
-4 3 5 1967.1 334.164 2
-4 3 4 1331.08 276.711 2
-4 3 3 -26.9373 144.563 2
-4 3 2 559.04 119.791 3
-4 3 2 469.412 164.752 2
-4 3 1 7594.59 399.005 3
-4 3 1 7984.08 473.659 2
-4 3 0 288.954 124.273 3
4 -3 0 276.916 118.042 1
-4 3 0 138.158 115.162 2
4 -3 1 19515.1 691.045 1
-4 3 -1 19422.4 652.927 2
4 -3 1 20234.3 868.206 5
-4 3 -1 19515 703.531 3
-4 3 -1 19316 679.489 1
4 -3 2 12052.7 525.677 1
4 -3 2 11298.7 662.366 5
-4 3 -2 11624.4 509.705 1
4 -3 3 7250.9 392.686 1
4 -3 3 7386.08 545.883 5
-4 3 -3 7662.33 412.907 1
4 -3 4 -76.0302 88.6198 1
-4 3 -4 -5.9964 72.8413 2
-4 3 -4 5.06483 100.43 1
4 -3 4 -11.5446 147.615 5
4 -3 5 5597.73 490.147 5
-4 3 -5 4918.46 328.762 2
-4 3 -5 5725.91 377.051 1
-4 3 -6 3607.02 320.393 1
-4 3 -6 3479.15 302.999 2
4 -3 6 2916.86 379.497 5
4 -3 7 433.563 186.008 5
-4 3 -7 837.567 207.411 1
4 -3 8 -148.01 167.612 6
-4 3 -8 148.526 129.219 1
4 -3 8 213.876 203.322 5
4 -3 9 8972.27 643.664 6
4 -3 9 9063.81 700.844 5
-4 3 -9 8827.79 587.572 1
4 -3 10 557.181 217.5 6
4 -3 11 534.703 235.301 6
-4 2 9 5.90789 233.859 2
-4 2 8 4541.31 565.146 2
-4 2 7 334.897 237.805 2
-4 2 6 24322.8 1125.8 2
4 -2 -5 720.165 143.215 3
-4 2 5 633.382 141.581 4
-4 2 5 512.493 228.57 2
4 -2 -4 89.887 74.5431 3
-4 2 4 91.6864 136.748 2
-4 2 3 2587.37 317.753 2
4 -2 -3 2218.63 210.09 3
-4 2 2 170.581 128.905 2
-4 2 1 45016.7 960.532 3
-4 2 1 43218.9 1020.03 2
4 -2 -1 43583.7 1079.44 1
-4 2 0 1657.14 207.301 3
-4 2 0 1658.59 198.222 2
4 -2 0 1661.98 204.46 1
-4 2 -1 150.345 118.686 3
4 -2 1 181.763 91.4327 1
-4 2 -1 142.78 89.9045 2
4 -2 1 94.8849 147.323 5
-4 2 -2 3537.04 232.502 2
4 -2 2 3188.11 355.576 5
4 -2 2 3585.79 257.57 1
-4 2 -2 3956.75 341.796 3
-4 2 -2 3226.52 242.156 1
4 -2 3 599.417 110.933 1
-4 2 -3 640.843 118.416 1
4 -2 3 363.477 166.729 5
4 -2 4 5293.01 448.629 5
-4 2 -4 4996.94 265.017 2
-4 2 -4 5028.55 283.35 1
-4 2 -5 156.724 72.0926 2
-4 2 -5 127.07 84.3074 1
4 -2 5 133.071 131.712 5
4 -2 6 856.194 231.77 5
-4 2 -6 920.799 159.196 1
-4 2 -6 788.119 128.321 2
-4 2 -7 6318.33 383.236 2
4 -2 7 7172.1 565.024 5
-4 2 -7 6662.58 406.107 1
-4 2 -8 723.823 177.424 1
4 -2 8 633.806 226.069 5
4 -2 8 746.368 212.698 6
4 -2 9 12287.8 743.724 6
-4 2 -9 14155.2 685.866 1
4 -2 9 13920.2 845.448 5
4 -2 10 309.963 189.84 6
4 -2 11 78.4596 155.314 6
4 -2 12 237.313 183.569 6
-4 1 9 1388.19 388.855 2
-4 1 8 66.4713 211.293 2
-4 1 7 669.675 278.148 2
-4 1 6 5780.51 563.432 2
4 -1 -5 1699.91 224.03 3
-4 1 5 1998.12 353.507 2
4 -1 -4 2017.24 234.324 3
-4 1 4 1924.86 294.654 2
4 -1 -3 203.2 105.506 3
-4 1 3 93.7107 122.935 2
-4 1 2 21851.9 778.651 2
4 -1 -2 20673.7 680.316 3
4 -1 -1 336.943 116.868 3
4 -1 -1 299.072 116.353 2
4 -1 -1 269.11 120.573 1
-4 1 1 415.557 132.559 3
-4 1 1 324.769 117.521 2
-4 1 0 1606.95 216.333 3
-4 1 0 1743.4 188.843 2
4 -1 0 1717.74 198.804 1
-4 1 -1 9726.39 497.994 3
4 -1 1 9697.04 557.103 5
-4 1 -1 9780.5 368.927 2
4 -1 1 10195.2 405.231 1
4 -1 2 11404.9 612.998 5
4 -1 2 12453.9 400.526 1
-4 1 -2 11596.1 332.65 2
-4 1 -2 11692.4 561.557 3
-4 1 -3 4994.97 222.545 1
4 -1 3 4870.04 218.248 1
-4 1 -3 4787.06 179.768 2
4 -1 3 5463.06 434.669 5
-4 1 -3 4770.99 381.424 3
-4 1 -4 3275.25 144.247 2
4 -1 4 3746.56 370.949 5
-4 1 -4 3423.36 177.242 1
-4 1 -5 2311.55 150.252 2
4 -1 5 2169.35 306.816 5
-4 1 -5 2268.88 162.117 1
4 -1 6 23942.5 956.762 5
-4 1 -6 22676.6 563.079 1
-4 1 -6 23706.1 553.688 2
-4 1 -7 -22.995 78.4737 1
4 -1 7 -26.2313 159.941 5
-4 1 -7 96.9756 79.962 2
-4 1 -8 265.08 131.016 1
4 -1 8 267.818 168.01 5
-4 1 -8 490.78 128.14 2
4 -1 8 66.0028 186.953 6
-4 1 -9 2057.94 253.488 1
4 -1 9 1496.52 289.522 6
4 -1 9 2364.91 377.484 5
-4 1 -10 92.9898 140.342 1
4 -1 10 590.702 229.99 6
4 -1 11 1009.58 272.728 6
4 -1 12 1035.37 293.719 6
4 -1 13 -375.06 227.835 6
-4 0 9 1408.29 393.443 2
-4 0 8 1124.88 342.426 2
-4 0 7 13435.9 909.582 2
-4 0 6 13543.3 849.445 2
-4 0 5 2440.57 365.514 2
-4 0 4 48.0853 136.819 2
4 0 -3 22.3003 114.737 3
-4 0 3 -11.4902 142.039 2
4 0 -2 24067 779.418 3
-4 0 2 24877.1 842.407 2
-4 0 1 6993.64 407.123 2
4 0 -1 7123.65 407.159 2
4 0 -1 7556.41 437.43 3
-4 0 0 14130 585.541 3
-4 0 0 14372.5 501.713 2
4 0 0 13395 492.131 2
4 0 0 14387.9 590.07 3
-4 0 -1 29837.8 873.877 3
4 0 1 28931.4 606.001 2
-4 0 -1 30070.3 604.026 2
4 0 1 29306.5 916.993 5
4 0 1 29794.2 846.723 3
4 0 1 29080.7 647.049 1
-4 0 -2 11581.1 281.864 2
4 0 2 12288.8 599.275 5
4 0 2 12715.9 347.26 1
-4 0 -2 11333.8 557.934 3
-4 0 -3 992.508 191.584 3
4 0 3 945.801 68.3404 1
4 0 3 865.067 203.28 5
4 0 4 46963.5 1220.48 5
-4 0 -4 47373.9 1200.53 3
4 0 5 1010.53 225.748 5
-4 0 -6 5095.58 219.287 2
4 0 6 5491.23 460.443 5
-4 0 -6 4548.36 197.312 1
-4 0 -7 36833.1 736.677 2
-4 0 -7 35993.6 693.625 1
-4 0 -8 4557.67 295.967 1
-4 0 -8 4610.41 318.241 2
4 0 8 4038.7 423.817 6
4 0 8 4556.3 467.334 5
4 0 8 5316.35 353.396 2
-4 0 -9 182.643 118.828 1
4 0 9 29.0935 104.915 2
4 0 9 64.5972 179.452 6
4 0 9 -107.841 173.56 5
4 0 10 2011.97 288.427 2
-4 0 -10 2586.03 290.695 1
4 0 10 2425.68 383.233 6
4 0 11 1279.42 251.982 2
4 0 11 2113.3 359.885 6
4 0 12 914.777 295.837 6
4 0 13 438.855 248.16 6
-4 -1 9 276.569 190.982 2
-4 -1 8 2016.13 425.072 2
-4 -1 7 362.891 250.348 2
-4 -1 6 7547.06 677.35 2
4 1 -6 6949.2 411.894 4
-4 -1 5 4179.44 472.341 2
4 1 -5 4264.66 327.271 4
-4 -1 4 180.596 160.92 2
4 1 -4 33.6135 100.582 4
-4 -1 3 5327.52 454.325 2
4 1 -3 5185.85 362.734 4
-4 -1 2 18592.5 752.876 2
4 1 -2 16926.9 629.441 4
4 1 -1 4669.77 369.802 3
4 1 -1 4750.56 345.532 2
-4 -1 1 4236.45 334.691 2
4 1 -1 4635.6 338.694 4
4 1 0 51367.8 1170.85 3
-4 -1 0 51836.1 1150.49 3
4 1 0 50639.5 966.208 2
-4 -1 0 52202.3 994.423 2
4 1 0 53371.4 1096.31 4
4 1 1 1755.29 233.988 3
-4 -1 -1 1635.41 230.469 3
4 1 1 1208.21 199.463 5
-4 -1 -1 1442.29 148.631 2
4 1 1 1477.87 203.479 4
4 1 2 1418.74 204.536 3
-4 -1 -2 1649.61 239.147 3
-4 -1 -2 1687.15 126.051 2
4 1 2 1396.55 216.224 5
4 1 2 1679.16 119.47 2
4 1 2 1357.21 209.544 4
-4 -1 -3 75768.5 1484.02 3
4 1 3 72810.7 1409.83 5
-4 -1 -3 73505.8 1421.47 5
4 1 4 4394.29 375.032 5
-4 -1 -4 4714.67 396.433 3
-4 -1 -5 52.7094 152.256 3
4 1 5 324.197 170.553 5
4 1 6 5251.13 437.965 5
4 1 6 5330.79 198.916 2
-4 -1 -6 5669.37 470.456 3
-4 -1 -7 9361.41 306.546 1
4 1 7 9238.44 597.57 5
4 1 7 9756.73 358.636 2
-4 -1 -7 8946.73 305.724 1
-4 -1 -8 2144.07 190.722 1
-4 -1 -8 2327.09 221.837 2
4 1 8 1987.2 313.547 6
4 1 8 2330.51 216.886 2
4 1 8 2573.25 354.168 5
4 1 9 9517.28 652.268 6
4 1 9 10303 509.309 2
4 1 10 912.303 199.657 2
4 1 10 1470.67 329.657 6
4 1 11 1589.26 265.549 2
4 1 11 1193.51 305.94 6
4 1 12 9238.76 762.668 6
4 1 13 707.24 276.776 6
-4 -2 9 781.303 323.318 2
-4 -2 8 1059.98 338.937 2
-4 -2 7 2449.23 451.826 2
-4 -2 6 4537.02 549.104 2
4 2 -6 3967.89 335.553 4
-4 -2 5 844.474 260.408 2
4 2 -5 1245.6 205.228 4
-4 -2 4 -108.134 208.956 2
4 2 -4 302.346 126.313 4
-4 -2 3 19514.4 878.214 2
4 2 -3 20701.7 734.808 4
-4 -2 2 19884.3 807.28 2
4 2 -2 19083.5 688.908 4
-4 -2 1 516.737 151.348 2
4 2 -1 227.465 102.786 2
4 2 -1 514.868 147.285 4
4 2 0 14652 560.165 2
4 2 0 14809.7 582.872 5
-4 -2 0 14355.4 565.638 2
4 2 0 14326.7 589.873 4
-4 -2 -1 343.951 108.081 2
-4 -2 -1 416.486 154.771 3
4 2 1 307.784 136.762 5
4 2 1 224.641 112.857 4
4 2 1 398.817 106.405 2
-4 -2 -2 176852 2250.59 3
4 2 2 174900 1423.12 2
4 2 2 174370 2026.15 5
4 2 2 176477 2012.77 4
-4 -2 -3 30436.5 958.892 3
4 2 3 29162.8 860.259 5
4 2 3 28148.9 439.66 1
4 2 3 28644 450.776 2
-4 -2 -3 27922.8 858.623 5
4 2 3 28354.5 815.401 4
-4 -2 -4 173.07 121.883 3
4 2 4 189.657 146.427 5
4 2 4 70.6069 110.006 4
4 2 5 18465.4 284.633 2
4 2 5 19993.4 768.234 5
4 2 5 18866.2 665.351 4
-4 -2 -5 20387 840.753 3
4 2 6 6123.61 456.258 5
4 2 6 5588.06 217.193 2
-4 -2 -6 5202.63 446.807 3
-4 -2 -7 2415.94 331.572 3
4 2 7 2438.39 182.645 2
4 2 7 2666 329.046 5
-4 -2 -7 2104.91 150.49 1
4 2 8 3213.05 374.492 6
4 2 8 3855.32 419.254 5
4 2 8 3574.14 262.019 2
-4 -2 -8 3524.95 238.037 1
-4 -2 -8 3943.62 427.866 3
4 2 9 7196.79 579.798 6
4 2 9 7537.44 424.14 2
-4 -2 -9 7014.76 383.583 1
4 2 10 102.272 135.481 2
4 2 10 84.7122 218.017 6
4 2 11 1321.11 238.55 2
4 2 11 1137.68 301.776 6
4 2 12 4271.53 548.971 6
4 2 12 4212.71 424.258 2
4 2 13 548.304 243.61 6
-4 -3 8 857.145 353.63 2
-4 -3 7 350.865 267.775 2
-4 -3 6 449.485 259.912 2
4 3 -6 596.018 172.484 4
-4 -3 5 9832.57 757.161 2
4 3 -5 9164.68 535.364 4
-4 -3 4 846.391 241.612 2
4 3 -4 1448.88 238.478 4
-4 -3 3 18142.1 885.827 2
4 3 -3 19008.5 731.447 4
-4 -3 2 13582.4 712.421 2
4 3 -2 12043.3 586.529 4
-4 -3 1 2198.37 288.943 2
4 3 -1 2428.2 271.832 4
4 3 0 5438.97 371.586 2
4 3 0 5324.81 339.914 5
-4 -3 0 5755.95 406.82 2
4 3 0 5382.1 381.82 4
4 3 1 11729.1 491.107 2
4 3 1 10592.1 469.145 5
4 3 1 10961.9 531.873 4
-4 -3 -2 8820.38 534.483 3
4 3 2 9234.55 389.908 1
4 3 2 9697.3 457.011 5
4 3 2 9811.5 408.051 2
4 3 2 9336.19 490.84 4
-4 -3 -3 43638.6 1170.6 3
4 3 3 42919.3 726.666 1
4 3 3 42133.5 985.231 5
-4 -3 -3 42166 1011.68 5
4 3 3 44311.9 1041.69 4
4 3 3 43249.6 763.436 2
-4 -3 -4 200002 2558.21 3
4 3 4 198425 2248.48 5
-4 -3 -4 200941 2317.27 5
4 3 4 199523 1542.92 2
4 3 4 201217 1354.34 1
4 3 4 204044 2195.29 4
-4 -3 -5 519.817 72.9506 1
-4 -3 -5 862.41 223.738 3
4 3 5 651.845 180.469 5
4 3 5 555.032 74.4041 1
4 3 5 408.384 141.122 4
-4 -3 -6 79.4425 154.683 3
-4 -3 -6 213.565 58.5862 1
4 3 6 288.47 149.581 5
4 3 6 209.835 75.8369 2
4 3 6 82.497 110.092 4
-4 -3 -7 -6.26916 58.3584 1
-4 -3 -7 152.292 186.776 3
4 3 7 89.5165 148.284 6
4 3 7 81.1555 156.897 5
4 3 7 95.3158 77.6458 2
4 3 8 18530.7 853.959 6
4 3 8 17491.5 585.466 2
-4 -3 -8 16649.5 535.936 1
-4 -3 -8 17679.3 871.253 3
-4 -3 -9 132.515 210.342 3
4 3 9 211.01 205.257 6
4 3 9 113.428 103.47 2
-4 -3 -9 43.4435 95.5735 1
-4 -3 -10 103.131 207.922 3
4 3 10 129.192 204.729 6
4 3 10 225.197 123.601 2
-4 -3 -11 144.748 198.628 3
4 3 11 432.345 208.682 6
4 3 11 284.956 141.388 2
4 3 12 1208.76 246.18 2
-4 -3 -12 672.734 275.893 3
4 3 12 1086.08 300.139 6
-4 -3 -13 -337.909 249.695 3
4 3 13 259.472 227.049 6
-4 -3 -14 508.578 288.972 3
-4 -3 -15 -102.695 330.531 3
-4 -4 8 427.296 294.17 2
-4 -4 7 425.039 261.018 2
-4 -4 6 5146.07 621.659 2
4 4 -6 4960.04 427.497 4
-4 -4 5 4990.28 590.328 2
4 4 -5 5707.51 455.222 4
-4 -4 4 21073.6 1082.73 2
4 4 -4 20472.4 814.69 4
-4 -4 3 20262.3 1002.05 2
-4 -4 2 11842.8 722.772 2
-4 -4 1 248.277 164.424 2
4 4 -1 256.149 87.5102 5
4 4 0 1839.06 243.012 1
4 4 0 1954.03 191.235 5
4 4 1 5759.08 386.406 1
4 4 1 5181.08 305.82 5
4 4 1 5811.47 388.574 2
4 4 1 5711.2 408.288 4
4 4 2 1356.47 188.296 2
4 4 2 1037.21 169.832 1
4 4 2 1470.38 179.782 5
4 4 2 1285.81 220.172 4
-4 -4 -3 2004.14 283.34 3
4 4 3 2151.27 212.4 1
-4 -4 -3 2205.66 232.314 5
4 4 3 2934.69 251.419 2
4 4 3 2507.02 236.72 5
4 4 3 2033.05 266.13 4
-4 -4 -4 5281.1 445.923 3
4 4 4 5587.8 369.852 5
-4 -4 -4 5506.71 388.633 5
4 4 4 5600.8 303.964 1
4 4 4 5521.58 400.307 4
-4 -4 -5 21855.4 880.68 3
-4 -4 -5 20740.7 542.648 1
4 4 5 21314.1 748.02 5
4 4 5 21375.2 549.252 1
4 4 5 21737.6 745.779 4
-4 -4 -6 11042.5 643.662 3
4 4 6 10620.4 444.41 2
4 4 6 10630.4 572.809 5
-4 -4 -6 10664.5 399.103 1
4 4 6 11325.8 536.465 4
4 4 6 10791.8 399.459 1
-4 -4 -7 24438.7 974.754 3
4 4 7 24164.1 693.486 2
4 4 7 24052.1 924.53 6
-4 -4 -7 24764.9 647.724 1
4 4 7 23719.7 770.57 4
4 4 8 38996.5 1251.09 6
4 4 8 38957.4 937.311 2
-4 -4 -8 37787.3 874.025 1
4 4 8 38152.1 986.864 4
-4 -4 -8 38593.5 1272.44 3
4 4 9 18499.3 918.594 6
4 4 9 17609.7 688.936 2
-4 -4 -9 17339.2 651.563 1
-4 -4 -9 18207.4 912.019 3
4 4 10 6552.29 589.035 6
4 4 10 5453.37 421.15 2
-4 -4 -10 5533.87 549.218 3
4 4 11 4601.69 525.996 6
4 4 11 4049.5 402.149 2
-4 -4 -11 4287.88 501.575 3
-4 -4 -12 362.397 217.364 3
4 4 12 655.573 275.72 6
4 4 12 286.608 143.45 2
-4 -4 -13 46.5693 202.893 3
4 4 13 54.8571 208.872 6
-4 -4 -14 407.871 251.951 3
-4 -5 7 -247.207 301.005 2
-4 -5 6 -158.021 242.19 2
4 5 -6 -519.944 188.641 4
-4 -5 5 -56.377 210.348 2
-4 -5 4 1999.26 405.162 2
-4 -5 3 482.078 274.969 2
4 5 -2 139.833 189.584 1
4 5 -2 115.939 90.1141 5
4 5 -1 972.894 236.366 1
4 5 -1 891.391 119.315 5
4 5 0 568.524 171.645 1
4 5 0 581.342 93.9365 5
4 5 1 25763.4 876.962 1
4 5 1 23014.9 563.414 5
4 5 2 4365.42 349.331 1
4 5 2 3776.77 250.566 5
4 5 3 366.824 135.679 2
4 5 3 229.865 95.5581 5
4 5 3 124.611 95.1437 1
-4 -5 -3 294.296 122.3 5
-4 -5 -4 5470.68 457.185 3
-4 -5 -4 6323.91 375.915 1
4 5 4 7075.82 396.535 5
-4 -5 -4 5914.72 394.465 5
4 5 4 5841.97 366.333 1
4 5 4 6130.22 429.03 4
-4 -5 -5 2295.58 312.359 3
-4 -5 -5 2114.95 220.597 1
4 5 5 2699.91 247.047 1
4 5 5 2474.26 281.095 4
-4 -5 -6 267.025 106.164 1
-4 -5 -6 229.924 150.383 3
4 5 6 289.216 118.56 1
4 5 6 190.224 118.288 4
4 5 6 156.503 135.185 6
4 5 7 12781.5 521.133 1
-4 -5 -7 12799.5 723.64 3
4 5 7 12328.2 566.053 2
4 5 7 13378.2 698.75 6
-4 -5 -7 12634.9 540.108 1
4 5 7 13035.9 597.223 4
-4 -5 -8 21244.4 947.635 3
4 5 8 20615.5 755.142 2
4 5 8 21043 927.827 6
-4 -5 -8 20220.2 712.867 1
4 5 8 21220.3 751.768 4
-4 -5 -9 2564.15 377.008 3
4 5 9 2976.65 319.106 2
4 5 9 2390.4 381.143 6
-4 -5 -9 2595.4 287.678 1
4 5 9 2651.99 287.096 4
-4 -5 -10 2034.54 352.993 3
4 5 10 2011.43 377.347 6
4 5 10 1716.56 270.482 2
-4 -5 -11 883.441 260.505 3
4 5 11 874.358 294.98 6
4 5 11 1033.36 226.983 2
-4 -5 -12 864.715 279.264 3
4 5 12 734.853 259.621 6
4 5 12 1122.94 256.724 2
-4 -5 -13 35.7506 230.978 3
-4 -5 -14 907.668 316.126 3
4 6 -6 144.875 206.305 1
4 6 -5 -17.6866 227.357 1
4 6 -4 216.126 232.706 1
4 6 -3 203.404 183.243 1
4 6 -2 332.746 218.376 1
4 6 -1 6351.34 548.645 1
4 6 0 2436.93 342.636 1
4 6 0 1768.66 92.4039 5
4 6 1 1152.87 232.889 1
4 6 2 3465.94 351.315 1
4 6 3 118.763 98.8815 1
-4 -6 -3 -18.1049 88.9407 5
-4 -6 -4 4705.74 369.938 1
-4 -6 -4 4659.35 341.125 5
4 6 4 4401.15 365.227 1
-4 -6 -5 13125 711.863 3
-4 -6 -5 11983.5 584.852 5
4 6 5 12350.2 607.012 6
-4 -6 -5 12314.2 581.605 1
4 6 5 11877.2 568.381 1
-4 -6 -6 8336.93 581.138 3
4 6 6 8453.93 542.93 6
-4 -6 -6 6685.34 430.611 1
4 6 6 7310.3 479.982 4
4 6 6 8081.38 473.106 1
4 6 7 198.051 120.196 1
-4 -6 -7 446.365 197.527 3
4 6 7 497.019 208.571 6
-4 -6 -7 231.12 122.878 1
4 6 7 172.404 157.406 4
-4 -6 -8 213.1 172.534 3
4 6 8 99.4116 146.297 2
4 6 8 -24.872 201.132 6
4 6 8 -33.6492 159.321 4
-4 -6 -9 28103.3 1127.59 3
4 6 9 28554 1147.69 6
4 6 9 26520.7 977.287 2
4 6 9 27391.4 870.842 4
-4 -6 -10 9418.26 686.199 3
4 6 10 9698.25 719.3 6
4 6 10 9804.65 620.631 2
4 6 10 10722.9 546.214 4
-4 -6 -11 129.47 178.432 3
4 6 11 359.771 255.183 6
4 6 11 183.493 169.443 2
-4 -6 -12 2578.44 416.514 3
4 6 12 2304.31 421.186 6
4 6 12 2068.34 323.706 2
-4 -6 -13 -576.288 245.277 3
4 6 13 15.9915 136.045 2
4 7 -5 -121.564 179.321 1
4 7 -4 -242.173 208.238 1
4 7 -3 92.8877 234.615 1
4 7 -2 -136.645 218.485 1
4 7 -1 393.647 236.982 1
4 7 0 384.436 236.432 1
4 7 1 458.609 181.296 1
4 7 2 1311.97 257.949 1
-4 -7 -3 -19.452 74.005 5
4 7 3 125.836 136.101 1
4 7 4 19.0258 135.23 1
4 7 4 137.759 104.761 6
-4 -7 -4 94.7185 110.88 5
4 7 5 318.064 161.416 1
4 7 5 229.159 144.196 6
-4 -7 -5 172.303 125.644 5
4 7 6 15186 713.961 6
4 7 6 14516.2 701.174 1
-4 -7 -7 47.0235 185.43 3
4 7 7 160.363 163.158 6
4 7 7 229.667 141.159 1
4 7 7 -54.0068 174.544 4
-4 -7 -8 6091.39 530.494 3
4 7 8 5860.95 514.978 6
4 7 8 6320.59 468.931 4
4 7 8 5316.95 441.299 1
-4 -7 -9 20499.1 970.276 3
4 7 9 20309.6 914.119 2
4 7 9 20077 992.981 6
4 7 9 20508.2 796.219 4
-4 -7 -10 181.592 189.18 3
4 7 10 736.151 245.207 6
4 7 10 661.35 218.095 2
4 7 10 746.706 204.339 4
-4 -7 -11 38.122 179.076 3
4 7 11 281.721 225.657 6
4 7 11 128.666 164.42 2
-4 -7 -12 -35.3347 189.903 3
4 7 12 137.132 175.311 2
4 7 13 3194.56 435.038 2
4 8 -5 -130.402 198.96 1
4 8 -4 166.489 200.574 1
4 8 -3 1027.09 337.842 1
4 8 -2 497.175 289.481 1
4 8 -1 -96.024 230.344 1
4 8 0 518.502 254.789 1
4 8 1 37.3968 73.2691 6
4 8 1 30.4114 192.324 1
4 8 2 10.2837 158.254 1
4 8 2 98.7491 94.9051 6
4 8 3 63.0053 102.603 6
4 8 3 241.334 177.517 1
4 8 4 840.954 237.461 1
4 8 4 910.525 184.155 6
4 8 5 -2.36181 155.284 1
4 8 5 4.16271 145.55 6
4 8 6 1706.48 265.852 6
4 8 6 1813.44 297.536 1
4 8 7 1750.36 285.987 1
4 8 7 1558.52 282.489 6
4 8 8 166.475 176.684 1
-4 -8 -8 54.1632 180.203 3
4 8 8 54.0944 178.582 6
4 8 8 219.268 161.87 4
4 8 9 226.42 170.047 1
-4 -8 -9 -23.2104 190.919 3
4 8 9 96.9876 187.038 6
4 8 9 96.7189 148.575 2
4 8 9 311.783 187.97 4
-4 -8 -10 6088.35 570.833 3
4 8 10 6187.83 602.139 6
4 8 10 5234.44 520.576 2
4 8 10 6006.31 454.477 4
-4 -8 -11 1752.83 325.159 3
4 8 11 1544.18 307.848 2
4 8 12 310.012 186.655 2
4 8 13 271.724 199.812 2
4 9 -3 74.7713 243.158 1
4 9 -2 1166.97 351.059 1
4 9 -1 405.524 234.974 1
4 9 0 1740.77 379.17 1
4 9 1 -258.299 244.809 1
4 9 2 172.822 204.116 1
4 9 3 747.118 147.417 6
4 9 3 735.368 263.983 1
4 9 4 312.636 191.226 1
4 9 4 496.439 148.663 6
4 9 5 3121.21 319.701 6
4 9 5 2838.45 398.155 1
4 9 6 2747.36 333.052 6
4 9 6 3623.78 434.137 1
4 9 7 814.257 250.678 1
4 9 7 1410.09 280.897 6
4 9 8 4567.33 482.24 6
4 9 8 4537.55 481.598 1
4 9 9 2210.38 345.201 1
4 9 9 2710.65 346.503 4
4 9 10 2858.26 431.069 2
4 9 10 3465.28 385.347 4
4 9 11 5082.25 557.411 2
4 9 12 370.519 193.91 2
4 9 13 468.297 200.206 2
4 10 -2 -60.4048 201.148 1
4 10 -1 879.563 313.861 1
4 10 0 2054.01 438.496 1
4 10 1 5396.21 612.072 1
4 10 2 6877.71 682.137 1
4 10 3 733.851 267.575 1
4 10 4 81.3236 203.872 1
4 10 5 2816.46 433.934 1
4 10 6 1405.37 321.969 1
4 10 7 4.05449 171.333 1
4 10 8 241.421 194.554 1
4 10 9 -38.9356 169.011 1
4 10 10 1130.91 279.343 1
4 10 10 1471.98 331.077 2
4 10 10 1495.61 291.948 4
4 10 11 1401.43 344.124 2
4 10 12 2080.37 391.477 2
4 10 13 441.057 210.464 2
4 11 0 760.383 318.875 1
4 11 1 1169.07 348.853 1
4 11 2 1849.46 398.027 1
4 11 3 43.3663 225.827 1
4 11 4 298.692 205.062 1
4 11 5 336.012 207.409 1
4 11 6 218.096 195.742 1
4 11 7 247.877 187.741 1
4 11 8 -26.6556 119.59 1
4 11 9 40.3841 170.856 1
4 11 10 409.531 226.588 1
4 11 10 -176.07 183.885 2
4 11 11 298.424 190.829 2
4 11 12 53.0259 159.506 2
4 12 2 88.0503 206.87 1
4 12 3 930.493 305.532 1
4 12 4 -102.221 216.979 1
4 12 5 200.714 183.704 1
4 12 6 373.73 237.892 1
4 12 7 247.504 203.622 1
4 12 8 123.935 182.957 1
4 12 9 84.7016 168.311 1
4 12 10 -1379.69 346.35 1
4 12 11 63.784 151.586 1
4 13 7 453.024 256.812 1
-5 10 3 326.898 252.472 2
-5 10 2 305.152 270.542 1
-5 10 2 479.769 294.285 2
5 -10 -2 -7.09209 189.115 5
5 -10 -1 368.664 226.861 5
-5 10 1 170.139 244.631 1
-5 10 0 -12.7531 210.554 1
5 -10 0 364.858 242.842 5
5 -10 1 737.079 275.207 5
-5 10 -1 209.058 221.278 1
-5 10 -2 895.481 369.907 1
-5 9 5 -325.711 254.172 2
-5 9 4 1.74498 198.332 2
-5 9 3 -751.283 310.061 2
-5 9 2 1368.78 349.743 2
5 -9 -2 403.648 246.464 5
-5 9 2 922.314 354.572 1
-5 9 1 748.132 313.024 2
5 -9 -1 1683.49 385.289 5
-5 9 1 970.845 308.151 1
-5 9 0 836.987 286.4 1
5 -9 0 -160.179 195.722 5
5 -9 1 -696.652 262.456 5
-5 9 -1 80.2435 206.733 1
-5 9 -2 1776.85 394.903 1
5 -9 2 625.485 251.915 5
-5 9 -3 -591.266 278.349 1
5 -9 3 -512.078 239.99 5
5 -9 4 299.957 207.362 5
-5 8 6 1015.31 330.976 2
-5 8 5 209.779 217.885 2
-5 8 4 2.37718 215.463 2
-5 8 3 -456.416 245.952 2
-5 8 2 1099.35 314.073 2
-5 8 1 1501.95 345.605 1
-5 8 1 1432.89 338.173 2
5 -8 -1 1274.46 345.712 5
-5 8 0 2018.76 383.44 1
5 -8 0 2356.04 437.241 5
5 -8 1 -39.7072 175.434 5
-5 8 -1 -568.216 236.695 1
-5 8 -2 465.392 238.551 1
5 -8 2 451.839 228.512 5
-5 8 -3 -333.101 187.959 1
5 -8 3 -328.15 221.356 5
5 -8 4 368.005 212.383 5
-5 8 -4 347.044 189.358 1
5 -8 5 413.749 255.146 5
5 -8 6 594.857 220.298 5
-5 7 7 255.106 252.18 2
-5 7 6 -27.5871 241.946 2
-5 7 5 584.987 262.701 2
-5 7 4 1674.64 370.985 2
-5 7 3 11.9618 196.19 2
-5 7 2 -48.1856 203.639 2
-5 7 1 400.914 220.394 1
-5 7 1 851.408 280.787 2
5 -7 -1 603.425 233.775 5
-5 7 0 1042.66 273.569 1
5 -7 0 553.385 269.275 5
-5 7 -1 37.1015 170.99 1
5 -7 1 -39.7329 150.413 5
-5 7 -2 98.9336 191.174 1
5 -7 2 -99.6091 180.38 5
-5 7 -3 -281.137 175.66 1
5 -7 3 -106.164 184.815 5
5 -7 4 349.403 179.626 5
-5 7 -4 394.385 197.14 1
5 -7 5 145.234 192.698 5
-5 7 -5 222.217 188.337 1
5 -7 6 230.198 188.231 5
5 -7 7 369.65 207.291 5
5 -7 8 -312.477 189.558 5
-5 6 7 1117.65 332.227 2
-5 6 6 20.947 204.989 2
-5 6 5 -109.623 191.429 2
-5 6 4 1012.46 295.485 2
-5 6 3 5735.1 570.048 2
-5 6 2 -71.2733 161.479 2
-5 6 1 1973.91 252.862 3
-5 6 1 2075.74 332.33 2
-5 6 0 -27.533 107.764 3
-5 6 0 22.2128 172.33 1
-5 6 0 -37.9837 158.825 2
5 -6 0 -24.0166 189.365 5
-5 6 -1 284.011 189.162 1
5 -6 1 156.386 186.823 5
5 -6 2 9258.43 740.344 5
-5 6 -2 9317.39 651.779 1
-5 6 -3 8.1767 144.874 1
5 -6 3 365.201 239.361 5
5 -6 4 -44.2782 227.736 5
-5 6 -4 -46.4661 152.701 1
5 -6 5 338.557 248.664 5
-5 6 -5 415.9 172.901 1
5 -6 6 -511.662 222.707 5
5 -6 7 365.903 191.566 5
5 -6 8 508.803 239.529 5
5 -6 9 -403.98 210.981 5
-5 5 8 6559.04 740.642 2
-5 5 7 -105.161 209.389 2
-5 5 6 350.247 235.783 2
-5 5 5 227.106 176.148 2
-5 5 4 96.8674 182.788 2
-5 5 3 14651.4 840.295 2
-5 5 2 116.012 92.1854 3
-5 5 2 204.978 188.999 2
-5 5 1 863.891 174.488 3
-5 5 1 661.269 210.473 2
-5 5 0 3848.26 416.589 1
-5 5 0 4527.78 427.556 2
5 -5 0 3452.52 457.267 5
-5 5 0 3869.02 360.443 3
-5 5 -1 1218.87 250.664 3
-5 5 -1 820.505 214.045 2
5 -5 1 464.584 264.431 5
-5 5 -1 959.605 223.9 1
5 -5 2 6429.93 615.214 5
-5 5 -2 6948.1 522.701 1
5 -5 3 42569.1 1510.79 5
-5 5 -3 43514.8 1244.63 1
-5 5 -4 45.3732 145.262 1
5 -5 4 543.02 283.189 5
5 -5 5 1.97651 198.461 5
-5 5 -5 322.836 174.569 1
5 -5 6 4608.3 544.024 5
-5 5 -6 5022.51 450.092 1
5 -5 7 760.586 266.681 5
5 -5 8 726.939 220.346 6
5 -5 8 348.753 209.524 5
5 -5 9 -224.923 192.427 5
5 -5 10 376.951 258.942 5
-5 4 8 28.54 254.951 2
-5 4 7 -359.549 233.296 2
-5 4 6 2468.08 438.819 2
-5 4 5 5756.21 587.644 2
-5 4 4 5551.37 541.98 2
-5 4 3 9736 664.382 2
-5 4 2 70.9306 109.125 3
-5 4 2 34.7203 155.035 2
-5 4 1 947.371 185.944 3
-5 4 1 769.364 213.715 2
-5 4 0 5981.07 453.413 2
5 -4 0 6126.91 565.199 5
-5 4 0 5713.55 417.295 3
-5 4 -1 99.9386 124.765 3
-5 4 -1 200.737 162.724 1
-5 4 -1 607.216 175.005 2
5 -4 1 211.755 194.892 5
5 -4 2 25080 1108.09 5
-5 4 -2 24209.4 939.129 3
-5 4 -2 22910.3 835.855 1
5 -4 3 14608.7 868.093 5
-5 4 -3 14227.9 644.167 1
-5 4 -4 373.351 126.916 1
5 -4 4 1016.32 284.481 5
5 -4 5 259.95 183.62 5
-5 4 -5 377.497 156.257 1
5 -4 6 566.103 257.635 5
-5 4 -6 612.66 176.992 1
5 -4 7 48.1195 184.757 5
5 -4 8 2600.75 400.874 5
5 -4 9 -542.834 214.225 6
5 -4 9 225.735 216.28 5
5 -4 10 604.836 202.137 6
5 -4 10 131.781 162.443 5
-5 3 8 -21.5575 167.067 2
-5 3 7 759.027 271.09 2
-5 3 6 3505.11 482.095 2
-5 3 5 66.0291 166.91 2
-5 3 4 1343.24 307.257 2
-5 3 3 14265 784.626 2
-5 3 2 4981.64 340.038 3
-5 3 2 4870.44 433.553 2
-5 3 1 6810.7 426.178 3
-5 3 1 6039.51 454.174 2
-5 3 0 2188 270.987 3
-5 3 0 2421.67 280.133 2
5 -3 0 1746.61 317.365 5
-5 3 -1 13197.4 567.268 2
5 -3 1 13427.9 796.906 5
-5 3 -1 13729.3 673.917 3
-5 3 -2 1478.65 260.101 3
-5 3 -2 1296.69 194.944 2
5 -3 2 1370.82 311.053 5
5 -3 2 1358.52 218.331 1
5 -3 3 25330 760.55 1
5 -3 3 26338.2 1111.6 5
-5 3 -3 27288.7 792.833 1
-5 3 -3 26218.3 1005.04 3
5 -3 4 13605.9 536.314 1
5 -3 4 15322.1 861.197 5
-5 3 -4 13540.6 514.574 2
-5 3 -4 14256.9 563.195 1
5 -3 5 1847.6 340.144 5
-5 3 -5 2054.98 228.947 1
-5 3 -6 1740.53 223.616 1
5 -3 6 1494.39 330.964 5
5 -3 7 3095.46 438.858 5
-5 3 -7 3528.21 311.957 1
5 -3 8 3784.29 480.132 5
5 -3 9 -409.809 191.8 6
5 -3 9 90.4249 180.332 5
5 -3 10 -286.117 185.701 6
5 -3 10 -47.0835 199.155 5
5 -3 11 371.621 227.181 6
-5 2 8 -540.282 261.464 2
-5 2 7 337.356 189.402 2
-5 2 6 267.885 229.351 2
-5 2 5 155.988 177.975 2
-5 2 4 885.855 265.001 2
-5 2 3 -65.8828 185.044 2
5 -2 -3 75.4933 83.6695 3
-5 2 2 70.0742 126.277 2
-5 2 1 1176.39 202.323 3
-5 2 1 1117.55 216.185 2
-5 2 0 1093.56 202.131 3
5 -2 0 553.367 199.68 5
-5 2 0 1113.78 193.622 2
-5 2 -1 24054.8 875.318 3
-5 2 -1 23890.3 695.893 2
5 -2 1 23981.1 1015.93 5
5 -2 1 24200.4 763.919 1
-5 2 -2 44992.6 857.505 2
5 -2 2 46857.7 1413.1 5
5 -2 2 44054.4 952.746 1
-5 2 -2 45130.4 1245.59 3
-5 2 -3 30225.5 625.581 2
5 -2 3 29880.4 719.448 1
5 -2 3 30971.8 1156.4 5
-5 2 -3 31714.6 1072.24 3
-5 2 -4 2382.07 167.548 2
5 -2 4 2268.59 193.255 1
-5 2 -4 2158.18 164.966 2
5 -2 4 2562.3 377.886 5
-5 2 -4 2627.3 355.186 3
-5 2 -4 2314.63 201.553 1
-5 2 -5 2091.3 159.573 2
5 -2 5 1937.46 346.187 5
-5 2 -5 2233.44 191.63 1
-5 2 -6 155.966 83.0302 1
5 -2 6 211.597 212.092 5
5 -2 7 4189.03 479.186 5
-5 2 -7 4021.91 280.243 1
5 -2 8 797.808 245.982 5
5 -2 9 302.238 201.804 6
5 -2 9 99.2586 165.822 5
5 -2 10 896.177 263.851 6
5 -2 10 1652.43 347.646 5
5 -2 11 390.688 209.368 6
5 -2 12 21.6425 147.688 6
5 -2 13 218.026 190.699 6
-5 1 8 1663.62 389.553 2
-5 1 7 1732.79 378.963 2
-5 1 6 262.225 220.712 2
-5 1 5 4432.52 484.99 2
-5 1 4 -78.2086 149.699 2
-5 1 3 4748.76 453.096 2
5 -1 -2 43.1036 103.973 3
-5 1 2 -74.3744 141.75 2
-5 1 1 -31.403 129.699 3
-5 1 1 -27.0689 126.725 2
-5 1 0 1649.17 252.473 3
5 -1 0 1700.51 280.255 5
5 -1 0 1840.53 229.661 1
-5 1 0 1636.59 212.164 2
-5 1 -1 2478.98 303.654 3
-5 1 -1 2870.92 236.451 2
5 -1 1 2786.65 356.84 5
5 -1 1 3104.78 259.834 1
-5 1 -2 -25.8483 139.71 3
5 -1 2 29.9284 69.1847 1
5 -1 2 54.5521 148.154 5
-5 1 -2 9.07513 63.5855 2
-5 1 -3 1070.66 239.88 3
-5 1 -3 1111.44 93.185 2
5 -1 3 1291.85 137.027 1
5 -1 3 1177.54 257.368 5
5 -1 4 5621.74 216.91 1
5 -1 4 5765.33 514.405 5
-5 1 -4 6716.78 525.382 3
5 -1 5 4639 469.054 5
-5 1 -5 3321.27 396.551 3
5 -1 6 6316.51 556.577 5
-5 1 -6 6096.16 219.184 1
5 -1 7 5000.77 505.794 5
-5 1 -7 4132.34 216.444 1
5 -1 8 10802.8 753.088 5
5 -1 9 174.247 149.268 6
5 -1 9 -24.7637 198.611 5
5 -1 10 -83.7101 157.495 6
5 -1 10 119.825 166.903 5
5 -1 11 240.141 185.011 6
5 -1 12 513.507 248.881 6
5 -1 13 1462.6 358.304 6
-5 0 8 876.393 329.274 2
-5 0 7 107.548 198.669 2
-5 0 6 8.4133 187.007 2
-5 0 5 232.483 209.988 2
-5 0 4 -53.4995 183.484 2
-5 0 3 182.157 159.109 2
-5 0 2 781.172 204.684 2
-5 0 1 1050.02 193.605 2
-5 0 0 157.388 127.683 3
5 0 0 358.93 136.395 1
5 0 0 155.522 84.6993 2
5 0 0 79.3485 134.837 5
-5 0 0 274.544 112.678 2
-5 0 -1 1606.94 258.125 3
-5 0 -1 2225.43 204.199 2
5 0 1 1777.13 284.232 5
5 0 1 1871.44 198.554 1
-5 0 -2 306.795 73.3393 2
5 0 2 218.653 76.8898 1
-5 0 -2 129.115 127.702 3
5 0 2 21.0688 147.767 5
5 0 3 8274.59 562.707 5
5 0 3 7466.67 251.761 1
-5 0 -3 8155.19 552.919 3
-5 0 -4 768.539 219.258 3
5 0 4 444.902 180.708 5
5 0 5 10292.7 657.508 5
-5 0 -5 9218.33 628.803 3
5 0 6 5297.18 498.703 5
-5 0 -6 5696.92 517.382 3
5 0 7 11127.3 720.754 5
5 0 8 11100.8 737.026 5
5 0 9 1772.14 331.337 6
5 0 9 2238.11 370.03 5
5 0 10 123.033 181.998 6
5 0 10 218.934 179.321 5
5 0 11 -110.258 154.423 6
5 0 12 121.408 190.566 6
5 0 13 367.103 221.488 6
-5 -1 8 -150.111 234.591 2
-5 -1 7 1473.66 357.655 2
-5 -1 6 4676.87 565.76 2
-5 -1 5 77.0446 183.662 2
-5 -1 4 470.808 232.232 2
-5 -1 3 1619.63 290.612 2
5 1 -3 1814.69 261.145 4
-5 -1 2 577.617 202.618 2
5 1 -2 288.116 134.206 4
-5 -1 1 2604.57 298.269 2
5 1 -1 2240.13 283.41 4
-5 -1 0 30375.8 990.989 3
5 1 0 31363.4 849.056 2
-5 -1 0 30902.7 861.725 2
5 1 0 30812.8 1021.81 5
5 1 0 30461.6 956.233 4
-5 -1 -1 254.4 102.17 2
-5 -1 -1 73.2097 125.061 3
5 1 1 298.024 82.5146 2
5 1 1 207.528 138.264 5
5 1 2 9868.53 367.195 1
-5 -1 -2 10147.3 599.77 3
5 1 2 9918.28 342.583 2
5 1 2 9915.82 592.292 5
-5 -1 -2 9494.4 347.349 2
-5 -1 -3 2989.82 358.093 3
5 1 3 3870.94 383.492 5
5 1 3 3349.15 158.037 1
5 1 4 9330.73 594.435 5
-5 -1 -4 9142.2 609.549 3
5 1 5 57403.7 1489.9 5
-5 -1 -5 58272.9 1536.92 3
-5 -1 -6 534.543 227.668 3
5 1 6 604.746 235.371 5
5 1 7 17203.4 861.377 5
-5 -1 -7 17312.3 905.309 3
5 1 8 4341.59 470.289 5
-5 -1 -8 4633.68 506.751 3
5 1 9 628.929 236.876 6
5 1 9 663.835 239.287 5
-5 -1 -9 634.852 269.269 3
5 1 10 90.4703 187.323 6
5 1 11 1916.15 357.975 6
5 1 12 308.762 194.226 6
5 1 13 3330.29 499.267 6
-5 -2 8 239.078 265.281 2
-5 -2 7 1113.01 327.331 2
-5 -2 6 -137.385 247.144 2
5 2 -6 186.834 143.132 4
-5 -2 5 -232.704 273.726 2
5 2 -5 96.5319 118.245 4
-5 -2 4 76.2675 190.629 2
5 2 -4 22.0526 135.638 4
-5 -2 3 1349.43 290.535 2
5 2 -3 910.952 214.924 4
-5 -2 2 715.023 210.027 2
5 2 -2 710.168 200.791 4
-5 -2 1 4366.33 391.403 2
5 2 -1 5069.34 408.4 4
5 2 0 7923.26 457.201 2
5 2 0 7408.5 492.727 5
-5 -2 0 7575.5 459.905 2
5 2 0 7808.04 495.698 4
-5 -2 -1 256.779 110.642 2
-5 -2 -1 281.201 155.972 3
5 2 1 188.8 145.052 5
5 2 1 385.503 125.776 2
5 2 1 502.866 159.883 4
-5 -2 -2 13165.4 698.318 3
5 2 2 13952.1 664.666 5
5 2 2 12759.9 439.759 2
5 2 2 13775.6 652.164 4
5 2 3 359.414 75.2268 1
-5 -2 -3 465.762 176.072 3
5 2 3 241.219 153.815 5
5 2 3 455.397 72.2391 2
5 2 3 148.228 131.884 4
-5 -2 -4 13558.9 728.441 3
5 2 4 12815.2 666.491 5
5 2 4 13893.6 655.026 4
-5 -2 -5 15654.2 809.409 3
5 2 5 16249.7 768.614 5
5 2 6 15997.1 787.617 5
-5 -2 -6 15464.2 824.898 3
-5 -2 -7 2327.17 356.813 3
5 2 7 2664.9 361.869 5
-5 -2 -8 971.37 289.031 3
5 2 8 789.114 93.5534 2
5 2 8 1033.56 269.519 5
-5 -2 -9 58.0452 218.02 3
5 2 9 19.2421 65.8143 2
5 2 9 -125.848 174.812 5
5 2 9 69.862 185.277 6
5 2 10 8538.77 676.82 6
-5 -2 -10 9152.09 750.203 3
5 2 11 14431.7 918.225 6
-5 -2 -11 14454.9 970.691 3
-5 -2 -12 2442.44 435.832 3
5 2 12 2291.27 426.538 6
-5 -2 -13 1124.26 354.335 3
5 2 13 22.6672 194.923 6
-5 -2 -14 722.742 353.04 3
-5 -3 7 1729.37 447.364 2
-5 -3 6 3506.87 532.116 2
-5 -3 5 2098.4 426.265 2
5 3 -5 1714.61 278.969 4
-5 -3 4 664.703 279.093 2
5 3 -4 599.868 200.949 4
-5 -3 3 835.749 260.886 2
5 3 -3 763.841 200.442 4
-5 -3 2 267.127 172.164 2
5 3 -2 379.742 166.754 4
5 3 -1 6079.33 426.116 5
-5 -3 1 5531.87 464.326 2
5 3 -1 5881.07 449.527 4
-5 -3 0 910.913 201.608 2
5 3 0 1116.82 207.213 5
5 3 0 743.135 182.324 4
5 3 1 993.351 204.736 5
5 3 1 1208.96 225.178 4
5 3 1 1115.46 185.647 2
-5 -3 -2 3985.71 410.554 3
5 3 2 3870.27 282.072 1
5 3 2 4062.4 286.338 2
5 3 2 3669.08 348.055 5
5 3 2 3991.68 380.903 4
-5 -3 -3 6716.86 534.029 3
5 3 3 7086.26 322.741 1
5 3 3 6851.13 318.246 2
5 3 3 7170.62 474.138 5
5 3 3 8049.42 512.489 4
-5 -3 -4 7126.06 547.44 3
5 3 4 7078.9 490.029 5
5 3 4 6909.95 268.384 2
5 3 4 6636.18 248.643 1
5 3 4 7079.46 484.824 4
-5 -3 -5 24025.2 997.142 3
5 3 5 23639.4 892.785 5
5 3 5 21483.6 819.514 4
-5 -3 -6 2192.75 354.926 3
5 3 6 2318.78 119.069 2
5 3 6 2734.15 339.338 5
5 3 6 2114.67 119.861 2
5 3 6 2694.06 321.785 4
-5 -3 -7 297.341 206.974 3
5 3 7 671.66 213.041 5
5 3 7 594.043 79.0822 2
5 3 8 5620.72 512.053 5
5 3 8 5431.37 260.765 2
-5 -3 -8 6174.38 585.059 3
-5 -3 -9 117.353 168.244 3
5 3 9 48.0198 185.757 6
5 3 9 98.594 71.7667 2
-5 -3 -10 257.625 172.17 3
5 3 10 75.9115 195.669 6
-5 -3 -11 1432.18 353.434 3
5 3 11 2365.97 407.616 6
-5 -3 -12 -41.7153 217.145 3
5 3 12 -166.984 199.011 6
-5 -3 -13 176.571 255.757 3
5 3 13 68.1595 189.374 6
-5 -3 -14 88.7825 262.643 3
-5 -4 7 3969.09 629.58 2
-5 -4 6 559.25 336.15 2
-5 -4 5 10710.6 871.762 2
5 4 -5 10152 638.346 4
-5 -4 4 22905.9 1198.06 2
5 4 -4 23311.9 940.871 4
-5 -4 3 533.626 255.519 2
5 4 -3 479.186 198.523 4
-5 -4 2 51.2464 176.61 2
5 4 -2 -30.8427 127.929 5
5 4 -2 68.6279 136.639 4
-5 -4 1 532.778 213.527 2
5 4 -1 430.987 123.935 5
5 4 -1 519.408 188.75 4
5 4 0 359.823 134.058 5
5 4 0 94.8995 120.455 4
5 4 1 285.099 128.784 1
5 4 1 478.803 146.299 5
5 4 1 334.578 139.183 4
5 4 2 6110.87 394.172 1
5 4 2 5924.5 402.153 5
5 4 2 6310.51 399.867 2
5 4 2 6374.29 469.608 4
-5 -4 -3 25487 1014.72 3
5 4 3 26824.4 725.319 1
5 4 3 25348.3 832.905 5
5 4 3 26451.8 735.805 2
5 4 3 25907.8 920.032 4
-5 -4 -4 30727.8 1123.26 3
5 4 4 31173.3 964.278 5
5 4 4 29888.5 716.681 2
5 4 4 29975.3 692.209 1
5 4 4 31843.2 1007.78 4
-5 -4 -5 863.85 231.566 3
5 4 5 1413.06 160.916 2
5 4 5 1695.63 260.957 5
5 4 5 1396.86 138.835 1
5 4 5 1580.62 262.637 4
-5 -4 -6 1529.35 306.205 3
5 4 6 1866.48 288.651 5
5 4 6 1214.49 244.583 4
-5 -4 -7 772.576 90.6865 1
-5 -4 -7 907.027 262.504 3
5 4 7 808.268 211.863 5
5 4 7 907.34 132.676 2
5 4 7 822.915 189.833 4
-5 -4 -8 3134.8 423.661 3
5 4 8 3234.54 240.864 2
5 4 8 3061.43 405.954 6
5 4 8 3042.8 334.279 4
-5 -4 -9 281.769 218.283 3
5 4 9 381.63 210.317 6
5 4 9 326.375 108.783 2
-5 -4 -10 2056.75 380.093 3
5 4 10 1445.65 318.92 6
5 4 10 2030.28 241.092 2
-5 -4 -11 584.305 274.264 3
5 4 11 154.195 226.836 6
-5 -4 -12 262.602 235.666 3
5 4 12 72.348 152.489 6
-5 -4 -13 420.406 320.356 3
5 4 13 251.369 239.949 6
-5 -4 -14 266.586 236.107 3
-5 -5 6 6136.26 759.431 2
-5 -5 5 545.777 288.01 2
5 5 -5 872.936 232.544 4
-5 -5 4 1773.55 411.072 2
5 5 -4 2594.89 363.981 4
-5 -5 3 200.885 219.54 2
5 5 -3 177.588 168.984 4
5 5 -2 2644.35 260.498 5
5 5 -2 3264.45 380.615 4
5 5 -1 183.481 164.566 1
5 5 -1 353.796 109.28 5
5 5 -1 494.848 186.891 4
5 5 0 54.6223 124.676 1
5 5 0 175.312 108.771 5
5 5 0 78.9923 143.404 4
5 5 1 2736.05 317.2 1
5 5 1 2614.52 247.298 5
5 5 1 2672.54 337.519 4
5 5 2 158.53 120.517 1
5 5 2 251.252 125.481 5
5 5 2 -139.259 147.194 4
5 5 3 6288.51 410.283 1
5 5 3 5707.34 382.651 5
5 5 3 5932.41 407.264 2
5 5 3 5661.76 461.489 4
5 5 4 165.745 115.78 2
-5 -5 -4 42.4273 157.054 3
5 5 4 101.878 130.342 5
5 5 4 -18.3086 113.367 1
5 5 4 48.2303 137.295 4
-5 -5 -5 84.6686 174.414 3
5 5 5 130.21 94.9801 2
5 5 5 176.874 88.5285 1
5 5 5 198.24 140.453 5
5 5 5 48.8018 132.88 4
-5 -5 -6 10061.2 684.708 3
5 5 6 11085.1 606.847 5
5 5 6 10204.9 593.305 4
5 5 6 9513.47 408.819 1
-5 -5 -7 2224.04 358.459 3
5 5 7 2345.54 234.692 2
-5 -5 -7 2049.41 198.077 1
5 5 7 2358.5 312.308 4
-5 -5 -8 -300.968 280.064 3
5 5 8 -71.1003 96.0925 2
5 5 8 -171.509 195.079 4
-5 -5 -9 3143.8 427.986 3
5 5 9 3237.69 424.357 6
5 5 9 3026.15 286.751 2
5 5 9 3695.14 373.881 4
-5 -5 -10 4011.66 517.38 3
5 5 10 4277.27 504.304 6
5 5 10 3636.52 333.305 2
-5 -5 -11 340.854 191.827 3
5 5 11 348.12 228.718 6
-5 -5 -12 933.308 308.699 3
5 5 12 1049.87 334.177 6
-5 -5 -13 -255.1 243.078 3
5 5 13 209.907 245.29 6
-5 -5 -14 -271.212 249.45 3
-5 -5 -15 397.241 298.387 3
5 6 -5 35.6875 228.448 1
5 6 -5 269.195 171.767 4
5 6 -4 -99.9941 200.881 1
5 6 -4 -58.7197 163.777 4
5 6 -3 4785.03 564.315 1
5 6 -3 4630.87 472.251 4
5 6 -2 170.726 203.07 1
5 6 -1 3429.1 437.678 1
5 6 0 7910.49 339.295 5
5 6 0 8130.39 607.021 1
5 6 1 5674.23 484.748 1
5 6 1 5011.64 283.712 5
5 6 2 100.334 109.003 1
5 6 2 166.14 90.8132 5
5 6 2 41.9264 139.984 4
5 6 3 1222.8 184.509 5
5 6 3 927.45 194.711 1
5 6 3 643.66 215.779 4
5 6 4 19933 692.605 5
-5 -6 -4 17800.3 709.132 5
5 6 4 19724 747.352 1
5 6 4 19607.3 857.009 4
-5 -6 -5 8465.88 639.907 3
5 6 5 7073.59 437.217 1
5 6 5 7632.04 533.929 4
-5 -6 -6 29.9713 89.2031 1
-5 -6 -6 166.377 200.315 3
5 6 6 372.565 133.269 1
5 6 6 22.9246 148.236 4
-5 -6 -7 7014.12 609.805 3
5 6 7 6171.81 517.272 6
-5 -6 -7 6254.69 396.757 1
5 6 7 7225.33 518.549 4
5 6 7 7082.93 414.207 1
-5 -6 -8 15090.8 886.16 3
5 6 8 13841.9 638.408 2
5 6 8 15430.2 838.112 6
5 6 8 14207.3 712.674 4
-5 -6 -9 18.0686 231.91 3
5 6 9 -80.0792 181.697 6
5 6 9 74.1601 115.358 2
5 6 9 -29.397 160.993 4
-5 -6 -10 446.668 249.13 3
5 6 10 626.438 245.587 6
5 6 10 771.926 188.299 2
5 6 10 607.203 194.219 4
-5 -6 -11 211.128 209.891 3
5 6 11 238.537 182.848 6
-5 -6 -12 191.962 234.881 3
5 6 12 -142.546 249.695 6
-5 -6 -13 541.111 296.774 3
5 6 13 -49.4788 168.898 6
-5 -6 -14 370.796 189.884 3
5 7 -5 -314.757 230.92 1
5 7 -5 -770.519 228.687 4
5 7 -4 -77.0397 210.715 1
5 7 -3 6.58253 157.836 1
5 7 -2 1100.43 291.776 1
5 7 -1 757.857 277.491 1
5 7 0 1041.81 294.874 1
5 7 1 358.613 208.249 1
5 7 2 4949.31 467.98 1
5 7 3 3772.61 400.022 1
5 7 4 1715.11 261.709 1
5 7 5 1112.69 221.318 1
5 7 5 1074.84 256.442 4
-5 -7 -6 -58.6014 211.425 3
5 7 6 -60.2132 149.102 6
5 7 6 35.5073 104.564 1
5 7 6 -25.7802 142.578 4
-5 -7 -7 21289.6 1037.81 3
5 7 7 22008.3 949.93 6
5 7 7 21337.5 808.406 1
-5 -7 -8 4466.86 512.66 3
5 7 8 3952.74 454.293 6
5 7 8 4344.11 430.677 4
5 7 8 4010.47 360.674 1
-5 -7 -9 3766.91 475.032 3
5 7 9 4555.83 424.922 2
5 7 9 3425.41 447.549 6
5 7 9 4376.4 430.404 4
-5 -7 -10 -484.827 238.882 3
5 7 10 -124.807 182.962 6
5 7 10 11.6016 127.532 2
5 7 10 -71.5187 136.204 4
-5 -7 -11 -115.322 234.299 3
5 7 11 63.1952 182.089 6
5 7 11 202.486 136.19 2
5 7 11 40.872 129.931 4
-5 -7 -12 524.1 269.505 3
5 7 12 547.367 262.458 6
-5 -7 -13 547.176 275.34 3
5 7 13 418.293 267.367 6
5 8 -4 74.3075 213.392 1
5 8 -3 425.832 248.549 1
5 8 -2 401.746 241.272 1
5 8 -1 16.4495 229.399 1
5 8 0 602.259 266.945 1
5 8 1 -43.2798 202.847 1
5 8 2 -19.2416 170.977 1
5 8 3 107.957 202.688 1
5 8 4 314.747 160.358 6
5 8 4 527.079 212.46 1
5 8 5 6240.09 459.794 6
5 8 5 6856.82 532.663 1
5 8 6 406.162 189.722 6
5 8 6 491.17 180.153 1
5 8 7 69.2625 147.776 1
5 8 7 -112.705 181.762 6
5 8 7 96.9949 166.556 4
-5 -8 -8 13213.8 843.718 3
5 8 8 11974.2 760.11 6
5 8 8 13479.5 750.452 4
5 8 8 11694 668.479 1
-5 -8 -9 4147.8 500.713 3
5 8 9 4157.54 452.135 2
5 8 9 4373.07 494.864 6
5 8 9 3408.79 394.072 4
5 8 9 4145.22 409.486 1
-5 -8 -10 -110.359 170.308 3
5 8 10 170.39 186.771 6
5 8 10 -108.228 145.307 2
5 8 10 51.1281 174.623 4
-5 -8 -11 128.71 173.577 3
5 8 11 -59.819 184.843 6
5 8 11 -124.969 128.469 2
5 8 11 -48.3745 164.492 4
-5 -8 -12 159.944 203.904 3
5 8 12 188.868 226.743 6
5 9 -2 484.891 276.89 1
5 9 -1 -385.938 226.638 1
5 9 0 594.476 273.751 1
5 9 1 312.065 232.677 1
5 9 2 968.282 296.476 1
5 9 3 859.435 278.971 1
5 9 4 1354.16 226.016 6
5 9 4 1134.67 305.324 1
5 9 5 39.0925 161.228 1
5 9 5 -19.5045 129.215 6
5 9 6 3012.15 352.503 6
5 9 6 2895.48 390.219 1
5 9 7 713.779 215.234 6
5 9 7 1327.37 286.401 1
5 9 8 4907.37 506.371 6
5 9 8 4708.7 478.984 4
5 9 8 4160.58 444.258 1
5 9 9 871.384 227.746 6
5 9 9 881.283 229.504 1
-5 -9 -10 1041.12 319.168 3
5 9 10 508.439 227.025 6
5 9 10 871.081 249.248 2
5 9 10 226.002 160.619 4
-5 -9 -11 544.96 261.94 3
5 9 11 1185.4 334.795 6
5 9 11 1174.1 297.038 2
-5 -9 -12 -97.9669 240.746 3
5 10 -1 761.433 282.827 1
5 10 0 5.14987 173.478 1
5 10 1 387.288 252.154 1
5 10 2 267.375 187.936 1
5 10 3 531.136 241.161 1
5 10 4 558.676 278.592 1
5 10 5 -419.246 213.866 1
5 10 6 195.061 151.016 6
5 10 6 251.015 205.551 1
5 10 7 -156.959 146.387 6
5 10 7 94.4595 179.221 1
5 10 8 1378.3 291.515 6
5 10 8 1884.49 343.83 1
5 10 9 85.0064 132.854 1
5 10 9 -86.7265 176.164 6
5 10 9 -8.41629 186.735 4
5 10 10 2128.9 384.972 2
5 10 10 2888.84 457.357 6
5 10 10 1938.61 345.138 4
5 10 11 1241.94 303.535 2
5 11 1 19.7495 175.297 1
5 11 2 575.164 288.434 1
5 11 3 2807.22 477.021 1
5 11 4 10158.4 825.483 1
5 11 5 2203.12 404.14 1
5 11 6 -59.784 157.835 1
5 11 7 1024.23 307.362 1
5 11 8 899.443 273.518 1
5 11 9 356.223 246.903 4
5 11 9 -41.9877 146.825 1
5 11 10 1287.16 331.045 4
5 11 11 668.971 244.521 2
5 12 3 896.295 363.476 1
5 12 4 390.711 245.513 1
5 12 5 -375.7 247.279 1
5 12 6 -27.9135 170.034 1
5 12 7 762.845 302.526 1
5 12 8 794.876 282.138 1
5 12 9 44.8983 142.481 1
5 12 10 96.57 199.061 4
5 13 8 834.024 289.775 1
-6 9 3 264.682 271.002 2
-6 9 0 805.919 362.598 1
6 -9 1 -626.749 276.131 5
6 -9 2 1875.22 419.305 5
6 -9 3 563.807 277.693 5
-6 8 5 -393.675 270.587 2
-6 8 4 292.859 256.836 2
-6 8 3 26.0282 191.86 2
-6 8 2 634.109 265.977 2
6 -8 -2 626.508 258.563 5
-6 8 1 -825.435 273.501 2
6 -8 -1 -15.5619 134.214 5
-6 8 0 620.089 245.393 1
6 -8 0 -649.654 275.127 5
-6 8 -1 77.5637 162.847 1
6 -8 1 858.417 311.894 5
6 -8 2 7.63399 192.618 5
6 -8 3 -324.874 213.696 5
6 -8 4 403.641 254.897 5
6 -8 5 -1120.82 329.217 5
6 -8 6 550.456 267.199 5
-6 7 5 8.09022 261.319 2
-6 7 4 -138.21 202.087 2
-6 7 3 169.168 203.895 2
-6 7 2 585.456 218.559 2
6 -7 -2 1015.72 320.196 5
-6 7 1 287.791 153.792 2
6 -7 -1 45.0234 234.207 5
-6 7 0 -71.8819 200.131 2
6 -7 0 159.329 259.973 5
-6 7 -1 373.256 202.649 1
6 -7 1 -326.648 238.877 5
6 -7 2 216.751 244.255 5
-6 7 -2 249.645 188.528 1
6 -7 3 106.46 157.118 5
6 -7 4 137.023 206.947 5
6 -7 5 247.385 201.64 5
6 -7 6 -152.588 200.408 5
6 -7 7 424.043 236.152 5
-6 6 6 20.9476 199.166 2
-6 6 5 113.482 222.522 2
-6 6 4 -103.684 241.977 2
-6 6 3 0.67214 193.199 2
-6 6 2 361.32 211.931 2
-6 6 1 483.798 200.283 2
6 -6 -1 365.614 249.306 5
-6 6 0 1572.62 294.31 2
6 -6 0 1490.06 354.366 5
-6 6 -1 146.534 125.427 3
-6 6 -1 91.1054 154.337 2
6 -6 1 0.40216 224.444 5
-6 6 -2 581.427 212.779 3
-6 6 -2 506.626 196.161 1
6 -6 2 194.76 233.968 5
6 -6 3 722.821 269.699 5
-6 6 -3 674.734 253.751 3
6 -6 4 1682.43 383.27 5
6 -6 5 -279.735 227.995 5
6 -6 6 66.9198 232.633 5
6 -6 7 55.2793 149.898 5
6 -6 8 -309.862 194.124 5
-6 5 7 -682.823 296.328 2
-6 5 6 -143.947 197.327 2
-6 5 5 3090.63 482.722 2
-6 5 4 -119.673 204.774 2
-6 5 3 360.319 191.674 2
-6 5 2 -65.4155 158.481 2
-6 5 1 1542.01 299.367 2
6 -5 -1 1543.81 350.553 5
-6 5 0 2843.65 336.706 3
-6 5 0 2827.25 361.184 2
6 -5 0 2654.06 452.784 5
-6 5 -1 2914.09 361.696 3
-6 5 -1 3050.67 349.749 2
6 -5 1 3258.15 481.635 5
-6 5 -2 118.434 169.918 3
-6 5 -2 -96.5302 148.572 2
6 -5 2 391.981 255.029 5
-6 5 -3 -3.07767 155.163 1
-6 5 -3 373.609 188.183 3
6 -5 3 584.942 248.463 5
6 -5 4 148.959 232.399 5
6 -5 5 96.7292 221.853 5
6 -5 6 652.448 289.432 5
6 -5 7 157.032 157.431 5
6 -5 8 493.683 193.019 5
6 -5 9 651.967 264.428 5
-6 4 7 -524.131 281.925 2
-6 4 6 71.0495 223.912 2
-6 4 5 1936.13 391.085 2
-6 4 4 5858.8 594.198 2
-6 4 3 721.792 249.287 2
-6 4 2 204.986 183.392 2
-6 4 1 -72.6573 117.242 3
-6 4 1 118.419 145.497 2
-6 4 0 466.902 181.615 3
6 -4 0 101.941 224.168 5
-6 4 0 532.519 191.895 2
-6 4 -1 8782.13 538.263 2
6 -4 1 9106.04 747.393 5
-6 4 -2 -166.56 180.943 3
-6 4 -2 -67.0919 125.693 2
6 -4 2 -79.857 196.638 5
-6 4 -3 52.1202 168.233 3
6 -4 3 123.483 210.97 5
-6 4 -4 3172.5 432.897 3
6 -4 4 2821.29 445.483 5
-6 4 -4 2621.84 296.807 1
6 -4 5 9096.08 759.456 5
6 -4 6 7018.94 691.662 5
6 -4 7 -63.6989 194.641 5
6 -4 8 -133.868 176.717 5
6 -4 9 315.146 196.313 5
6 -4 10 256.039 183.017 6
6 -4 10 -290.23 203.3 5
-6 3 7 375.686 267.177 2
-6 3 6 349.054 245.913 2
-6 3 5 479.221 252.097 2
-6 3 4 -86.0113 219.63 2
-6 3 3 634.871 220.971 2
-6 3 2 129.693 181.936 2
-6 3 1 14780.8 690.736 3
-6 3 1 15404.1 760.323 2
-6 3 0 222.66 134.287 3
6 -3 0 461.461 214.671 5
-6 3 0 489.519 177.533 2
-6 3 -1 -1.82231 148.974 3
6 -3 1 -108.591 205.867 5
-6 3 -1 48.8206 111.231 2
-6 3 -2 18489.4 656.355 2
6 -3 2 18581.7 1027.17 5
-6 3 -2 18009.4 876.47 3
-6 3 -3 3780.53 278.791 2
6 -3 3 3487.71 482.992 5
-6 3 -3 3686.71 437.634 3
-6 3 -4 1975.5 350.132 3
6 -3 4 2651.37 417.328 5
6 -3 5 414.659 248.011 5
-6 3 -5 316.299 212.363 3
6 -3 6 -168.294 216.379 5
6 -3 7 445.41 303.384 5
6 -3 8 1898.7 356.466 5
6 -3 9 1064.6 299.277 5
6 -3 10 -312.255 211.036 6
6 -3 10 -369.651 223.346 5
6 -3 11 201.278 178.033 6
-6 2 7 1665.35 410.196 2
-6 2 6 -435.232 238.034 2
-6 2 5 296.01 202.951 2
-6 2 4 406.69 224.076 2
-6 2 3 8587.63 651.07 2
-6 2 2 3792.23 413.81 2
-6 2 1 306.27 153.3 3
-6 2 1 143.153 154.159 2
-6 2 0 -7.94931 143.525 3
6 -2 0 -145.623 238.743 5
-6 2 0 -279.066 142.052 2
-6 2 -1 14512.7 754.302 3
-6 2 -1 13805.1 578.98 2
6 -2 1 13768.3 857.728 5
-6 2 -2 10215 668.079 3
-6 2 -2 9279.87 419.721 2
6 -2 2 11206.6 785.133 5
6 -2 2 8547.1 460.324 1
-6 2 -3 35.9837 196.691 3
6 -2 3 498.911 280.423 5
-6 2 -3 165.852 87.5706 2
-6 2 -4 1222.47 274.046 3
6 -2 4 937.545 270.36 5
-6 2 -5 217.97 196.06 3
6 -2 5 -206.996 249.628 5
-6 2 -6 577.233 255.381 3
6 -2 6 81.3065 202.96 5
6 -2 7 551.256 275.94 5
6 -2 8 507.599 225.011 5
6 -2 9 -182.377 225.634 5
6 -2 10 444.374 190.69 6
6 -2 10 -73.2364 208.352 5
6 -2 11 93.9881 174.219 5
6 -2 11 305.25 207.327 6
6 -2 12 942.204 293.491 6
-6 1 7 360.268 277.147 2
-6 1 6 132.998 191.966 2
-6 1 5 570.309 276.132 2
-6 1 4 394.944 211.325 2
-6 1 3 -40.7311 200.322 2
-6 1 2 1264.55 264.64 2
-6 1 1 6938.25 487.648 2
-6 1 0 1706.04 290.537 3
6 -1 0 1551.33 317.466 5
-6 1 0 1537.25 235.618 2
-6 1 -1 2851.38 363.926 3
-6 1 -1 2745.41 254.909 2
6 -1 1 2385.9 373.248 5
6 -1 1 2192.93 252.756 1
-6 1 -2 23360.2 989.022 3
-6 1 -2 22216.9 585.17 2
6 -1 2 22146.2 1046.92 5
6 -1 2 22502.4 682.232 1
-6 1 -3 21446.4 980.967 3
-6 1 -3 20313.9 414.391 2
6 -1 3 22800.6 1059.05 5
6 -1 3 22646.9 591.395 1
6 -1 4 10429.3 305.002 1
6 -1 4 11576.1 773.425 5
-6 1 -4 12396.9 771.936 3
-6 1 -5 1678.26 323.203 3
6 -1 5 1701.6 343.793 5
-6 1 -6 1709.16 342.472 3
6 -1 6 996.007 290.426 5
-6 1 -7 1509.42 362.346 3
6 -1 7 1960.25 371.306 5
6 -1 8 642.611 239.81 5
-6 1 -8 1117.38 334.629 3
6 -1 9 1259.41 329.184 5
6 -1 10 80.3119 191.564 6
6 -1 10 -457.282 233.809 5
6 -1 11 98.9857 158.928 6
6 -1 11 -167.702 191.189 5
6 -1 12 954.111 303.149 6
-6 0 7 235.818 240.404 2
-6 0 6 3740.24 547.608 2
-6 0 5 1349.47 329.164 2
-6 0 4 190.541 202.232 2
-6 0 3 96.4622 156.352 2
-6 0 2 3536.59 398.794 2
-6 0 1 2811.53 324.822 2
-6 0 0 2338.24 328.47 3
-6 0 0 2372.8 279.817 2
6 0 0 1876.1 329.408 5
-6 0 -1 322.665 116.461 2
-6 0 -1 282.103 166.613 3
6 0 1 594.374 205.134 5
6 0 1 657.506 141.767 1
-6 0 -2 12615.6 732.565 3
-6 0 -2 11562.5 417.239 2
6 0 2 12520.3 767.523 5
6 0 2 11514.2 461.395 1
6 0 3 252.278 78.2465 1
-6 0 -3 29.6663 204.861 3
-6 0 -3 99.3673 35.7778 2
6 0 3 288.494 237.579 5
-6 0 -4 2826.13 397.161 3
6 0 4 3446.09 432.442 5
6 0 5 3419.98 443.937 5
-6 0 -5 3956.79 460.891 3
-6 0 -6 3426.26 455.842 3
6 0 6 3316.62 444.139 5
-6 0 -7 1193.27 322.85 3
6 0 7 1612.09 347.013 5
6 0 8 4381.55 516.645 5
-6 0 -8 5122.09 578.878 3
-6 0 -9 2343.95 428.921 3
6 0 9 2783.88 429.086 5
6 0 10 70.8317 170.44 6
6 0 10 41.9183 180.017 5
-6 0 -10 3.71374 223.969 3
6 0 11 391.083 228.068 5
6 0 11 -217.502 227.538 6
-6 0 -11 85.3526 214.503 3
6 0 12 74.0711 217.825 6
-6 -1 7 67.4561 205.244 2
-6 -1 6 -22.6315 220.242 2
-6 -1 5 15.6952 191.85 2
-6 -1 4 67.081 165.206 2
-6 -1 3 1537.75 318.797 2
-6 -1 2 484.675 197.842 2
-6 -1 1 195.652 149.159 2
6 1 -1 588.51 208.715 5
-6 -1 0 1230.56 207.961 2
6 1 0 1862.34 313.98 5
-6 -1 -1 3423.35 396.365 3
6 1 1 3202.01 272.322 2
-6 -1 -1 3092.2 275.926 2
6 1 1 3041.32 379.481 5
-6 -1 -2 806.304 129.532 2
-6 -1 -2 802.887 219.528 3
6 1 2 707.396 127.921 1
6 1 2 644.721 225.228 5
-6 -1 -3 8682.73 625.65 3
6 1 3 8798.3 637.012 5
6 1 3 7631.02 293.289 1
-6 -1 -4 10447.9 705.983 3
6 1 4 9728.27 661.782 5
-6 -1 -5 3377.52 438.153 3
6 1 5 2758.01 383.967 5
6 1 6 14837.6 853.085 5
-6 -1 -6 15859.5 916.085 3
-6 -1 -7 445.897 257.618 3
6 1 7 753.449 278.659 5
-6 -1 -8 801.724 313.901 3
6 1 8 918.152 270.944 5
-6 -1 -9 2768.82 462.918 3
6 1 9 3537.19 464.989 5
-6 -1 -10 131.196 216.3 3
6 1 10 18.1988 194.778 6
6 1 10 189.72 210.398 5
-6 -1 -11 526.223 285.809 3
6 1 11 234.895 211.965 6
-6 -1 -12 -221.28 277.878 3
6 1 12 55.3704 194.852 6
-6 -2 7 -259.488 253.074 2
-6 -2 6 -446.665 256.876 2
-6 -2 5 -50.8364 192.377 2
-6 -2 4 340.349 231.676 2
6 2 -4 429.656 199.102 4
-6 -2 3 350.536 216.603 2
6 2 -3 76.246 170.549 4
-6 -2 2 873.709 231.57 2
6 2 -2 866.534 241.653 4
6 2 -1 3687.13 412.154 5
-6 -2 1 3684.43 400.265 2
6 2 -1 3650.18 391.008 4
6 2 0 3706.55 408.461 5
-6 -2 0 3901.22 375.561 2
6 2 0 4485.56 434.825 4
-6 -2 -1 556.117 162.944 2
-6 -2 -1 610.78 214.691 3
6 2 1 583.744 209.608 5
6 2 1 420.787 120.477 2
6 2 1 849.978 229.512 4
-6 -2 -2 6425.54 543.547 3
6 2 2 6381.26 348.891 2
6 2 2 6799.18 540.821 5
6 2 2 7521.57 547.607 4
-6 -2 -3 8281.83 626.298 3
6 2 3 7866.02 323.657 1
6 2 3 7997.12 302.092 2
6 2 3 8072.42 588.313 5
-6 -2 -4 535.19 213.301 3
6 2 4 1135.91 262.506 5
-6 -2 -5 -169.522 177.695 3
6 2 5 14.8766 176.958 5
-6 -2 -6 704.204 235.434 3
6 2 6 666.607 238.161 5
-6 -2 -7 4203.46 512.71 3
6 2 7 4827.33 508.972 5
6 2 8 10771.8 740.944 5
-6 -2 -8 11575.9 843.506 3
-6 -2 -9 1188.29 336.412 3
6 2 9 1054.45 285.833 5
-6 -2 -10 247.385 215.077 3
6 2 10 80.0206 164.966 6
6 2 10 266.952 232.968 5
-6 -2 -11 2058.65 453.025 3
6 2 11 1780 379.177 6
-6 -2 -12 393.195 301.558 3
6 2 12 -122.409 204.403 6
-6 -2 -13 4608.64 658.853 3
6 2 13 5609.74 671.952 6
-6 -3 6 -485.548 299.674 2
-6 -3 5 -77.8244 207.469 2
6 3 -5 -210.187 162.703 4
-6 -3 4 175.864 213.862 2
6 3 -4 -4.37735 165.514 4
-6 -3 3 162.423 179.066 2
6 3 -3 93.303 153.777 4
-6 -3 2 -2.88647 175.008 2
6 3 -2 -11.1155 160.425 5
6 3 -2 6.39736 139.372 4
-6 -3 1 3403.25 412.768 2
6 3 -1 2532.98 336.074 5
6 3 -1 2386.93 335.437 4
-6 -3 0 1185.5 246.576 2
6 3 0 1111.49 247.515 5
6 3 0 1049.88 236.38 4
6 3 1 3632.76 396.149 5
-6 -3 -1 3271.4 332.175 2
6 3 1 3487.26 389.998 4
-6 -3 -2 7045.03 575.993 3
6 3 2 6862.8 404.759 1
6 3 2 7101.81 404.665 2
6 3 2 7118.4 526.826 5
6 3 2 8343.25 583.614 4
-6 -3 -3 30790.6 1196.94 3
6 3 3 28163.7 696.302 1
6 3 3 27580.8 673.072 2
6 3 3 29048.5 1044.54 5
6 3 3 28912.1 1061.47 4
-6 -3 -4 18712.6 958.25 3
6 3 4 17311.9 413.962 2
6 3 4 18000.5 852.031 5
6 3 4 17131.7 418.559 1
6 3 4 19353 863.105 4
-6 -3 -5 8283.59 654.883 3
6 3 5 7434.63 567.924 5
6 3 5 7834.56 567.817 4
-6 -3 -6 73.7988 193.379 3
6 3 6 -110.626 201.285 5
-6 -3 -7 450.113 224.424 3
6 3 7 250.588 179.051 5
-6 -3 -8 3543.68 480.653 3
6 3 8 3490.77 452.007 5
-6 -3 -9 1658.06 368.563 3
6 3 9 1361.09 302.372 5
-6 -3 -10 493.062 316.318 3
6 3 10 384.19 209.562 6
-6 -3 -11 313.18 278.766 3
6 3 11 -106.2 213.893 6
-6 -3 -12 1102.1 335.613 3
6 3 12 1857.99 403.478 6
-6 -3 -13 414.251 268.039 3
6 3 13 892.569 297.071 6
-6 -4 6 509.387 355.941 2
-6 -4 5 753.241 343.187 2
6 4 -5 -81.5753 186.474 4
-6 -4 4 335.319 243.503 2
6 4 -4 -97.5559 142.265 4
-6 -4 3 275.168 242.364 2
6 4 -3 -371.897 175.69 5
6 4 -3 139.36 164.328 4
-6 -4 2 708.579 271.817 2
6 4 -2 717.647 202.757 5
6 4 -2 988.562 260.541 4
-6 -4 1 -10.2153 173.536 2
6 4 -1 64.1145 136.633 5
6 4 -1 143.533 166.497 4
6 4 0 757.154 208.415 5
6 4 0 556.273 200.489 4
6 4 1 1242.66 226.412 1
6 4 1 1531.45 249.689 5
6 4 1 1472.06 278.499 4
6 4 2 744.616 172.999 1
6 4 2 633.837 188.527 5
6 4 2 1044.01 264.037 4
-6 -4 -3 2924.5 394.582 3
6 4 3 3131.61 280.003 1
6 4 3 2883.46 266.281 2
6 4 3 3378.01 369.517 5
6 4 3 3075.68 369.999 4
-6 -4 -4 3664.67 453.259 3
6 4 4 3814 265.277 2
6 4 4 3290.66 378.329 5
6 4 4 3487.45 257.14 1
6 4 4 4474.51 444.591 4
-6 -4 -5 15312.8 879.94 3
6 4 5 15321.7 775.015 5
6 4 5 14755.2 430.636 2
6 4 5 14989.2 392.017 1
6 4 5 16570 810.909 4
-6 -4 -6 478.313 237.618 3
6 4 6 520.738 203.764 5
6 4 6 465.324 74.3945 2
6 4 6 342.926 202.015 4
-6 -4 -7 4538.48 518.861 3
6 4 7 4167.52 453.488 5
6 4 7 4369.97 443.031 4
-6 -4 -8 159.213 243.051 3
6 4 8 264.452 227.088 5
-6 -4 -9 1980.47 404.446 3
6 4 9 1415.61 327.219 6
6 4 9 1574.76 309.759 5
-6 -4 -10 47.715 228.603 3
6 4 10 -288.91 247.511 6
-6 -4 -11 18.9955 221.444 3
6 4 11 15.1759 190.468 6
-6 -4 -12 1041.03 345.523 3
6 4 12 1093.62 317.025 6
-6 -4 -13 573.708 337.811 3
6 4 13 79.227 194.063 6
-6 -5 5 1378.02 409.843 2
6 5 -5 1081.32 258.212 4
-6 -5 4 513.952 347.733 2
6 5 -4 59.4261 131.084 4
-6 -5 3 2372.99 458.408 2
6 5 -3 1850.53 341.286 4
6 5 -2 6852.71 584.467 4
6 5 -1 2818.2 392.346 1
6 5 -1 2362.69 278.904 5
6 5 -1 2818.4 383.232 4
6 5 0 -216.874 158.793 1
6 5 0 92.2304 110.987 5
6 5 0 -84.6174 179.792 4
6 5 1 474.801 178.473 1
6 5 1 512.599 153.473 5
6 5 1 361.684 170.719 4
6 5 2 -11.8171 108.928 1
6 5 2 -87.5109 144.344 5
6 5 2 -63.1168 202.624 4
6 5 3 809.677 180.239 1
6 5 3 955.674 209.217 5
6 5 3 633.183 203.095 4
-6 -5 -4 3199.42 450.836 3
6 5 4 2972.59 331.771 5
6 5 4 2898.78 272.892 2
6 5 4 3065.28 279.212 1
6 5 4 3281.52 387.631 4
6 5 5 100.63 96.4476 2
6 5 5 93.5277 75.6964 1
-6 -5 -5 96.1931 180.76 3
6 5 5 38.8665 143.687 5
6 5 5 -68.642 159.439 4
-6 -5 -6 2260.39 385.511 3
6 5 6 1743.5 294.513 5
6 5 6 2049.52 176.766 1
6 5 6 2537.95 339.325 4
-6 -5 -7 292.699 226.053 3
6 5 7 489.362 211.213 5
6 5 7 276.571 90.8729 2
6 5 7 594.252 236.898 4
-6 -5 -8 12071.6 847.838 3
6 5 8 12190.4 753.315 5
6 5 8 11174.4 678.282 4
-6 -5 -9 1381.57 355.705 3
6 5 9 937.297 266.128 6
6 5 9 1328.45 254.239 4
-6 -5 -10 2291.57 445.411 3
6 5 10 1902.89 391.396 6
-6 -5 -11 716.266 328.76 3
6 5 11 553.854 249.893 6
-6 -5 -12 -678.635 301.862 3
6 5 12 61.1136 153.796 6
-6 -5 -13 -205.944 300.519 3
-6 -5 -14 -169.348 270.282 3
6 6 -4 94.5023 243.526 1
6 6 -4 -14.2841 142.157 4
6 6 -3 239.188 222.267 1
6 6 -3 -71.5967 181.593 4
6 6 -2 765.971 266.128 1
6 6 -2 672.758 226.473 4
6 6 -1 102.557 146.983 1
6 6 -1 375.588 214.729 4
6 6 0 109.335 133.934 1
6 6 0 52.885 157.725 4
6 6 1 4.81148 134.724 1
6 6 1 235.708 126.154 5
6 6 1 -79.9041 182.003 4
6 6 2 649.547 201.942 1
6 6 2 578.935 146.491 5
6 6 2 314.632 184.436 4
6 6 3 4928.92 378.255 5
6 6 3 4664.11 412.88 1
6 6 3 4188.07 452.266 4
6 6 4 71.2711 118.152 5
6 6 4 -41.5918 123.931 1
6 6 4 -109.38 229.876 4
6 6 5 121.952 106.839 1
-6 -6 -5 -3.98072 196.313 3
6 6 5 117.875 145.707 5
6 6 5 221.776 177.71 4
-6 -6 -6 404.654 248.292 3
6 6 6 559.042 204.886 5
6 6 6 435.686 125.322 1
6 6 6 602.318 236.178 4
-6 -6 -7 1132.87 319.475 3
6 6 7 915.722 156.822 1
6 6 7 1125 274.378 4
-6 -6 -8 363.36 257.64 3
6 6 8 384.252 223.158 6
6 6 8 332.012 131.461 2
6 6 8 289.204 176.229 4
-6 -6 -9 1011.56 309.275 3
6 6 9 977.189 255.907 6
6 6 9 989.237 264.955 4
-6 -6 -10 467.249 278.528 3
6 6 10 432.631 218.744 6
6 6 10 730.809 237.613 4
-6 -6 -11 -188.285 216.393 3
6 6 11 -120.845 185.365 6
-6 -6 -12 265.645 261.285 3
6 6 12 375.443 235.307 6
-6 -6 -13 278.413 259.913 3
-6 -6 -14 1253.68 438.478 3
6 7 -4 -159.863 236.914 1
6 7 -4 -519.729 211.352 4
6 7 -3 492.413 245.605 1
6 7 -3 75.9124 151.659 4
6 7 -2 105.819 182.833 1
6 7 -2 393.372 201.755 4
6 7 -1 506.432 255.328 1
6 7 -1 501.552 195.483 4
6 7 0 -91.2033 181.025 1
6 7 0 -119.473 190.886 4
6 7 1 515.19 211.309 1
6 7 1 179.528 182.657 4
6 7 2 5691.9 507.426 1
6 7 2 6081.54 559.915 4
6 7 3 752.663 159.358 5
6 7 3 773.9 200.454 1
6 7 3 918.76 246.42 4
6 7 4 -26.4787 109.795 5
6 7 4 -11.3506 133.319 1
6 7 4 -57.6604 198.937 4
6 7 5 134.467 112.895 1
6 7 5 224.406 173.536 4
-6 -7 -6 1156.62 327.604 3
6 7 6 1738.37 248.232 1
6 7 6 1227.55 289.786 4
6 7 7 86.609 111.179 1
-6 -7 -7 313.752 230.387 3
6 7 7 289.956 194.853 6
6 7 7 -311.084 244.527 4
-6 -7 -8 1114.84 299.148 3
6 7 8 1289.3 289.169 6
6 7 8 1194.32 286.476 4
-6 -7 -9 39.2524 216.292 3
6 7 9 211.227 182.271 6
6 7 9 74.6411 159.228 4
-6 -7 -10 142.73 224.601 3
6 7 10 -42.4584 172.216 6
6 7 10 48.7066 170.638 4
6 7 11 42.9337 193.192 6
6 7 11 336.644 198.635 4
-6 -7 -12 -71.3753 216.787 3
6 7 12 -185.861 201.674 6
-6 -7 -13 252.799 258.192 3
-6 -7 -14 466.928 344.505 3
6 8 -4 -345.771 198.991 4
6 8 -3 107.762 184.55 1
6 8 -3 172 185.245 4
6 8 -2 375.452 235.549 1
6 8 -2 174.284 162.957 4
6 8 -1 71.1407 203.208 1
6 8 -1 -158.312 178.682 4
6 8 0 157.906 178.164 1
6 8 0 -52.7453 153.658 4
6 8 1 -16.1264 165.289 1
6 8 1 37.7012 190.004 4
6 8 2 141 167.346 1
6 8 2 -156.578 189.75 4
6 8 3 802.141 241.042 1
6 8 3 840.578 289.573 4
6 8 4 1382.14 306.237 4
6 8 4 1216.3 252.624 1
6 8 5 1725.78 290.495 1
6 8 5 2355.45 390.723 4
6 8 6 2.21804 165.88 6
6 8 6 310.797 172.57 1
6 8 6 18.7955 201.566 4
6 8 7 6606.79 555.396 6
6 8 7 6581.81 491.154 1
6 8 7 5594.81 538.614 4
-6 -8 -8 2645.28 456.287 3
6 8 8 2381.61 378.509 6
6 8 8 2387.93 370.446 4
-6 -8 -9 56.4879 181.313 3
6 8 9 24.4952 166.731 6
6 8 9 25.1589 164.915 4
-6 -8 -10 604.929 251.55 3
6 8 10 411.94 234.921 6
6 8 10 418.725 204.151 4
-6 -8 -11 280.59 231.473 3
6 8 11 -368.639 260.172 6
6 8 11 131.405 167.727 4
-6 -8 -12 -269.32 296.017 3
6 8 12 167.031 172.992 6
-6 -8 -13 2002.11 459.487 3
6 9 -1 127.737 249.618 1
6 9 0 272.492 208.424 1
6 9 1 73.2415 184.733 1
6 9 2 567.905 243.583 1
6 9 3 590.124 219.385 1
6 9 4 84.2065 183.852 4
6 9 4 581.746 219.651 1
6 9 5 788.378 251.295 1
6 9 5 673.868 215.115 6
6 9 5 801.25 286.831 4
6 9 6 3307.02 395.35 6
6 9 6 2629.6 369.085 1
6 9 6 2488.69 401.618 4
6 9 7 341.691 205.813 6
6 9 7 468.734 193.788 1
6 9 7 928.62 294.549 4
6 9 8 306.026 166.496 6
6 9 8 197.981 200.885 4
6 9 9 1203.66 292.615 6
6 9 9 1357.83 278.517 4
6 9 10 -220.781 186.831 6
6 9 10 143.514 160.942 4
-6 -9 -11 -230.25 219.27 3
6 9 11 61.8713 177.191 6
6 9 11 -201.273 201.368 4
-6 -9 -12 27.0701 245.639 3
6 9 12 244.719 185.193 6
6 10 0 -398.692 271.784 1
6 10 1 -11.0741 159.733 1
6 10 2 -405.012 228.763 1
6 10 3 32.1337 141.674 1
6 10 4 233.177 210.115 1
6 10 5 34.4811 160.419 1
6 10 6 -4.32239 170.995 1
6 10 6 -13.6979 200.205 4
6 10 7 145.909 146.705 6
6 10 7 224.511 173.168 1
6 10 7 233.612 175.206 4
6 10 8 1703.43 318.902 6
6 10 8 3024.62 460.681 4
6 10 9 13.647 178.647 6
6 10 9 10.6774 196.665 4
6 10 10 -259.693 207.479 6
6 10 10 -195.46 198.932 4
6 10 11 1703.02 395.97 6
6 10 11 1601.56 367.299 4
6 11 2 -105.439 195.445 1
6 11 3 1666.2 377.942 1
6 11 4 1254.04 339.799 1
6 11 5 156.945 168.058 1
6 11 6 535.885 239.304 1
6 11 7 10.4647 212.632 4
6 11 8 698.101 252.196 4
6 11 9 1759.93 379.513 4
6 11 10 111.534 219.695 6
6 11 10 -617.274 275.848 4
6 12 4 254.431 210.554 1
6 12 5 25.157 187.853 1
6 12 6 -102.648 196.766 1
-7 7 -5 -519.891 251.803 3
-7 6 5 -136.237 229.91 2
7 -6 -1 -521.197 260.798 5
7 -6 0 370.936 264.23 5
7 -6 1 -375.913 252.418 5
7 -6 2 -441.445 238.478 5
-7 6 -3 890.519 260.666 3
7 -6 3 1007.97 369.262 5
-7 6 -4 406.056 203.522 3
7 -6 4 808.817 332.488 5
-7 6 -5 601.355 274.488 3
7 -6 5 272.943 200.438 5
-7 6 -6 630.172 312.95 3
-7 5 5 -274.798 266.244 2
-7 5 4 504.149 285.202 2
-7 5 3 -135.968 233.778 2
7 -5 -2 -36.1214 172.578 5
7 -5 -1 -147.072 201.861 5
7 -5 0 15.6388 186.34 5
7 -5 1 2126.3 438.577 5
-7 5 -2 -13.0847 122.574 3
7 -5 2 -67.5933 192.433 5
-7 5 -3 64.9835 125.321 3
7 -5 3 -479.624 255.536 5
-7 5 -4 -214.655 164.388 3
7 -5 4 -306.011 243.455 5
-7 5 -5 58.5339 193.107 3
7 -5 5 -528.373 291.968 5
-7 5 -6 134.651 199.296 3
7 -5 6 99.7965 194.538 5
7 -5 7 -42.2634 210.266 5
-7 4 6 1699.97 435.905 2
-7 4 5 -577.616 280.804 2
-7 4 4 788.102 267.068 2
-7 4 3 254.265 204.982 2
7 -4 -2 -72.4546 244.651 5
-7 4 2 324.65 185.057 2
7 -4 -1 -74.0331 208.856 5
7 -4 0 591.525 291.249 5
-7 4 -1 433.699 204.765 3
7 -4 1 252.615 183.563 5
-7 4 -2 4049.62 472.181 3
7 -4 2 5023.66 614.177 5
-7 4 -3 291.455 190.762 3
7 -4 3 237.687 257.419 5
-7 4 -4 174.221 168.533 3
7 -4 4 367.327 258.184 5
-7 4 -5 1527.06 346.523 3
7 -4 5 1346.66 348.552 5
-7 4 -6 -282.708 222.909 3
7 -4 6 41.9019 210.278 5
-7 4 -7 824.293 332.538 3
7 -4 7 37.5894 247.822 5
7 -4 8 618.209 304.974 5
-7 3 6 -904.993 310.935 2
-7 3 5 64.5835 189.985 2
-7 3 4 694.662 281.126 2
-7 3 3 1268.23 298.263 2
-7 3 2 4299.49 479.355 2
-7 3 1 6214.62 517.941 2
7 -3 -1 5742.14 641.588 5
-7 3 0 95.1989 145.834 3
7 -3 0 459.425 238.495 5
-7 3 -1 -26.9916 153.658 3
7 -3 1 -158.566 221.331 5
-7 3 -2 1684.18 329.653 3
7 -3 2 1764.88 379.685 5
-7 3 -3 229.957 191.424 3
7 -3 3 661.597 266.031 5
7 -3 4 4264.69 558.013 5
-7 3 -4 4633.68 539.169 3
-7 3 -5 38.5471 217.512 3
7 -3 5 306.418 267.669 5
-7 3 -6 -0.76586 186.255 3
7 -3 6 135.759 179.313 5
-7 3 -7 2141.33 440.963 3
7 -3 7 2306.56 437.468 5
-7 3 -8 369.775 273.932 3
7 -3 8 210.985 223.394 5
7 -3 9 -342.26 234.204 5
-7 3 -9 404.839 264.115 3
-7 2 6 963.888 352.803 2
-7 2 5 -268.409 237.397 2
-7 2 4 394.689 225.476 2
-7 2 3 3454.99 447.678 2
-7 2 2 5449.1 514.187 2
7 -2 -1 1633.27 378.042 5
-7 2 1 1281.08 258.468 2
-7 2 0 112.72 133.683 3
7 -2 0 353.174 258.412 5
-7 2 0 424.482 174.08 2
-7 2 -1 16.8334 156.059 3
7 -2 1 -133.935 223.456 5
-7 2 -2 -8.05068 180.741 3
7 -2 2 123.908 208.534 5
-7 2 -3 2254.46 374.082 3
7 -2 3 2287.14 405.347 5
-7 2 -4 249.879 200.589 3
7 -2 4 185.272 221.497 5
-7 2 -5 1946.68 385.366 3
7 -2 5 995.662 308.829 5
-7 2 -6 697.571 259.385 3
7 -2 6 870.038 299.292 5
-7 2 -7 302.821 235.296 3
7 -2 7 262.182 219.155 5
-7 2 -8 149.675 234.885 3
7 -2 8 132.605 205.021 5
-7 2 -9 -128.585 233.771 3
7 -2 9 -118.492 182.469 5
7 -2 10 325.856 230.191 5
7 -2 11 -457.109 244.49 6
-7 1 6 -192.256 234.933 2
-7 1 5 219.92 259.57 2
-7 1 4 -34.6267 177.371 2
-7 1 3 1554.78 334.049 2
-7 1 2 442.102 200.229 2
-7 1 1 115.407 138.314 2
7 -1 -1 182.521 217.305 5
-7 1 0 329.437 164.609 2
-7 1 0 309.261 191.895 3
7 -1 0 195.274 214.084 5
-7 1 -1 4095.9 453.759 3
-7 1 -1 3895.81 330.825 2
7 -1 1 3772.11 503.562 5
-7 1 -2 77.9626 176.943 3
7 -1 2 640.312 272.939 5
-7 1 -3 6413.05 596.687 3
7 -1 3 6622.14 641.259 5
-7 1 -4 257.652 219.811 3
7 -1 4 539.534 247.647 5
-7 1 -5 364.562 223.856 3
7 -1 5 147.204 210.266 5
-7 1 -6 1477.21 345.135 3
7 -1 6 1015.42 305.917 5
-7 1 -7 459.209 253.509 3
7 -1 7 264.418 230.866 5
-7 1 -8 -88.6196 204.377 3
7 -1 8 -50.9715 155.719 5
-7 1 -9 513.323 279.071 3
7 -1 9 -30.8281 209.172 5
-7 1 -10 23.2667 159.03 3
7 -1 10 -13.5873 136.328 5
7 -1 11 403.378 237.895 6
-7 0 6 -83.2735 261.416 2
-7 0 5 -26.9954 187.69 2
-7 0 4 255.905 228.129 2
-7 0 3 3019.39 445.478 2
-7 0 2 193.867 156.957 2
-7 0 1 2.56175 148.374 2
7 0 -1 438.881 246.699 5
-7 0 0 1061.83 218.579 2
7 0 0 622.075 225.938 5
-7 0 -1 199.729 110.793 2
-7 0 -1 252.994 204.651 3
7 0 1 1.9723 214.067 5
-7 0 -2 212.673 204.42 3
7 0 2 409.691 236.483 5
-7 0 -3 9398.33 712.526 3
7 0 3 10861.8 790.104 5
-7 0 -4 519.385 237.087 3
7 0 4 980.821 313.268 5
-7 0 -5 315.045 263.864 3
7 0 5 248.901 227.584 5
-7 0 -6 2076.37 415.145 3
7 0 6 2054.1 405.915 5
-7 0 -7 824.558 282.129 3
7 0 7 565.522 272.47 5
-7 0 -8 1556.38 390.911 3
7 0 8 1373.89 334.559 5
-7 0 -9 486.221 238.179 3
7 0 9 720.389 236.008 5
-7 0 -10 -314.782 199.663 3
7 0 10 294.656 168.165 5
-7 0 -11 67.189 234.944 3
7 0 11 408.671 220.058 6
7 0 11 -17.8528 217.381 5
-7 -1 6 370.224 239.873 2
-7 -1 5 65.7248 201.867 2
-7 -1 4 138.93 218.588 2
-7 -1 3 1238.39 301.852 2
-7 -1 2 4161.92 466.643 2
7 1 -2 3522.51 475.973 5
-7 -1 1 588.927 216.463 2
7 1 -1 777.481 269.774 5
-7 -1 0 270.88 147.92 2
7 1 0 53.9486 174.622 5
-7 -1 -1 3514.91 445.217 3
-7 -1 -1 3652.56 335.005 2
7 1 1 3016.88 427.878 5
-7 -1 -2 8323.04 660.517 3
7 1 2 8024.41 660.975 5
-7 -1 -2 8192.09 412.13 2
-7 -1 -3 11493 795.534 3
7 1 3 11149.3 790.569 5
-7 -1 -4 308.273 224.48 3
7 1 4 516.074 247.751 5
-7 -1 -5 508.48 230.545 3
7 1 5 393.269 230.269 5
-7 -1 -6 1979.31 400.298 3
7 1 6 2697.72 431.951 5
-7 -1 -7 348.656 254.912 3
7 1 7 67.562 213.007 5
-7 -1 -8 1047.38 319.267 3
7 1 8 602.25 262.411 5
-7 -1 -9 -2.96035 206.986 3
7 1 9 517.68 255.669 5
-7 -1 -10 151.826 214.862 3
7 1 10 216.884 206.241 5
-7 -1 -11 -370.786 282.284 3
7 1 11 380.666 240.999 6
7 1 11 -45.8967 194.241 5
-7 -2 5 -57.3349 263.437 2
-7 -2 4 -106.921 215.19 2
-7 -2 3 -74.3349 208.895 2
-7 -2 2 991.993 267.838 2
7 2 -2 495.554 221.577 5
-7 -2 1 1590.33 315.739 2
7 2 -1 1407.87 324.146 5
-7 -2 0 389.304 173.82 2
7 2 0 105.457 186.324 5
7 2 1 3348.63 440.707 5
-7 -2 -1 3190.8 333.57 2
-7 -2 -2 2940.58 429.26 3
7 2 2 2899.28 397.99 5
-7 -2 -3 5369.26 573.471 3
7 2 3 5375.87 304.448 1
7 2 3 5903.84 576.668 5
-7 -2 -4 18607.5 1018.76 3
7 2 4 19055.4 981.147 5
-7 -2 -5 -558.676 257.753 3
7 2 5 -124.662 227.868 5
-7 -2 -6 483.63 273.786 3
7 2 6 286.771 255.643 5
-7 -2 -7 10795.2 838.682 3
7 2 7 8906.41 720.933 5
-7 -2 -8 49.1853 226.746 3
7 2 8 -170.534 226.765 5
7 2 9 3443.12 496.262 5
-7 -2 -9 4217.89 570.892 3
-7 -2 -10 426.727 268.483 3
7 2 10 -52.6623 197.386 5
7 2 11 179.922 217.57 6
7 2 11 117.81 227.711 5
-7 -2 -12 1376.11 446.96 3
7 2 12 1353.57 358.824 6
-7 -3 5 -197.984 257.246 2
-7 -3 4 -441.301 251.327 2
7 3 -4 -100.035 159.916 4
-7 -3 3 187.789 198.24 2
7 3 -3 16.4162 169.519 5
7 3 -3 570.235 207.578 4
-7 -3 2 848.808 276.952 2
7 3 -2 872.057 250.879 5
7 3 -2 637.374 250.732 4
-7 -3 1 940.208 256.24 2
7 3 -1 561.411 220.461 5
7 3 -1 514.335 224.259 4
-7 -3 0 288.744 175.349 2
7 3 0 400.779 217.193 5
7 3 0 282.857 160.92 4
7 3 1 8487.67 633.162 5
7 3 1 8867.93 657.342 4
7 3 2 1415.9 218.339 1
7 3 2 1261.37 296.6 5
7 3 2 1212.34 276.662 4
-7 -3 -3 4470.29 525.653 3
7 3 3 3608.03 280.093 1
7 3 3 3083.04 397.585 5
7 3 3 4922.37 503.918 4
-7 -3 -4 4096.18 503.111 3
7 3 4 4874.8 507.652 5
7 3 4 4732.08 483.092 4
-7 -3 -5 209.609 177.984 3
7 3 5 28.0399 225.285 5
-7 -3 -6 1364.49 358.254 3
7 3 6 1865.53 358.112 5
-7 -3 -7 692.332 313.974 3
7 3 7 665.434 265.518 5
-7 -3 -8 79.4423 222.288 3
7 3 8 235.751 215.383 5
-7 -3 -9 -279.372 267.714 3
7 3 9 340.05 241.957 5
-7 -3 -10 487.768 277.405 3
7 3 10 592.658 252.774 5
-7 -3 -11 501.727 299.744 3
7 3 11 342.08 231.839 6
-7 -3 -12 2791.66 541.641 3
7 3 12 2906.86 479.88 6
-7 -4 5 88.6492 221.972 2
-7 -4 4 190.665 239.647 2
7 4 -4 -59.643 140.259 4
-7 -4 3 434.264 262.736 2
7 4 -3 -239.03 183.094 4
-7 -4 2 12.0018 220.223 2
7 4 -2 -45.0245 190.79 4
-7 -4 1 730.185 266.222 2
7 4 -1 661.779 237.951 5
7 4 -1 350.716 201.856 4
7 4 0 -49.1553 166.791 5
7 4 0 64.826 174.943 4
7 4 1 3145.67 357.32 1
7 4 1 2828.92 376.952 5
7 4 1 2773.18 408.935 4
7 4 2 250.642 142.275 1
7 4 2 221.86 173.391 5
7 4 2 525.122 266.48 4
-7 -4 -3 799.982 277.753 3
7 4 3 904.094 178.679 1
7 4 3 917.288 247.517 5
7 4 3 766.74 271.033 4
-7 -4 -4 6881.87 650.689 3
7 4 4 6111.3 542.824 5
7 4 4 5920.85 556.043 4
-7 -4 -5 6446.87 654.668 3
7 4 5 6257.5 553.99 5
7 4 5 7286.57 602.635 4
-7 -4 -6 9652.99 793.688 3
7 4 6 10080.5 709.852 5
7 4 6 11163.3 733.202 4
-7 -4 -7 11936 888.538 3
7 4 7 11217.7 761.606 5
-7 -4 -8 -22.4237 263.496 3
7 4 8 80.1111 207.128 5
-7 -4 -9 32.8658 245.506 3
7 4 9 223.818 183.898 5
-7 -4 -10 362.741 271.636 3
7 4 10 385.166 194.159 6
7 4 10 579.143 222.576 5
-7 -4 -11 1116.01 345.563 3
7 4 11 798.155 292.386 6
-7 -4 -12 22.2361 322.494 3
7 4 12 96.3883 175.458 6
-7 -5 4 471.619 284.566 2
7 5 -4 8.40859 154.322 4
-7 -5 3 1795.04 413.291 2
7 5 -3 2031.35 372.42 4
7 5 -2 1534.84 312.768 4
7 5 -1 689.021 241.992 1
7 5 -1 812.359 263.203 4
7 5 0 341.832 197.119 1
7 5 0 138.882 149.214 5
7 5 0 477.647 229.021 4
7 5 1 288.875 179.139 1
7 5 1 -71.4586 173.271 5
7 5 1 167.707 189.905 4
7 5 2 6123.29 478.81 1
7 5 2 5702.02 486.242 5
7 5 2 6818.79 603.19 4
7 5 3 4541.02 384.469 1
7 5 3 4020.25 422.788 5
-7 -5 -4 74.3901 237.585 3
7 5 4 -440.653 196.182 5
7 5 4 178.486 110.884 1
7 5 4 22.9417 190.878 4
-7 -5 -5 100.81 245.155 3
7 5 5 170.565 157.81 5
7 5 5 25.003 209.898 4
-7 -5 -6 11244.2 848.969 3
7 5 6 10649.6 710.397 5
7 5 6 11807.6 752.509 4
-7 -5 -7 1170.78 326.638 3
7 5 7 1215.5 279.026 5
7 5 7 1200.59 297.798 4
-7 -5 -8 627.879 304.469 3
7 5 8 924.539 279.742 5
7 5 8 495.975 213.194 4
-7 -5 -9 424.696 295.392 3
7 5 9 -384.555 209.988 5
-7 -5 -10 -118 213.945 3
7 5 10 20.8365 166.088 6
-7 -5 -11 365.411 294.401 3
7 5 11 828.119 359.072 6
-7 -5 -12 54.9531 218.527 3
7 5 12 -133.026 231.022 6
7 6 -4 1313.66 307.759 4
7 6 -3 1687.55 392.491 1
7 6 -3 1815.06 357.602 4
7 6 -2 1100.27 322.364 1
7 6 -2 1019.95 278.903 4
7 6 -1 -468.124 204.566 1
7 6 -1 141.582 189.334 4
7 6 0 -93.8528 154.982 1
7 6 0 16.2618 199.188 4
7 6 1 366.06 203.664 1
7 6 1 -123.443 227.241 4
7 6 2 991.697 244.77 1
7 6 2 1108.85 221.984 5
7 6 2 494.813 229.141 4
7 6 3 129.174 132.698 1
7 6 3 11.3587 137.139 5
7 6 3 22.9908 178.546 4
7 6 4 340.197 168.098 5
7 6 4 350.08 153.91 1
7 6 4 297.592 223.671 4
-7 -6 -5 -36.9636 220.865 3
7 6 5 157.936 154.777 5
7 6 5 16.8902 200.701 4
-7 -6 -6 223.166 276.58 3
7 6 6 669.833 229.641 5
7 6 6 331.966 191.413 4
-7 -6 -7 -29.374 248.344 3
7 6 7 -147.551 210.215 5
7 6 7 -624.271 259.421 4
-7 -6 -8 -216.216 216.537 3
7 6 8 197.179 178.436 5
7 6 8 348.694 224.749 4
-7 -6 -9 301.983 236.14 3
7 6 9 541.771 260.946 6
7 6 9 592.998 265.124 4
-7 -6 -10 56.9212 205.149 3
7 6 10 -550.194 247.536 6
-7 -6 -11 3606.92 567.818 3
7 6 11 2842.53 469.153 6
-7 -6 -12 451.647 289.76 3
7 6 12 161.016 248.468 6
7 7 -3 465.088 278.716 4
7 7 -2 -491.526 251.01 1
7 7 -2 -35.0676 187.833 4
7 7 -1 30.3916 164.872 1
7 7 -1 -5.87211 197.835 4
7 7 0 284.227 189.42 1
7 7 0 -3.71089 145.227 4
7 7 1 1622.86 334.754 1
7 7 1 1649.95 328.481 4
7 7 2 232.054 178.694 1
7 7 2 109.362 197.148 4
7 7 3 2319.37 335.92 1
7 7 3 2197.09 367.635 4
7 7 4 1138.61 244.797 1
7 7 4 582.82 225.259 4
7 7 5 189.043 135.156 5
7 7 5 143.346 203.811 4
7 7 6 767.218 218.004 5
7 7 6 1128.72 313.166 4
-7 -7 -7 2799.31 471.475 3
7 7 7 2416.58 384.596 4
-7 -7 -8 698.82 351.136 3
7 7 8 65.7337 205.662 6
7 7 8 108.906 181.151 4
-7 -7 -9 79.2234 241.737 3
7 7 9 203 156.989 6
7 7 9 102.063 181.323 4
7 7 10 161.835 202.137 6
7 7 10 -18.1979 161.984 4
-7 -7 -11 69.3668 286.892 3
7 7 11 30.6632 212.817 6
-7 -7 -12 216.837 258.862 3
7 8 -1 241.723 190.516 1
7 8 -1 -502.387 228.575 4
7 8 0 296.45 192.125 1
7 8 0 -556.491 233.304 4
7 8 1 223.682 185.371 1
7 8 1 209.451 140.673 4
7 8 2 806.66 257.673 1
7 8 2 921.659 268.72 4
7 8 3 -103.353 160.342 1
7 8 3 21.5752 191.054 4
7 8 4 143.865 125.709 1
7 8 4 -416.193 246.043 4
7 8 5 -87.2349 172.817 4
7 8 6 309.241 232.708 4
7 8 7 1039.76 289.892 6
7 8 7 646.992 243.57 4
-7 -8 -8 780.671 279.474 3
7 8 8 327.741 164.38 6
7 8 8 256.479 249.591 4
7 8 9 864.798 306.639 6
7 8 9 301.875 210.613 4
-7 -8 -10 481.902 271.54 3
7 8 10 282.38 183.588 6
7 8 10 -24.684 179.569 4
-7 -8 -11 597.728 312.379 3
7 8 11 -194.156 221.259 6
7 8 11 567.885 288.075 4
-7 -8 -12 -144.055 231.055 3
7 9 0 -480.044 251.591 1
7 9 1 11.5256 148.812 1
7 9 2 387.436 190.783 1
7 9 2 -134.789 226.513 4
7 9 3 -4.77259 141.245 1
7 9 3 27.7402 149.449 4
7 9 4 8.82706 175.838 4
7 9 4 -301.437 190.228 1
7 9 5 23.6225 168.649 4
7 9 6 1710.59 306.382 6
7 9 6 1829.97 387.814 4
7 9 7 468.217 234.01 6
7 9 7 765.795 288.344 4
7 9 8 326.978 226.628 6
7 9 8 88.1322 176.458 4
7 9 9 115.832 189.197 6
7 9 9 1332.06 319.197 4
-7 -9 -10 595.142 304.333 3
7 9 10 227.116 234.58 4
-7 -9 -11 189.426 248.773 3
7 9 11 183.051 182.434 6
7 9 11 370.63 216.997 4
-7 -9 -12 -921.507 362.612 3
7 10 1 425.445 246.236 1
7 10 2 -28.5507 173.711 1
7 10 3 129.143 167.659 1
7 10 5 668.211 340.385 4
7 10 6 -482.496 234.01 4
7 10 7 -408.523 232.716 4
7 10 8 156.023 150.49 6
7 10 8 61.3726 195.954 4
7 10 9 691.696 281.309 6
7 10 9 -105.086 250.194 4
7 10 10 -913.331 276.188 6
7 10 10 543.219 241.635 4
7 10 11 61.3948 220.518 4
-8 5 -4 303.16 174.665 3
-8 5 -5 49.8937 188.382 3
-8 5 -6 603.296 270.322 3
8 -4 0 7.39185 260.935 5
8 -4 1 145.025 218.527 5
8 -4 2 -39.2689 216.224 5
-8 4 -3 -41.1396 144.025 3
8 -4 3 283.188 226.304 5
-8 4 -4 489.12 222.327 3
8 -4 4 474.94 313.472 5
-8 4 -5 66.2567 160.431 3
-8 4 -6 2161.8 465.543 3
8 -3 -1 194.692 233 5
8 -3 0 500.509 252.445 5
8 -3 1 413.947 280.596 5
-8 3 -2 172.165 157.814 3
8 -3 2 53.999 218.332 5
-8 3 -3 -36.5038 191.098 3
8 -3 3 -153.581 204.461 5
-8 3 -4 104.937 166.107 3
8 -3 4 -812.523 301.1 5
-8 3 -5 244.573 189.377 3
8 -3 5 144.029 217.216 5
-8 3 -6 4265.69 585.675 3
8 -3 6 5035.14 671.806 5
-8 3 -7 -145.241 221.186 3
8 -2 -3 -78.629 246.758 5
8 -2 -2 1650.01 425.056 5
8 -2 -1 76.8265 226.07 5
8 -2 0 2073.13 467.664 5
-8 2 -1 5257.46 553.478 3
8 -2 1 6094.54 701.475 5
-8 2 -2 223.295 181.163 3
8 -2 2 -17.623 227.891 5
-8 2 -3 203.088 193.856 3
8 -2 3 -30.3901 216.698 5
-8 2 -4 427.52 176.977 3
8 -2 4 936.933 316.239 5
-8 2 -5 205.375 182.535 3
8 -2 5 29.8061 234.663 5
-8 2 -6 142.28 167.487 3
8 -2 6 383.047 274.035 5
-8 2 -7 188.116 228.094 3
8 -2 7 525.678 280.958 5
-8 2 -8 152.593 269.354 3
8 -2 8 -310.65 253.382 5
8 -1 -3 -568.841 258.153 5
8 -1 -2 470.701 269.301 5
8 -1 -1 86.9979 173.64 5
8 -1 0 2699.41 477.2 5
-8 1 -1 548.134 226.229 3
8 -1 1 507.524 313.616 5
-8 1 -2 497.869 245.381 3
8 -1 2 327.771 233.724 5
-8 1 -3 9.79827 174.738 3
8 -1 3 -50.7122 265.661 5
-8 1 -4 497.022 258.531 3
8 -1 4 855.101 320.816 5
-8 1 -5 -54.3804 200.56 3
8 -1 5 -240.287 200.706 5
-8 1 -6 473.229 246.215 3
8 -1 6 220.611 214.993 5
-8 1 -7 3191.43 500.827 3
8 -1 7 2712.56 490.723 5
-8 1 -8 15.5019 247.214 3
8 -1 8 396.048 309.617 5
-8 1 -9 150.923 216.831 3
8 0 -3 -76.1799 220.787 5
8 0 -2 -276.646 234.719 5
8 0 -1 54.7555 214.999 5
8 0 0 134.132 191.016 5
-8 0 -1 880.965 248.06 3
8 0 1 1194.24 326.44 5
-8 0 -2 -96.4192 194.237 3
8 0 2 -150.705 199.212 5
-8 0 -3 -244.471 236.252 3
8 0 3 -209.21 217.024 5
-8 0 -4 101.057 211.715 3
8 0 4 586.988 273.807 5
-8 0 -5 124.959 223.542 3
8 0 5 728.128 276.947 5
-8 0 -6 823.934 298.309 3
8 0 6 819.947 313.148 5
-8 0 -7 404.268 246.681 3
8 0 7 1060.95 357.655 5
-8 0 -8 -74.6489 237.271 3
8 0 8 97.1748 221.62 5
-8 0 -9 -81.9695 178.736 3
8 0 9 153.293 193.106 5
-8 -1 4 783.269 307.63 2
8 1 -4 142.981 195.631 5
8 1 -3 270.045 244.657 5
8 1 -2 48.0641 169.234 5
8 1 -1 -66.2517 177.499 5
8 1 0 248.507 192.464 5
8 1 1 290.166 215.527 5
-8 -1 -2 192.607 213.259 3
8 1 2 368.427 220.463 5
-8 -1 -3 82.6735 224.706 3
8 1 3 359.46 235.825 5
-8 -1 -4 1178.59 341.574 3
8 1 4 473.567 171.448 5
-8 -1 -5 480.159 254.146 3
8 1 5 597.12 270.385 5
-8 -1 -6 771.043 310.524 3
8 1 6 609.826 271.211 5
-8 -1 -7 123.655 208.322 3
8 1 7 -194.474 198.489 5
-8 -1 -8 462.86 258.089 3
8 1 8 74.726 242.026 5
-8 -1 -9 416.102 272.196 3
8 1 9 13.944 174.659 5
-8 -1 -10 -688.474 294.019 3
8 1 10 -27.3593 218.716 5
-8 -2 4 -515.364 275.761 2
-8 -2 3 -37.9416 237.401 2
8 2 -3 -95.2221 193.498 5
8 2 -2 300.841 237.785 5
8 2 -1 -378.967 217.003 5
8 2 0 486.629 257.046 5
8 2 1 97.3486 195.512 5
-8 -2 -2 2594.27 437.235 3
8 2 2 2404.4 406.537 5
-8 -2 -3 526.302 258.129 3
8 2 3 681.69 272.365 5
-8 -2 -4 -171.292 289.601 3
8 2 4 -66.3498 201.049 5
-8 -2 -5 718.507 306.746 3
8 2 5 1366.2 343.373 5
-8 -2 -6 -115.093 266.399 3
8 2 6 -10.3309 159.206 5
-8 -2 -7 167.486 184.19 3
8 2 7 343.582 238.986 5
-8 -2 -8 177.482 215.943 3
8 2 8 -94.0398 172.084 5
-8 -2 -9 448.596 251.56 3
8 2 9 399.93 245.177 5
-8 -2 -10 -426.16 265.098 3
8 2 10 146.018 197.268 5
-8 -3 4 1588.9 421.662 2
-8 -3 3 1495.29 413.811 2
8 3 -2 368.045 213.304 5
8 3 -1 160.248 200.02 5
8 3 0 1937.45 362.98 5
8 3 1 -234.385 199.673 5
8 3 2 4311.62 520.87 5
-8 -3 -3 342.477 225.346 3
8 3 3 386.976 248.965 5
-8 -3 -4 18.7032 263.433 3
8 3 4 251.56 216.409 5
-8 -3 -5 2542.32 429.419 3
8 3 5 2851.61 444.291 5
-8 -3 -6 -52.7516 214.556 3
8 3 6 -220.244 202.164 5
-8 -3 -7 663.178 293.195 3
8 3 7 590.601 249.144 5
-8 -3 -8 251.169 188.246 3
8 3 8 -139.047 211.089 5
-8 -3 -9 284.436 266.291 3
8 3 9 5.83264 175.489 5
-8 -3 -10 808.508 390.912 3
8 3 10 971.557 302.395 5
-8 -4 3 71.6835 257.984 2
8 4 -3 -42.4891 152.019 4
-8 -4 2 1098.96 341.466 2
8 4 -2 1137.63 311.879 4
8 4 -1 326.828 219.007 4
8 4 0 10.1066 145.638 5
8 4 0 382.482 235.687 4
8 4 1 213.341 190.991 5
8 4 1 62.6686 198.764 4
8 4 2 590.225 240.158 5
8 4 2 1094.55 315.435 4
8 4 3 4042.87 497.348 5
8 4 3 5412.48 577.407 4
-8 -4 -4 962.831 308.193 3
8 4 4 408.042 232.774 5
8 4 4 879.403 298.759 4
-8 -4 -5 1496.62 385.22 3
8 4 5 1264.88 325.151 5
-8 -4 -6 3459.24 528.48 3
8 4 6 3272.81 465.719 5
-8 -4 -7 58.4991 215.836 3
8 4 7 271.481 217.166 5
-8 -4 -8 43.5057 307.244 3
8 4 8 62.6443 213.945 5
-8 -4 -9 617.262 342.614 3
8 4 9 571.814 277.242 5
-8 -4 -10 187.764 230.959 3
8 4 10 -497.977 264.494 5
8 4 11 46.5223 187.771 5
8 5 -3 269.949 200.747 1
8 5 -3 316.249 180.87 4
8 5 -2 188.474 200.378 1
8 5 -2 284.752 217.755 4
8 5 -1 616.578 235.398 1
8 5 -1 33.5745 177.004 4
8 5 0 1965.42 381.456 4
8 5 1 2785.97 435.87 4
8 5 2 759.979 240.206 5
8 5 2 852.643 303.238 4
8 5 3 213.27 170.288 5
8 5 3 296.284 207.364 4
8 5 4 2388.44 383.791 5
8 5 4 2788.63 446.738 4
-8 -5 -5 7679.21 743.024 3
8 5 5 6050.01 582.2 5
8 5 5 7664.04 691.873 4
-8 -5 -6 846.063 301.429 3
8 5 6 1345.95 319.074 5
8 5 6 1594.27 357.786 4
-8 -5 -7 353.76 267.391 3
8 5 7 248.045 212.078 5
-8 -5 -8 859.174 328.854 3
8 5 8 269.371 194.031 5
-8 -5 -9 536.917 225.93 3
8 5 9 811.34 258.651 5
-8 -5 -10 134.339 268.424 3
8 5 10 0.38804 195.827 5
-8 -5 -11 449.883 287.792 3
8 6 -2 262.225 213.607 1
8 6 -1 264.405 177.197 1
8 6 -1 480.206 179.19 4
8 6 0 -21.6557 189.123 4
8 6 1 -135.963 230.496 4
8 6 2 1041.59 304.682 4
8 6 3 2057.49 370.326 4
8 6 4 203.387 183.027 5
8 6 4 -102.396 181.066 4
8 6 5 391.462 183.017 5
8 6 5 -128.315 248.079 4
-8 -6 -6 161.613 214.297 3
8 6 6 17.57 147.584 5
8 6 6 33.669 190.887 4
-8 -6 -7 158.687 211.275 3
8 6 7 409.132 237.904 5
8 6 7 287.787 260.577 4
-8 -6 -8 98.8807 225.462 3
8 6 8 108.681 191.059 5
8 6 8 334.332 235.081 4
-8 -6 -9 -131.036 212.723 3
8 6 9 235.937 178.871 5
-8 -6 -10 2183.48 489.71 3
8 6 10 1568.27 380.285 6
8 7 -1 434.097 255.836 1
8 7 1 1728.27 403.705 4
8 7 2 1545.19 354.549 4
8 7 3 1131.07 314.501 4
8 7 4 1473.32 354.347 4
8 7 5 549.814 276.928 4
8 7 6 -48.6088 131.473 5
8 7 6 134.917 165.486 4
8 7 7 133.896 134.457 5
8 7 7 2.45511 185.484 4
-8 -7 -8 -567.017 291.284 3
8 7 8 190.74 245.529 4
-8 -7 -9 1200.12 397.207 3
8 7 9 1833.33 394.337 6
8 7 9 1308.15 351.453 4
-8 -7 -10 -165.255 193.019 3
8 7 10 -47.669 182.531 6
8 7 10 386.451 254.448 4
8 8 3 1959.62 391.159 4
8 8 4 396.268 223.419 4
8 8 5 344.801 243.268 4
8 8 6 184.597 264.396 4
8 8 7 187.951 206.163 4
8 8 8 -6.5631 217.632 6
8 8 8 -619.522 285.017 4
-8 -8 -9 -372.162 253.886 3
8 8 9 12.9578 180.118 6
8 8 9 -67.9832 202.173 4
8 8 10 766.161 304.523 6
8 8 10 -42.9152 212.296 4
8 8 11 84.4206 265.224 4
8 9 7 241.427 218.582 6
8 9 8 297.01 174.401 6
8 9 9 653.891 287.52 6
-9 3 -4 789.87 325.538 3
-9 3 -5 904.399 271.156 3
-9 2 -3 488.566 212.789 3
-9 2 -4 -69.5268 174.056 3
-9 2 -5 -446.561 243.913 3
-9 2 -6 51.6094 184.261 3
9 -1 1 260.645 253.255 5
-9 1 -2 100.356 157.904 3
9 -1 2 -492.84 279.881 5
-9 1 -3 208.54 152.182 3
9 -1 3 395.524 281.976 5
-9 1 -4 147.327 192.781 3
9 -1 4 117.38 245.276 5
-9 1 -5 1282.64 352.983 3
9 -1 5 1318.42 385.939 5
-9 1 -6 566.184 293.936 3
-9 1 -7 230.544 231.048 3
9 0 0 639.566 293.888 5
9 0 1 450.538 264.043 5
-9 0 -2 32.578 207.076 3
9 0 2 -689.024 307.559 5
-9 0 -3 314.875 209.054 3
9 0 3 361.938 278.39 5
-9 0 -4 424.413 214.018 3
9 0 4 151.92 246.687 5
-9 0 -5 133.9 201.869 3
9 0 5 24.5148 230.379 5
-9 0 -6 1282.68 405.966 3
9 0 6 312.357 254.751 5
-9 0 -7 312.141 223.721 3
9 1 -1 700.614 291.825 5
9 1 0 361.47 240.395 5
9 1 1 -208.607 234.356 5
-9 -1 -2 26.1495 147.283 3
9 1 2 138.551 203.611 5
-9 -1 -3 225.544 208.11 3
9 1 3 183.623 258.322 5
-9 -1 -4 301.819 231.205 3
9 1 4 -417.91 249.41 5
-9 -1 -5 845.026 289.293 3
9 1 5 755.384 286.71 5
-9 -1 -6 1386.85 363.075 3
9 1 6 494.722 266.14 5
-9 -1 -7 748.577 363.442 3
9 1 7 1093.17 309.832 5
9 2 -2 279.963 269.689 5
9 2 -1 576.742 285.717 5
9 2 0 271.824 232.307 5
9 2 1 -39.9329 175.597 5
9 2 2 232.259 223.6 5
-9 -2 -3 -492.812 235.868 3
9 2 3 555.229 282.989 5
-9 -2 -4 -344.173 209.519 3
9 2 4 -283.684 224.547 5
-9 -2 -5 262.721 203.747 3
9 2 5 147.806 196.04 5
-9 -2 -6 549.031 343.354 3
9 2 6 139.052 211.748 5
-9 -2 -7 1586.96 397.969 3
9 2 7 740.706 264.6 5
-9 -2 -8 917.483 359.716 3
9 2 8 618.329 269.368 5
9 3 0 -127.176 230.954 5
9 3 1 63.9255 196.312 5
9 3 2 543.122 244.467 5
9 3 3 67.5173 226.937 5
-9 -3 -4 -100.074 196.839 3
9 3 4 141.245 175.051 5
-9 -3 -5 175.368 225.806 3
9 3 5 -16.4266 218.311 5
-9 -3 -6 -840.165 303.614 3
9 3 6 291.046 194.2 5
-9 -3 -7 -161.668 234.072 3
9 3 7 131.565 162.721 5
-9 -3 -8 156.57 229.656 3
9 3 8 -112.623 220.165 5
9 3 9 62.9838 185.742 5
9 4 2 -225.018 190.917 5
9 4 3 564.08 248.285 5
9 4 4 345.351 224.673 5
-9 -4 -5 283.753 212.899 3
9 4 5 257.322 239.342 5
-9 -4 -6 -466.375 274.972 3
9 4 6 482.003 247.425 5
-9 -4 -7 -622.43 291.217 3
9 4 7 -375.766 229.94 5
-9 -4 -8 870.59 335.032 3
9 4 8 530.174 252.004 5
9 4 9 -97.2828 194.851 5
9 5 3 -5.49016 192.694 4
9 5 4 915.258 309.63 5
9 5 4 155.426 213.354 4
9 5 5 343.702 183.787 5
-9 -5 -6 292.529 261.001 3
9 5 6 288.29 240.339 5
-9 -5 -7 481.522 269.259 3
9 5 7 652.698 260.31 5
9 5 8 1130.83 321.972 5
9 5 9 615.757 317.757 5
9 6 6 126.74 193.749 5
9 6 7 684.415 226.822 5
9 6 8 1581.15 373.178 5
9 6 9 110.739 182.388 5
-10 0 -3 565.619 230.914 3
10 3 2 -949.33 312.71 5
10 3 3 125.877 209.033 5
10 3 4 86.7529 211.958 5
10 4 4 31.6501 206.28 5
10 4 5 436.038 246.002 5
10 4 6 567.183 267.962 5
10 5 6 -87.7896 150.1 5
