#------------------------------------------------------------------------------
#$Date: 2019-11-26 05:02:01 +0200 (Tue, 26 Nov 2019) $
#$Revision: 242659 $
#$URL: file:///home/coder/svn-repositories/cod/cif/4/13/27/4132746.cif $
#------------------------------------------------------------------------------
#
# This file is available in the Crystallography Open Database (COD),
# http://www.crystallography.net/
#
# All data on this site have been placed in the public domain by the
# contributors.
#
data_4132746
loop_
_publ_author_name
'Ahmed, Md Estak'
'Dey, Subal'
'Darensbourg, Marcetta Y.'
'Dey, Abhishek'
_publ_section_title
;
 Oxygen-Tolerant H<sub>2</sub> Production by [FeFe]-H<sub>2</sub>ase
 Active Site Mimics Aided by Second Sphere Proton Shuttle.
;
_journal_issue                   39
_journal_name_full               'Journal of the American Chemical Society'
_journal_page_first              12457
_journal_page_last               12468
_journal_paper_doi               10.1021/jacs.8b05983
_journal_volume                  140
_journal_year                    2018
_chemical_formula_moiety         'C15 H11 Fe2 N O6 S2'
_chemical_formula_sum            'C15 H11 Fe2 N O6 S2'
_chemical_formula_weight         477.07
_space_group_crystal_system      triclinic
_space_group_IT_number           2
_space_group_name_Hall           '-P 1'
_space_group_name_H-M_alt        'P -1'
_atom_sites_solution_hydrogens   geom
_audit_creation_method           SHELXL-2014/7
_cell_angle_alpha                93.763(5)
_cell_angle_beta                 104.601(5)
_cell_angle_gamma                107.684(5)
_cell_formula_units_Z            2
_cell_length_a                   7.5764(16)
_cell_length_b                   10.350(2)
_cell_length_c                   12.755(3)
_cell_measurement_reflns_used    3443
_cell_measurement_temperature    293(2)
_cell_measurement_theta_max      25.774
_cell_measurement_theta_min      2.090
_cell_volume                     911.1(3)
_computing_cell_refinement       'Bruker SMART'
_computing_data_collection       'Bruker SMART'
_computing_data_reduction        'Bruker SHELXTL'
_computing_molecular_graphics    'Ortep-3 for windows'
_computing_publication_material  Platon
_computing_structure_refinement  'SHELXL-2014/7 (Sheldrick, 2014)'
_computing_structure_solution    'SHELXL-2014/7 (Sheldrick, 2014)'
_diffrn_ambient_temperature      293(2)
_diffrn_measured_fraction_theta_full 0.994
_diffrn_measured_fraction_theta_max 0.985
_diffrn_measurement_device_type  'Bruker APEXII CCD area-detector'
_diffrn_measurement_method       '\f and \w'
_diffrn_radiation_type           MoK\a
_diffrn_radiation_wavelength     0.71073
_diffrn_reflns_av_R_equivalents  0.0322
_diffrn_reflns_av_unetI/netI     0.0460
_diffrn_reflns_Laue_measured_fraction_full 0.994
_diffrn_reflns_Laue_measured_fraction_max 0.985
_diffrn_reflns_limit_h_max       9
_diffrn_reflns_limit_h_min       -8
_diffrn_reflns_limit_k_max       12
_diffrn_reflns_limit_k_min       -12
_diffrn_reflns_limit_l_max       15
_diffrn_reflns_limit_l_min       -15
_diffrn_reflns_number            7293
_diffrn_reflns_point_group_measured_fraction_full 0.994
_diffrn_reflns_point_group_measured_fraction_max 0.985
_diffrn_reflns_theta_full        25.242
_diffrn_reflns_theta_max         25.774
_diffrn_reflns_theta_min         2.090
_diffrn_source                   'fine-focus sealed tube'
_exptl_absorpt_coefficient_mu    1.852
_exptl_absorpt_correction_T_max  0.831
_exptl_absorpt_correction_T_min  0.766
_exptl_absorpt_correction_type   empirical
_exptl_absorpt_process_details   '(SADABS; Bruker)'
_exptl_crystal_colour            Red
_exptl_crystal_density_diffrn    1.739
_exptl_crystal_density_method    'not measured'
_exptl_crystal_description       Needle
_exptl_crystal_F_000             480
_exptl_crystal_size_max          0.16
_exptl_crystal_size_mid          0.12
_exptl_crystal_size_min          0.10
_refine_diff_density_max         0.515
_refine_diff_density_min         -0.579
_refine_diff_density_rms         0.087
_refine_ls_extinction_method     none
_refine_ls_goodness_of_fit_ref   0.998
_refine_ls_hydrogen_treatment    constr
_refine_ls_matrix_type           full
_refine_ls_number_parameters     236
_refine_ls_number_reflns         3443
_refine_ls_number_restraints     0
_refine_ls_restrained_S_all      0.998
_refine_ls_R_factor_all          0.0515
_refine_ls_R_factor_gt           0.0331
_refine_ls_shift/su_max          0.001
_refine_ls_shift/su_mean         0.000
_refine_ls_structure_factor_coef Fsqd
_refine_ls_weighting_details
'w=1/[\s^2^(Fo^2^)+(0.0582P)^2^] where P=(Fo^2^+2Fc^2^)/3'
_refine_ls_weighting_scheme      calc
_refine_ls_wR_factor_gt          0.0877
_refine_ls_wR_factor_ref         0.0975
_reflns_Friedel_coverage         0.000
_reflns_number_gt                2647
_reflns_number_total             3443
_reflns_threshold_expression     'I > 2\s(I)'
_cod_data_source_file            ja8b05983_si_003.cif
_cod_data_source_block           shelx
_cod_database_code               4132746
_shelx_shelxl_version_number     2014/7
_shelx_space_group_comment
;
The symmetry employed for this shelxl refinement is uniquely defined
by the following loop, which should always be used as a source of
symmetry information in preference to the above space-group names.
They are only intended as comments.
;
_shelx_res_file
;

    shelx.res created by SHELXL-2014/7

TITL data      P -1         R = 0.03
CELL  0.71073   7.5764  10.3500  12.7550   93.763  104.601  107.684
ZERR     2.00   0.0016   0.0020   0.0030    0.005    0.005    0.005
LATT   1
SFAC  C    H    FE   N    O    S
UNIT  30 22 4 2 12 4
MERG   2
FMAP   2
ACTA
BOND   $H
CONF
L.S.   5
TEMP    20.00
WGHT    0.058200
FVAR       0.64287
FE1   3    0.692953    0.744332    0.825048    11.00000    0.01747    0.02367 =
         0.01783    0.00499    0.00141    0.00633
FE2   3    0.334348    0.638497    0.787246    11.00000    0.01837    0.02411 =
         0.02045    0.00479    0.00383    0.00560
S1    6    0.503859    0.581854    0.681504    11.00000    0.02161    0.02250 =
         0.02104    0.00337    0.00243    0.00980
S2    6    0.481535    0.854396    0.764802    11.00000    0.02291    0.02272 =
         0.01669    0.00308    0.00379    0.00884
O1    5    0.264630    0.765394    0.978080    11.00000    0.05082    0.05539 =
         0.03249    0.00307    0.02114    0.01750
O2    5    0.341207    0.390797    0.884624    11.00000    0.04359    0.03503 =
         0.04375    0.01817    0.00453    0.00688
O3    5   -0.059048    0.549197    0.636219    11.00000    0.02066    0.04019 =
         0.04971    0.00573   -0.00337    0.00390
O4    5    1.016887    0.883911    0.741190    11.00000    0.02974    0.03717 =
         0.04045    0.00867    0.01540    0.00858
O5    5    0.836033    0.533001    0.922415    11.00000    0.04098    0.04511 =
         0.04617    0.02003    0.00053    0.02148
O6    5    0.800962    0.914990    1.038942    11.00000    0.04694    0.04983 =
         0.02593   -0.00649   -0.00185    0.01214
N1    4    0.360664    0.744841    0.544197    11.00000    0.02541    0.02470 =
         0.01592    0.00405    0.00237    0.01131
C1    1    0.289459    0.714318    0.904198    11.00000    0.02315    0.03438 =
         0.02927    0.01116    0.00811    0.00545
C2    1    0.455815    0.871218    0.621263    11.00000    0.03623    0.02145 =
         0.01882    0.00571    0.00226    0.01193
AFIX  23
H2A   2    0.383752    0.933468    0.601879    11.00000   -1.20000
H2B   2    0.583574    0.913253    0.612796    11.00000   -1.20000
AFIX   0
C3    1    0.475449    0.655780    0.555018    11.00000    0.02206    0.03176 =
         0.01743    0.00442    0.00372    0.01265
AFIX  23
H3A   2    0.602804    0.707174    0.550109    11.00000   -1.20000
H3B   2    0.416974    0.581473    0.493568    11.00000   -1.20000
AFIX   0
C4    1    0.295776    0.770199    0.432998    11.00000    0.02116    0.02279 =
         0.01984    0.00602    0.00158    0.00539
C5    1    0.399382    0.760603    0.357873    11.00000    0.02917    0.03027 =
         0.02626    0.00682    0.00675    0.01205
AFIX  43
H5    2    0.513121    0.740005    0.380161    11.00000   -1.20000
AFIX   0
C6    1    0.335287    0.781201    0.251714    11.00000    0.04092    0.03645 =
         0.02614    0.00557    0.01138    0.01297
AFIX  43
H6    2    0.405369    0.774718    0.202486    11.00000   -1.20000
AFIX   0
C7    1    0.166624    0.811533    0.218386    11.00000    0.03855    0.03965 =
         0.02141    0.00663   -0.00005    0.01208
AFIX  43
H7    2    0.123529    0.826999    0.146877    11.00000   -1.20000
AFIX   0
C8    1    0.061542    0.818907    0.291709    11.00000    0.02652    0.03085 =
         0.03474    0.01049    0.00052    0.01024
AFIX  43
H8    2   -0.052915    0.838345    0.268317    11.00000   -1.20000
AFIX   0
C9    1    0.123296    0.797895    0.399608    11.00000    0.02714    0.02722 =
         0.02636    0.00715    0.00447    0.00845
C10   1   -0.001766    0.800610    0.473717    11.00000    0.03861    0.05963 =
         0.04113    0.02091    0.01591    0.02548
AFIX 137
H10A  2   -0.116134    0.817628    0.433999    11.00000   -1.50000
H10B  2    0.068485    0.872139    0.535283    11.00000   -1.50000
H10C  2   -0.037577    0.713800    0.499231    11.00000   -1.50000
AFIX   0
C11   1    0.333153    0.485650    0.845880    11.00000    0.02722    0.03444 =
         0.02422    0.00783    0.00485    0.00669
C12   1    0.093527    0.584507    0.693974    11.00000    0.03017    0.02298 =
         0.03169    0.00812    0.00880    0.00693
C13   1    0.894196    0.831177    0.774551    11.00000    0.02218    0.02533 =
         0.02254    0.00227   -0.00030    0.00881
C14   1    0.781640    0.615281    0.885166    11.00000    0.02275    0.03727 =
         0.02147    0.00519    0.00183    0.00744
C15   1    0.761330    0.849546    0.956127    11.00000    0.02120    0.03515 =
         0.02402    0.00974   -0.00104    0.00661
HKLF    4

REM  data      P -1         R = 0.03
REM R1 =  0.0331 for    2647 Fo > 4sig(Fo)  and  0.0515 for all    3443 data
REM    236 parameters refined using      0 restraints

END

WGHT      0.0581      0.0000

REM Highest difference peak  0.515,  deepest hole -0.579,  1-sigma level  0.087
Q1    1   0.7709  0.7363  0.7764  11.00000  0.05    0.52
Q2    1   0.8008  0.8332  0.8001  11.00000  0.05    0.49
Q3    1   0.7851  0.8617  0.9003  11.00000  0.05    0.44
Q4    1   0.4142  0.7008  0.7454  11.00000  0.05    0.41
Q5    1   0.3249  0.5949  0.8960  11.00000  0.05    0.41
Q6    1   0.2819  0.6679  0.8449  11.00000  0.05    0.38
Q7    1   0.4196  0.2612  0.9351  11.00000  0.05    0.35
Q8    1   0.6410  0.7693  0.8844  11.00000  0.05    0.35
Q9    1   0.1460  0.4786  0.6425  11.00000  0.05    0.35
Q10   1   0.5903  0.8811  0.6525  11.00000  0.05    0.34
Q11   1   0.4122  0.6017  0.7393  11.00000  0.05    0.33
Q12   1   0.4352  0.7623  0.8546  11.00000  0.05    0.33
Q13   1   0.4745  0.8309  0.5333  11.00000  0.05    0.33
Q14   1  -0.0297  0.8738  0.4826  11.00000  0.05    0.32
Q15   1   0.3940  0.6400  0.7156  11.00000  0.05    0.31
Q16   1   0.2439  0.5466  0.8214  11.00000  0.05    0.31
Q17   1   0.7052  0.8747  0.8439  11.00000  0.05    0.31
Q18   1   0.9113  0.8870  0.6979  11.00000  0.05    0.31
Q19   1   0.3486  0.8837  0.9386  11.00000  0.05    0.30
Q20   1   0.5692  0.6360  0.7343  11.00000  0.05    0.30
;
_shelx_res_checksum              11347
_shelx_hkl_file
;
   1   0   0 2261.77   56.09
   2   0   0  128.69    9.00
   2   0   0  125.39    8.50
   3   0   0 1027.30   29.50
   3   0   0 1024.80   28.20
   4   0   0  129.79   10.20
   4   0   0  138.39   10.50
   5   0   0 1667.93   47.70
   5   0   0 1668.43   45.60
   6   0   0 1257.67   39.80
   6   0   0 1285.47   38.40
   7   0   0  120.39   13.10
   7   0   0  124.99   12.90
   8   0   0   21.10   10.00
   8   0   0   17.00    9.00
   8  -1   0  113.79   13.20
   8  -1   0  116.39   14.00
   7  -1   0   67.49   10.20
   7  -1   0   58.59   10.20
   6  -1   0  266.47   15.50
   6  -1   0  257.67   14.90
   5  -1   0  342.37   15.80
   5  -1   0  333.97   14.50
   4  -1   0  216.78   12.20
   4  -1   0  202.38   11.10
   3  -1   0 1669.03   42.40
   3  -1   0 1700.13   45.20
   2  -1   0 1155.58   32.10
   2  -1   0 1193.88   30.20
   1  -1   0    8.00    2.10
   1  -1   0    7.80    2.30
   0  -1   0 1113.89   27.10
   0   1   0 1005.90   26.90
  -1  -1   0 1750.82   45.50
   1   1   0 1811.32   44.80
   2   1   0   78.49    7.70
   2   1   0   73.99    6.30
   3   1   0   52.79    6.00
   3   1   0   53.19    6.70
  -4  -1   0   74.89   10.00
   4   1   0   80.59    8.00
   4   1   0   70.29    8.10
   5   1   0  126.09   12.30
   5   1   0  119.99   11.60
   6   1   0  100.69   11.80
   6   1   0   83.09   10.20
   7   1   0  183.18   16.00
   7   1   0  176.08   15.10
   8   1   0   19.30    9.90
   8   1   0    8.70   10.30
   8  -2   0    0.40    7.70
   8  -2   0    7.60    8.20
   7  -2   0  187.78   15.60
   7  -2   0  208.58   15.30
   6  -2   0    9.50    5.80
   6  -2   0    8.20    6.40
   5  -2   0    3.50    5.30
   5  -2   0    8.00    4.60
   4  -2   0  206.98   12.40
   4  -2   0  206.58   10.60
   3  -2   0 3133.09   80.69
   3  -2   0 3147.49   75.39
   2  -2   0  476.15   16.30
   2  -2   0  479.15   16.10
   1  -2   0  924.21   24.10
   1  -2   0  886.11   24.50
   0  -2   0 4816.72  118.69
   0   2   0 4849.41  118.99
  -1  -2   0  124.59    9.90
   1   2   0  134.99    9.70
   1   2   0  124.39    8.40
  -2  -2   0 1708.73   47.10
   2   2   0 1731.13   44.10
   2   2   0 1765.92   45.50
  -3  -2   0  543.85   22.40
   3   2   0  558.84   19.80
   3   2   0  579.84   19.20
  -4  -2   0  170.58   15.60
   4   2   0  174.68   11.60
   4   2   0  160.18   12.50
  -5  -2   0 1017.50   35.80
   5   2   0 1041.70   33.30
   5   2   0  984.80   32.50
  -6  -2   0   34.50   14.30
   6   2   0   38.10    9.00
   6   2   0   46.70   10.10
   7   2   0   57.79   10.50
   7   2   0   65.79   12.60
   8  -3   0   24.30    8.50
   8  -3   0   18.20    9.30
   7  -3   0  291.07   18.40
   7  -3   0  281.67   15.90
   6  -3   0  539.05   19.80
   6  -3   0  569.04   23.00
   5  -3   0    9.10    5.90
   5  -3   0   11.90    4.70
   4  -3   0 1300.27   34.70
   4  -3   0 1345.87   38.60
   3  -3   0 1003.90   29.50
   3  -3   0  991.00   28.50
   2  -3   0  179.48   10.40
   2  -3   0  181.88    9.70
   1  -3   0  229.68   11.60
  -1   3   0  213.58   11.10
   0  -3   0 1196.48   33.90
   0   3   0 1213.28   32.70
  -1  -3   0 1306.37   38.20
   1   3   0 1420.86   36.50
   1   3   0 1327.47   34.90
  -2  -3   0 1742.03   49.40
   2   3   0 1733.93   45.60
   2   3   0 1807.92   47.10
  -3  -3   0  553.74   23.30
   3   3   0  604.24   20.40
   3   3   0  563.04   20.80
  -4  -3   0   48.90   10.70
   4   3   0   46.80    8.50
   4   3   0   38.90    7.50
  -5  -3   0   26.90   11.90
   5   3   0   25.20    8.70
   5   3   0   21.20    8.00
  -6  -3   0   50.29   14.70
   6   3   0   47.30   10.60
   6   3   0   47.50    9.80
  -7  -3   0  102.99   17.50
   7   3   0   64.29   12.80
   7   3   0   81.99   12.30
   8  -4   0   73.59    9.30
   8  -4   0   67.09   12.50
   7  -4   0  419.76   18.10
   7  -4   0  428.16   22.00
   6  -4   0  237.08   16.00
   6  -4   0  257.17   12.90
   5  -4   0   -8.30    5.90
   5  -4   0    4.90    6.00
   5  -4   0    1.50    4.10
   4  -4   0  390.76   17.40
   4  -4   0  403.46   17.00
   4  -4   0  338.47   13.10
   3  -4   0  739.13   24.60
   3  -4   0  758.82   24.80
  -3   4   0  782.42   22.40
   2  -4   0 1044.60   29.90
   2  -4   0 1027.60   29.50
   1  -4   0  147.19    9.70
  -1   4   0  156.78    9.60
   0  -4   0  195.18   12.70
   0   4   0  220.58   10.80
   0   4   0  209.18   10.30
  -1  -4   0  104.19   10.70
   1   4   0  136.49   11.00
   1   4   0  120.29   10.60
  -2  -4   0 1255.07   39.70
   2   4   0 1246.98   36.10
   2   4   0 1357.76   37.30
  -3  -4   0  349.27   19.40
   3   4   0  368.86   16.50
   3   4   0  339.17   17.10
  -4  -4   0    4.30    9.80
   4   4   0    7.90    7.50
   4   4   0    2.80    7.10
  -5  -4   0    8.90   12.60
   5   4   0   11.80    9.00
   5   4   0   15.80    8.30
  -6  -4   0   23.00   13.50
   6   4   0   19.10    9.30
   6   4   0   26.70   10.80
  -7  -4   0  344.27   27.00
   7   4   0  276.47   22.30
   8  -5   0    0.10    6.60
   8  -5   0    8.40    9.40
   7  -5   0  545.25   25.30
   7  -5   0  546.65   20.50
   6  -5   0   60.29    6.50
   5  -5   0  377.46   18.20
   5  -5   0  379.26   18.50
   4  -5   0  224.88   14.10
   4  -5   0  210.88   14.80
  -4   5   0  224.38   12.40
   3  -5   0   13.90    6.90
   3  -5   0    8.40    7.80
   2  -5   0  176.08   13.00
  -2   5   0  173.88   12.70
   1  -5   0  485.85   17.90
  -1   5   0  513.05   18.70
   0  -5   0  521.45   21.80
   0   5   0  576.04   19.30
   0   5   0  516.95   18.10
  -1  -5   0  777.82   27.20
   1   5   0  745.83   25.40
   1   5   0  757.32   24.10
  -2  -5   0  403.06   20.80
   2   5   0  455.35   18.40
   2   5   0  393.96   17.90
  -3  -5   0   24.30    9.80
   3   5   0   20.40    8.40
   3   5   0   10.00    7.50
  -4  -5   0  326.27   22.00
   4   5   0  315.17   19.00
   4   5   0  326.57   19.00
  -5  -5   0    1.80   12.20
   5   5   0    6.40    9.40
   5   5   0   10.80    9.60
  -6  -5   0  158.28   17.60
   6   5   0  150.18   16.10
   8  -6   0   13.60   10.70
   7  -6   0   96.59   13.30
   7  -6   0  123.29   13.90
   6  -6   0   20.40    9.90
   6  -6   0   12.40    8.70
  -6   6   0   17.40    9.40
   5  -6   0  728.23   27.50
   5  -6   0  752.52   27.70
  -5   6   0  736.63   24.20
   4  -6   0  798.72   28.30
   4  -6   0  805.62   28.00
   3  -6   0  205.68   14.80
   2  -6   0  384.06   18.00
  -2   6   0  395.96   17.70
  -1   6   0  252.87   14.50
   0  -6   0  418.46   19.80
   0   6   0  430.96   17.70
   0   6   0  440.76   16.70
  -1  -6   0  994.50   32.80
   1   6   0  935.81   30.90
   1   6   0  926.51   28.70
  -2  -6   0   28.90    9.70
   2   6   0   17.70    7.80
   2   6   0   20.70    7.80
  -3  -6   0   76.49   12.40
   3   6   0   69.99   10.40
   3   6   0   58.89   11.20
  -4  -6   0   61.99   13.60
   4   6   0   70.39   12.50
   4   6   0   66.59   12.00
  -5  -6   0   36.00   13.60
   5   6   0    4.10   10.40
   5   6   0   -2.50   10.30
  -6  -6   0   24.90   13.70
   6   6   0    8.50   10.70
   8  -7   0   60.69   12.60
   8  -7   0   67.39   12.90
   7  -7   0  154.88   16.20
   7  -7   0  161.48   16.00
   6  -7   0   27.80   11.00
   6  -7   0   34.00   10.20
   5  -7   0  131.29   13.90
   5  -7   0  148.99   13.90
   4  -7   0  362.66   19.30
   4  -7   0  320.07   17.40
   3  -7   0  250.27   16.10
  -3   7   0  238.58   15.80
   2  -7   0 1164.98   35.40
  -2   7   0 1191.18   36.30
  -1   7   0  175.88   13.00
   0   7   0    9.30    6.50
   0   7   0    3.80    7.20
  -1  -7   0    2.90    9.00
   1   7   0    6.10    8.50
   1   7   0    5.80    7.00
  -2  -7   0  268.17   20.50
   2   7   0  269.17   16.80
   2   7   0  215.58   17.70
  -3  -7   0  753.22   33.30
   3   7   0  754.52   28.70
   3   7   0  691.13   30.20
  -4  -7   0  388.56   26.30
   4   7   0  353.26   23.80
   4   7   0  377.86   21.70
  -5  -7   0   50.99   15.40
   5   7   0   32.10   11.30
   8  -8   0  163.58   17.60
   8  -8   0  144.59   17.50
   7  -8   0    7.50   12.20
   7  -8   0   11.90   10.40
   6  -8   0  191.68   18.30
   6  -8   0  153.48   16.10
   5  -8   0  400.66   20.50
   5  -8   0  351.66   22.30
   4  -8   0  191.98   16.70
  -4   8   0  222.98   18.00
   3  -8   0  614.24   24.70
  -3   8   0  616.24   25.00
   2  -8   0 1181.98   36.40
  -2   8   0 1196.18   37.60
  -1   8   0   76.29    9.90
   0  -8   0  768.62   29.90
   0   8   0  774.52   27.00
   0   8   0  683.43   24.60
  -1  -8   0  884.01   34.20
   1   8   0  902.31   30.10
   1   8   0  914.61   32.50
  -2  -8   0   39.00   13.30
   2   8   0   13.40    9.70
   2   8   0    5.00   10.70
  -3  -8   0  588.24   31.00
   3   8   0  579.74   25.30
   3   8   0  416.36   26.20
  -4  -8   0   71.09   16.60
   4   8   0   64.29   12.00
   8  -9   0  231.38   22.60
   7  -9   0   -4.80   13.10
   7  -9   0   -8.50   10.20
   6  -9   0   28.90   13.00
   5  -9   0   35.40   11.90
  -5   9   0   31.50   13.40
   4  -9   0   55.09   11.50
  -4   9   0   88.09   13.80
   3  -9   0   78.99   11.60
  -3   9   0   67.99   12.10
   2  -9   0  452.25   21.20
  -2   9   0  419.96   21.60
  -1   9   0   12.90    8.50
   0  -9   0   32.50   12.60
   0   9   0   39.20   10.50
  -1  -9   0   10.20   13.10
   1   9   0   -1.90    9.60
   1   9   0    0.40   10.40
  -2  -9   0   46.50   14.30
   2   9   0   14.80   10.50
   2   9   0    9.40   11.50
  -3  -9   0   38.70   15.80
   3   9   0   42.00   11.30
   7 -10   0   12.40   14.80
   6 -10   0   34.90   13.70
  -6  10   0   28.10   14.50
   5 -10   0   82.79   13.30
  -5  10   0   89.09   15.70
   4 -10   0   -8.90    9.70
  -4  10   0    2.90   12.90
   3 -10   0  118.79   14.00
  -3  10   0  121.29   14.60
  -2  10   0   26.00   10.00
  -1  10   0   79.29   11.70
   0 -10   0  351.46   25.10
   0  10   0  345.37   20.60
  -1 -10   0  255.97   24.50
   1  10   0  236.88   20.30
  -2 -10   0   45.00   16.00
   2  10   0   32.70   12.30
   6 -11   0   74.39   14.20
  -6  11   0   83.69   17.00
   5 -11   0    4.70   10.90
  -5  11   0    0.50   13.90
   4 -11   0  492.25   25.60
  -4  11   0  457.95   26.30
   3 -11   0  496.25   24.50
  -3  11   0  419.26   24.60
  -2  11   0  200.58   17.40
  -1  11   0   23.00   10.90
   0 -11   0   24.10   14.90
   0  11   0   17.90   11.30
  -1 -11   0  130.59   18.90
   1  11   0   88.69   14.20
   5 -12   0    3.90   10.60
  -5  12   0    8.90   13.30
   4 -12   0   19.00   10.90
  -4  12   0    8.40   13.30
   3 -12   0   26.10   11.30
  -3  12   0   53.79   11.80
  -2  12   0   19.80    9.90
  -1  12   0   89.69   14.20
  -1  12  -1   72.89   12.40
  -2  12  -1   11.00   10.20
  -3  12  -1  486.25   26.50
   3 -12   1  500.15   27.10
  -4  12  -1  196.58   19.60
   4 -12   1  226.58   20.50
  -5  12  -1   -8.10   14.30
   5 -12   1    7.10   12.00
  -1 -11   1   30.90   15.80
   0  11  -1   71.09   12.40
  -1  11  -1   13.70    9.90
  -2  11  -1   39.00   10.80
  -3  11  -1   11.00   12.40
   3 -11   1   40.90   12.00
  -4  11  -1   -7.00   12.40
   4 -11   1    8.40   11.40
  -5  11  -1   12.20   13.70
   5 -11   1   19.20   11.90
  -6  11  -1    4.80   14.60
   6 -11   1    4.70   11.50
   2  10  -1  237.48   18.70
  -2 -10   1  205.58   20.90
   1  10  -1   -5.10   10.30
  -1 -10   1   12.00   13.60
   0  10  -1   25.80   10.20
  -1  10  -1   -4.70    8.50
  -2  10  -1  326.17   20.70
   2 -10   1  369.76   21.10
  -3  10  -1  399.46   22.90
   3 -10   1  414.56   23.30
  -4  10  -1  290.37   21.60
   4 -10   1  329.87   21.80
  -5  10  -1   59.59   14.70
   5 -10   1   40.70   13.10
   6 -10   1   32.50   14.70
   7 -10   1  150.08   16.90
   7 -10   1  135.49   19.00
   3   9  -1  152.88   14.90
  -3  -9   1  181.58   21.30
   2   9  -1   20.70   10.70
   2   9  -1   32.80   11.90
  -2  -9   1   63.49   15.00
   1   9  -1   93.69   12.00
   1   9  -1   88.39   12.50
  -1  -9   1   78.69   14.60
   0   9  -1  228.58   16.80
   0   9  -1  244.08   16.70
   0  -9   1  252.47   20.40
  -1   9  -1    3.50    8.20
  -1   9  -1   -6.50    8.80
  -2   9  -1  211.08   16.90
   2  -9   1  176.98   16.70
  -3   9  -1  123.19   14.40
   3  -9   1  128.49   13.80
  -4   9  -1   19.80   11.20
   4  -9   1   31.20   11.10
   5  -9   1   10.60   12.50
   6  -9   1   60.09   14.80
   6  -9   1   58.29   12.10
   7  -9   1   45.50   15.00
   7  -9   1   32.70   10.60
   4   8  -1   46.10   11.80
  -4  -8   1   62.89   17.70
   3   8  -1  242.58   19.40
  -3  -8   1  261.77   25.10
   2   8  -1   27.70    9.80
   2   8  -1   49.70   11.10
  -2  -8   1   36.70   13.80
   1   8  -1  203.48   16.90
   1   8  -1  196.18   16.10
  -1  -8   1  227.88   19.90
   0   8  -1  640.44   23.20
   0   8  -1  609.44   24.00
  -1   8  -1   66.39    9.10
  -1   8  -1   63.69    9.60
  -2   8  -1   -9.10    8.20
   2  -8   1    1.40    8.10
  -3   8  -1   -9.50    9.00
   3  -8   1    8.60    9.00
   4  -8   1  518.65   24.40
   5  -8   1  579.84   25.40
   5  -8   1  592.14   28.20
   6  -8   1  253.77   21.80
   6  -8   1  249.18   18.70
   7  -8   1    1.90    9.80
   7  -8   1   -4.20   11.50
   8  -8   1   36.50   12.40
   8  -8   1   35.70   13.50
   5   7  -1    4.50   10.30
  -5  -7   1   14.00   12.70
   4   7  -1  180.88   16.20
  -4  -7   1  211.38   20.30
   3   7  -1  133.19   13.80
  -3  -7   1  162.48   17.10
   2   7  -1  202.68   16.20
  -2  -7   1  214.98   19.10
   1   7  -1  660.23   23.60
   1   7  -1  677.43   24.60
  -1  -7   1  633.04   26.50
   0   7  -1  641.04   22.20
   0   7  -1  648.84   22.60
   0  -7   1  625.24   25.20
  -1   7  -1  223.38   14.00
  -1   7  -1  211.18   12.90
   1  -7   1  208.48   14.30
  -2   7  -1  839.42   25.00
  -2   7  -1  891.21   28.80
   2  -7   1  871.81   29.00
   3  -7   1   23.20    8.60
  -4   7  -1 1024.70   28.50
   4  -7   1 1017.60   33.60
   4  -7   1  973.70   34.30
  -5   7  -1  851.01   26.70
   5  -7   1  834.42   30.20
   5  -7   1  800.32   31.80
  -6   7  -1  356.46   19.70
   6  -7   1  338.67   20.90
   6  -7   1  354.66   22.70
   7  -7   1   18.00   11.40
   7  -7   1   23.10   10.50
   8  -7   1  121.49   15.80
   6   6  -1   78.39   13.80
  -6  -6   1  106.89   18.50
   5   6  -1    3.10    9.50
  -5  -6   1   16.60   13.90
   4   6  -1  498.55   23.50
  -4  -6   1  470.05   27.70
   3   6  -1  111.99   11.60
  -3  -6   1   91.89   14.10
   2   6  -1  286.57   16.50
  -2  -6   1  301.77   19.30
   1   6  -1  499.05   19.90
   1   6  -1  542.15   20.10
  -1  -6   1  550.14   22.70
   0   6  -1  278.07   13.70
   0   6  -1  246.18   14.20
  -1   6  -1   60.19    7.50
  -1   6  -1   68.39    8.50
   1  -6   1   49.99    8.40
  -2   6  -1 1403.96   40.10
  -2   6  -1 1370.76   35.90
   2  -6   1 1376.66   39.90
  -3   6  -1   21.20    5.60
   3  -6   1   29.90    7.30
   3  -6   1   41.90    9.00
   4  -6   1    7.30    8.80
   4  -6   1    6.20    6.50
  -5   6  -1   13.30    8.30
   5  -6   1   20.10    9.70
   5  -6   1   22.30    8.00
  -6   6  -1   74.59   11.90
   6  -6   1   93.99   12.00
   6  -6   1   80.69   12.20
  -7   6  -1   21.00   11.40
   7  -6   1    9.60    9.60
   8  -6   1   -2.90    9.60
   6   5  -1   12.10   10.70
  -6  -5   1   56.59   16.00
   5   5  -1  240.48   18.10
   5   5  -1  167.38   14.90
  -5  -5   1  253.37   23.50
   4   5  -1  134.89   12.80
   4   5  -1   83.99   10.40
  -4  -5   1  134.99   15.50
   3   5  -1   49.99    8.00
   3   5  -1   67.19    9.40
  -3  -5   1   69.69   11.70
   2   5  -1   61.09    8.70
  -2  -5   1   70.39   10.70
   1   5  -1   -7.00    6.60
   1   5  -1   -2.30    4.10
  -1  -5   1   -2.20    8.50
   0   5  -1  454.55   17.00
   0   5  -1  436.46   16.70
  -1   5  -1  534.45   18.70
  -1   5  -1  515.95   16.80
   1  -5   1  506.75   19.30
  -2   5  -1 1346.07   34.20
   2  -5   1 1327.17   37.90
   2  -5   1 1301.87   37.90
  -3   5  -1   12.20    6.00
   3  -5   1   11.20    6.60
   3  -5   1    8.60    8.00
  -4   5  -1  301.17   14.80
   4  -5   1  316.47   15.80
   4  -5   1  289.67   16.90
   5  -5   1  709.73   26.40
   5  -5   1  690.53   26.00
   6  -5   1  221.48   16.50
   7  -5   1  211.38   14.40
   7  -5   1  183.98   17.80
   8  -5   1   53.89    9.40
   8  -5   1   46.30   12.20
   7   4  -1  590.14   28.90
  -7  -4   1  654.73   36.20
   6   4  -1   73.79   11.80
  -6  -4   1   69.89   16.40
   5   4  -1  234.58   17.50
  -5  -4   1  236.88   21.60
   4   4  -1  339.67   17.80
  -4  -4   1  300.87   19.80
   3   4  -1  508.05   19.40
   3   4  -1  365.36   16.50
  -3  -4   1  515.65   21.90
   2   4  -1 2434.26   58.29
   2   4  -1 1986.90   58.99
  -2  -4   1 2362.76   62.29
   1   4  -1 2272.17   57.09
  -1  -4   1 2284.67   61.19
   0   4  -1    7.50    4.80
   0   4  -1   -1.90    4.60
  -1   4  -1 2734.83   64.99
  -1   4  -1 2672.03   69.39
   1  -4   1 2751.12   67.39
  -2   4  -1  303.37   11.60
   2  -4   1  294.37   14.40
   2  -4   1  300.37   13.10
  -3   4  -1  394.06   16.10
   3  -4   1  423.66   18.10
   3  -4   1  399.16   16.80
   4  -4   1 1400.26   41.80
   4  -4   1 1457.45   40.80
   5  -4   1  115.89   11.80
   5  -4   1  130.69    9.50
   6  -4   1  380.66   16.30
   6  -4   1  380.56   19.40
   7  -4   1   19.10    9.20
   7  -4   1   23.70    7.50
   8  -4   1   46.50    9.30
   8  -4   1   43.00   11.30
   7   3  -1   66.99   13.20
  -7  -3   1   76.99   16.70
   6   3  -1    1.40    8.40
   6   3  -1   -7.30    5.90
  -6  -3   1   -2.90   13.10
   5   3  -1   71.99   10.30
  -5  -3   1   93.99   14.30
   4   3  -1   -1.60    3.10
   4   3  -1    6.80    6.70
  -4  -3   1   10.80    9.10
   3   3  -1    6.70    6.30
   3   3  -1    5.90    4.70
  -3  -3   1   11.10    8.80
   2   3  -1  734.63   23.00
   2   3  -1  744.13   22.00
  -2  -3   1  750.72   25.30
   1   3  -1  853.31   24.50
   1   3  -1  919.01   24.60
  -1  -3   1  863.71   26.70
   0   3  -1 2205.98   53.69
   1  -3   1 1523.35   40.10
   1  -3   1 1572.34   40.80
  -2   3  -1 4559.44  105.89
   2  -3   1 4463.35  107.99
   2  -3   1 4424.76  112.59
   3  -3   1  116.19    9.50
   3  -3   1   94.29    8.30
   3  -3   1  109.09    9.10
   4  -3   1   26.50    6.80
   4  -3   1   34.00    5.40
   5  -3   1  185.28   10.90
   5  -3   1  183.38   12.60
   6  -3   1  311.27   17.40
   6  -3   1  288.67   14.90
   7  -3   1  262.17   18.50
   7  -3   1  302.17   16.80
   8  -3   1   16.50    8.20
   8  -3   1    9.00    9.10
   8   2  -1   38.00   12.80
   7   2  -1    2.30    9.30
   7   2  -1   10.30    7.40
  -7  -2   1   11.80   13.60
   6   2  -1   -7.50    6.30
   6   2  -1   -5.30    7.70
  -6  -2   1   -6.70   12.10
   5   2  -1  677.63   24.10
   5   2  -1  568.64   22.40
  -5  -2   1  677.33   27.40
   4   2  -1  319.07   15.40
   3   2  -1  145.59    8.40
   2   2  -1 1625.84   41.20
   2   2  -1 1583.04   41.60
   1   2  -1 1191.28   31.30
   0   2  -1  612.54   16.90
   1  -2   1 2838.22   68.59
   1  -2   1 2811.52   70.99
   2  -2   1  545.95   16.00
   2  -2   1  531.45   17.40
   2  -2   1  524.85   17.40
   3  -2   1  853.91   23.70
   3  -2   1  835.82   25.80
   4  -2   1  547.35   20.20
   4  -2   1  536.35   18.20
   5  -2   1  389.26   17.50
   5  -2   1  362.56   15.40
   6  -2   1  289.07   15.40
   6  -2   1  264.67   16.50
   7  -2   1  143.99   14.50
   7  -2   1  149.29   13.30
   8  -2   1  174.78   15.30
   8  -2   1  184.58   17.10
   8   1  -1   19.50   10.80
   7   1  -1  116.49   12.80
   7   1  -1  114.19   12.20
   6   1  -1  404.46   18.60
   6   1  -1  417.76   20.10
   5   1  -1 2074.49   55.49
   5   1  -1 2087.29   57.29
   4   1  -1 1752.52   45.50
   4   1  -1 1656.13   46.50
   3   1  -1    0.90    4.90
   3   1  -1    0.20    1.70
   3   1  -1    2.10    4.90
   2   1  -1    6.50    3.40
   2   1  -1    5.00    4.60
   2   1  -1    7.70    4.60
   1   1  -1 1719.13   43.30
   0  -1   1 4683.43  109.29
   1  -1   1 1015.80   25.10
   1  -1   1  949.51   25.90
   2  -1   1  427.56   14.90
   2  -1   1  445.36   14.40
   3  -1   1   74.99    7.20
   3  -1   1   83.59    6.70
   4  -1   1   86.19    7.70
   4  -1   1   92.79    9.10
   5  -1   1  281.67   14.10
   5  -1   1  280.77   15.00
   6  -1   1  190.18   14.40
   6  -1   1  185.38   14.00
   7  -1   1   33.80    9.40
   7  -1   1   48.70    9.90
   8  -1   1    1.70    8.80
   8  -1   1    4.10    8.90
   8   0  -1   34.90   10.60
   8   0  -1   53.89   10.50
   7   0  -1   18.10    7.50
   7   0  -1   14.40    8.60
   6   0  -1    8.10    6.20
   6   0  -1  -18.10    5.80
   5   0  -1    8.00    5.80
   5   0  -1   28.20    6.00
   4   0  -1    9.70    5.30
   4   0  -1    4.60    4.80
   3   0  -1    0.00    4.10
   3   0  -1    1.80    3.50
   2   0  -1 1524.05   40.90
   2   0  -1 1615.74   39.20
   1   0  -1  211.68    7.10
   1   0   1  124.09    5.90
   2   0   1 9999.00  229.68
   2   0   1 9744.03  242.08
   3   0   1  297.17   13.00
   3   0   1  279.67   12.40
   4   0   1   -4.70    5.00
   4   0   1   -3.80    5.30
   5   0   1   86.09    9.50
   5   0   1   88.69    9.30
   6   0   1   87.49   10.50
   6   0   1   90.69   10.80
   7   0   1   83.39   11.40
   7   0   1   85.99   11.90
   8   0   1  459.95   24.80
   8   0   1  418.96   23.90
   8  -1  -1    2.30    7.60
   8  -1  -1    6.90    7.50
   7  -1  -1   -4.80    6.80
   7  -1  -1   -1.00    6.30
   6  -1  -1  869.21   27.80
   6  -1  -1  860.71   29.30
   5  -1  -1   39.10    6.10
   5  -1  -1   35.30    6.70
   4  -1  -1  284.47   12.30
   4  -1  -1  273.27   13.20
   3  -1  -1  969.40   27.10
   3  -1  -1  926.41   25.30
   2  -1  -1  204.88   10.30
   2  -1  -1  187.68   10.40
   1  -1  -1 8563.34  199.58
   1  -1  -1 8616.94  209.28
   0  -1  -1 6160.98  151.48
   0   1   1 6330.57  152.38
  -1  -1  -1  175.88   12.80
   1   1   1  175.28    9.20
  -2  -1  -1 1773.22   47.10
   2   1   1 1809.92   44.50
   2   1   1 1721.23   46.30
   3   1   1  970.90   28.30
   3   1   1  981.50   29.10
   4   1   1  523.05   19.40
   4   1   1  524.45   19.80
   5   1   1 2063.89   56.49
   5   1   1 2130.09   59.59
   6   1   1  419.06   21.00
   6   1   1  386.36   20.30
   7   1   1    4.50    7.90
   7   1   1    9.20    8.70
   8  -2  -1   40.60    9.70
   8  -2  -1   40.70    9.20
   7  -2  -1  200.28   15.40
   7  -2  -1  221.78   14.60
   6  -2  -1  612.34   23.30
   6  -2  -1  605.64   21.10
   5  -2  -1  216.68   11.10
   5  -2  -1  216.48   12.70
   4  -2  -1 2164.68   57.49
   4  -2  -1 2110.69   53.29
   3  -2  -1  120.79    8.40
   3  -2  -1  108.69    8.10
   2  -2  -1   26.80    5.30
   2  -2  -1   16.30    5.60
   1  -2  -1  511.95   15.40
  -1   2   1  506.15   15.80
   0  -2  -1 1806.12   47.40
   0   2   1 1813.82   46.70
  -1  -2  -1  737.23   23.70
   1   2   1  752.12   21.10
   1   2   1  769.72   21.70
  -2  -2  -1  740.03   24.50
   2   2   1  726.13   21.80
   2   2   1  714.63   22.00
  -3  -2  -1   18.30    8.30
   3   2   1    8.30    6.40
   3   2   1    3.40    5.50
  -4  -2  -1   56.39   10.40
   4   2   1   60.49    8.10
   4   2   1   51.79    8.40
   5   2   1   24.70    8.40
   5   2   1   24.70    7.90
   6   2   1   -0.20    7.60
   6   2   1    8.00    8.50
   7   2   1   43.60   11.20
   7   2   1   40.70   10.50
   9  -3  -1  100.69   12.70
   9  -3  -1   94.29   13.70
   8  -3  -1  174.68   14.50
   8  -3  -1  162.28   15.70
   7  -3  -1  143.09   14.30
   7  -3  -1  140.59   12.50
   6  -3  -1   39.40    7.50
   6  -3  -1   28.80    6.00
   5  -3  -1  468.25   18.70
   5  -3  -1  457.95   15.90
   4  -3  -1 2243.68   57.19
   4  -3  -1 2357.56   59.59
   4  -3  -1 2389.96   62.59
   3  -3  -1  653.53   20.90
   3  -3  -1  634.94   20.30
   2  -3  -1  485.05   16.00
   2  -3  -1  476.55   15.90
   1  -3  -1  262.17   11.50
  -1   3   1  274.47   12.00
   0  -3  -1  879.31   26.40
   0   3   1  866.91   25.10
  -1  -3  -1 1132.69   33.50
   1   3   1 1176.28   32.00
   1   3   1 1129.49   30.20
  -2  -3  -1 2216.68   61.59
   2   3   1 2242.78   57.59
   2   3   1 2345.87   60.09
  -3  -3  -1 1599.34   47.60
   3   3   1 1642.04   45.80
   3   3   1 1623.74   44.20
  -4  -3  -1  492.35   23.30
   4   3   1  494.85   20.70
   4   3   1  491.15   20.70
  -5  -3  -1  423.96   24.40
   5   3   1  425.26   20.90
   5   3   1  439.96   21.30
  -6  -3  -1    8.40   12.20
   6   3   1   16.60    9.50
   6   3   1   10.50    9.70
   7   3   1  293.27   21.40
   7   3   1  267.37   21.10
   9  -4  -1  120.69   15.10
   9  -4  -1  150.78   13.70
   8  -4  -1   -3.40    6.60
   8  -4  -1    5.80    9.30
   7  -4  -1  676.73   23.20
   7  -4  -1  630.64   26.70
   6  -4  -1  124.09   11.70
   6  -4  -1   79.99    7.90
   6  -4  -1  119.19   10.80
   5  -4  -1  726.43   24.50
   5  -4  -1  691.33   21.20
   5  -4  -1  737.53   25.40
   4  -4  -1 2786.12   70.89
   4  -4  -1 2779.62   73.89
   3  -4  -1 1271.27   36.10
   3  -4  -1 1216.18   34.70
   2  -4  -1   62.49    7.00
  -2   4   1   66.29    7.10
   1  -4  -1  827.22   23.70
  -1   4   1  840.12   25.00
   0  -4  -1    3.40    6.60
   0   4   1    4.10    5.40
  -1  -4  -1 1574.84   46.80
   1   4   1 1629.04   42.50
   1   4   1 1714.03   45.40
  -2  -4  -1 2411.46   66.89
   2   4   1 2422.26   62.59
   2   4   1 2568.34   66.09
  -3  -4  -1  773.22   29.10
   3   4   1  870.81   28.10
   3   4   1  787.72   26.80
  -4  -4  -1   -4.50    9.50
   4   4   1   -7.40    7.40
   4   4   1   -8.20    7.80
  -5  -4  -1   56.19   13.50
   5   4   1   75.39   12.00
   5   4   1   63.39   10.80
  -6  -4  -1   63.19   13.60
   6   4   1   52.49   11.60
   6   4   1   41.50   10.70
   9  -5  -1   99.39   14.20
   8  -5  -1   77.09   12.40
   8  -5  -1   79.09    9.50
   7  -5  -1    4.30    3.80
   7  -5  -1   41.10   10.20
   6  -5  -1    3.10    7.10
   6  -5  -1   -3.60    7.10
   6  -5  -1   10.60    4.90
   5  -5  -1    3.00    6.70
   5  -5  -1    0.80    7.20
   4  -5  -1   44.20    8.10
   4  -5  -1   45.50    7.80
   3  -5  -1   57.49    8.70
   2  -5  -1   25.60    7.20
  -2   5   1   32.00    7.70
   1  -5  -1   56.39    7.10
   1  -5  -1   45.50    8.80
  -1   5   1   59.09    8.70
   0  -5  -1    4.50    8.90
   0   5   1   15.00    6.00
   0   5   1    2.80    6.90
  -1  -5  -1 1050.89   34.10
   1   5   1 1083.79   30.40
   1   5   1 1014.70   32.40
  -2  -5  -1   74.89   11.20
   2   5   1   78.29    8.90
   2   5   1   73.19    9.90
  -3  -5  -1  -15.20    7.70
   3   5   1   -8.60    7.30
   3   5   1  -11.80    7.50
  -4  -5  -1   55.79   12.30
   4   5   1   41.70   10.90
   4   5   1   42.30   10.60
  -5  -5  -1  125.99   15.90
   5   5   1  118.19   13.70
   5   5   1  115.89   14.10
  -6  -5  -1   42.30   14.30
   6   5   1   15.20   10.90
   6   5   1   27.50   11.70
   8  -6  -1  200.58   17.20
   8  -6  -1  196.38   18.30
   7  -6  -1  535.45   25.10
   7  -6  -1  530.75   25.10
   6  -6  -1  151.88   13.80
   6  -6  -1  140.69   13.50
   5  -6  -1   68.69    9.90
   5  -6  -1   72.29   10.60
   4  -6  -1   26.20    7.30
   4  -6  -1   26.10    8.10
   3  -6  -1   22.10    7.60
  -3   6   1   17.90    8.10
   2  -6  -1 3718.43   92.29
  -2   6   1 3712.73   96.19
  -1   6   1  444.96   18.10
   0  -6  -1  162.38   15.30
   0   6   1  196.88   13.00
  -1  -6  -1  370.56   19.90
   1   6   1  331.47   17.60
   1   6   1  365.06   16.10
  -2  -6  -1   30.60   10.50
   2   6   1   34.90    8.40
   2   6   1   33.90    9.80
  -3  -6  -1  424.66   23.20
   3   6   1  433.96   22.70
   3   6   1  403.16   20.70
  -4  -6  -1  208.18   21.20
   4   6   1  223.38   18.10
   4   6   1  220.38   19.70
  -5  -6  -1   25.20   13.50
   5   6   1   20.00   11.60
   5   6   1   25.50   11.20
   8  -7  -1   66.79   13.10
   8  -7  -1   83.69   13.80
   7  -7  -1  138.39   15.60
   7  -7  -1  136.89   14.80
   6  -7  -1  120.49   14.00
   6  -7  -1   89.89   13.50
   5  -7  -1  658.13   26.60
   5  -7  -1  660.73   26.50
   4  -7  -1  335.47   17.80
   3  -7  -1   77.99    9.80
  -3   7   1  100.99   11.00
   2  -7  -1  105.39   10.40
  -2   7   1  136.29   13.10
  -1   7   1    1.30    7.00
   0  -7  -1  271.07   19.00
   0   7   1  296.17   16.20
   0   7   1  261.87   13.70
  -1  -7  -1   25.60   10.70
   1   7   1    9.60    8.80
   1   7   1    9.30    7.30
  -2  -7  -1   24.30   11.50
   2   7   1   -7.60    9.40
   2   7   1    8.70    8.60
  -3  -7  -1  136.79   16.30
   3   7   1  126.89   15.80
   3   7   1  176.58   17.30
  -4  -7  -1   13.50   13.00
   4   7   1  -10.40   11.40
   4   7   1   11.70   10.20
  -5  -7  -1    7.90   12.80
   5   7   1   10.00   10.70
   5   7   1   -7.30   11.60
   8  -8  -1    7.90   10.50
   8  -8  -1  -12.20   10.80
   7  -8  -1   28.30   11.10
   7  -8  -1   20.70   11.50
   6  -8  -1    3.70    9.60
   6  -8  -1  -19.90   10.70
   5  -8  -1   65.99   12.20
   4  -8  -1   10.60    7.80
  -4   8   1   -4.80    9.90
   3  -8  -1   99.89   10.90
  -3   8   1   99.79   12.00
   2  -8  -1  349.07   17.70
  -2   8   1  373.16   18.70
  -1   8   1  100.69   10.80
   0  -8  -1    7.80   10.40
   0   8   1    6.80    8.70
   1   8   1   91.39   10.50
   1   8   1   89.99   12.60
  -2  -8  -1   76.89   15.20
   2   8   1   74.29   11.60
   2   8   1   74.59   13.50
  -3  -8  -1  668.33   31.40
   3   8   1  610.14   25.80
   3   8   1  465.85   28.10
  -4  -8  -1   95.99   16.30
   4   8   1   80.39   12.70
   4   8   1   35.60   14.20
   8  -9  -1  181.08   19.00
   8  -9  -1  127.79   18.10
   7  -9  -1    2.50   11.90
   6  -9  -1  361.16   24.70
   5  -9  -1  157.98   15.20
  -5   9   1  126.69   16.00
   4  -9  -1   -2.10    9.00
  -4   9   1   -9.10   10.80
   3  -9  -1  380.76   20.00
  -3   9   1  380.56   21.30
   2  -9  -1   11.40    8.00
  -2   9   1    7.50    8.90
  -1   9   1  205.78   15.90
   0  -9  -1 1064.99   39.40
   0   9   1 1076.59   36.30
  -1  -9  -1   35.50   14.00
   1   9   1   27.50   11.20
  -2  -9  -1  335.77   26.10
   2   9   1  319.77   23.30
  -3  -9  -1  146.99   19.50
   3   9   1   93.99   16.50
   3   9   1  113.29   13.40
   7 -10  -1   17.40   13.60
   6 -10  -1  -10.20   11.60
  -6  10   1   13.50   13.90
   5 -10  -1   20.30   11.00
  -5  10   1   11.40   11.90
   4 -10  -1  445.36   23.00
  -4  10   1  406.46   24.20
   3 -10  -1  494.25   22.40
  -3  10   1  408.26   23.60
  -2  10   1  275.07   18.10
  -1  10   1   22.50   10.50
   0 -10  -1   11.60   13.90
   0  10   1   23.40   10.90
  -1 -10  -1   30.80   15.10
   1  10   1   20.20   11.30
  -2 -10  -1   45.30   16.10
   2  10   1   41.50   14.10
   6 -11  -1   85.89   15.40
  -6  11   1  123.69   18.20
   5 -11  -1   98.29   14.70
  -5  11   1   80.09   15.20
   4 -11  -1   48.30   11.20
  -4  11   1   46.40   12.60
   3 -11  -1   57.99   11.00
  -3  11   1   43.30   12.20
  -2  11   1  101.39   12.80
   1 -11  -1  310.97   24.50
  -1  11   1  278.87   19.90
   0 -11  -1  415.26   29.20
   0  11   1  376.36   23.40
  -1 -11  -1   29.70   16.40
   1  11   1   29.40   12.30
   5 -12  -1   -8.90   10.10
  -5  12   1    0.20   13.50
   4 -12  -1  174.78   17.90
  -4  12   1  207.08   21.30
   3 -12  -1  177.38   17.20
  -3  12   1  202.18   18.70
  -2  12   1   19.20   10.70
  -1  12   1   83.89   14.00
  -1  12  -2   15.00   11.00
  -2  12  -2   27.20   10.60
  -3  12  -2  154.98   17.40
   3 -12   2  174.58   17.40
  -4  12  -2  128.49   16.90
   4 -12   2  170.88   17.80
  -5  12  -2  -11.70   13.80
   5 -12   2   17.30   12.00
  -1 -11   2   24.50   14.70
  -1  11  -2   20.80    9.40
  -2  11  -2  363.16   21.30
   2 -11   2  352.26   22.70
  -3  11  -2  621.84   29.30
   3 -11   2  686.43   29.90
  -4  11  -2  279.77   23.20
   4 -11   2  355.66   23.70
  -5  11  -2    4.20   13.60
   5 -11   2    6.10   11.20
   6 -11   2   10.40   16.00
   3  10  -2   63.79   12.30
  -3 -10   2   59.19   18.50
   2  10  -2    5.60   10.60
  -2 -10   2    3.30   14.50
   1  10  -2   49.90   11.40
  -1 -10   2   56.79   14.50
   0  10  -2    4.20    9.80
   0  10  -2   19.20    9.40
  -1  10  -2    1.80    8.90
  -2  10  -2   55.49   11.80
   2 -10   2   63.69   12.00
  -3  10  -2   63.29   13.60
   3 -10   2   84.79   13.10
  -4  10  -2  -23.70   11.40
   4 -10   2    2.20   11.20
   5 -10   2   -7.50   11.60
   6 -10   2   21.00   10.60
   6 -10   2   46.80   15.70
   7 -10   2   -2.80    9.70
   7 -10   2   33.80   15.70
   4   9  -2   15.90   11.00
  -4  -9   2   12.70   18.00
   3   9  -2   -2.10   10.40
  -3  -9   2   -2.80   15.60
   2   9  -2  -14.00   10.00
  -2  -9   2   17.30   13.70
   1   9  -2  259.77   18.60
  -1  -9   2  234.48   22.30
   0   9  -2  670.13   25.90
   0   9  -2  697.33   26.10
  -1   9  -2   92.09   11.50
  -1   9  -2   84.29   11.30
  -2   9  -2  113.29   11.50
  -2   9  -2  114.49   12.80
   2  -9   2  117.99   13.00
  -3   9  -2   12.10   10.60
  -3   9  -2    4.90    8.00
   3  -9   2    4.70    9.90
   4  -9   2   24.00   11.40
   5  -9   2  483.25   23.70
   5  -9   2  414.96   27.20
   6  -9   2  183.38   19.70
   6  -9   2  181.98   17.80
   7  -9   2    2.50    8.80
   7  -9   2  -19.00   12.60
   4   8  -2  106.69   14.20
  -4  -8   2  142.89   19.60
   3   8  -2  192.08   16.60
  -3  -8   2  192.88   20.40
   2   8  -2   -2.90    9.90
   2   8  -2   -1.90    9.20
  -2  -8   2   26.40   12.80
   1   8  -2  642.24   23.60
   1   8  -2  462.55   22.00
  -1  -8   2  608.44   26.80
   0   8  -2  320.97   16.60
   0   8  -2  435.26   19.70
  -1   8  -2    0.50    7.50
  -1   8  -2   -0.30    8.30
   1  -8   2   -8.70    7.70
  -2   8  -2   28.60    9.20
  -2   8  -2   33.00    7.80
   2  -8   2   51.29   10.20
  -3   8  -2   78.39   11.60
  -3   8  -2   66.79    8.40
   3  -8   2   88.59   12.10
  -4   8  -2   93.59    9.20
   4  -8   2  114.39   12.20
   4  -8   2  103.49   13.80
  -5   8  -2  315.17   16.10
   5  -8   2  253.17   22.30
   5  -8   2  258.07   18.70
   6  -8   2  293.97   19.40
   6  -8   2  256.27   22.70
   7  -8   2   68.69   14.70
   7  -8   2   79.39   12.70
   8  -8   2   12.00   11.80
   8  -8   2  -12.10   12.50
   5   7  -2   18.10   10.60
  -5  -7   2   19.40   14.60
   4   7  -2  170.38   15.70
  -4  -7   2  150.78   20.90
   3   7  -2  169.28   15.10
  -3  -7   2  192.88   19.10
   2   7  -2   72.49   10.30
   2   7  -2   86.69   11.00
  -2  -7   2   69.79   13.30
   1   7  -2   79.89   10.00
   1   7  -2   82.19    9.50
  -1  -7   2   65.89   11.60
   0   7  -2  223.68   14.40
   0   7  -2  166.48   10.70
  -1   7  -2    3.70    6.60
  -1   7  -2   17.40    7.10
   1  -7   2   -2.60    7.30
  -2   7  -2   61.59    8.90
  -2   7  -2   47.40    6.90
   2  -7   2   58.59   10.10
  -3   7  -2    1.10    6.00
   3  -7   2   16.50    7.20
   3  -7   2   -3.40    8.20
  -4   7  -2  908.91   26.90
   4  -7   2  894.41   31.10
   4  -7   2  871.91   32.50
  -5   7  -2  506.65   20.70
   5  -7   2  486.95   25.70
   5  -7   2  492.55   22.80
  -6   7  -2    8.80   10.20
   6  -7   2   10.40   11.70
   6  -7   2    4.30    9.00
  -7   7  -2  -13.00   10.80
   7  -7   2   12.00   11.00
   7  -7   2    3.40    9.40
  -8   7  -2   45.10   13.90
   8  -7   2   63.99   13.70
   6   6  -2    0.70   10.40
  -6  -6   2   30.70   16.10
   5   6  -2  154.88   15.70
  -5  -6   2  194.18   21.70
   4   6  -2  475.35   23.20
  -4  -6   2  432.36   28.20
   3   6  -2   51.79    9.50
   3   6  -2   63.99   10.60
  -3  -6   2   56.29   13.40
   2   6  -2  768.62   26.00
   2   6  -2  696.53   25.20
  -2  -6   2  751.32   29.20
   1   6  -2  421.16   17.90
   1   6  -2  445.56   17.70
  -1  -6   2  404.16   20.80
   0   6  -2   13.20    6.80
   0   6  -2   10.80    3.30
  -1   6  -2  654.73   21.00
  -1   6  -2  680.53   22.50
   1  -6   2  645.94   23.30
  -2   6  -2  327.37   13.50
   2  -6   2  339.77   18.00
  -3   6  -2   -1.10    5.50
   3  -6   2    2.00    7.90
   3  -6   2   -1.10    6.20
  -4   6  -2 2002.30   51.79
   4  -6   2 1988.40   56.39
   4  -6   2 2009.10   56.79
  -5   6  -2  784.42   27.10
   5  -6   2  769.02   28.60
   5  -6   2  801.92   30.50
  -6   6  -2   21.30   10.80
   6  -6   2   15.10   10.30
   6  -6   2    8.80    9.20
  -7   6  -2  244.38   20.00
   7  -6   2  191.18   18.80
  -8   6  -2   53.79   14.00
   8  -6   2   39.20   12.20
   6   5  -2   39.10   11.20
  -6  -5   2   32.80   15.40
   5   5  -2    1.00    8.80
  -5  -5   2  -16.20   12.60
   4   5  -2  428.46   21.00
   4   5  -2  428.86   19.00
  -4  -5   2  398.56   23.60
   3   5  -2    2.40    6.30
   3   5  -2   -0.30    7.80
  -3  -5   2   -2.30    9.50
   2   5  -2  931.41   28.90
   2   5  -2  938.01   28.20
  -2  -5   2  879.51   31.20
   1   5  -2  677.13   22.50
   1   5  -2  719.33   23.30
  -1  -5   2  689.63   25.30
   0   5  -2  152.48   11.60
   0   5  -2  109.59    9.40
  -1   5  -2  721.73   22.90
  -1   5  -2  714.93   21.50
   1  -5   2  748.73   24.50
  -2   5  -2  113.79   10.30
   2  -5   2  139.39   11.90
   2  -5   2  120.29   11.30
  -3   5  -2  943.71   27.70
   3  -5   2  967.20   31.50
   3  -5   2  989.80   30.70
  -4   5  -2   84.79    9.60
   4  -5   2   86.59   10.80
   4  -5   2  100.49   10.00
  -5   5  -2    9.50    8.30
   5  -5   2   11.00    6.90
   5  -5   2    9.80    8.70
   6  -5   2    8.00    8.40
   7  -5   2  223.48   19.30
   8  -5   2    2.30    9.90
   7   4  -2   -5.60   10.50
  -7  -4   2    2.40   15.60
   6   4  -2   75.19   12.20
  -6  -4   2   79.29   16.80
   5   4  -2  514.65   21.00
   5   4  -2  475.55   22.60
  -5  -4   2  461.45   27.20
   4   4  -2  294.47   14.60
   4   4  -2  283.97   17.00
  -4  -4   2  288.07   19.40
   3   4  -2   27.70    7.90
   3   4  -2   21.30    5.40
  -3  -4   2   23.50    9.20
   2   4  -2   29.50    7.60
  -2  -4   2   22.50    9.10
   1   4  -2    4.50    5.30
   1   4  -2   -2.80    6.20
  -1  -4   2    7.10    7.10
   0   4  -2 1604.64   40.90
   0   4  -2 1598.84   42.40
   0  -4   2 1624.34   42.10
  -1   4  -2 1267.47   32.70
   1  -4   2 1305.97   35.40
   1  -4   2 1257.77   34.80
  -2   4  -2 1685.63   42.20
   2  -4   2 1609.34   44.80
   2  -4   2 1689.43   45.40
  -3   4  -2  237.08   14.20
   3  -4   2  245.28   15.90
   3  -4   2  225.88   13.40
   4  -4   2   76.79    9.70
   4  -4   2   66.59    8.40
   5  -4   2   41.20    6.80
   5  -4   2   22.70    7.80
   6  -4   2  853.51   27.40
   6  -4   2  836.92   31.30
   7  -4   2  953.40   30.90
   7  -4   2  922.01   35.40
   8  -4   2   45.40   12.20
   8  -4   2   42.30   10.00
   7   3  -2  164.58   16.00
  -7  -3   2  174.48   21.00
   6   3  -2    3.00    8.60
  -6  -3   2   14.40   13.60
   5   3  -2  738.73   27.70
   5   3  -2  780.12   26.40
  -5  -3   2  803.82   31.30
   4   3  -2  230.98   11.80
   4   3  -2  208.48   14.30
   3   3  -2  425.16   17.90
   2   3  -2 2128.39   54.09
   1   3  -2 1233.38   32.70
   0   3  -2 2749.23   65.49
   0  -3   2 2694.83   66.39
  -1   3  -2 5211.78  120.49
   1  -3   2 5104.59  122.99
   1  -3   2 5095.09  127.49
  -2   3  -2   89.09    7.20
   2  -3   2  108.49   10.40
   2  -3   2   88.49    8.20
   3  -3   2 3005.40   78.49
   4  -3   2  316.87   15.40
   4  -3   2  327.67   13.50
   5  -3   2   29.00    7.50
   5  -3   2   25.70    6.10
   6  -3   2  270.17   15.00
   6  -3   2  294.17   17.60
   7  -3   2   12.40    7.80
   7  -3   2   13.20    9.00
   8  -3   2   39.10   11.20
   8  -3   2   29.50    9.60
   8   2  -2   -0.80   10.30
  -8  -2   2   24.40   16.10
   7   2  -2  158.48   15.20
  -7  -2   2  181.68   19.90
   6   2  -2   70.09   10.80
   6   2  -2   54.49    8.30
   5   2  -2 1072.39   33.60
   5   2  -2 1073.79   32.80
   4   2  -2    7.90    4.50
   4   2  -2    8.00    6.60
   4   2  -2   11.30    6.20
   3   2  -2   -2.90    6.20
   3   2  -2    0.20    6.00
   2   2  -2  167.38    9.40
   2   2  -2  146.59    9.70
   1   2  -2   10.60    5.70
   1   2  -2    4.50    5.30
   0   2  -2  407.46   14.70
   0  -2   2  399.96   15.20
  -1   2  -2    1.50    5.80
   1  -2   2    2.20    7.60
   1  -2   2   -4.20    5.20
   2  -2   2  127.19    8.70
   2  -2   2  137.49   10.10
   3  -2   2  120.39   10.20
   3  -2   2  128.69    9.40
   4  -2   2   37.80    6.10
   4  -2   2   48.20    7.80
   5  -2   2   23.80    7.00
   5  -2   2   15.40    6.00
   6  -2   2    1.20    7.30
   6  -2   2    1.80    6.30
   7  -2   2   76.09   10.90
   7  -2   2   79.59   12.20
   8  -2   2   -0.40    8.70
   8  -2   2   -3.50    8.10
   8   1  -2    6.10   10.40
   7   1  -2   -1.20    4.00
   7   1  -2   -8.40    7.80
   6   1  -2    3.70    5.00
   6   1  -2   -9.00    6.80
   5   1  -2  324.07   14.10
   5   1  -2  310.57   15.70
   5   1  -2  300.87   15.40
   4   1  -2  309.27   14.90
   4   1  -2  299.17   14.20
   4   1  -2  319.77   12.70
   3   1  -2 1125.19   30.50
   3   1  -2 1093.89   31.70
   2   1  -2 6546.65  163.98
   2   1  -2 6840.42  156.88
   1   1  -2    7.30    5.40
  -1  -1   2   14.20    4.30
   0  -1   2 3513.85   82.89
   1  -1   2  219.58   10.50
   1  -1   2  235.68   11.50
   2  -1   2  971.50   26.20
   2  -1   2  986.40   28.00
   3  -1   2 2099.79   55.89
   3  -1   2 2054.79   52.39
   4  -1   2  815.52   26.80
   4  -1   2  794.42   24.80
   5  -1   2  487.55   19.20
   5  -1   2  496.75   20.60
   6  -1   2  341.57   18.30
   6  -1   2  334.87   18.80
   7  -1   2   10.50    8.80
   7  -1   2   22.00    9.10
   8  -1   2  220.48   19.10
   8  -1   2  204.58   18.60
   8   0  -2   61.19   11.30
   7   0  -2  142.99   12.90
   7   0  -2  119.89   12.30
   6   0  -2  785.02   26.50
   5   0  -2 1251.07   35.40
   4   0  -2   78.39    8.00
   4   0  -2   61.39    6.50
   4   0  -2   51.99    6.70
   3   0  -2 1031.30   28.90
   3   0  -2 1045.10   29.80
   3   0  -2 1087.09   28.30
   2   0  -2  155.18    9.00
   2   0  -2  145.09   10.80
   1   0  -2  657.13   16.90
   1   0  -2  649.93   17.90
   0   0   2 3664.93   88.49
   0   0   2 3559.64   84.49
   1   0   2  884.91   24.80
   2   0   2 1203.78   33.60
   2   0   2 1243.58   32.00
   3   0   2   49.50    6.80
   3   0   2   42.10    6.80
   4   0   2  111.59   10.90
   4   0   2  108.09   10.40
   5   0   2  755.42   27.20
   5   0   2  732.83   25.50
   6   0   2  273.27   17.10
   6   0   2  243.38   17.20
   7   0   2   63.79   11.40
   7   0   2   67.19   11.60
   8   0   2    7.40   10.80
   8   0   2   -2.70    9.30
   8  -1  -2   33.40    9.20
   8  -1  -2   29.30    8.90
   7  -1  -2   21.40    7.10
   7  -1  -2    4.50    7.40
   6  -1  -2  179.28   12.40
   6  -1  -2  177.58   12.60
   5  -1  -2   -1.50    4.50
   5  -1  -2    3.00    4.70
   4  -1  -2   19.90    5.20
   4  -1  -2   22.10    5.50
   3  -1  -2   24.30    3.60
   2  -1  -2    3.50    5.10
   2  -1  -2    3.40    3.50
   2  -1  -2   -0.50    4.80
   1  -1  -2    0.60    3.50
   1  -1  -2    3.20    3.20
  -1   1   2    2.40    3.40
   0  -1  -2  829.92   22.60
   0   1   2  821.72   22.10
   1   1   2  377.36   13.50
   1   1   2  396.16   13.40
   2   1   2 1195.18   31.10
   2   1   2 1127.99   32.30
   3   1   2  932.61   27.80
   3   1   2  948.21   28.90
   4   1   2  131.29   11.40
   4   1   2  127.49   11.80
   5   1   2  193.68   15.00
   5   1   2  216.08   15.00
   6   1   2   67.29   10.50
   6   1   2   78.29   11.60
   7   1   2  501.35   24.70
   7   1   2  480.45   25.10
   9  -2  -2  304.57   19.90
   8  -2  -2  158.98   14.20
   8  -2  -2  134.39   13.70
   7  -2  -2   -3.90    5.70
   7  -2  -2   -2.60    6.20
   6  -2  -2  164.38   11.00
   6  -2  -2  178.48   12.30
   5  -2  -2  859.81   27.10
   5  -2  -2  831.72   24.80
   4  -2  -2 3679.13   91.69
   4  -2  -2 3884.81   96.89
   3  -2  -2  209.28   10.10
   3  -2  -2  215.68   10.10
   2  -2  -2  118.69    8.40
   2  -2  -2  104.29    7.60
   2  -2  -2  116.09    7.70
   1  -2  -2  496.85   16.30
   1  -2  -2  526.75   17.10
  -1   2   2  518.85   17.50
   0  -2  -2    5.50    6.60
   0   2   2    6.60    5.70
  -1  -2  -2  433.06   16.70
   1   2   2  440.76   14.60
   1   2   2  445.46   15.00
  -2  -2  -2 3330.67   87.39
   2   2   2 3415.36   86.89
   2   2   2 3440.66   82.79
  -3  -2  -2   82.29    9.80
   3   2   2   69.59    8.10
   3   2   2   74.29    8.20
   4   2   2  392.36   18.10
   4   2   2  392.56   18.10
   5   2   2  251.37   17.20
   5   2   2  259.77   16.80
   6   2   2   20.90    9.70
   6   2   2    8.90    8.70
   7   2   2  178.78   16.10
   7   2   2  128.79   15.30
   9  -3  -2  266.77   19.60
   9  -3  -2  297.77   18.70
   8  -3  -2    1.20    6.30
   8  -3  -2    7.30    8.00
   7  -3  -2   90.79   11.00
   7  -3  -2   81.09    9.10
   6  -3  -2   35.70    7.50
   6  -3  -2   22.60    5.50
   5  -3  -2  680.03   23.10
   5  -3  -2  624.04   19.70
   5  -3  -2  672.13   21.90
   4  -3  -2 1989.50   53.79
   4  -3  -2 1975.10   51.39
   3  -3  -2  579.24   19.10
   3  -3  -2  603.54   19.40
   2  -3  -2  834.42   23.70
  -2   3   2  844.82   24.40
   1  -3  -2  305.77   12.70
   1  -3  -2  339.57   12.20
  -1   3   2  353.36   13.40
   0  -3  -2 3461.55   87.89
   0   3   2 3455.95   87.49
  -1  -3  -2 2125.89   58.09
   1   3   2 2157.88   53.69
   1   3   2 2208.68   56.99
  -2  -3  -2 1138.49   35.90
   2   3   2 1140.99   32.70
   2   3   2 1199.68   34.30
  -3  -3  -2   35.00    9.00
   3   3   2   27.40    7.40
   3   3   2   39.00    7.70
  -4  -3  -2   13.90    9.30
   4   3   2   13.20    8.00
   4   3   2   -0.50    7.30
  -5  -3  -2  448.16   24.10
   5   3   2  458.25   22.50
   5   3   2  485.55   22.80
   6   3   2   42.70   10.80
   6   3   2   36.80   10.60
   7   3   2   18.20   10.90
   7   3   2    4.50   10.90
   9  -4  -2    3.90    8.10
   9  -4  -2   -4.60    7.60
   8  -4  -2   47.60   10.30
   8  -4  -2   49.60    8.70
   7  -4  -2   55.89    9.50
   6  -4  -2   17.60    7.10
   6  -4  -2   17.40    6.90
   6  -4  -2   21.20    5.40
   5  -4  -2  300.27   15.40
   5  -4  -2  306.87   15.40
   4  -4  -2  521.65   19.80
   4  -4  -2  527.95   19.80
   3  -4  -2  255.27   13.40
   2  -4  -2  125.49    9.90
  -2   4   2  126.29   10.20
   1  -4  -2  351.36   14.90
  -1   4   2  379.56   14.80
   0  -4  -2  557.24   21.20
   0   4   2  536.15   19.10
  -1  -4  -2  272.87   17.80
   1   4   2  279.67   13.70
   1   4   2  288.07   14.50
  -2  -4  -2  729.43   27.00
   2   4   2  708.23   24.00
   2   4   2  772.32   25.30
  -3  -4  -2   19.30    9.30
   3   4   2   11.90    7.80
   3   4   2    5.50    7.30
  -4  -4  -2  381.16   22.40
   4   4   2  439.46   21.20
   4   4   2  364.86   20.10
  -5  -4  -2  278.27   21.70
   5   4   2  270.37   19.40
   5   4   2  314.37   20.30
  -6  -4  -2   55.79   13.30
   6   4   2   59.49   12.30
   6   4   2   49.80   12.30
   9  -5  -2    8.20    9.10
   8  -5  -2  260.97   18.80
   7  -5  -2  746.33   28.90
   6  -5  -2   67.69    9.80
   6  -5  -2   73.59   10.20
   5  -5  -2  464.75   20.20
   5  -5  -2  494.05   20.30
   4  -5  -2  504.05   19.80
   4  -5  -2  488.95   19.70
   3  -5  -2   76.79    9.00
  -3   5   2   77.29    9.50
   2  -5  -2 3345.37   83.59
  -2   5   2 3414.26   87.49
   1  -5  -2  545.05   21.80
  -1   5   2  590.14   20.50
   0  -5  -2  271.07   17.00
   0   5   2  278.77   14.70
  -1  -5  -2 1786.52   52.49
   1   5   2 1840.02   51.39
   1   5   2 1862.61   47.70
  -2  -5  -2  274.97   17.90
   2   5   2  321.07   17.10
   2   5   2  293.87   15.60
  -3  -5  -2   -2.90    8.90
   3   5   2   -4.10    7.90
   3   5   2   -7.90    7.90
  -4  -5  -2  458.65   25.30
   4   5   2  447.76   22.40
   4   5   2  449.46   23.80
  -5  -5  -2    0.50   11.10
   5   5   2   -3.60    9.40
   5   5   2   -7.50   10.20
  -6  -5  -2   80.69   15.50
   6   5   2   73.79   14.70
   6   5   2   85.89   13.70
   9  -6  -2   45.60   11.60
   8  -6  -2    2.20    9.40
   8  -6  -2   -5.70    8.60
   7  -6  -2   62.19   11.30
   7  -6  -2   41.30   11.10
   6  -6  -2  130.29   12.90
   6  -6  -2  122.59   13.00
   5  -6  -2  230.98   16.00
   5  -6  -2  230.08   15.70
   4  -6  -2   91.39   10.20
   3  -6  -2    9.40    6.80
  -3   6   2  -13.40    7.20
   2  -6  -2   32.60    6.90
  -2   6   2   20.80    7.90
   1  -6  -2   -9.60    7.70
  -1   6   2    3.70    6.60
   0  -6  -2  222.08   16.30
   0   6   2  186.68   13.30
  -1  -6  -2   13.30    9.00
   1   6   2    9.80    8.20
   1   6   2    9.80    6.70
  -2  -6  -2    8.60    9.10
   2   6   2    0.00    9.10
   2   6   2    0.10    7.40
  -3  -6  -2   49.30   11.50
   3   6   2   38.10   10.30
   3   6   2   32.80   11.60
  -4  -6  -2  101.79   14.70
   4   6   2   66.79   13.60
   4   6   2   82.29   12.20
  -5  -6  -2   19.60   11.90
   5   6   2  -13.10   11.00
   5   6   2    3.10   10.30
   8  -7  -2  343.17   22.00
   8  -7  -2  336.57   22.30
   7  -7  -2  182.68   17.40
   7  -7  -2  151.68   15.60
   6  -7  -2   54.09   10.90
   6  -7  -2   45.40   11.20
   5  -7  -2   58.59   10.70
   4  -7  -2   35.20    8.60
  -4   7   2   55.19   10.10
   3  -7  -2 1206.68   36.30
  -3   7   2 1212.68   37.80
  -2   7   2 2472.45   67.39
   1  -7  -2  428.86   21.60
  -1   7   2  469.45   19.00
   0  -7  -2   -9.70    9.00
   0   7   2    8.60    7.90
  -1  -7  -2  337.77   21.50
   1   7   2  347.97   16.70
   1   7   2  306.47   18.90
  -2  -7  -2  262.77   20.90
   2   7   2  230.28   19.20
   2   7   2  241.78   16.80
  -3  -7  -2 1193.18   41.50
   3   7   2 1079.59   41.40
   3   7   2 1137.69   37.00
  -4  -7  -2  409.86   26.20
   4   7   2  426.96   22.40
   4   7   2  326.37   25.40
   8  -8  -2  150.68   17.00
   8  -8  -2  148.99   16.60
   7  -8  -2   38.70   11.90
   7  -8  -2   33.80   11.80
   6  -8  -2  321.47   21.70
   5  -8  -2  570.04   25.40
  -5   8   2  592.44   25.70
   4  -8  -2   90.19   11.20
  -4   8   2   84.09   12.20
   3  -8  -2  435.56   20.30
  -3   8   2  411.46   20.60
  -2   8   2  248.08   15.50
   1  -8  -2  -10.70    9.90
  -1   8   2    4.20    8.20
   0  -8  -2   47.60   12.50
   0   8   2   84.49   12.30
  -1  -8  -2   13.90   12.20
   1   8   2   34.50   11.00
  -2  -8  -2   18.80   13.30
   2   8   2   17.40    9.70
   2   8   2   -7.10   11.70
  -3  -8  -2  122.79   15.80
   3   8   2   68.69   15.20
   3   8   2  106.19   12.70
  -4  -8  -2   14.50   12.90
   4   8   2  -23.60   12.70
   4   8   2   24.60   10.70
   8  -9  -2   60.29   15.30
   7  -9  -2  106.59   15.80
   6  -9  -2  139.29   16.10
  -6   9   2  151.28   16.80
   5  -9  -2   -7.70    9.80
  -5   9   2    4.10   10.40
   4  -9  -2   50.59   11.30
  -4   9   2   63.39   12.60
   3  -9  -2    1.60    8.80
  -3   9   2    2.20   10.00
  -2   9   2    0.10    8.50
   1  -9  -2    5.50   11.20
  -1   9   2   23.00    9.60
   0   9   2  186.98   17.40
  -1  -9  -2  117.79   16.90
   1   9   2  109.59   14.40
  -2  -9  -2  118.09   17.30
   2   9   2  110.59   16.30
  -3  -9  -2   84.99   17.90
   3   9   2   40.50   14.60
   7 -10  -2   92.19   16.90
  -7  10   2   75.79   15.70
   6 -10  -2  399.26   24.20
  -6  10   2  407.66   24.50
   5 -10  -2  149.79   15.70
  -5  10   2  114.99   16.10
   4 -10  -2   -9.30    9.00
  -4  10   2    4.30   11.00
   3 -10  -2  116.99   12.80
  -3  10   2   94.09   13.30
  -2  10   2   44.20   10.80
  -1  10   2  442.46   22.50
   0 -10  -2  407.56   28.10
   0  10   2  412.56   23.30
  -1 -10  -2   -4.30   14.80
   1  10   2    7.70   11.30
  -2 -10  -2    7.40   14.80
   2  10   2    2.40   13.30
   6 -11  -2   13.20   11.60
  -6  11   2   24.00   15.60
   5 -11  -2   25.90   10.90
  -5  11   2   43.80   13.10
   4 -11  -2  103.59   14.10
  -4  11   2  100.29   14.90
   3 -11  -2   58.89   12.10
  -3  11   2   72.59   11.90
  -2  11   2    2.00   10.00
   1 -11  -2   27.20   13.90
  -1  11   2    3.80   10.40
   0 -11  -2   15.30   14.80
   0  11   2   13.60   11.20
   5 -12  -2   15.10   10.80
  -5  12   2   17.40   13.70
   4 -12  -2  247.38   20.90
  -4  12   2  241.28   20.70
   3 -12  -2   26.20   10.40
  -3  12   2   38.60   11.30
  -2  12   2   29.90   12.10
  -2  12  -3  105.89   13.00
   2 -12   3  104.39   15.60
  -3  12  -3  132.19   16.20
   3 -12   3  155.48   16.70
  -4  12  -3  118.79   17.20
   4 -12   3  141.59   17.90
   1  11  -3   -2.20   10.30
  -1  11  -3   37.80   10.10
  -2  11  -3   21.30   11.10
   2 -11   3   33.40   11.80
  -3  11  -3  125.59   15.50
   3 -11   3  145.39   16.80
  -4  11  -3    5.00   12.40
   4 -11   3   35.30   13.30
  -5  11  -3   81.39   15.20
   5 -11   3   79.19   15.10
   6 -11   3  165.98   21.20
   3  10  -3  118.09   15.50
  -3 -10   3  149.39   22.40
   2  10  -3   20.20   10.60
   1  10  -3  263.37   19.70
  -1 -10   3  290.87   24.10
   0  10  -3  235.48   19.00
  -1  10  -3   74.29   10.50
  -1  10  -3   70.19   12.00
   1 -10   3   52.39   11.80
  -2  10  -3  212.68   17.90
  -2  10  -3  222.08   18.90
   2 -10   3  228.38   19.50
  -3  10  -3  144.99   15.30
   3 -10   3  148.69   15.90
  -4  10  -3   -4.60   11.40
   4 -10   3    3.80   10.70
   5 -10   3  289.37   25.00
   6 -10   3   76.39   17.00
   6 -10   3   77.89   12.80
   4   9  -3   20.30   11.00
  -4  -9   3   47.20   18.40
   3   9  -3   66.19   12.60
  -3  -9   3   97.69   18.40
   2   9  -3    6.90   10.30
  -2  -9   3   29.70   13.70
   1   9  -3  224.48   18.60
  -1  -9   3  238.88   21.90
   0   9  -3   15.60   10.80
   0   9  -3   17.90    7.90
  -1   9  -3  -10.90    9.00
  -1   9  -3   -6.10    8.50
   1  -9   3   -5.70    9.30
  -2   9  -3   -6.30    8.00
  -2   9  -3  -15.00    9.50
   2  -9   3    4.80    9.80
  -3   9  -3   11.40   10.00
  -3   9  -3    2.00    7.80
   3  -9   3   23.60   10.90
  -4   9  -3   99.19   10.40
   4  -9   3   80.39   14.00
  -5   9  -3   27.60    9.70
   5  -9   3   23.00   14.50
   5  -9   3   20.80    9.80
   6  -9   3  -15.30   13.70
   6  -9   3    1.70    9.20
   7  -9   3  -12.70   13.40
   7  -9   3    7.90    9.20
   5   8  -3  112.89   14.90
  -5  -8   3  164.78   24.00
   4   8  -3   10.50   10.40
  -4  -8   3   34.50   17.60
   3   8  -3    1.50   10.40
  -3  -8   3   18.50   15.10
   2   8  -3   53.99   11.60
  -2  -8   3   78.79   15.20
   1   8  -3  863.91   29.30
   1   8  -3  882.31   30.50
   0   8  -3  887.11   29.70
   0   8  -3  875.21   28.60
  -1   8  -3   -4.80    7.50
  -1   8  -3    9.10    8.60
   1  -8   3    6.60    8.50
  -2   8  -3   -2.70    8.10
  -2   8  -3  -18.20    6.40
   2  -8   3   19.60    9.50
  -3   8  -3   -2.70    6.60
   3  -8   3    9.90   10.00
  -4   8  -3  280.97   15.30
   4  -8   3  236.18   17.10
   4  -8   3  224.98   20.90
  -5   8  -3 1038.60   32.70
   5  -8   3 1073.59   36.90
   5  -8   3 1066.89   40.20
  -6   8  -3  331.27   19.40
   6  -8   3  319.77   20.10
   6  -8   3  299.67   24.80
  -7   8  -3   11.50   10.20
   7  -8   3   11.40   13.50
   7  -8   3   -2.90    8.30
   5   7  -3   -3.70   10.00
  -5  -7   3    1.30   17.60
   4   7  -3  196.98   18.90
  -4  -7   3  194.58   22.40
   3   7  -3  207.48   18.10
  -3  -7   3  171.08   19.10
   2   7  -3  397.76   20.20
  -2  -7   3  361.46   23.00
   1   7  -3  860.31   28.00
   1   7  -3  861.21   28.90
   0   7  -3  888.81   27.60
   0   7  -3  860.81   28.00
  -1   7  -3  437.76   17.20
  -1   7  -3  363.36   16.50
   1  -7   3  438.56   19.60
  -2   7  -3  122.39   11.30
   2  -7   3  120.69   11.90
  -3   7  -3   11.40    6.70
   3  -7   3   10.30    9.20
   3  -7   3    5.70    7.00
  -4   7  -3  739.33   24.40
   4  -7   3  715.73   30.10
   4  -7   3  742.93   27.40
  -5   7  -3  371.26   19.00
   5  -7   3  384.46   20.30
   5  -7   3  378.66   24.20
  -6   7  -3   61.69   11.90
   6  -7   3   41.50   13.20
   6  -7   3   39.30   10.20
  -7   7  -3  -11.80   11.20
   7  -7   3   -5.10    8.00
   7  -7   3   -8.50   11.20
  -8   7  -3    6.30   12.40
   8  -7   3   14.80   11.80
   6   6  -3    1.90   10.80
  -6  -6   3   13.60   16.50
   5   6  -3   26.40   10.60
  -5  -6   3    0.70   14.60
   4   6  -3   21.10   10.60
  -4  -6   3   23.50   14.60
   3   6  -3    5.00    8.90
  -3  -6   3   21.60   12.00
   2   6  -3   35.80    9.00
  -2  -6   3   41.80   11.20
   1   6  -3  157.78   13.90
  -1  -6   3  145.89   14.80
   0   6  -3  397.26   17.50
   0   6  -3  434.16   16.60
   0  -6   3  418.76   18.20
  -1   6  -3    3.90    4.70
  -1   6  -3    6.90    5.90
   1  -6   3   -0.80    7.70
  -2   6  -3   27.70    6.60
   2  -6   3   24.70    8.80
   2  -6   3   18.60    6.40
  -3   6  -3  145.89   11.60
   3  -6   3  169.88   12.90
   3  -6   3  159.78   14.00
  -4   6  -3  257.77   15.00
   4  -6   3  232.18   15.00
   4  -6   3  233.98   19.00
  -5   6  -3   -5.00    9.20
   5  -6   3   -9.50    9.40
   5  -6   3    0.20    7.50
  -6   6  -3  113.69   13.60
   6  -6   3  145.79   14.50
   6  -6   3  109.39   14.90
  -7   6  -3  110.99   14.80
   7  -6   3  114.39   14.80
  -8   6  -3   34.10   14.00
   8  -6   3   20.80   11.90
   6   5  -3    1.50    9.50
  -6  -5   3    4.10   15.30
   5   5  -3  554.84   25.30
  -5  -5   3  563.94   31.10
   4   5  -3  317.37   19.50
  -4  -5   3  321.77   22.90
   3   5  -3  149.59   14.40
  -3  -5   3  136.79   14.30
   2   5  -3  231.88   15.00
  -2  -5   3  244.58   16.60
   1   5  -3  334.87   15.80
  -1  -5   3  297.37   17.00
   0   5  -3  829.52   25.40
   0   5  -3  875.11   25.30
   0  -5   3  813.42   26.80
  -1   5  -3 2697.53   66.39
   1  -5   3 2700.93   69.59
  -2   5  -3 1854.61   48.00
   2  -5   3 1925.91   51.89
   2  -5   3 1889.91   51.69
  -3   5  -3  553.24   19.80
   3  -5   3  594.14   23.50
   3  -5   3  553.54   21.00
  -4   5  -3  571.64   21.70
   4  -5   3  587.34   24.70
   4  -5   3  554.04   22.30
  -5   5  -3  118.09   12.50
   5  -5   3  133.89   13.50
   5  -5   3  120.69   12.10
  -6   5  -3  922.51   32.80
   6  -5   3  908.11   33.70
   7  -5   3  435.36   24.40
   8  -5   3   99.49   15.70
   7   4  -3   90.09   14.30
  -7  -4   3  104.49   19.40
   6   4  -3    9.70    9.70
  -6  -4   3    2.40   13.80
   5   4  -3   71.29   11.20
  -5  -4   3  103.99   15.50
   4   4  -3  324.57   18.30
   3   4  -3   65.09    9.10
   2   4  -3 1393.56   38.90
   1   4  -3 1302.77   35.70
   0   4  -3  163.88   10.30
   0  -4   3  166.88   11.50
  -1   4  -3  211.68   11.10
   1  -4   3  225.48   13.80
   1  -4   3  215.38   10.60
  -2   4  -3  -14.60    6.20
   2  -4   3   -6.60    5.20
   2  -4   3    8.30    8.40
  -3   4  -3  294.87   15.40
   3  -4   3  288.27   14.80
   3  -4   3  294.47   17.30
  -4   4  -3  198.18   14.40
   4  -4   3  186.08   15.20
   4  -4   3  189.78   13.20
   5  -4   3   43.00    8.30
   6  -4   3    5.10    8.80
   7  -4   3    0.40    9.40
   7  -4   3   11.10    8.20
   8  -4   3   -4.40    8.20
   8  -4   3    0.30   10.40
   7   3  -3   -0.30    9.20
  -7  -3   3   -7.10   14.00
   6   3  -3    0.20    8.80
   5   3  -3    8.20    7.70
   4   3  -3   10.70    7.20
   4   3  -3   14.00    7.40
   3   3  -3  195.28   13.30
   3   3  -3  189.68   13.60
   2   3  -3  158.68   11.40
   2   3  -3  146.99   12.10
   1   3  -3   48.60    6.30
   1   3  -3   44.60    5.90
   0   3  -3 2245.78   55.39
   0  -3   3 2304.47   56.69
  -1   3  -3 2370.16   56.09
   1  -3   3 2165.78   57.89
   1  -3   3 2349.86   59.29
  -2   3  -3    8.30    6.10
   2  -3   3   -0.50    4.60
   2  -3   3    5.20    7.10
  -3   3  -3 1264.07   36.20
   3  -3   3 1325.27   37.90
   4  -3   3   60.49    7.40
   4  -3   3   54.29    8.30
   5  -3   3  450.65   18.40
   5  -3   3  468.55   20.60
   6  -3   3  808.52   31.00
   6  -3   3  837.82   28.00
   7  -3   3  545.55   23.20
   7  -3   3  535.15   26.20
   8  -3   3   38.10   11.60
   8  -3   3   34.90   10.20
   8   2  -3  155.78   16.70
  -8  -2   3  160.98   21.10
   7   2  -3   27.50   10.10
   6   2  -3  285.37   17.70
   5   2  -3  698.93   25.10
   5   2  -3  678.93   25.30
   4   2  -3    7.70    6.90
   4   2  -3    2.80    5.80
   3   2  -3 2544.05   64.29
   3   2  -3 2555.54   66.79
   2   2  -3 1138.39   32.20
   2   2  -3 1141.89   31.00
   1   2  -3   41.40    6.10
   1   2  -3   48.10    6.20
  -1  -2   3   37.80    5.40
   0   2  -3 1844.42   45.90
   0  -2   3 1883.41   46.90
  -1   2  -3 1568.84   39.00
   1  -2   3 1574.64   41.00
   1  -2   3 1508.75   40.20
  -2   2  -3  371.16   14.50
   2  -2   3  403.36   15.70
   2  -2   3  353.86   14.30
   3  -2   3  818.42   26.10
   3  -2   3  784.02   23.90
   4  -2   3  769.62   24.10
   4  -2   3  779.22   26.50
   5  -2   3  318.47   15.60
   5  -2   3  293.67   16.90
   6  -2   3  349.96   20.10
   6  -2   3  370.56   18.40
   7  -2   3   87.39   12.90
   7  -2   3   83.79   11.70
   8  -2   3  111.29   15.10
   8  -2   3  129.39   14.10
   8   1  -3   -4.30    8.80
   7   1  -3    0.30    8.10
   6   1  -3  680.63   25.30
   6   1  -3  696.63   25.00
   6   1  -3  633.44   23.30
   5   1  -3 1184.28   36.00
   5   1  -3 1187.58   34.40
   5   1  -3 1202.58   35.20
   4   1  -3   -4.90    4.90
   4   1  -3   -1.30    6.30
   3   1  -3   30.20    7.00
   3   1  -3   33.90    5.90
   2   1  -3 3764.22   89.69
   2   1  -3 3733.03   93.89
   1   1  -3   46.00    6.50
   1   1  -3   29.40    6.60
  -1  -1   3   32.70    5.90
   0   1  -3  254.57   11.20
   0  -1   3  243.08   11.90
  -1   1  -3   12.30    5.70
   1  -1   3    8.60    4.70
   2  -1   3  739.03   22.70
   2  -1   3  724.73   21.10
   3  -1   3  492.35   18.90
   3  -1   3  466.95   17.10
   4  -1   3  418.56   18.00
   4  -1   3  404.26   16.60
   5  -1   3   55.99    9.30
   5  -1   3   67.09    8.70
   6  -1   3   22.20    8.50
   6  -1   3   16.80    7.90
   7  -1   3   29.00    9.60
   7  -1   3   19.90    9.80
   8  -1   3  234.48   21.10
   8  -1   3  227.08   19.60
   8   0  -3   58.49   11.20
   7   0  -3    2.80    6.30
   7   0  -3    4.30    7.70
   7   0  -3   -6.80    7.50
   6   0  -3  427.86   18.60
   6   0  -3  409.46   17.30
   6   0  -3  413.36   18.60
   5   0  -3  181.08   12.90
   5   0  -3  177.38   10.20
   5   0  -3  186.28   11.40
   4   0  -3  394.16   14.80
   4   0  -3  386.96   16.70
   3   0  -3 2630.14   63.99
   3   0  -3 2606.24   67.39
   2   0  -3 2053.19   49.80
   2   0  -3 2032.90   52.39
   1   0  -3  666.93   19.80
   0   0   3  722.73   20.20
   0   0   3  728.83   20.00
   1   0   3  184.38    9.20
   1   0   3  187.98    9.30
   2   0   3 1225.18   34.40
   2   0   3 1234.38   32.60
   3   0   3 2486.45   63.49
   3   0   3 2559.54   67.19
   4   0   3  163.48   12.00
   4   0   3  149.59   12.50
   5   0   3  243.18   15.20
   5   0   3  245.68   16.40
   6   0   3  346.27   19.40
   6   0   3  347.77   20.20
   7   0   3  145.69   14.40
   7   0   3  154.58   15.80
   8  -1  -3  114.39   12.40
   7  -1  -3    6.50    6.80
   7  -1  -3    1.10    3.30
   6  -1  -3  268.17   13.00
   5  -1  -3   -3.50    4.20
   5  -1  -3   -2.30    4.00
   4  -1  -3 1164.28   33.00
   4  -1  -3 1114.09   30.50
   4  -1  -3 1106.89   31.90
   3  -1  -3 1529.35   39.40
   3  -1  -3 1546.75   41.30
   3  -1  -3 1548.45   40.80
   3  -1  -3 1581.54   38.70
   2  -1  -3  734.43   20.70
   2  -1  -3  747.93   21.50
   1  -1  -3 2922.21   72.39
   1  -1  -3 3059.89   75.59
  -1   1   3 3103.89   75.29
   0  -1  -3 1168.68   31.20
   0   1   3 1124.29   30.50
   1   1   3  481.05   15.80
   1   1   3  503.25   15.40
   2   1   3  245.08   12.30
   2   1   3  239.08   12.00
   3   1   3  427.56   16.90
   3   1   3  400.16   17.10
   4   1   3   23.90    7.40
   4   1   3   40.10    7.80
   5   1   3  107.09   11.10
   5   1   3   85.99   11.30
   6   1   3   41.50   10.10
   6   1   3   44.00   10.20
   7   1   3   13.40    9.40
   7   1   3   12.80    9.90
   9  -2  -3   93.79   12.00
   8  -2  -3   46.00    8.70
   8  -2  -3   29.70    8.40
   7  -2  -3    0.70    5.90
   7  -2  -3   -0.90    5.80
   6  -2  -3  228.48   12.00
   6  -2  -3  200.28   12.70
   4  -2  -3  405.46   14.50
   4  -2  -3  386.16   13.10
   4  -2  -3  313.37   13.50
   3  -2  -3  682.73   20.10
   3  -2  -3  663.23   20.20
   2  -2  -3 1930.41   49.00
   2  -2  -3 1867.11   47.30
   1  -2  -3  567.84   17.70
   1  -2  -3  549.35   16.60
  -1   2   3  559.14   17.30
   0  -2  -3 1888.01   50.39
   0   2   3 1976.10   50.19
  -1  -2  -3    1.80    5.80
   1   2   3    1.10    4.50
   1   2   3   -2.60    4.60
  -2  -2  -3   -2.80    8.00
   2   2   3    2.00    6.10
   2   2   3    4.60    6.10
   3   2   3   38.10    7.40
   3   2   3   30.30    7.20
   4   2   3  658.13   24.20
   4   2   3  688.33   25.40
   5   2   3  305.27   18.20
   5   2   3  311.37   18.90
   6   2   3   28.40   10.10
   6   2   3   27.70   10.20
   7   2   3   43.30   11.90
   7   2   3   44.60   12.50
   9  -3  -3  158.48   15.50
   8  -3  -3   26.30    7.50
   8  -3  -3   36.80    9.10
   7  -3  -3   81.59    8.50
   7  -3  -3   70.39    9.80
   6  -3  -3   24.90    6.90
   6  -3  -3   34.80    7.50
   6  -3  -3   43.50    5.80
   5  -3  -3  198.48   12.10
   5  -3  -3  198.28   12.10
   5  -3  -3  201.98    9.50
   4  -3  -3 1323.77   37.50
   4  -3  -3 1314.97   36.50
   3  -3  -3  139.19   10.20
   2  -3  -3  266.27   11.50
   2  -3  -3  255.47   11.30
  -2   3   3  266.57   12.00
   1  -3  -3 1167.78   32.60
  -1   3   3 1163.18   32.20
   0  -3  -3    1.20    5.80
   0   3   3   -3.40    5.10
  -1  -3  -3 1681.63   48.20
   1   3   3 1721.13   46.60
   1   3   3 1719.93   43.90
  -2  -3  -3  906.51   31.00
   2   3   3  962.10   29.70
   2   3   3  953.30   28.20
  -3  -3  -3   19.60    8.80
   3   3   3   14.80    7.30
   3   3   3   17.70    7.50
  -4  -3  -3  451.75   22.80
   4   3   3  482.75   22.00
   4   3   3  477.25   21.20
   5   3   3  109.39   12.80
   5   3   3  132.89   14.20
  -6  -3  -3   74.09   13.90
   6   3   3   79.79   12.20
   6   3   3   61.49   12.50
   9  -4  -3    7.10    7.90
   8  -4  -3    3.50    7.70
   7  -4  -3  408.56   20.00
   7  -4  -3  432.06   17.20
   6  -4  -3    6.00    6.40
   6  -4  -3    6.20    7.10
   6  -4  -3    0.80    4.30
   5  -4  -3  570.64   20.90
   5  -4  -3  559.34   21.00
   4  -4  -3  810.52   25.70
   4  -4  -3  825.32   26.30
   3  -4  -3  100.09    8.80
  -3   4   3   92.29    9.20
   2  -4  -3   98.99    9.30
   2  -4  -3   82.69    7.60
  -2   4   3   76.19    8.40
   1  -4  -3   38.80    7.20
  -1   4   3   36.20    6.80
   0  -4  -3  117.09   11.50
   0   4   3  146.89   11.70
  -1  -4  -3  545.95   22.70
   1   4   3  551.94   20.50
   1   4   3  542.25   18.70
  -2  -4  -3  410.46   20.90
   2   4   3  440.26   18.70
   2   4   3  450.95   17.90
  -3  -4  -3   -3.50    8.60
   3   4   3   -7.00    7.40
   3   4   3   -2.40    7.80
  -4  -4  -3   15.80   10.20
   4   4   3   17.50    9.60
   4   4   3   11.50    9.40
  -5  -4  -3  284.27   20.90
   5   4   3  247.28   18.80
   5   4   3  246.58   20.10
  -6  -4  -3   15.00   11.30
   6   4   3   -4.70   10.10
   6   4   3   11.90    9.70
   9  -5  -3   52.29   10.80
   8  -5  -3    7.40    8.70
   8  -5  -3   -0.40    8.10
   7  -5  -3   92.29   11.70
   7  -5  -3   66.69   11.20
   6  -5  -3   21.20    8.40
   6  -5  -3   34.70    8.00
   5  -5  -3   -4.00    6.00
   5  -5  -3   -2.60    6.70
   4  -5  -3   25.50    7.20
   3  -5  -3   87.99    8.90
  -3   5   3   73.89    9.30
   2  -5  -3  776.32   25.30
   2  -5  -3  778.62   24.50
  -2   5   3  763.32   25.80
   1  -5  -3  536.15   21.70
  -1   5   3  551.84   19.90
   0  -5  -3  275.77   16.90
   0   5   3  234.38   14.30
  -1  -5  -3  347.97   19.30
   1   5   3  341.37   15.00
   1   5   3  353.16   17.10
  -2  -5  -3  153.28   14.10
   2   5   3  165.08   14.50
   2   5   3  160.18   13.30
  -3  -5  -3  268.77   19.20
   3   5   3  271.17   18.70
   3   5   3  240.38   16.80
  -4  -5  -3  464.15   24.60
   4   5   3  469.55   24.80
   4   5   3  394.96   22.00
  -5  -5  -3   65.49   13.00
   5   5   3   49.20   13.60
   5   5   3   48.70   11.90
   9  -6  -3   93.29   13.20
   8  -6  -3  691.53   29.20
   8  -6  -3  712.33   28.90
   7  -6  -3  990.20   35.50
   7  -6  -3 1010.80   35.00
   6  -6  -3   47.90    9.40
   6  -6  -3   44.10    9.60
   5  -6  -3  446.06   20.50
   4  -6  -3  123.99   11.20
  -4   6   3  135.99   12.00
   3  -6  -3  913.61   29.00
  -3   6   3  920.91   29.80
   2  -6  -3 3856.31  101.79
   2  -6  -3 3938.91   97.39
  -2   6   3 4065.89  102.39
   1  -6  -3  498.65   21.70
  -1   6   3  480.05   19.20
   0  -6  -3   -4.50    8.80
   0   6   3   -0.90    7.40
  -1  -6  -3   86.09   12.20
   1   6   3  105.49   11.70
   1   6   3   94.29    9.20
  -2  -6  -3   35.60   10.90
   2   6   3   53.69    9.40
   2   6   3   43.60   11.10
  -3  -6  -3  894.11   35.10
   3   6   3  959.40   36.20
   3   6   3  929.31   31.80
  -4  -6  -3  310.17   22.60
   4   6   3  285.57   19.50
   4   6   3  301.47   23.20
  -5  -6  -3   41.90   12.90
   5   6   3   14.70   12.60
   5   6   3   30.20   11.70
   8  -7  -3  118.49   14.90
   8  -7  -3  142.29   15.00
   7  -7  -3   47.40   11.40
   7  -7  -3   49.20   11.00
   6  -7  -3   10.30    9.70
   5  -7  -3   77.89   10.90
  -5   7   3   93.49   11.80
   4  -7  -3   -5.20    7.00
  -4   7   3    0.00    8.50
   3  -7  -3   47.60    8.70
  -3   7   3   47.30    9.60
   2  -7  -3   97.09   10.90
  -2   7   3   96.29   10.20
   1  -7  -3   10.60    9.90
  -1   7   3   14.60    8.10
   0  -7  -3    4.20    9.80
   0   7   3    7.40    8.50
  -1  -7  -3  126.29   14.80
   1   7   3  140.69   14.10
  -2  -7  -3   36.50   11.40
   2   7   3    0.90   11.10
   2   7   3   13.80    9.20
  -3  -7  -3    9.00   11.70
   3   7   3   13.30    9.90
   3   7   3   -4.90   11.50
  -4  -7  -3   14.90   12.10
   4   7   3  -11.70   12.10
   4   7   3    9.90   10.00
   8  -8  -3  103.59   14.40
   8  -8  -3  106.49   15.30
   7  -8  -3   15.20   11.00
   6  -8  -3  112.49   14.70
  -6   8   3  121.19   14.90
   5  -8  -3  297.57   19.10
  -5   8   3  288.87   19.40
   4  -8  -3   -0.40    8.10
  -4   8   3    5.60    8.50
   3  -8  -3 1012.40   32.40
  -3   8   3  986.00   33.80
   2  -8  -3  441.76   22.70
  -2   8   3  458.95   20.10
   1  -8  -3   -0.50   10.30
  -1   8   3   13.30    8.80
   0  -8  -3  438.36   26.00
   0   8   3  498.05   23.10
  -1  -8  -3   20.70   13.20
   1   8   3   22.80   11.50
  -2  -8  -3  333.37   24.70
   2   8   3  259.97   22.00
  -3  -8  -3  374.66   24.70
   3   8   3  289.07   24.70
   8  -9  -3   65.19   14.10
   7  -9  -3   31.20   12.20
  -7   9   3   26.10   13.10
   6  -9  -3  345.47   22.10
  -6   9   3  364.96   23.10
   5  -9  -3  361.06   21.10
  -5   9   3  310.67   21.10
   4  -9  -3   41.20   10.60
  -4   9   3   39.50   10.90
   3  -9  -3  560.44   23.50
  -3   9   3  511.95   23.70
   2  -9  -3   -1.30   10.60
  -2   9   3    5.80    8.50
   1  -9  -3  122.49   16.40
  -1   9   3  163.88   16.20
   0  -9  -3  346.77   25.40
   0   9   3  337.97   21.10
  -1  -9  -3   74.09   15.90
   1   9   3   78.79   14.00
  -2  -9  -3   54.89   15.70
   2   9   3   15.10   13.30
   7 -10  -3   30.70   15.00
  -7  10   3   56.69   15.10
   6 -10  -3   68.29   13.40
  -6  10   3   55.19   14.40
   5 -10  -3   98.79   14.20
  -5  10   3   99.29   13.50
   4 -10  -3   53.49   11.10
  -4  10   3   39.50   12.20
   3 -10  -3    0.40    8.80
  -3  10   3   16.10    9.90
  -2  10   3   45.30   11.20
   1 -10  -3  106.79   16.80
  -1  10   3  187.98   17.20
   0 -10  -3  264.77   25.50
   0  10   3  194.28   17.60
  -1 -10  -3    6.30   14.50
   1  10   3    3.00   11.40
   6 -11  -3  161.48   17.20
  -6  11   3  153.68   16.60
   5 -11  -3    0.40    9.70
  -5  11   3   21.80   12.50
   4 -11  -3   71.49   12.10
  -4  11   3   33.30   11.40
   3 -11  -3   17.40    9.30
  -3  11   3    2.40    9.40
  -2  11   3   19.60   10.90
   1 -11  -3  291.87   26.50
  -1  11   3  285.57   21.50
   0 -11  -3  270.17   26.30
   0  11   3  225.38   21.00
   4 -12  -3   11.40   10.50
  -4  12   3   18.00   11.30
  -3  12   3    2.90   10.00
  -2  12   3   11.00   11.30
   2 -12   4   54.19   13.40
  -3  12  -4  348.47   23.70
   3 -12   4  366.06   24.40
  -4  12  -4   11.70   14.10
   4 -12   4   15.00   13.00
   1  11  -4   -8.30   10.10
   0  11  -4  201.08   19.30
  -1  11  -4   25.90   11.90
  -2  11  -4   91.09   12.90
   2 -11   4  101.79   15.30
  -3  11  -4  143.49   16.10
   3 -11   4  149.59   17.00
  -4  11  -4  182.38   18.20
   4 -11   4  230.18   22.10
   5 -11   4   16.10   12.30
   3  10  -4    8.80   11.30
  -3 -10   4   29.80   16.70
   2  10  -4   29.10   11.40
   1  10  -4   25.70   11.00
   0  10  -4   50.29   12.60
  -1  10  -4   43.40    8.00
  -1  10  -4  110.49   13.30
   1 -10   4   71.89   13.10
  -2  10  -4   15.70   10.40
  -2  10  -4    7.20   10.00
   2 -10   4   25.90   12.20
  -3  10  -4  307.07   20.40
  -3  10  -4  318.47   18.60
   3 -10   4  275.77   21.90
  -4  10  -4   -0.50    9.50
   4 -10   4   -2.80   11.90
   5 -10   4  121.29   18.80
   5 -10   4  127.79   14.70
   6 -10   4   49.90   17.00
   6 -10   4   49.10   11.50
   4   9  -4   33.40   12.20
  -4  -9   4   46.70   19.50
   3   9  -4   -0.20   10.30
  -3  -9   4   -2.60   15.70
   2   9  -4  132.29   14.60
  -2  -9   4  174.18   19.10
   1   9  -4  896.21   32.40
   0   9  -4  764.32   29.30
  -1   9  -4   21.00    7.60
  -1   9  -4   18.10   10.50
   1  -9   4   23.50   10.30
  -2   9  -4   -3.80    8.90
  -2   9  -4   -5.80    8.50
   2  -9   4   -5.10    9.80
  -3   9  -4    1.70    8.60
   3  -9   4    8.60   11.00
  -4   9  -4  110.49   11.80
   4  -9   4  129.59   17.10
   4  -9   4  107.69   13.10
  -5   9  -4  938.71   30.60
   5  -9   4  923.81   39.00
   5  -9   4  894.21   34.40
  -6   9  -4   15.60    9.80
   6  -9   4   59.69   17.00
   6  -9   4   55.79   11.10
   7  -9   4    2.00   14.80
   7  -9   4   16.60   10.00
   5   8  -4   34.30   12.00
  -5  -8   4   39.90   21.40
   4   8  -4   55.89   12.80
  -4  -8   4   55.29   19.50
   3   8  -4   29.10   11.50
  -3  -8   4   51.99   16.00
   2   8  -4   85.59   12.60
  -2  -8   4   64.99   15.20
   1   8  -4  216.18   18.80
   0   8  -4   64.49    8.70
   0   8  -4   56.39   10.40
   0  -8   4   55.69   10.50
  -1   8  -4   26.00    8.60
  -1   8  -4   11.00    7.00
   1  -8   4   32.80   10.00
  -2   8  -4   73.79   10.20
  -2   8  -4   57.29    9.10
   2  -8   4   59.79   11.20
  -3   8  -4  170.38   13.50
   3  -8   4  141.99   14.60
   3  -8   4  165.28   15.60
  -4   8  -4  500.65   20.80
   4  -8   4  517.55   28.10
   4  -8   4  531.75   23.50
  -5   8  -4   22.30    9.50
   5  -8   4    8.30   13.90
   5  -8   4   16.40    8.90
  -6   8  -4  -16.20    9.70
   6  -8   4    7.00    8.80
   6  -8   4  -10.20   12.30
  -7   8  -4   91.89   13.30
   7  -8   4  122.09   14.40
   7  -8   4   83.29   17.00
   5   7  -4   66.59   12.40
  -5  -7   4   79.29   20.60
   4   7  -4  348.37   22.40
  -4  -7   4  401.46   30.70
   3   7  -4   16.90   10.30
  -3  -7   4   22.00   14.10
   2   7  -4   97.69   12.20
  -2  -7   4   80.19   14.00
   1   7  -4  501.65   22.10
   0   7  -4  113.89   11.20
   0   7  -4  108.39    9.80
   0  -7   4  101.59   11.40
  -1   7  -4  301.47   15.20
  -1   7  -4  238.38   13.30
   1  -7   4  282.47   17.70
  -2   7  -4  809.62   25.50
   2  -7   4  815.72   29.30
  -3   7  -4   13.90    7.20
   3  -7   4   -0.10   10.00
   3  -7   4   25.20    7.60
  -4   7  -4  447.96   19.40
   4  -7   4  434.26   20.90
   4  -7   4  466.05   25.70
  -5   7  -4  268.27   18.40
   5  -7   4  281.87   18.30
   5  -7   4  295.37   23.30
  -6   7  -4  -17.30    9.70
   6  -7   4   -1.00    8.10
   6  -7   4    8.20   12.80
  -7   7  -4  124.99   15.40
   7  -7   4  162.58   16.10
   6   6  -4   23.20   11.20
  -6  -6   4   27.90   16.40
   5   6  -4  203.38   18.80
  -5  -6   4  261.27   25.10
   4   6  -4  762.42   30.40
  -4  -6   4  802.02   36.10
   3   6  -4  531.85   23.70
  -3  -6   4  525.55   27.10
   2   6  -4  298.67   16.90
  -2  -6   4  269.77   19.30
   1   6  -4  948.91   30.00
   0   6  -4  130.39   12.00
   0  -6   4  107.29   11.10
  -1   6  -4 2561.14   63.99
   1  -6   4 2538.55   67.39
  -2   6  -4 1336.07   37.20
   2  -6   4 1345.17   41.10
   2  -6   4 1370.56   39.60
  -3   6  -4  133.99   12.20
   3  -6   4  130.49   12.20
   3  -6   4  144.39   13.80
  -4   6  -4  253.57   15.90
   4  -6   4  227.28   15.30
   4  -6   4  237.08   19.90
  -5   6  -4  -18.30    9.50
   5  -6   4    1.50   10.80
   5  -6   4    0.40    7.40
  -6   6  -4   70.29   12.80
   6  -6   4  108.59   13.20
  -7   6  -4  159.58   16.30
   7  -6   4  131.49   14.90
   6   5  -4   47.30   11.30
  -6  -5   4   88.59   18.40
   5   5  -4   36.30   10.60
  -5  -5   4   27.10   14.40
   4   5  -4   35.70   10.60
  -4  -5   4   22.60   12.80
   3   5  -4   85.09   10.90
   2   5  -4  141.29   13.10
   1   5  -4   39.60    8.00
   0   5  -4  338.77   15.20
   0  -5   4  327.17   16.60
  -1   5  -4  144.39   11.00
   1  -5   4  144.39   12.50
   1  -5   4  138.79   10.70
  -2   5  -4  189.38   12.20
   2  -5   4  194.98   12.30
   2  -5   4  187.78   15.70
  -3   5  -4  -10.30    6.80
   3  -5   4   -3.40    6.00
   3  -5   4    9.30    8.60
  -4   5  -4  128.49   12.00
   4  -5   4  143.79   12.90
   4  -5   4  147.79   14.80
  -5   5  -4  260.17   18.60
   5  -5   4  236.68   16.50
  -6   5  -4  101.09   13.90
   6  -5   4   79.49   12.10
  -7   5  -4  106.09   15.30
   7  -5   4   71.29   12.90
  -8   5  -4   -3.80   13.20
   8  -5   4   10.50   10.60
   7   4  -4   83.59   14.20
  -7  -4   4  136.99   20.60
   6   4  -4   49.00   11.40
  -6  -4   4   76.89   16.90
   5   4  -4  208.98   17.40
   4   4  -4  632.24   24.80
   3   4  -4  127.89   11.20
   3   4  -4  146.29   13.10
   2   4  -4  426.36   18.30
   2   4  -4  435.66   18.50
   1   4  -4  641.24   22.00
  -1  -4   4  661.13   21.70
   0   4  -4 4274.07  103.79
   0  -4   4 4399.06  105.49
  -1   4  -4 2763.92   68.39
   1  -4   4 2773.12   70.89
   1  -4   4 2812.82   71.69
  -2   4  -4  938.81   28.00
   2  -4   4  941.31   29.10
   2  -4   4  974.00   31.30
  -3   4  -4  225.88   14.90
   3  -4   4  245.18   16.50
   3  -4   4  233.58   13.90
  -4   4  -4  279.87   16.60
   4  -4   4  266.67   15.20
   5  -4   4  491.65   21.90
   6  -4   4 1325.07   43.90
   7  -4   4  640.64   29.60
   8  -4   4   15.00   12.30
   7   3  -4   10.20    9.90
   6   3  -4   59.89   10.90
   5   3  -4  553.24   23.30
   5   3  -4  569.64   24.00
   4   3  -4   -6.90    6.40
   4   3  -4    2.30    7.60
   3   3  -4  645.64   22.90
   3   3  -4  600.14   21.80
   2   3  -4  142.39   12.00
   2   3  -4  148.29   13.20
   1   3  -4   21.30    5.70
  -1  -3   4    8.70    5.70
   0   3  -4  154.38    9.00
   0  -3   4  157.68   11.00
  -1   3  -4  599.74   18.50
   1  -3   4  611.14   20.50
   1  -3   4  581.54   18.90
  -2   3  -4   65.69    8.10
   2  -3   4   65.89    7.30
   2  -3   4   65.99   10.00
  -3   3  -4    2.60    7.50
   3  -3   4    2.60    5.90
   3  -3   4    9.10    8.50
   4  -3   4  339.47   16.90
   5  -3   4   20.30    7.40
   5  -3   4   21.10    7.50
   6  -3   4   29.20    8.80
   6  -3   4   14.20    9.30
   7  -3   4    4.40    9.20
   7  -3   4   31.00    9.60
   8   2  -4   18.90   10.40
   7   2  -4  301.27   20.20
   6   2  -4  277.67   18.20
   6   2  -4  279.27   19.00
   5   2  -4  112.19   11.70
   5   2  -4  112.59   10.80
   4   2  -4   33.90    7.00
   4   2  -4   53.29    8.80
   3   2  -4  199.98   14.10
   3   2  -4  184.78   12.30
   2   2  -4  775.02   23.70
   2   2  -4  786.22   24.70
  -2  -2   4  800.82   22.50
   1   2  -4   37.40    5.60
   1   2  -4   32.10    5.90
  -1  -2   4   36.20    5.50
   0   2  -4  405.26   13.40
   0  -2   4  392.26   14.60
  -1   2  -4  131.69    9.00
   1  -2   4  128.19    8.10
   1  -2   4  121.49   10.20
  -2   2  -4  956.90   28.10
   2  -2   4  979.50   29.00
   3  -2   4 2237.48   60.79
   4  -2   4  417.46   18.60
   4  -2   4  436.86   17.30
   5  -2   4   14.50    7.50
   5  -2   4   19.90    7.00
   6  -2   4  398.56   19.70
   6  -2   4  406.36   22.20
   7  -2   4    5.30    8.20
   7  -2   4   -1.00    9.40
   8   1  -4  110.39   14.00
   7   1  -4    9.00    8.20
   7   1  -4    8.80    9.50
   6   1  -4  147.19   15.20
   6   1  -4  157.38   14.00
   5   1  -4  421.06   17.60
   5   1  -4  405.76   19.20
   4   1  -4 1688.13   47.30
   4   1  -4 1685.33   45.20
   3   1  -4 1771.32   46.10
   3   1  -4 1796.42   48.60
   2   1  -4   20.90    5.60
   2   1  -4   25.30    5.20
  -2  -1   4   25.70    4.80
   1   1  -4 2086.59   50.39
  -1  -1   4 2024.60   50.49
   0   1  -4    9.30    4.50
   0  -1   4    2.30    4.60
  -1   1  -4 1032.80   27.50
   1  -1   4  988.00   28.20
   2  -1   4 1458.25   40.60
   3  -1   4 1214.28   36.50
   3  -1   4 1215.18   33.90
   4  -1   4  100.59   10.10
   4  -1   4   91.09    8.90
   5  -1   4   56.59    9.80
   5  -1   4   57.99    8.50
   6  -1   4   81.39   10.60
   6  -1   4   55.49   11.10
   7  -1   4   54.39   11.00
   7  -1   4   56.99   12.10
   8   0  -4   48.20   10.10
   8   0  -4   53.39   10.90
   7   0  -4   11.00    7.50
   6   0  -4  715.13   26.60
   6   0  -4  730.83   25.00
   5   0  -4   33.40    6.20
   5   0  -4   36.90    7.90
   4   0  -4    2.40    4.70
   4   0  -4    7.90    6.70
   3   0  -4  557.94   19.40
   3   0  -4  581.44   17.60
   3   0  -4  552.94   17.30
   2   0  -4    0.20    4.40
   2   0  -4   -3.00    2.40
   1   0  -4   49.80    5.60
  -1   0   4   44.10    5.40
   0   0  -4  419.26   12.80
   0   0   4  394.16   12.90
   0   0   4  394.16   13.00
   1   0   4  122.99    8.20
   2   0   4  371.56   15.40
   2   0   4  391.56   15.00
   3   0   4  258.37   13.80
   3   0   4  281.07   14.30
   4   0   4  234.08   14.10
   4   0   4  241.78   14.90
   5   0   4    5.60    7.20
   5   0   4   12.90    8.50
   6   0   4    5.70    7.90
   6   0   4   -1.50    9.10
   7   0   4   93.29   12.40
   7   0   4   76.19   12.90
   8  -1  -4    5.70    7.40
   7  -1  -4  861.61   30.50
   7  -1  -4  898.41   29.30
   7  -1  -4  861.01   30.00
   6  -1  -4  286.77   14.10
   6  -1  -4  287.97   13.80
   5  -1  -4    2.70    4.10
   5  -1  -4   -0.40    4.20
   5  -1  -4    4.70    6.20
   4  -1  -4  381.76   16.30
   4  -1  -4  379.66   14.20
   3  -1  -4 1135.29   31.70
   3  -1  -4 1126.69   30.20
   2  -1  -4  511.15   15.70
   2  -1  -4  499.35   16.50
   1  -1  -4 3907.01   96.19
   1  -1  -4 4006.00  100.59
  -1   1   4 4253.57  100.39
   0  -1  -4 3897.01   91.49
   0  -1  -4 3834.02   96.39
   0   1   4 3894.11   96.59
   1   1   4 1065.19   28.20
   1   1   4 1039.50   29.70
   2   1   4  794.62   25.60
   2   1   4  823.32   24.60
   3   1   4  312.37   15.20
   3   1   4  307.37   15.10
   4   1   4  221.48   14.50
   4   1   4  197.58   14.30
   5   1   4  604.34   24.60
   5   1   4  634.94   26.40
   6   1   4  138.29   15.00
   6   1   4  140.19   13.70
   7   1   4  146.39   17.20
   7   1   4  176.78   15.90
   9  -2  -4  536.05   23.80
   8  -2  -4   10.40    7.10
   7  -2  -4  120.89   11.10
   7  -2  -4  176.18   12.70
   6  -2  -4  561.34   20.30
   5  -2  -4  383.76   14.00
   5  -2  -4  391.36   15.30
   5  -2  -4  407.96   15.60
   4  -2  -4 1367.76   36.90
   4  -2  -4 1338.97   38.10
   4  -2  -4 1414.06   37.90
   3  -2  -4 3003.80   75.99
   3  -2  -4 2970.40   73.19
   2  -2  -4   11.70    4.30
   2  -2  -4   18.40    4.80
  -2   2   4    8.90    4.80
   1  -2  -4 3261.47   80.89
   1  -2  -4 3376.16   85.09
  -1   2   4 3503.25   84.99
   0  -2  -4  419.46   15.70
   0   2   4  437.26   14.80
  -1  -2  -4 2426.76   62.79
   1   2   4 2393.26   58.59
   1   2   4 2294.77   61.89
  -2  -2  -4  745.63   26.00
   2   2   4  772.42   25.10
   2   2   4  753.22   23.70
   3   2   4  185.48   13.30
   3   2   4  201.38   13.20
   4   2   4  142.39   12.20
   4   2   4  168.28   14.20
   5   2   4   46.60   10.50
   5   2   4   61.59   11.40
   6   2   4   -0.10   10.10
   6   2   4   15.70    9.40
   8  -3  -4   65.29    9.60
   8  -3  -4   64.29    8.50
   7  -3  -4    2.90    5.50
   7  -3  -4   15.10    7.20
   6  -3  -4  120.69   10.90
   6  -3  -4  127.59    9.00
   5  -3  -4   38.00    6.70
   5  -3  -4   38.20    6.50
   4  -3  -4  360.96   15.40
   4  -3  -4  392.76   15.00
   3  -3  -4    4.60    5.30
   3  -3  -4    8.20    5.60
  -3   3   4    5.20    6.20
   2  -3  -4  910.91   26.40
   2  -3  -4  865.81   25.30
  -2   3   4  896.11   26.70
   1  -3  -4  160.68   10.70
  -1   3   4  159.78   10.10
   0  -3  -4  903.01   28.90
   0   3   4  927.41   27.60
  -1  -3  -4   10.00    8.00
   1   3   4   17.60    6.60
   1   3   4   12.20    6.00
  -2  -3  -4   29.00    8.80
   2   3   4   45.50    7.40
   2   3   4   33.50    7.40
  -3  -3  -4  289.47   18.00
   3   3   4  282.37   15.60
   3   3   4  283.47   16.30
   4   3   4  448.46   22.20
   4   3   4  428.26   20.80
   5   3   4  406.16   22.00
   5   3   4  445.36   23.60
  -6  -3  -4    7.90   11.00
   6   3   4    2.90    9.90
   6   3   4   -3.80   10.20
   8  -4  -4   83.99   11.00
   7  -4  -4  252.67   15.90
   7  -4  -4  259.87   16.40
   6  -4  -4  367.96   17.20
   6  -4  -4  350.66   17.10
   5  -4  -4  168.18   11.50
   5  -4  -4  142.09   12.20
   4  -4  -4  554.64   20.10
   3  -4  -4    0.00    6.00
  -3   4   4   -5.30    7.20
   2  -4  -4  432.96   16.90
   2  -4  -4  447.86   17.40
  -2   4   4  456.35   18.00
   1  -4  -4  739.33   24.80
  -1   4   4  726.23   23.90
   0  -4  -4   40.80    9.10
   0   4   4   36.90    7.70
  -1  -4  -4  348.67   19.00
   1   4   4  348.07   14.90
   1   4   4  365.26   16.50
  -2  -4  -4  738.03   28.30
   2   4   4  792.92   27.40
   2   4   4  762.82   25.10
  -3  -4  -4  476.45   23.30
   3   4   4  491.65   22.80
   3   4   4  463.55   20.40
  -4  -4  -4  436.66   24.00
   4   4   4  444.26   23.60
   4   4   4  441.76   21.50
  -5  -4  -4   20.50   10.80
   5   4   4   14.40   10.70
   5   4   4    7.20    9.30
  -6  -4  -4  130.09   15.80
   6   4   4   98.79   15.60
   6   4   4  129.19   15.10
   9  -5  -4   14.30    8.70
   8  -5  -4  280.77   18.40
   8  -5  -4  327.27   19.00
   7  -5  -4  764.52   28.50
   7  -5  -4  731.73   27.70
   6  -5  -4   11.90    6.80
   6  -5  -4    9.50    7.70
   5  -5  -4    4.90    6.90
   4  -5  -4   43.10    7.70
  -4   5   4   42.00    8.60
   3  -5  -4  365.76   15.90
   3  -5  -4  376.56   16.30
  -3   5   4  369.76   16.90
   2  -5  -4 1599.44   42.90
   2  -5  -4 1598.34   45.00
  -2   5   4 1584.54   44.60
   1  -5  -4   37.90    8.40
  -1   5   4   38.80    7.40
   0  -5  -4   59.89    9.80
   0   5   4   68.49    9.00
  -1  -5  -4   -1.00    8.20
   1   5   4   -4.20    6.10
   1   5   4    5.20    7.40
  -2  -5  -4   40.30   10.30
   2   5   4   28.90    8.10
   2   5   4   14.20    9.30
  -3  -5  -4  205.78   18.70
   3   5   4  222.38   16.40
   3   5   4  203.68   18.60
  -4  -5  -4    9.00   11.00
   4   5   4   -1.60    9.60
   4   5   4    5.30   11.10
  -5  -5  -4    9.20   10.90
   5   5   4   -6.30   11.40
   5   5   4   16.00   10.30
   9  -6  -4   -4.10    9.20
   8  -6  -4    8.80    9.60
   8  -6  -4   14.70    8.80
   7  -6  -4   -8.30    8.50
   7  -6  -4   15.60    8.30
   6  -6  -4    9.30    8.80
   5  -6  -4   19.30    8.50
  -5   6   4   34.60    9.40
   4  -6  -4   78.49    9.10
  -4   6   4   88.69   10.70
   3  -6  -4   58.49    8.10
  -3   6   4   56.89    9.40
   2  -6  -4   10.70    7.20
  -2   6   4   -0.10    6.70
   1  -6  -4    0.00    8.30
  -1   6   4    2.90    6.60
   0  -6  -4  606.04   25.60
   0   6   4  605.14   23.60
  -1  -6  -4  516.05   24.90
   1   6   4  549.15   23.60
  -2  -6  -4  -11.30    9.10
   2   6   4  -10.60    9.60
   2   6   4    4.70    8.30
  -3  -6  -4   62.19   12.80
   3   6   4   65.19   13.70
   3   6   4   86.99   11.70
  -4  -6  -4   87.59   14.30
   4   6   4   92.69   12.80
   4   6   4  106.79   16.30
   8  -7  -4  331.97   21.90
   8  -7  -4  361.16   21.40
   7  -7  -4  253.67   19.50
   6  -7  -4  202.28   17.80
  -6   7   4  206.68   17.90
   5  -7  -4  107.79   11.70
  -5   7   4  117.39   12.80
   4  -7  -4   40.00    8.60
  -4   7   4   44.10    9.80
   3  -7  -4 1509.95   42.70
  -3   7   4 1494.55   44.70
   2  -7  -4 1367.56   42.60
  -2   7   4 1343.87   40.10
   1  -7  -4   -6.20    9.60
  -1   7   4   -1.70    7.40
   0  -7  -4  285.27   20.30
   0   7   4  282.57   17.80
  -1  -7  -4    5.00   11.40
   1   7   4   19.70   10.50
  -2  -7  -4  257.47   20.30
   2   7   4  208.78   19.80
  -3  -7  -4  261.27   21.60
   3   7   4  230.98   22.70
   3   7   4  261.37   18.50
  -4  -7  -4  133.99   16.80
   4   7   4  109.79   17.70
   4   7   4  141.49   14.30
   8  -8  -4   60.39   13.60
   7  -8  -4   -1.40   10.10
  -7   8   4  -13.50   11.00
   6  -8  -4  107.89   14.10
  -6   8   4  106.49   14.60
   5  -8  -4  149.29   13.70
  -5   8   4  150.88   15.30
   4  -8  -4   -2.20    7.80
  -4   8   4  -11.40    8.30
   3  -8  -4  127.79   11.60
  -3   8   4  138.59   12.80
   2  -8  -4    5.30   10.30
  -2   8   4   -9.10    7.60
   1  -8  -4   70.29   13.70
  -1   8   4  107.99   12.20
   0  -8  -4   -6.50   11.80
   0   8   4   22.70   10.40
  -1  -8  -4   18.30   12.90
   1   8   4    5.00   10.80
  -2  -8  -4    7.60   11.50
   2   8   4   -8.50   11.40
  -3  -8  -4   14.40   12.20
   3   8   4    1.30   13.10
   8  -9  -4   27.10   13.20
  -8   9   4   28.60   12.60
   7  -9  -4  111.79   15.60
  -7   9   4  115.59   16.50
   6  -9  -4  583.14   26.50
  -6   9   4  541.65   27.70
   5  -9  -4  260.57   18.50
  -5   9   4  245.58   18.70
   4  -9  -4   20.40    9.50
  -4   9   4    5.70    8.80
   3  -9  -4  364.56   19.10
  -3   9   4  333.07   18.70
   2  -9  -4   -8.50   11.20
  -2   9   4  -15.30    8.90
   1  -9  -4  586.34   30.10
  -1   9   4  622.44   26.20
   0  -9  -4  570.64   30.60
   0   9   4  556.44   26.60
  -1  -9  -4   23.00   13.60
   1   9   4   40.30   12.70
  -2  -9  -4   79.29   17.30
   2   9   4   73.29   15.70
   7 -10  -4  263.67   20.70
  -7  10   4  265.67   23.10
   6 -10  -4  320.37   21.30
  -6  10   4  310.87   22.00
   5 -10  -4  290.37   19.70
  -5  10   4  246.08   19.40
   4 -10  -4   10.60    8.80
  -4  10   4   18.90    9.40
   3 -10  -4   27.70    8.90
  -3  10   4   29.70   10.20
   2 -10  -4   34.20   13.30
  -2  10   4   55.69   11.60
   1 -10  -4  252.27   24.60
  -1  10   4  287.37   20.30
   0 -10  -4  389.46   28.50
   0  10   4  395.56   24.10
  -1 -10  -4   40.60   16.40
   1  10   4   43.20   13.80
   6 -11  -4   38.90   11.30
  -6  11   4   46.90   13.20
   5 -11  -4   19.80   10.30
  -5  11   4   21.70   10.80
   4 -11  -4   21.60    9.50
  -4  11   4   20.90   10.80
   3 -11  -4    2.50    8.50
  -3  11   4  -12.60    9.20
   2 -11  -4  -21.40   13.10
  -2  11   4   17.10   10.80
   1 -11  -4    8.70   14.30
  -1  11   4   13.70   11.50
   1 -12   5   93.99   15.70
   2 -12   5  196.78   19.30
   3 -12   5   92.39   15.10
   1  11  -5   16.90   11.10
   0  11  -5  143.39   16.30
  -1  11  -5    2.90   11.70
   1 -11   5   -0.70   11.40
  -2  11  -5  204.98   17.20
   2 -11   5  213.48   19.40
  -3  11  -5   94.49   14.30
  -3  11  -5   76.69   13.20
   3 -11   5  104.99   16.20
  -4  11  -5    8.20   12.50
   4 -11   5   -5.00   11.10
   5 -11   5  152.58   20.80
   3  10  -5   46.10   12.50
  -3 -10   5   49.80   17.90
   2  10  -5   20.70   11.10
  -2 -10   5   57.59   15.40
   1  10  -5  455.05   24.40
   0  10  -5  628.94   28.00
  -1  10  -5   27.60   11.90
   1 -10   5   48.70   12.00
  -2  10  -5  190.28   17.50
   2 -10   5  180.28   17.40
  -3  10  -5  216.38   18.60
  -3  10  -5  214.88   17.00
   3 -10   5  240.28   21.60
  -4  10  -5   76.89   11.50
   4 -10   5   69.99   14.80
  -5  10  -5  131.59   13.30
   5 -10   5  154.68   15.30
   5 -10   5  125.89   19.30
   6 -10   5    9.20   15.30
   6 -10   5    2.30    9.50
   4   9  -5   11.40   10.90
  -4  -9   5   12.80   19.80
   3   9  -5   18.00   11.10
  -3  -9   5   32.30   17.90
   2   9  -5   13.10   10.60
   1   9  -5   15.10   11.60
   0   9  -5  284.27   20.50
  -1   9  -5  163.98   15.60
  -1   9  -5  157.48   14.90
   1  -9   5  199.18   18.60
  -2   9  -5  270.87   17.60
  -2   9  -5  176.78   14.80
   2  -9   5  304.27   20.50
  -3   9  -5   97.19   11.90
   3  -9   5  114.49   15.40
  -4   9  -5   19.10    9.60
   4  -9   5   19.20   14.70
   4  -9   5    3.50    8.30
  -5   9  -5   36.20   10.10
   5  -9   5   31.30   10.00
   5  -9   5   36.30   15.20
  -6   9  -5   35.10   10.40
   6  -9   5   29.30    9.50
   6  -9   5   10.30   15.10
   5   8  -5    4.80   10.60
  -5  -8   5  -15.00   19.50
   4   8  -5   92.69   13.80
  -4  -8   5  101.19   21.00
   3   8  -5   72.39   13.30
  -3  -8   5   61.89   16.90
   2   8  -5  107.19   13.80
   1   8  -5 1351.66   42.00
   0   8  -5  457.45   22.00
   0  -8   5  436.96   22.50
  -1   8  -5  161.68   15.30
  -1   8  -5  171.98   13.80
   1  -8   5  220.58   18.00
  -2   8  -5  176.38   14.70
   2  -8   5  180.58   15.90
  -3   8  -5   67.59   10.20
   3  -8   5   67.99   13.30
   3  -8   5   59.99   10.00
  -4   8  -5  725.83   26.30
   4  -8   5  715.43   33.50
   4  -8   5  713.33   28.10
  -5   8  -5  683.23   26.70
   5  -8   5  698.03   28.70
   5  -8   5  719.83   34.20
  -6   8  -5    8.70   10.20
   6  -8   5    2.70    8.10
   6  -8   5    1.20   13.80
  -7   8  -5   23.90   11.70
   7  -8   5   13.60    9.60
   7  -8   5    6.90   14.80
   5   7  -5   47.50   12.50
  -5  -7   5   68.29   20.50
   4   7  -5   71.69   12.80
  -4  -7   5   73.79   19.20
   3   7  -5  230.48   19.20
  -3  -7   5  198.18   20.40
   2   7  -5   10.40    9.30
  -2  -7   5    3.20   12.00
   1   7  -5   25.30    8.90
   0   7  -5   92.79   10.90
   0  -7   5   87.79   11.40
  -1   7  -5   62.59    7.90
  -1   7  -5   36.90    8.20
   1  -7   5   41.50   10.00
  -2   7  -5   46.10    8.20
   2  -7   5   48.60    8.00
   2  -7   5   45.10   10.60
  -3   7  -5   23.60    8.10
   3  -7   5   22.90    7.90
   3  -7   5   26.80   11.40
  -4   7  -5  135.49   12.00
   4  -7   5  110.59   16.40
   4  -7   5  147.69   14.10
  -5   7  -5   -6.20    9.70
   5  -7   5   11.60    8.50
   5  -7   5   18.10   14.00
  -6   7  -5   -4.50   10.30
   6  -7   5   -1.60    8.70
   6  -7   5   18.50   13.10
  -7   7  -5   77.29   14.80
   7  -7   5   94.39   13.70
   6   6  -5    7.20   10.50
  -6  -6   5   -4.70   15.30
   5   6  -5  248.18   21.00
  -5  -6   5  249.08   24.60
   4   6  -5  210.18   19.30
  -4  -6   5  177.38   19.80
   3   6  -5  160.98   14.10
   2   6  -5   40.10    9.50
   1   6  -5  686.43   24.70
   0   6  -5    9.20    7.10
   0  -6   5   34.50    8.90
  -1   6  -5 2934.91   73.79
   1  -6   5 2899.51   77.19
   1  -6   5 3017.10   76.89
  -2   6  -5  721.53   24.20
   2  -6   5  700.03   27.90
   2  -6   5  745.33   24.90
  -3   6  -5   29.20    7.80
   3  -6   5   40.60    7.60
   3  -6   5   30.60   10.90
  -4   6  -5 1056.79   33.40
   4  -6   5 1071.39   35.40
   4  -6   5 1043.00   38.00
  -5   6  -5   35.30   10.90
   5  -6   5   48.70   14.00
   5  -6   5   42.90   10.60
  -6   6  -5    3.20   11.50
   6  -6   5   17.30   12.30
   6  -6   5    4.00    8.70
  -7   6  -5  297.87   22.70
   7  -6   5  266.07   20.30
   6   5  -5   15.30   10.70
  -6  -5   5   22.40   15.50
   5   5  -5  812.12   32.20
   4   5  -5 1019.80   34.80
   3   5  -5   12.40    8.10
   2   5  -5  128.39   11.40
   2   5  -5  128.59   11.60
   1   5  -5    1.50    7.00
  -1  -5   5    2.20    6.90
   0   5  -5 1676.83   45.00
   0  -5   5 1725.13   46.70
  -1   5  -5 1624.44   43.60
   1  -5   5 1644.24   44.90
   1  -5   5 1666.93   46.50
  -2   5  -5 1967.20   50.59
   2  -5   5 1946.51   54.49
   2  -5   5 1923.31   53.29
  -3   5  -5    6.90    7.60
   3  -5   5    7.70    6.30
   3  -5   5   11.20    9.80
  -4   5  -5  100.79   11.80
   4  -5   5   96.89   10.90
   4  -5   5   92.19   12.90
  -5   5  -5  282.67   19.30
   5  -5   5  257.87   17.90
  -6   5  -5  432.36   24.30
   6  -5   5  424.86   23.10
  -7   5  -5  589.44   29.00
   7  -5   5  578.94   28.00
   7   4  -5   31.50   12.20
  -7  -4   5   84.09   18.90
   6   4  -5   10.20    9.90
   5   4  -5   43.80   11.20
   5   4  -5   26.90   10.50
   4   4  -5  110.09   12.10
   4   4  -5  110.89   11.80
   3   4  -5  333.47   17.30
   3   4  -5  360.36   18.10
   2   4  -5  128.19   13.00
   2   4  -5   96.29    9.70
   1   4  -5   22.40    7.30
  -1  -4   5   21.20    7.80
   0   4  -5   71.19    7.80
   0  -4   5   83.49    9.60
  -1   4  -5  406.26   15.90
   1  -4   5  397.96   15.60
   1  -4   5  395.46   18.60
  -2   4  -5  -13.80    6.40
   2  -4   5    8.00    6.00
   2  -4   5  -10.90    8.20
  -3   4  -5    8.70    7.80
   3  -4   5   13.30    9.10
   3  -4   5   21.80    6.80
  -4   4  -5  118.29   11.90
   4  -4   5  120.39   11.40
  -5   4  -5   64.59   11.50
   5  -4   5   57.49   10.00
  -6   4  -5   89.29   13.20
   6  -4   5   75.49   11.70
   7  -4   5    0.70    9.90
   7   3  -5  223.08   20.20
   6   3  -5  184.78   16.30
   6   3  -5  206.48   17.90
   5   3  -5   91.49   11.80
   5   3  -5   96.29   12.20
   4   3  -5    0.20    7.10
   4   3  -5    6.70    7.60
   3   3  -5 1668.73   46.90
   3   3  -5 1763.12   48.70
   2   3  -5 1522.45   42.70
   2   3  -5 1477.35   41.20
  -2  -3   5 1506.55   40.20
   1   3  -5    9.80    6.30
  -1  -3   5    4.50    6.70
   0   3  -5  283.87   12.40
   0  -3   5  290.27   14.70
  -1   3  -5   18.00    6.10
   1  -3   5   21.20    5.70
   1  -3   5   30.70    7.90
  -2   3  -5   12.30    6.80
   2  -3   5    5.90    8.30
   2  -3   5   -3.00    5.90
  -3   3  -5 2091.19   55.09
   3  -3   5 2100.39   58.19
  -4   3  -5  223.98   16.00
   4  -3   5  243.98   15.20
   5  -3   5  167.78   14.90
   6  -3   5  639.94   28.10
   7  -3   5   22.20   11.30
   8   2  -5  296.27   21.80
   7   2  -5   33.20   11.60
   7   2  -5   46.40   10.30
   6   2  -5  627.24   26.60
   6   2  -5  606.24   25.60
   5   2  -5  316.97   17.50
   5   2  -5  342.67   18.60
   4   2  -5  179.08   14.10
   4   2  -5  172.28   12.60
   3   2  -5  212.88   15.00
   3   2  -5  227.28   13.20
   2   2  -5  990.30   28.70
   2   2  -5  961.70   29.60
  -2  -2   5  974.50   27.60
   1   2  -5  254.67   11.60
  -1  -2   5  258.47   12.00
   0   2  -5 1181.08   31.20
   0  -2   5 1177.28   32.20
  -1   2  -5  286.47   13.00
   1  -2   5  265.27   12.10
   1  -2   5  294.77   14.40
  -2   2  -5 1723.53   45.70
   2  -2   5 1735.23   47.80
   3  -2   5  193.78   13.10
   4  -2   5  432.66   19.50
   5  -2   5    2.60    7.10
   5  -2   5    8.10    7.40
   6  -2   5  -10.80    8.60
   6  -2   5   18.20    8.50
   7  -2   5   37.20   12.20
   7  -2   5   36.40   10.60
   8   1  -5   46.60   11.50
   8   1  -5   49.99   11.30
   7   1  -5   86.49   10.90
   7   1  -5   56.09   11.40
   6   1  -5   -5.80    6.40
   6   1  -5   -8.40    9.00
   5   1  -5    2.80    7.70
   5   1  -5    4.10    5.90
   4   1  -5   14.90    5.60
   4   1  -5   13.90    7.10
   3   1  -5 1259.57   36.10
   3   1  -5 1219.68   34.30
  -3  -1   5 1215.68   33.30
   2   1  -5  171.28   11.00
   2   1  -5  185.78   10.80
  -2  -1   5  174.88   10.30
   1   1  -5  205.88    9.50
   1   1  -5  180.58    9.80
  -1  -1   5  206.58   10.00
   0   1  -5  581.54   17.40
   0  -1   5  588.54   18.10
  -1   1  -5  705.13   21.40
   1  -1   5  681.43   21.50
   2  -1   5 1166.28   34.40
   3  -1   5 1805.02   51.49
   3  -1   5 1839.32   48.50
   4  -1   5  108.39   10.00
   4  -1   5   92.19   10.20
   5  -1   5   68.99   11.00
   5  -1   5   77.19    9.80
   6  -1   5   30.50   10.00
   6  -1   5   12.50    8.20
   7  -1   5  102.29   14.50
   7  -1   5  119.89   13.60
   8   0  -5   48.10   11.20
   8   0  -5   57.49   10.20
   7   0  -5   67.29    9.80
   7   0  -5   69.99   11.00
   6   0  -5  244.78   14.50
   6   0  -5  233.28   16.60
   5   0  -5  516.45   21.00
   5   0  -5  506.15   18.40
   4   0  -5  525.25   17.80
   4   0  -5  515.25   17.50
   4   0  -5  531.05   20.30
   3   0  -5  474.85   17.90
   2   0  -5  105.89    8.00
   2   0  -5  125.09    9.10
  -2   0   5  117.49    8.90
   1   0  -5 1857.81   48.30
  -1   0   5 1864.61   46.50
   0   0  -5 1024.00   26.70
   0   0   5  996.60   27.60
  -1   0  -5   21.60    5.40
   1   0   5   13.90    5.50
   2   0   5 1757.02   45.90
   2   0   5 1762.72   48.60
   3   0   5  595.64   22.20
   3   0   5  609.84   21.20
   4   0   5   -1.30    6.40
   4   0   5    0.00    6.50
   5   0   5   92.19   12.30
   5   0   5   95.59   10.80
   6   0   5   17.30    8.30
   6   0   5   10.10    9.60
   7   0   5  259.57   18.50
   7   0   5  279.07   21.80
   8  -1  -5   14.80    7.80
   7  -1  -5    2.10    6.40
   7  -1  -5    7.50    8.60
   6  -1  -5   14.50    8.30
   6  -1  -5   16.20    5.60
   5  -1  -5    1.90    2.30
   5  -1  -5    0.80    6.60
   4  -1  -5  894.41   24.80
   4  -1  -5  859.21   25.60
   4  -1  -5  867.41   27.50
   3  -1  -5  675.73   20.60
   3  -1  -5  670.83   21.90
   2  -1  -5    3.40    4.80
   2  -1  -5   11.40    4.30
   1  -1  -5   45.50    5.80
  -1   1   5   39.30    4.70
   0  -1  -5  132.19    9.40
   0  -1  -5  145.79    8.20
   0   1   5  142.29    8.50
   1   1   5   95.39    8.00
   1   1   5   96.49    9.70
   2   1   5  116.69   10.50
   2   1   5  105.59    9.40
   3   1   5  217.98   13.50
   3   1   5  219.48   13.80
   4   1   5   13.90    7.80
   4   1   5   15.40    7.90
   5   1   5  242.18   17.20
   5   1   5  217.78   17.90
   6   1   5   12.50   10.50
   6   1   5   21.00    9.60
   9  -2  -5    5.50    8.70
   8  -2  -5  193.18   14.50
   7  -2  -5  231.68   16.40
   6  -2  -5   78.89    9.90
   6  -2  -5   69.19    7.20
   6  -2  -5   63.89    7.30
   5  -2  -5   16.70    5.40
   5  -2  -5   18.20    6.60
   5  -2  -5    9.40    4.60
   4  -2  -5   19.80    6.10
   4  -2  -5   19.70    5.60
   3  -2  -5   49.80    6.60
   3  -2  -5   64.09    7.30
  -3   2   5   45.30    6.80
   2  -2  -5 2084.19   52.79
   2  -2  -5 2131.79   55.29
  -2   2   5 2086.49   54.29
   1  -2  -5 2577.84   66.79
   1  -2  -5 2433.16   62.99
  -1   2   5 2750.82   66.39
   0  -2  -5 1483.55   41.40
   0   2   5 1508.75   40.70
  -1  -2  -5  549.35   20.80
   1   2   5  543.35   18.00
   1   2   5  554.74   19.60
  -2  -2  -5  611.04   23.00
   2   2   5  613.84   20.60
   2   2   5  589.94   21.90
   3   2   5  301.17   15.80
   3   2   5  290.07   16.20
   4   2   5 1043.40   33.40
   4   2   5 1004.00   35.20
  -5  -2  -5 1019.50   36.70
   5   2   5 1038.30   38.00
   5   2   5 1040.50   35.10
   6   2   5   19.90    9.90
   6   2   5   12.50   11.30
   7  -3  -5  729.63   25.70
   6  -3  -5   43.30    7.00
   6  -3  -5   47.50    7.80
   5  -3  -5 1198.68   34.00
   5  -3  -5 1167.78   34.60
   4  -3  -5  843.42   26.20
   4  -3  -5  876.31   27.00
  -4   3   5  891.01   26.80
   3  -3  -5  135.79   10.30
   3  -3  -5  136.69   10.90
  -3   3   5  160.98   11.60
   2  -3  -5 1570.14   41.00
   2  -3  -5 1566.34   43.00
  -2   3   5 1539.35   42.20
   1  -3  -5 1438.36   41.30
  -1   3   5 1520.75   40.90
   0  -3  -5   49.99    8.50
   0   3   5   38.70    7.20
  -1  -3  -5 1128.79   34.90
   1   3   5 1125.99   33.70
   1   3   5 1118.79   31.10
  -2  -3  -5  405.46   20.10
   2   3   5  412.06   17.20
   2   3   5  397.66   18.00
  -3  -3  -5  113.39   12.90
   3   3   5  114.99   12.30
   3   3   5  109.69   10.80
  -4  -3  -5  106.39   13.90
   4   3   5   97.19   11.80
   4   3   5  101.49   13.00
  -5  -3  -5    2.10   10.10
   5   3   5   16.00   10.70
   5   3   5    9.80    9.40
   6   3   5   39.20   13.30
   6   3   5   30.60   10.70
   8  -4  -5   34.50    8.50
   7  -4  -5  394.96   18.90
   7  -4  -5  394.16   19.20
   6  -4  -5  225.68   13.70
   6  -4  -5  208.48   14.50
   5  -4  -5    7.80    6.20
   4  -4  -5  137.79   11.00
   4  -4  -5  156.08   11.20
  -4   4   5  141.29   11.80
   3  -4  -5   84.79    8.50
   3  -4  -5   90.39    8.40
  -3   4   5   88.39    9.20
   2  -4  -5  113.79   10.80
   2  -4  -5  128.09   10.70
  -2   4   5  103.69   10.70
   1  -4  -5   20.40    7.50
  -1   4   5   20.80    6.90
   0  -4  -5   -6.70    7.40
   0   4   5   -7.80    6.10
  -1  -4  -5   25.40    9.50
   1   4   5   33.20    6.80
   1   4   5   46.50    8.60
  -2  -4  -5  236.78   18.10
   2   4   5  245.08   16.00
   2   4   5  256.07   14.60
  -3  -4  -5   10.90   10.10
   3   4   5    4.90    9.60
   3   4   5    4.70    8.50
  -4  -4  -5  269.87   20.20
   4   4   5  271.87   18.50
   4   4   5  274.57   21.10
  -5  -4  -5   -4.30   10.00
   5   4   5   -6.60   11.20
   5   4   5   -5.70    9.30
   9  -5  -5    6.10    8.30
   8  -5  -5  185.38   15.50
   8  -5  -5  192.88   16.50
   7  -5  -5  483.45   21.40
   7  -5  -5  485.55   22.00
   6  -5  -5   56.39    9.60
   5  -5  -5  973.80   31.40
  -5   5   5 1021.20   32.30
   4  -5  -5  640.74   23.10
   4  -5  -5  669.03   23.10
  -4   5   5  691.53   24.20
   3  -5  -5   95.29    9.40
   3  -5  -5   99.89    9.20
  -3   5   5  109.29   10.40
   2  -5  -5  883.01   28.80
  -2   5   5  896.91   27.90
   1  -5  -5  453.65   20.00
  -1   5   5  462.35   18.60
   0  -5  -5  681.13   26.00
   0   5   5  634.24   23.80
  -1  -5  -5  797.42   30.00
   1   5   5  802.42   28.90
  -2  -5  -5   39.50   11.40
   2   5   5   65.89   12.20
   2   5   5   57.69    9.10
  -3  -5  -5  118.19   14.70
   3   5   5  126.59   12.30
   3   5   5  111.89   15.20
  -4  -5  -5  123.89   14.60
   4   5   5  129.99   16.30
   4   5   5  114.89   12.90
  -5  -5  -5   37.00   12.20
   5   5   5   23.90   14.10
   5   5   5   36.90   11.10
   9  -6  -5    3.90    9.50
   9  -6  -5   19.50    9.60
   8  -6  -5  592.14   26.10
   8  -6  -5  592.94   25.40
   7  -6  -5  375.16   20.30
   6  -6  -5  197.68   16.20
  -6   6   5  198.28   16.80
   5  -6  -5   54.89    9.30
  -5   6   5   55.69   10.40
   4  -6  -5   -7.60    6.20
  -4   6   5   -2.60    7.90
   3  -6  -5  472.45   19.90
   3  -6  -5  478.85   19.30
  -3   6   5  465.75   19.60
   2  -6  -5  949.90   32.00
  -2   6   5  950.90   30.10
   1  -6  -5   93.29   11.80
  -1   6   5   94.69   10.10
   0  -6  -5   99.59   12.90
   0   6   5   95.19   11.60
  -1  -6  -5   18.20   10.70
   1   6   5   19.40    9.80
  -2  -6  -5   50.39   12.50
   2   6   5   72.79   10.00
   2   6   5   41.70   12.20
  -3  -6  -5  231.28   20.40
   3   6   5  200.98   20.90
   3   6   5  217.08   16.40
  -4  -6  -5   67.39   13.50
   4   6   5   73.59   15.60
   4   6   5  108.49   12.50
   8  -7  -5   -1.10    9.40
   7  -7  -5   36.50   11.00
  -7   7   5   33.90   11.50
   6  -7  -5    7.80    9.60
  -6   7   5    6.00   10.70
   5  -7  -5  650.33   25.70
  -5   7   5  675.33   26.90
   4  -7  -5   13.50    8.00
  -4   7   5   20.60    8.80
   3  -7  -5   12.30    8.30
   3  -7  -5   14.50    7.50
  -3   7   5    9.30    7.10
   2  -7  -5  231.48   17.70
  -2   7   5  233.28   14.80
   1  -7  -5  122.49   14.40
  -1   7   5  119.09   11.90
   0  -7  -5  555.64   26.90
   0   7   5  504.05   23.60
  -1  -7  -5  186.48   19.00
   1   7   5  144.29   15.30
  -2  -7  -5   33.50   12.60
   2   7   5   37.40   13.90
  -3  -7  -5   29.50   12.20
   3   7   5   13.20   13.80
   8  -8  -5   38.50   11.90
  -8   8   5   55.09   12.90
   7  -8  -5   23.40   11.20
  -7   8   5   19.00   12.20
   6  -8  -5  237.08   18.00
  -6   8   5  221.88   19.50
   5  -8  -5  459.95   21.90
  -5   8   5  407.66   21.90
   4  -8  -5   52.49   10.10
  -4   8   5   51.49   11.00
   3  -8  -5  243.98   18.70
  -3   8   5  232.18   15.10
   2  -8  -5   -0.50   10.50
  -2   8   5   -2.80    7.80
   1  -8  -5  203.58   20.40
  -1   8   5  207.08   16.90
   0  -8  -5  309.37   24.00
   0   8   5  304.67   20.10
  -1  -8  -5  140.59   17.30
   1   8   5  141.59   16.10
  -2  -8  -5   38.80   12.70
   2   8   5   14.00   13.10
  -3  -8  -5   72.69   14.90
   3   8   5   78.39   17.20
   7  -9  -5  119.99   15.90
  -7   9   5  138.19   16.50
   6  -9  -5  412.06   22.60
  -6   9   5  360.36   22.50
   5  -9  -5   -3.60    9.00
  -5   9   5    6.20    9.60
   4  -9  -5   19.30    9.10
  -4   9   5    0.70    8.10
   3  -9  -5    7.00   11.80
   3  -9  -5    1.00    7.90
  -3   9   5    5.30    7.80
   2  -9  -5   76.49   15.00
  -2   9   5  100.39   12.50
   1  -9  -5   26.30   13.50
  -1   9   5   41.40   11.30
   0  -9  -5   83.19   16.70
   0   9   5  130.99   14.80
  -1  -9  -5   56.99   15.40
   1   9   5   64.19   14.30
  -2  -9  -5   22.70   12.90
   2   9   5   35.00   15.20
   7 -10  -5   88.19   14.10
  -7  10   5   93.39   15.20
   6 -10  -5   27.00   11.00
  -6  10   5   39.00   12.50
   5 -10  -5   20.80   10.00
  -5  10   5   10.80    9.90
   4 -10  -5   -6.00    8.20
  -4  10   5    3.40    8.40
   3 -10  -5   25.50    9.10
  -3  10   5   36.90    9.80
   2 -10  -5   44.70   14.90
  -2  10   5   68.19   11.80
   1 -10  -5  140.29   18.40
  -1  10   5  210.48   18.80
   0 -10  -5  135.29   19.00
   0  10   5  147.99   15.80
   6 -11  -5   51.19   11.70
   5 -11  -5    6.40    9.80
  -5  11   5   14.40    9.80
   4 -11  -5  205.48   17.90
  -4  11   5  187.78   16.00
   3 -11  -5  -13.80   14.00
  -3  11   5   13.60   10.90
   2 -11  -5   28.90   15.40
  -2  11   5   18.90   10.40
   1 -11  -5  276.07   26.70
  -1  11   5  231.38   20.70
   1  11  -6   37.40   12.10
   0  11  -6   16.20   11.80
   0 -11   6    7.00   10.80
  -1  11  -6   30.60   12.50
   1 -11   6   32.80   12.50
  -2  11  -6   24.00   11.70
   2 -11   6   17.30   12.50
  -3  11  -6   30.70   11.70
   3 -11   6   61.59   15.60
  -4  11  -6   16.00   10.70
  -4  11  -6   26.00   12.60
   4 -11   6   22.70   13.40
   2  10  -6   22.90   11.40
   1  10  -6    8.20   11.80
   0  10  -6  149.49   16.30
   0 -10   6  123.39   15.20
  -1  10  -6   -1.20   12.00
   1 -10   6   40.40   12.60
  -2  10  -6  360.06   21.60
   2 -10   6  367.66   24.40
  -3  10  -6  345.67   21.20
  -3  10  -6  353.76   20.60
   3 -10   6  389.76   25.20
  -4  10  -6   -3.20    9.30
   4 -10   6  -10.10   14.30
  -5  10  -6  201.18   18.40
   5 -10   6  212.88   23.00
   5 -10   6  215.88   18.20
   4   9  -6   47.80   12.90
  -4  -9   6   82.69   21.40
   3   9  -6   -7.70   10.70
   2   9  -6  121.09   14.00
   1   9  -6  533.45   26.50
   0   9  -6  410.16   23.30
  -1   9  -6   -4.60    9.40
   1  -9   6    3.20   11.00
  -2   9  -6  246.18   16.90
  -2   9  -6  272.97   18.20
   2  -9   6  284.57   21.60
  -3   9  -6  127.29   13.10
   3  -9   6  119.79   15.50
  -4   9  -6  327.57   20.00
   4  -9   6  315.07   19.70
   4  -9   6  290.17   26.30
  -5   9  -6  237.38   18.30
   5  -9   6  221.48   22.80
   5  -9   6  216.58   17.60
  -6   9  -6    8.30   10.10
   6  -9   6    8.20    8.70
   6  -9   6    2.50   15.30
   4   8  -6   15.10   11.10
  -4  -8   6   13.80   17.60
   3   8  -6   -1.10    9.90
  -3  -8   6    4.70   15.00
   2   8  -6   75.89   12.70
   1   8  -6    6.80   10.30
  -1  -8   6    3.90   10.60
   0   8  -6  -10.50    9.80
   0  -8   6    3.20    9.80
  -1   8  -6   53.69   10.50
   1  -8   6   67.49   12.70
  -2   8  -6  209.48   16.40
   2  -8   6  208.78   19.50
  -3   8  -6   -5.00    8.80
   3  -8   6  -14.20   11.40
   3  -8   6   -9.20    7.30
  -4   8  -6   96.89   11.80
   4  -8   6   76.59   16.50
   4  -8   6   92.39   12.10
  -5   8  -6   -4.80    9.30
   5  -8   6    0.00    8.30
   5  -8   6   -6.50   13.90
  -6   8  -6  193.88   19.00
   6  -8   6  207.28   17.10
   6  -8   6  166.48   20.80
   5   7  -6   84.79   14.40
  -5  -7   6   93.59   21.10
   4   7  -6  456.15   24.90
  -4  -7   6  464.75   31.00
   3   7  -6  156.18   15.30
  -3  -7   6  136.39   18.10
   2   7  -6   39.30   11.00
   1   7  -6 1101.09   36.30
  -1  -7   6 1190.88   36.70
   0   7  -6   54.49    9.30
   0  -7   6   70.39   11.10
  -1   7  -6  518.25   20.80
   1  -7   6  518.65   24.00
  -2   7  -6  344.77   17.60
   2  -7   6  358.96   17.50
   2  -7   6  358.56   21.50
  -3   7  -6   86.19   10.40
   3  -7   6   82.69   14.10
   3  -7   6   74.39    9.90
  -4   7  -6  862.31   29.40
   4  -7   6  835.72   31.10
   4  -7   6  865.81   36.20
  -5   7  -6  141.99   13.90
   5  -7   6  149.29   18.80
   5  -7   6  149.59   14.40
  -6   7  -6    4.10   10.90
   6  -7   6    7.80   13.40
   6  -7   6    9.80    9.30
  -7   7  -6  336.47   23.30
   7  -7   6  320.47   22.50
   6   6  -6   -0.90   11.60
  -6  -6   6   31.60   20.40
   5   6  -6  552.84   28.00
  -5  -6   6  609.24   35.00
   4   6  -6  574.74   26.70
   3   6  -6  342.07   20.70
   2   6  -6    2.20    7.80
   1   6  -6   33.20    9.00
  -1  -6   6   37.50    8.80
   0   6  -6  539.05   21.00
   0  -6   6  569.54   22.70
  -1   6  -6  380.36   17.10
   1  -6   6  381.86   20.20
  -2   6  -6  515.35   20.30
   2  -6   6  484.35   23.90
   2  -6   6  505.65   19.80
  -3   6  -6 1322.57   38.30
   3  -6   6 1347.47   40.60
   3  -6   6 1306.67   43.90
  -4   6  -6   53.29   10.50
   4  -6   6   53.39   13.40
   4  -6   6   47.90    9.40
  -5   6  -6   13.10   10.40
   5  -6   6   13.60    8.70
   5  -6   6    1.20   12.50
  -6   6  -6   12.40   11.70
   6  -6   6    0.60    9.10
  -7   6  -6   32.20   13.70
   7  -6   6   11.40   10.50
   6   5  -6   13.20   10.90
   5   5  -6   69.39   13.00
   4   5  -6   62.39   12.00
   4   5  -6   65.39   11.50
   3   5  -6   -6.80    8.40
   3   5  -6   -0.30    7.30
   2   5  -6  772.02   27.00
   2   5  -6  760.02   27.30
  -2  -5   6  788.82   26.60
   1   5  -6    4.70    6.60
  -1  -5   6    8.00    7.40
   0   5  -6  389.66   16.00
   0  -5   6  325.57   17.50
  -1   5  -6  914.91   27.90
   1  -5   6  917.31   27.60
   1  -5   6  888.01   30.30
  -2   5  -6   26.40    7.40
   2  -5   6   44.90   10.80
   2  -5   6   17.70    6.60
  -3   5  -6  883.41   28.80
   3  -5   6  873.71   33.00
   3  -5   6  879.51   29.60
  -4   5  -6 2251.37   60.19
   4  -5   6 2215.38   63.89
  -5   5  -6    0.20   10.80
   5  -5   6   10.50    8.40
  -6   5  -6  112.59   14.60
   6  -5   6  121.49   14.50
  -7   5  -6  214.28   19.50
   7  -5   6  205.78   20.70
   7   4  -6  165.08   17.40
   6   4  -6  113.59   14.90
   6   4  -6  128.39   14.90
   5   4  -6  409.56   23.00
   5   4  -6  432.86   22.50
   4   4  -6   42.10    9.90
   4   4  -6   31.80    9.50
   3   4  -6  516.45   22.10
   3   4  -6  521.05   21.50
   2   4  -6  794.92   27.80
   2   4  -6  794.52   26.90
  -2  -4   6  875.51   26.60
   1   4  -6   14.80    6.60
  -1  -4   6   15.00    7.90
   0   4  -6  499.75   18.30
   0  -4   6  528.75   20.40
  -1   4  -6 1363.56   37.90
   1  -4   6 1385.36   39.00
   1  -4   6 1463.45   40.70
  -2   4  -6  165.08   12.60
   2  -4   6  167.08   12.00
   2  -4   6  161.78   15.60
  -3   4  -6  107.39   10.50
   3  -4   6  103.39   13.40
   3  -4   6  117.39   11.80
  -4   4  -6   32.60    9.80
   4  -4   6   35.80    9.10
  -5   4  -6   29.20   10.90
   5  -4   6   34.10    9.70
  -6   4  -6  226.38   20.10
   6  -4   6  210.98   18.00
  -7   4  -6  134.69   16.50
   7  -4   6  112.59   14.90
   7   3  -6    5.20   11.80
   7   3  -6  -15.50    9.40
   6   3  -6   74.99   13.00
   6   3  -6   71.29   11.80
   5   3  -6   23.10    9.30
   5   3  -6   18.80    9.70
   4   3  -6   50.89    9.40
   4   3  -6   43.40    8.90
   3   3  -6   88.59   10.10
   3   3  -6   94.99   10.50
  -3  -3   6   95.69    9.10
   2   3  -6   30.20    8.30
   2   3  -6   26.20    7.30
  -2  -3   6   26.30    7.30
   1   3  -6   47.20    7.40
  -1  -3   6   52.79    8.70
   0   3  -6  238.18   12.80
   0  -3   6  278.97   15.20
  -1   3  -6  202.58   12.10
   1  -3   6  211.98   11.60
   1  -3   6  232.28   14.80
  -2   3  -6  214.78   13.10
   2  -3   6  212.38   12.70
   2  -3   6  196.38   15.30
  -3   3  -6   70.59    9.60
   3  -3   6   67.89    9.20
  -4   3  -6  380.46   19.60
   4  -3   6  347.47   18.60
  -5   3  -6   27.70   10.40
   5  -3   6   36.40    9.80
   6  -3   6  396.56   22.80
   7  -3   6   34.90   10.40
   8   2  -6  209.28   20.60
   8   2  -6  210.88   20.70
   7   2  -6  100.49   14.10
   7   2  -6   93.09   12.70
   6   2  -6   98.89   12.00
   6   2  -6   97.69   13.40
   5   2  -6    2.00    7.10
   5   2  -6   -2.20    8.10
   4   2  -6 1171.88   35.70
   4   2  -6 1096.39   33.90
   3   2  -6 2403.56   64.19
   3   2  -6 2478.15   66.39
  -3  -2   6 2566.94   62.89
   2   2  -6 1880.21   51.69
   2   2  -6 1955.80   50.19
  -2  -2   6 1854.41   49.10
   1   2  -6  201.78   11.40
  -1  -2   6  199.08   12.50
   0   2  -6   78.49    7.40
   0  -2   6   70.09    8.60
  -1   2  -6   -5.20    6.00
   1  -2   6    5.50    7.50
   1  -2   6    3.10    5.50
  -2   2  -6 1751.02   47.00
   2  -2   6 1782.02   49.20
  -3   2  -6 1714.73   47.80
   3  -2   6 1793.52   50.49
   4  -2   6  118.99   11.60
   5  -2   6   16.00    8.20
   6  -2   6  205.38   17.70
   7  -2   6   60.29   14.00
   7  -2   6   87.59   13.80
   8   1  -6  177.58   18.10
   8   1  -6  144.89   14.80
   7   1  -6  134.59   14.20
   7   1  -6  137.59   13.70
   6   1  -6  361.76   21.10
   6   1  -6  414.06   19.60
   5   1  -6  138.29   12.50
   5   1  -6  143.29   12.50
   4   1  -6  591.24   20.80
   4   1  -6  606.84   22.70
  -4  -1   6  594.64   20.50
   3   1  -6  934.61   28.40
   3   1  -6  928.91   29.30
  -3  -1   6  936.31   27.50
   2   1  -6  522.45   18.30
   2   1  -6  449.66   18.20
  -2  -1   6  530.15   18.20
   1   1  -6  379.46   13.70
  -1  -1   6  349.77   14.40
   0   1  -6   66.99    6.80
   0  -1   6   62.09    6.00
   0  -1   6   59.29    7.40
  -1   1  -6  653.03   21.50
   1  -1   6  686.63   21.90
  -2   1  -6 1309.97   37.30
   2  -1   6 1377.46   39.30
   3  -1   6  768.42   27.10
   4  -1   6    8.10    8.00
   4  -1   6    3.90    7.20
   5  -1   6   16.30    8.80
   5  -1   6   16.20    8.30
   6  -1   6  150.58   15.90
   6  -1   6  132.59   13.10
   7  -1   6  330.27   23.30
   7  -1   6  298.87   20.20
   8   0  -6   -1.60    9.30
   8   0  -6    0.30    7.60
   7   0  -6   77.79   11.80
   7   0  -6   59.99    9.50
   6   0  -6   -3.60    8.50
   6   0  -6    1.00    5.90
   5   0  -6   99.29   10.80
   5   0  -6   93.39    8.80
   4   0  -6   56.39    8.40
   4   0  -6   30.60    5.20
   3   0  -6  511.35   18.40
   3   0  -6  648.84   20.90
   2   0  -6   10.40    5.70
   2   0  -6   28.70    5.90
  -2   0   6    5.70    6.00
   1   0  -6  146.39    9.90
  -1   0   6  155.18   10.30
   0   0  -6  -10.70    4.60
   0   0   6    2.50    5.60
   0   0   6    5.80    4.80
  -1   0  -6   20.60    6.10
   1   0   6   18.00    6.20
   2   0   6  450.35   18.20
   3   0   6   42.30    7.90
   3   0   6   41.60    7.80
   4   0   6   12.60    7.60
   4   0   6   11.00    7.40
   5   0   6  124.89   12.20
   5   0   6   93.69   12.80
   6   0   6    8.00   10.20
   6   0   6    4.80    8.60
   8  -1  -6    1.20    9.20
   8  -1  -6    4.60    6.70
   7  -1  -6  650.53   26.80
   7  -1  -6  663.13   23.90
   6  -1  -6  880.31   30.80
   5  -1  -6  203.48   14.30
   5  -1  -6  201.48   11.70
   5  -1  -6  209.38   10.70
   4  -1  -6  147.39   10.00
   4  -1  -6  141.99   11.60
   4  -1  -6  143.19    8.80
   3  -1  -6 1175.78   34.40
   3  -1  -6 1207.38   32.90
   2  -1  -6 1654.33   45.00
   1  -1  -6 1869.81   49.50
  -1   1   6 1821.02   47.00
  -1   1   6 1870.21   48.00
   0  -1  -6 1628.64   41.40
   0   1   6 1624.54   43.70
   1   1   6  139.59   10.90
   2   1   6  244.38   13.90
   2   1   6  258.87   13.40
   3   1   6    4.60    6.70
   3   1   6   18.50    6.90
   4   1   6  853.91   29.00
   4   1   6  854.51   31.00
   5   1   6  867.21   30.50
   5   1   6  838.02   33.60
   6   1   6   11.40    8.80
   6   1   6   -1.60   10.20
   7  -2  -6   41.60    7.50
   7  -2  -6   56.29   10.20
   6  -2  -6  201.58   13.30
   6  -2  -6  192.78   15.40
   6  -2  -6  190.38   11.10
   5  -2  -6  155.88   11.60
   5  -2  -6  163.98   12.70
   4  -2  -6  605.04   21.50
   4  -2  -6  614.74   20.50
   3  -2  -6  457.25   16.90
   3  -2  -6  456.45   17.70
  -3   2   6  442.56   16.30
   2  -2  -6   -0.80    5.10
   2  -2  -6    4.40    5.80
  -2   2   6    5.40    5.10
   1  -2  -6   18.70    6.60
  -1   2   6   14.50    5.90
   0  -2  -6   -5.30    6.40
   0   2   6    4.10    5.80
  -1  -2  -6   24.60    7.60
   1   2   6   31.70    6.90
   1   2   6   25.70    6.50
   2   2   6   96.49    9.10
   2   2   6  127.49   11.50
   3   2   6   38.80    8.40
   3   2   6   38.10    8.50
   4   2   6  193.88   17.30
   4   2   6  219.28   16.40
   5   2   6   -6.00    8.40
   5   2   6   16.90   10.10
   6   2   6   31.70   10.40
   6   2   6   32.20   12.90
   7  -3  -6   14.30    7.50
   6  -3  -6   29.10    8.50
   6  -3  -6   47.80    8.10
   5  -3  -6  314.67   15.30
   5  -3  -6  335.97   15.90
  -5   3   6  324.17   15.10
   4  -3  -6   75.89    8.10
   4  -3  -6   68.19    8.10
  -4   3   6   45.60    7.50
   3  -3  -6  181.38   11.30
   3  -3  -6  185.08   11.90
  -3   3   6  175.28   11.60
   2  -3  -6  270.27   13.90
   2  -3  -6  283.37   13.30
  -2   3   6  277.97   13.10
   1  -3  -6  734.43   25.20
  -1   3   6  820.42   24.90
   0  -3  -6   38.60    8.40
   0   3   6   54.99    7.90
  -1  -3  -6 1666.23   47.80
   1   3   6 1641.64   46.80
   1   3   6 1647.44   43.10
  -2  -3  -6   32.20    9.50
   2   3   6   17.10    7.60
   2   3   6   33.80    7.60
   3   3   6  783.32   29.70
   3   3   6  770.72   27.00
  -4  -3  -6 1150.18   40.40
   4   3   6 1215.58   37.70
   4   3   6 1157.88   41.30
  -5  -3  -6  438.96   24.60
   5   3   6  455.25   25.80
   5   3   6  408.06   22.40
   8  -4  -6  152.98   14.40
   7  -4  -6  108.49   10.10
   6  -4  -6    7.10    7.10
   6  -4  -6   15.40    7.30
   5  -4  -6  498.05   19.80
   5  -4  -6  505.85   19.90
  -5   4   6  502.85   20.00
   4  -4  -6  757.02   24.70
   4  -4  -6  753.42   25.40
  -4   4   6  760.72   25.20
   3  -4  -6  395.16   16.20
   3  -4  -6  386.56   16.80
  -3   4   6  381.16   16.10
   2  -4  -6  515.65   18.20
   2  -4  -6  477.25   19.10
  -2   4   6  497.95   18.60
   1  -4  -6  583.34   22.30
  -1   4   6  599.24   21.50
   0  -4  -6  881.21   29.70
   0   4   6  883.71   28.70
  -1  -4  -6  569.24   24.50
   1   4   6  552.34   19.60
   1   4   6  576.94   22.20
  -2  -4  -6  170.68   15.10
   2   4   6  148.49   14.30
   2   4   6  154.18   13.30
  -3  -4  -6  131.49   15.10
   3   4   6  121.29   14.60
   3   4   6  135.19   12.60
  -4  -4  -6   12.70   10.60
   4   4   6   -2.60    8.90
   4   4   6    3.60   10.70
  -5  -4  -6    7.10   11.50
   5   4   6    5.60   11.90
   5   4   6   -1.40    9.60
   9  -5  -6  101.59   12.20
   8  -5  -6  245.68   17.60
   7  -5  -6  241.78   16.50
   6  -5  -6   43.90    9.10
  -6   5   6   47.90   10.00
   5  -5  -6   87.09   10.40
  -5   5   6  123.19   11.80
   4  -5  -6  271.37   14.90
   4  -5  -6  250.17   14.50
  -4   5   6  258.57   15.00
   3  -5  -6   96.39    9.20
   3  -5  -6  113.29   11.40
  -3   5   6  112.79   11.00
   2  -5  -6  364.46   17.30
  -2   5   6  362.86   16.60
   1  -5  -6   79.19   10.30
  -1   5   6   74.49    9.70
   0  -5  -6  502.95   22.20
   0   5   6  485.75   20.60
  -1  -5  -6  557.84   25.50
   1   5   6  554.24   23.30
  -2  -5  -6  140.69   14.90
   2   5   6  121.49   11.60
   2   5   6  149.29   15.40
  -3  -5  -6   -4.10   10.50
   3   5   6  -16.00   11.20
   3   5   6    5.90    8.70
  -4  -5  -6   26.10   11.50
   4   5   6    1.60    9.30
   4   5   6   10.00   12.20
   8  -6  -6   36.60   10.40
   7  -6  -6   30.80    9.70
  -7   6   6   17.40   10.10
   6  -6  -6  327.97   19.20
  -6   6   6  326.97   19.10
   5  -6  -6  522.95   22.20
  -5   6   6  560.84   22.90
   4  -6  -6  378.96   18.40
   4  -6  -6  364.26   17.70
  -4   6   6  372.86   18.30
   3  -6  -6  625.84   22.30
   3  -6  -6  587.24   23.60
  -3   6   6  571.84   22.10
   2  -6  -6  571.34   23.40
  -2   6   6  535.15   21.40
   1  -6  -6  113.19   12.90
  -1   6   6  104.99   11.10
   0  -6  -6  906.01   32.30
   0   6   6  812.52   29.90
  -1  -6  -6  444.96   24.00
   1   6   6  430.46   22.80
  -2  -6  -6   62.99   13.00
   2   6   6   48.40   13.10
  -3  -6  -6   35.90   12.40
   3   6   6   19.60   13.00
  -4  -6  -6   39.50   12.90
   4   6   6   42.60   14.50
   4   6   6   41.60   10.90
   8  -7  -6  164.88   16.10
  -8   7   6  193.88   18.50
   7  -7  -6    3.30    9.10
  -7   7   6   -5.50   10.00
   6  -7  -6  447.46   22.20
  -6   7   6  448.96   23.20
   5  -7  -6  330.47   18.50
  -5   7   6  343.67   19.30
   4  -7  -6   -8.00    8.00
   4  -7  -6   -2.10    7.10
  -4   7   6   13.70    8.50
   3  -7  -6   35.10    8.20
   3  -7  -6   43.30   10.30
  -3   7   6   46.40    8.70
   2  -7  -6  131.29   14.00
  -2   7   6  130.99   13.00
   1  -7  -6    4.60   10.80
  -1   7   6   -7.30    7.90
   0  -7  -6    3.90   11.20
   0   7   6    8.90    9.20
  -1  -7  -6   90.09   14.60
   1   7   6   80.19   13.60
  -2  -7  -6   40.90   12.70
   2   7   6   41.40   13.20
  -3  -7  -6   19.60   12.40
   3   7   6   22.50   13.80
   8  -8  -6   -5.50   10.80
  -8   8   6   12.50   11.30
   7  -8  -6   22.60   11.10
  -7   8   6   15.00   12.10
   6  -8  -6    6.10    8.90
  -6   8   6    3.80   10.20
   5  -8  -6    8.10    8.50
  -5   8   6   14.90    9.90
   4  -8  -6  244.68   18.80
   4  -8  -6  211.98   16.70
  -4   8   6  248.18   16.00
   3  -8  -6  281.47   20.90
  -3   8   6  284.57   16.50
   2  -8  -6  401.26   24.60
  -2   8   6  393.86   19.60
   1  -8  -6   16.30   12.70
  -1   8   6   11.70    8.90
   0  -8  -6   18.70   13.00
   0   8   6   30.60   10.80
  -1  -8  -6   14.80   12.30
   1   8   6   10.70   11.10
  -2  -8  -6  112.09   16.10
   2   8   6   82.59   16.00
   7  -9  -6  185.28   17.10
  -7   9   6  187.08   18.90
   6  -9  -6  469.15   23.70
  -6   9   6  458.05   24.50
   5  -9  -6  343.17   19.90
  -5   9   6  274.47   19.40
   4  -9  -6   33.50   12.10
   4  -9  -6   30.80    9.60
  -4   9   6   18.50    8.90
   3  -9  -6   20.30   12.60
  -3   9   6   34.80    9.20
   2  -9  -6  -13.70   12.60
  -2   9   6  -10.20    7.90
   1  -9  -6  123.69   17.80
  -1   9   6  145.89   14.60
   0  -9  -6  348.07   26.20
   0   9   6  327.37   22.10
  -1  -9  -6   10.20   14.50
   1   9   6    6.80   12.50
   6 -10  -6   42.90   11.40
  -6  10   6   34.20   11.60
   5 -10  -6   81.49   11.90
  -5  10   6   61.99   12.10
   4 -10  -6    1.60    8.50
   4 -10  -6  -16.90   12.00
  -4  10   6    0.00    8.20
   3 -10  -6   -4.00    8.00
   3 -10  -6   -7.40   13.00
  -3  10   6   14.30    8.80
   2 -10  -6  137.69   19.00
  -2  10   6  125.89   14.20
   1 -10  -6   42.70   15.80
  -1  10   6   29.80   11.90
   0 -10  -6   20.00   15.70
   0  10   6   14.70   12.10
   5 -11  -6    0.80    9.10
  -5  11   6    1.50    8.80
   4 -11  -6   29.20    9.90
  -4  11   6   50.09   11.00
   3 -11  -6   40.50   16.00
  -3  11   6   40.00   10.50
   2 -11  -6  -11.30   15.00
  -2  11   6   -3.70   10.60
   1  11  -7   12.20   12.40
   0  11  -7  399.06   24.80
   0 -11   7  335.17   24.40
  -1  11  -7   -7.20   11.60
   1 -11   7   -2.30   11.50
  -2  11  -7  211.88   20.00
   2 -11   7  199.58   18.50
  -3  11  -7  105.69   14.40
   3 -11   7  106.19   16.60
   2  10  -7   18.20   11.40
   1  10  -7   27.30   12.40
   0  10  -7  190.98   17.60
   0 -10   7  160.18   17.30
  -1  10  -7    0.80   11.70
   1 -10   7   17.90   12.40
  -2  10  -7  105.19   13.80
   2 -10   7  125.59   16.50
  -3  10  -7   20.20   10.80
   3 -10   7   20.00   12.00
  -4  10  -7    6.50    9.80
   4 -10   7   -8.20   15.70
   4 -10   7    9.80    9.20
  -5  10  -7   -1.50   10.00
   5 -10   7  -11.80    8.80
   5 -10   7   16.70   16.40
   3   9  -7  130.89   15.00
  -3  -9   7  198.28   23.00
   2   9  -7    6.70   10.70
   1   9  -7   97.69   13.80
  -1  -9   7  118.79   15.00
   0   9  -7   -5.70   11.20
   0  -9   7    7.80   11.80
  -1   9  -7  348.87   21.00
   1  -9   7  310.47   23.60
  -2   9  -7 1295.47   40.70
   2  -9   7 1327.77   45.20
  -3   9  -7  386.36   21.70
   3  -9   7  473.05   27.20
   3  -9   7  413.96   21.60
  -4   9  -7  107.09   13.30
   4  -9   7   90.49   17.60
   4  -9   7  126.89   13.70
  -5   9  -7   19.30   10.50
   5  -9   7   28.00    9.90
   5  -9   7   28.20   17.70
   4   8  -7  249.18   21.10
  -4  -8   7  232.08   25.20
   3   8  -7    1.10   11.20
   2   8  -7  109.49   14.50
   1   8  -7  480.75   24.20
  -1  -8   7  471.55   24.80
   0   8  -7  -24.70    8.60
   0  -8   7   -3.10   10.90
  -1   8  -7    1.00    9.00
   1  -8   7   14.10   11.10
  -2   8  -7   26.30    9.70
   2  -8   7   21.30   11.20
   2  -8   7   23.30    8.30
  -3   8  -7  -13.20    8.90
   3  -8   7  -16.50   12.60
   3  -8   7    0.20    7.30
  -4   8  -7  115.69   12.60
   4  -8   7  123.39   13.00
   4  -8   7  128.29   18.80
  -5   8  -7   79.89   12.30
   5  -8   7   75.49   11.70
   5  -8   7   79.39   17.90
  -6   8  -7   62.79   12.50
   6  -8   7   53.59   11.10
   6  -8   7   12.50   16.20
   5   7  -7  213.58   21.00
  -5  -7   7  242.88   25.50
   4   7  -7   36.20   12.90
  -4  -7   7   12.90   16.40
   3   7  -7    1.50    9.80
   2   7  -7   49.40   11.40
   1   7  -7  671.33   27.00
  -1  -7   7  688.83   27.50
   0   7  -7  202.68   16.30
   0  -7   7  230.68   18.20
  -1   7  -7   70.19   10.20
   1  -7   7   57.09   11.90
  -2   7  -7    8.70    8.50
   2  -7   7   11.20   11.60
   2  -7   7   23.50    7.00
  -3   7  -7    0.20    8.20
   3  -7   7   -2.50    7.10
   3  -7   7   11.10   12.70
  -4   7  -7  181.38   16.30
   4  -7   7  119.79   12.70
   4  -7   7  103.19   16.60
  -5   7  -7  186.38   18.20
   5  -7   7  161.08   16.60
   5  -7   7  126.29   19.20
  -6   7  -7   11.30   11.50
   6  -7   7   -9.20   14.10
   6  -7   7   25.10   10.10
   6   6  -7   -1.80   11.90
  -6  -6   7    8.80   18.40
   5   6  -7  307.47   23.10
   4   6  -7  318.37   21.90
   3   6  -7  -10.40    9.00
   3   6  -7   15.00   10.10
   2   6  -7  659.53   26.40
  -2  -6   7  706.63   26.70
   1   6  -7  399.36   19.90
  -1  -6   7  422.86   20.10
   0   6  -7   17.90    7.60
   0  -6   7   34.60    9.30
  -1   6  -7  398.96   18.00
   1  -6   7  420.76   21.40
  -2   6  -7    3.10    7.70
   2  -6   7   -1.40    5.90
   2  -6   7  -16.10   10.10
  -3   6  -7   84.39   10.20
   3  -6   7   92.79   10.50
   3  -6   7   99.69   15.30
  -4   6  -7  394.56   21.10
   4  -6   7  348.87   25.40
   4  -6   7  427.26   21.40
  -5   6  -7  179.58   15.50
   5  -6   7  182.48   17.30
   5  -6   7  145.29   18.60
  -6   6  -7   72.39   13.50
   6  -6   7   54.99   11.60
   6   5  -7   36.60   12.90
   5   5  -7  651.53   30.00
   5   5  -7  705.33   29.60
   4   5  -7  253.47   19.00
   4   5  -7  279.37   19.40
   3   5  -7   -1.40    8.30
   3   5  -7   23.40    9.60
   2   5  -7   59.79    9.50
  -2  -5   7   49.30    9.80
   1   5  -7   23.20    7.60
  -1  -5   7   18.50    8.30
   0   5  -7  811.62   25.80
   0  -5   7  787.32   27.50
  -1   5  -7  619.34   22.20
   1  -5   7  610.74   24.50
  -2   5  -7  226.08   14.40
   2  -5   7  230.98   13.70
   2  -5   7  242.98   18.90
  -3   5  -7   25.80    8.60
   3  -5   7    9.10    7.50
   3  -5   7    9.70   11.70
  -4   5  -7  135.89   13.30
   4  -5   7  114.89   12.60
   4  -5   7   90.89   15.30
  -5   5  -7  124.09   14.40
   5  -5   7   95.79   13.10
  -6   5  -7   17.50   12.20
   6  -5   7   -3.20    8.60
   7   4  -7   -2.90   11.10
   6   4  -7   15.60   12.00
   6   4  -7   11.50   11.10
   5   4  -7  151.78   15.90
   5   4  -7  131.99   14.10
   4   4  -7   17.50    9.10
   4   4  -7    3.40    9.20
   3   4  -7   61.39   10.20
   3   4  -7   58.99   10.40
  -3  -4   7   51.79    9.30
   2   4  -7  201.28   14.50
   2   4  -7  222.48   15.90
  -2  -4   7  221.58   14.60
   1   4  -7  243.88   13.70
  -1  -4   7  243.08   15.50
   0   4  -7  176.88   11.60
   0  -4   7  158.08   14.00
  -1   4  -7  149.59   11.70
   1  -4   7  185.38   14.60
   1  -4   7  158.68   10.90
  -2   4  -7   -1.00    6.80
   2  -4   7    9.40    6.30
   2  -4   7    2.50    9.30
  -3   4  -7 1316.67   38.70
   3  -4   7 1331.07   40.70
   3  -4   7 1278.97   42.70
  -4   4  -7   33.80   10.70
   4  -4   7   17.60    8.60
  -5   4  -7   52.59   11.30
   5  -4   7   68.69   11.60
  -6   4  -7  300.67   22.10
   6  -4   7  293.97   20.80
   7   3  -7  152.18   16.50
   7   3  -7  114.99   15.10
   6   3  -7   47.10   12.50
   6   3  -7   34.40   11.40
   5   3  -7   -2.30    8.50
   5   3  -7    5.90    9.00
   4   3  -7  198.38   15.40
   4   3  -7  173.68   15.00
   3   3  -7 1796.72   51.19
   3   3  -7 1808.52   50.29
  -3  -3   7 1797.22   48.20
   2   3  -7 2503.25   67.29
   2   3  -7 2474.45   65.59
  -2  -3   7 2596.44   64.89
   1   3  -7    4.20    5.30
  -1  -3   7    5.60    6.90
   0   3  -7  738.73   23.40
   0  -3   7  757.92   25.40
  -1   3  -7   25.30    6.20
   1  -3   7   14.70    7.70
   1  -3   7   18.00    5.80
  -2   3  -7  405.26   18.10
   2  -3   7  442.36   18.10
   2  -3   7  452.85   20.60
  -3   3  -7 1979.30   53.79
   3  -3   7 1944.71   56.19
  -4   3  -7   86.19   11.60
   4  -3   7   66.89   10.70
  -5   3  -7  104.39   13.50
   5  -3   7   90.09   12.30
  -6   3  -7   84.09   13.70
   6  -3   7   67.79   12.20
   8   2  -7   76.19   13.80
   8   2  -7   90.89   15.20
   7   2  -7    9.20    9.40
   7   2  -7  -24.40   10.00
   6   2  -7    1.80    9.00
   6   2  -7   -7.20    9.90
   5   2  -7    1.70    7.40
   5   2  -7    6.10    9.00
   4   2  -7   63.39    9.50
   4   2  -7   65.59    9.40
   3   2  -7  185.58   14.50
   3   2  -7  191.28   13.30
  -3  -2   7  165.38   12.90
   2   2  -7 1001.00   30.10
   2   2  -7  975.30   30.80
  -2  -2   7 1038.40   29.80
   1   2  -7  182.18   11.10
  -1  -2   7  195.58   12.80
   0   2  -7 1068.79   30.50
   0  -2   7 1136.09   32.40
  -1   2  -7   46.80    7.10
   1  -2   7   60.19    7.30
   1  -2   7   58.99    9.10
  -2   2  -7  183.88   13.40
   2  -2   7  158.88   12.10
  -3   2  -7    5.40    7.50
   3  -2   7   11.80    7.40
  -4   2  -7  321.87   18.80
   4  -2   7  327.17   18.70
   5  -2   7  657.83   27.80
   6  -2   7  483.15   25.00
   8   1  -7   36.80   12.10
   8   1  -7   40.60   10.90
   7   1  -7   45.50   11.60
   7   1  -7   39.60    9.70
   6   1  -7  156.38   14.90
   6   1  -7  145.69   12.70
   5   1  -7   -3.50    8.10
   5   1  -7   -5.20    5.70
   4   1  -7  368.16   17.80
   4   1  -7  381.66   16.60
  -4  -1   7  354.96   16.30
   3   1  -7 1522.05   43.40
   3   1  -7 1489.25   41.90
  -3  -1   7 1562.34   41.40
   2   1  -7   68.39    8.20
   2   1  -7   83.59    8.60
  -2  -1   7   69.99    8.30
   1   1  -7  389.66   14.40
  -1  -1   7  380.16   16.10
   0   1  -7  901.51   26.10
   0  -1   7  933.71   27.50
  -1   1  -7   23.50    5.50
   1  -1   7   15.80    6.00
  -2   1  -7 2176.68   57.29
   2  -1   7 2218.28   60.29
  -3   1  -7  679.03   24.80
   3  -1   7  711.83   26.20
   4  -1   7   91.39   11.40
   5  -1   7  728.73   30.00
   6  -1   7   61.79   11.10
   8   0  -7   20.70   11.00
   8   0  -7   23.30    8.80
   7   0  -7  367.36   19.30
   7   0  -7  365.36   21.50
   6   0  -7  722.23   28.50
   6   0  -7  731.13   25.40
   5   0  -7   58.09    9.70
   5   0  -7   64.39    7.80
   4   0  -7  499.05   20.30
   3   0  -7   50.89    7.30
   3   0  -7   52.49    8.00
  -3   0   7   53.99    7.80
   2   0  -7  542.85   18.20
   2   0  -7  541.05   19.40
  -2   0   7  546.25   18.90
   1   0  -7  216.38   12.40
  -1   0   7  220.08   12.50
   0   0  -7  484.05   16.30
   0   0   7  486.35   17.20
   0   0   7  464.15   16.60
  -1   0  -7    6.70    4.90
   1   0   7    3.60    5.80
  -2   0  -7  359.96   15.70
   2   0   7  350.36   16.60
   3   0   7   23.60    8.00
   4   0   7   10.40    9.40
   4   0   7   11.40    8.30
   5   0   7   32.60    9.30
   5   0   7   22.20   10.30
   6   0   7   17.30   10.00
   6   0   7   15.20   11.50
   8  -1  -7   70.29   12.20
   8  -1  -7   74.19   10.00
   7  -1  -7  147.89   14.40
   6  -1  -7   22.00    9.60
   6  -1  -7   10.80    5.60
   6  -1  -7   16.80    6.70
   5  -1  -7  229.58   15.00
   5  -1  -7  208.18   11.60
   5  -1  -7  214.38   12.80
   4  -1  -7   -3.30    5.80
   4  -1  -7   -3.50    3.90
   4  -1  -7    2.50    5.10
   3  -1  -7    4.30    5.60
   2  -1  -7   41.80    7.50
  -2   1   7   30.70    6.90
   1  -1  -7 1081.09   32.10
  -1   1   7 1084.99   30.30
  -1   1   7 1090.39   30.30
   0  -1  -7  228.08   10.80
   0   1   7  263.17   12.30
  -1  -1  -7   90.19    8.00
   1   1   7   77.19    8.50
   2   1   7  782.12   26.70
   3   1   7   24.00    7.90
   3   1   7   27.90    8.60
   4   1   7   21.20    9.00
   4   1   7   18.80    8.60
   5   1   7  270.87   20.20
   5   1   7  272.57   18.50
   6   1   7    4.90   11.60
   6   1   7   27.10   10.20
   8  -2  -7   85.39   12.40
   7  -2  -7  542.75   24.60
   7  -2  -7  526.65   21.40
   6  -2  -7  547.95   21.10
   6  -2  -7  572.24   23.70
   5  -2  -7   50.09    8.70
   5  -2  -7   40.10    7.10
   4  -2  -7  519.15   18.90
   4  -2  -7  537.25   20.20
   3  -2  -7   29.70    6.20
   3  -2  -7   25.00    6.80
   2  -2  -7 2891.21   76.29
  -2   2   7 2956.20   74.79
   1  -2  -7 3095.99   80.49
  -1   2   7 3169.18   79.49
  -1   2   7 3034.10   76.19
   0  -2  -7  607.54   21.80
   0  -2  -7  602.54   18.80
   0   2   7  624.34   20.90
   1   2   7   71.59    8.70
   2   2   7   11.90    7.10
   2   2   7   16.20    7.10
   3   2   7  475.55   20.50
   3   2   7  465.95   21.70
   4   2   7  918.31   34.50
   4   2   7  948.31   31.90
   5   2   7  254.37   21.40
   5   2   7  223.78   17.90
   7  -3  -7  158.38   14.50
   7  -3  -7  150.28   14.20
   6  -3  -7   40.30    8.60
   6  -3  -7   36.20    9.00
   5  -3  -7  151.18   12.40
   5  -3  -7  175.88   13.30
  -5   3   7  158.18   12.30
   4  -3  -7  573.44   21.30
   4  -3  -7  559.94   20.50
  -4   3   7  580.24   20.30
   3  -3  -7  267.67   13.50
   3  -3  -7  262.87   13.90
  -3   3   7  260.27   12.30
   2  -3  -7  392.46   16.90
   2  -3  -7  395.76   15.80
  -2   3   7  394.66   15.80
   1  -3  -7  177.98   13.10
  -1   3   7  199.78   12.00
   0  -3  -7  385.56   18.00
   0   3   7  376.26   16.80
  -1  -3  -7   33.90    9.00
   1   3   7   23.90    7.00
   1   3   7   31.60    7.80
   2   3   7   -2.20    7.40
   2   3   7    1.70    7.00
   3   3   7   14.50    8.50
   3   3   7   16.10    8.80
  -4  -3  -7   40.10   11.70
   4   3   7   24.10   11.20
   4   3   7   26.00    9.60
   5   3   7  100.59   12.90
   5   3   7   81.29   14.60
   8  -4  -7    6.00    7.80
   7  -4  -7   29.70    8.40
   6  -4  -7   56.69    9.20
   6  -4  -7   61.59    9.40
  -6   4   7   66.29    9.90
   5  -4  -7  631.54   23.50
   5  -4  -7  647.34   24.10
  -5   4   7  674.73   23.60
   4  -4  -7  649.64   23.40
   4  -4  -7  596.44   21.70
  -4   4   7  623.64   22.30
   3  -4  -7   -2.00    5.90
   3  -4  -7   -3.40    5.40
  -3   4   7   -5.70    5.70
   2  -4  -7  132.19   11.70
   2  -4  -7  134.89   12.00
  -2   4   7  147.69   11.30
   1  -4  -7   -0.30    6.30
  -1   4   7    6.80    7.10
   0  -4  -7  711.33   26.90
   0   4   7  746.03   25.90
  -1  -4  -7  989.20   33.60
   1   4   7  961.80   32.10
   1   4   7  917.01   28.40
  -2  -4  -7   48.70   12.10
   2   4   7   58.99   10.80
   2   4   7   54.39    9.10
   3   4   7  125.39   15.30
   3   4   7  142.89   12.90
  -4  -4  -7  260.47   22.00
   4   4   7  245.78   22.10
   4   4   7  305.27   18.60
   8  -5  -7   63.39   10.80
   7  -5  -7   85.39   11.30
  -7   5   7   81.39   11.60
   6  -5  -7  159.88   15.10
  -6   5   7  153.98   14.70
   5  -5  -7  526.55   22.10
   5  -5  -7  511.85   21.30
  -5   5   7  566.54   22.10
   4  -5  -7  337.77   16.40
   4  -5  -7  312.67   16.90
  -4   5   7  330.67   16.30
   3  -5  -7  181.48   13.20
   3  -5  -7  141.19   13.00
  -3   5   7  179.98   12.20
   2  -5  -7   46.40    8.70
  -2   5   7   57.59    8.70
   1  -5  -7    1.20    7.10
  -1   5   7   -4.20    7.20
   0  -5  -7  690.33   27.10
   0   5   7  658.33   25.60
  -1  -5  -7  842.02   32.40
   1   5   7  857.31   30.90
  -2  -5  -7   17.00   12.20
   2   5   7   42.50   11.20
  -3  -5  -7   17.20   11.00
   3   5   7    6.10    9.10
   3   5   7   -0.80   11.30
  -4  -5  -7   21.50   11.70
   4   5   7   23.10   13.30
   4   5   7    6.70    9.70
   8  -6  -7   77.69   12.10
   7  -6  -7    2.60    8.60
  -7   6   7   11.40    9.60
   6  -6  -7   17.00    9.20
   6  -6  -7   32.40    8.90
  -6   6   7   27.10   10.20
   5  -6  -7   59.89    9.90
   5  -6  -7   62.99   10.00
  -5   6   7   81.49   11.20
   4  -6  -7   66.99    9.80
   4  -6  -7   51.39    9.70
  -4   6   7   73.69    9.80
   3  -6  -7   17.60    7.80
   3  -6  -7   21.70    8.70
  -3   6   7   31.00    8.40
   2  -6  -7    2.30    7.60
  -2   6   7    7.10    7.40
   1  -6  -7  111.69   12.80
  -1   6   7  107.39   11.80
   0  -6  -7  460.95   23.40
   0   6   7  429.96   21.50
  -1  -6  -7   41.30   12.40
   1   6   7   19.50   10.10
  -2  -6  -7   22.30   12.20
   2   6   7   15.60   11.30
  -3  -6  -7    3.80   10.40
   3   6   7    0.70   13.00
   8  -7  -7   80.89   12.30
  -8   7   7   93.49   13.60
   7  -7  -7   27.10   10.10
  -7   7   7    7.20   11.30
   6  -7  -7   47.00    9.90
  -6   7   7   65.89   11.80
   5  -7  -7   89.99   11.40
  -5   7   7   97.99   12.40
   4  -7  -7  200.68   17.40
   4  -7  -7  202.98   15.90
  -4   7   7  238.68   15.10
   3  -7  -7  337.77   20.50
   3  -7  -7  367.26   18.20
  -3   7   7  309.77   17.50
   2  -7  -7  310.47   21.10
  -2   7   7  297.27   17.30
   1  -7  -7    5.70   11.40
  -1   7   7   -0.20    8.30
   0  -7  -7  268.87   20.30
   0   7   7  243.08   17.70
  -1  -7  -7  127.79   16.10
   1   7   7  108.59   14.70
  -2  -7  -7   31.10   12.70
   2   7   7   23.20   13.30
   8  -8  -7   28.80   12.10
  -8   8   7   10.80   12.80
   7  -8  -7  260.97   19.40
  -7   8   7  247.38   19.10
   6  -8  -7  474.15   22.90
  -6   8   7  453.65   23.00
   5  -8  -7   83.29   12.10
   5  -8  -7  108.19   12.40
  -5   8   7  113.49   13.50
   4  -8  -7    1.70   10.10
   4  -8  -7    0.70    8.30
  -4   8   7   -1.20    7.60
   3  -8  -7   40.70   12.20
  -3   8   7   50.49   10.00
   2  -8  -7  -19.40   11.40
  -2   8   7   -2.10    8.00
   1  -8  -7   96.29   16.20
  -1   8   7  121.99   13.30
   0  -8  -7   53.19   14.30
   0   8   7   53.39   11.60
  -1  -8  -7   13.00   11.90
   1   8   7    1.30   11.40
  -2  -8  -7    6.50   12.10
   2   8   7   -3.70   14.00
   7  -9  -7   22.20    9.90
  -7   9   7    4.50   10.40
   6  -9  -7   40.70   10.60
  -6   9   7   53.29   11.90
   5  -9  -7  134.19   13.30
  -5   9   7  118.09   13.10
   4  -9  -7  174.48   16.10
   4  -9  -7  146.59   16.90
  -4   9   7  175.68   15.00
   3  -9  -7  239.08   22.90
  -3   9   7  230.08   16.40
   2  -9  -7  123.49   18.50
  -2   9   7  141.99   14.00
   1  -9  -7    1.30   13.50
  -1   9   7    1.70    9.40
   0  -9  -7   -6.00   14.00
   0   9   7   -0.30   11.10
   6 -10  -7  130.89   14.60
  -6  10   7  118.59   14.50
   5 -10  -7   10.30    8.80
   5 -10  -7    7.10   11.70
  -5  10   7    6.40    9.00
   4 -10  -7  161.98   18.90
   4 -10  -7  206.28   17.00
  -4  10   7  210.58   16.90
   3 -10  -7  204.28   20.90
  -3  10   7  238.68   17.30
   2 -10  -7   -0.70   15.90
  -2  10   7   39.20   10.50
   1 -10  -7  153.48   20.90
  -1  10   7  192.08   19.40
   0  11  -8   20.80   13.30
   0 -11   8   31.00   13.30
  -1  11  -8  -28.10   12.60
   1 -11   8   -0.40   12.00
  -2  11  -8  196.48   17.80
   2 -11   8  233.48   22.80
   2  10  -8   82.69   14.50
   1  10  -8   35.10   12.90
  -1 -10   8   45.90   13.90
   0  10  -8  177.58   17.60
   0 -10   8  147.09   17.80
  -1  10  -8  146.99   15.60
   1 -10   8  144.59   17.40
  -2  10  -8  644.44   28.40
   2 -10   8  617.54   31.50
  -3  10  -8  146.99   15.10
   3 -10   8  163.18   18.10
  -4  10  -8   -3.40   10.00
   4 -10   8   10.70   15.40
   3   9  -8    0.60   11.10
  -3  -9   8    9.00   16.80
   2   9  -8  -11.70   10.80
   1   9  -8   98.19   14.40
  -1  -9   8   73.69   14.40
   0   9  -8    7.60   11.60
   0  -9   8   18.40   12.80
  -1   9  -8   29.40   11.10
   1  -9   8   37.40   13.30
  -2   9  -8   51.59   11.20
   2  -9   8   13.40   12.90
  -3   9  -8  -19.10    9.40
   3  -9   8    2.10   14.10
  -4   9  -8   -3.10   10.30
   4  -9   8   13.00    8.60
   4  -9   8   14.90   15.40
  -5   9  -8    6.50   11.00
   5  -9   8   -2.80   17.30
   5  -9   8   -4.70    8.50
   4   8  -8   24.30   12.50
  -4  -8   8   58.29   18.70
   3   8  -8   60.99   12.70
  -3  -8   8   52.59   16.60
   2   8  -8  114.99   14.80
   1   8  -8  158.68   15.60
  -1  -8   8  162.58   16.00
   0   8  -8   14.20   10.00
   0  -8   8   11.30   11.40
  -1   8  -8  251.57   17.90
   1  -8   8  273.07   22.30
  -2   8  -8  412.86   21.40
   2  -8   8  438.06   26.70
  -3   8  -8   12.30   10.20
   3  -8   8   -1.90   14.10
   3  -8   8   15.60    8.00
  -4   8  -8  181.18   17.30
   4  -8   8  127.89   13.50
   4  -8   8  141.49   18.80
  -5   8  -8   67.69   12.00
   5  -8   8   59.39   11.20
   5  -8   8   47.60   17.80
   5   7  -8  129.99   17.50
   4   7  -8  150.38   16.20
   3   7  -8   55.59   12.50
   2   7  -8  133.19   14.60
   1   7  -8   91.09   13.30
  -1  -7   8   94.49   12.80
   0   7  -8   71.29   11.20
   0  -7   8   92.19   12.90
  -1   7  -8   19.70    8.90
   1  -7   8   22.40   11.00
  -2   7  -8   21.10    8.90
   2  -7   8   12.60    7.20
   2  -7   8   24.20   13.10
  -3   7  -8    2.00    8.90
   3  -7   8    2.90    7.20
   3  -7   8  -23.20   12.40
  -4   7  -8  339.47   19.80
   4  -7   8  328.17   26.20
   4  -7   8  352.06   19.80
  -5   7  -8   14.30   10.50
   5  -7   8   18.70   15.30
   5  -7   8   15.20    9.50
  -6   7  -8    3.60   11.20
   6  -7   8   20.90    9.90
   6   6  -8   80.09   16.50
   5   6  -8   83.69   14.40
   4   6  -8   54.29   12.10
   4   6  -8   61.99   13.60
   3   6  -8   87.19   13.60
   3   6  -8   98.19   13.50
   2   6  -8  269.37   18.60
   1   6  -8  443.26   20.70
  -1  -6   8  440.96   21.70
   0   6  -8  151.28   13.80
   0  -6   8  151.98   13.80
  -1   6  -8   -6.40    7.20
   1  -6   8   -0.80    9.30
  -2   6  -8    3.60    7.90
   2  -6   8   11.60    6.40
   2  -6   8    6.70   11.70
  -3   6  -8  364.56   18.90
   3  -6   8  368.06   26.30
   3  -6   8  362.96   19.20
  -4   6  -8  406.46   21.50
   4  -6   8  348.77   27.20
   4  -6   8  421.26   21.50
  -5   6  -8  350.26   21.80
   5  -6   8  321.47   20.70
   5  -6   8  279.87   25.50
  -6   6  -8   -7.40   10.60
   6  -6   8   -2.90    8.60
   6   5  -8   -2.50   11.90
   6   5  -8   34.10   11.50
   5   5  -8  429.76   25.10
   5   5  -8  425.66   24.30
   4   5  -8   32.30   11.40
   4   5  -8   31.50   11.20
   3   5  -8  190.88   17.20
   3   5  -8  204.38   17.60
   2   5  -8  963.80   32.80
  -2  -5   8  996.80   32.70
   1   5  -8   54.69    9.20
  -1  -5   8   62.39   10.50
   0   5  -8  332.57   16.30
   0  -5   8  324.27   18.20
  -1   5  -8  876.41   28.10
   1  -5   8  839.62   30.80
  -2   5  -8   29.10    7.90
   2  -5   8   53.69   12.10
   2  -5   8   47.10    8.00
  -3   5  -8  593.84   23.80
   3  -5   8  586.84   24.20
   3  -5   8  578.14   29.20
  -4   5  -8  520.65   24.10
   4  -5   8  446.06   28.50
   4  -5   8  546.25   24.50
  -5   5  -8   11.70   10.60
   5  -5   8   20.50    9.70
  -6   5  -8   65.29   13.90
   6  -5   8   32.20   10.60
   7   4  -8  151.88   17.70
   7   4  -8  169.18   19.10
   6   4  -8   29.40   12.60
   6   4  -8   31.50   12.20
   5   4  -8   24.90   10.70
   5   4  -8   33.80   11.50
   4   4  -8    4.30    8.80
   4   4  -8   -4.10    9.10
   3   4  -8  380.26   20.00
   3   4  -8  409.26   20.10
  -3  -4   8  384.86   19.50
   2   4  -8  952.20   31.90
  -2  -4   8  992.10   31.20
   1   4  -8   -3.80    5.90
  -1  -4   8    3.80    7.60
   0   4  -8  287.47   14.20
   0  -4   8  281.07   17.20
  -1   4  -8  133.69   11.80
   1  -4   8  114.09   12.00
  -2   4  -8    1.00    7.10
   2  -4   8   20.20   10.50
   2  -4   8   18.00    7.00
  -3   4  -8  121.79   12.00
   3  -4   8   65.69   14.10
   3  -4   8  122.39   12.20
  -4   4  -8  106.99   13.30
   4  -4   8  105.29   12.70
  -5   4  -8   32.20   11.60
   5  -4   8   28.80   10.30
  -6   4  -8   33.20   12.40
   6  -4   8   33.00   10.60
   7   3  -8   42.70   12.20
   7   3  -8   47.80   14.00
   6   3  -8  172.78   16.60
   6   3  -8  129.19   15.10
   5   3  -8   44.50   10.90
   5   3  -8   46.60   11.20
   4   3  -8  166.88   15.40
   4   3  -8  151.28   13.30
  -4  -3   8  140.59   12.30
   3   3  -8    9.20    7.50
   3   3  -8   12.60    8.10
  -3  -3   8    2.50    7.70
   2   3  -8   19.50    7.40
  -2  -3   8   38.60    8.20
   1   3  -8  435.76   17.20
  -1  -3   8  431.66   18.70
   0   3  -8 1722.63   46.20
   0  -3   8 1747.53   48.20
  -1   3  -8  355.96   15.70
   1  -3   8  351.96   18.70
   1  -3   8  386.76   15.80
  -2   3  -8    7.40    7.20
   2  -3   8   12.90    6.50
  -3   3  -8  116.39   11.90
   3  -3   8   97.29   11.10
  -4   3  -8   11.80    9.70
   4  -3   8   -1.00    8.10
  -5   3  -8  520.45   25.70
   5  -3   8  535.95   25.80
  -6   3  -8  318.67   24.20
   6  -3   8  382.06   23.50
   7   2  -8    1.70    9.20
   7   2  -8   -4.70   11.40
   6   2  -8  244.98   20.50
   6   2  -8  286.57   20.10
   5   2  -8   -5.30    8.50
   5   2  -8  -10.30    7.20
  -5  -2   8  -10.30    7.90
   4   2  -8  312.07   17.10
   4   2  -8  305.67   17.30
  -4  -2   8  284.37   16.20
   3   2  -8 2177.28   61.09
   3   2  -8 2262.17   59.89
  -3  -2   8 2246.68   58.29
   2   2  -8  472.25   19.60
   2   2  -8  484.55   18.80
  -2  -2   8  507.35   18.90
   1   2  -8  132.09   10.30
  -1  -2   8  160.58   12.30
   0   2  -8  542.85   18.90
   0  -2   8  578.34   21.00
  -1   2  -8   -2.20    5.60
   1  -2   8   -1.50    5.60
   1  -2   8   -6.80    7.30
  -2   2  -8  719.03   24.50
   2  -2   8  719.13   25.60
  -3   2  -8  919.41   30.80
   3  -2   8  926.71   32.10
  -4   2  -8   65.99   11.90
   4  -2   8   54.29   10.90
  -5   2  -8  149.59   15.10
   5  -2   8  127.19   14.10
  -6   2  -8    2.90   12.00
   6  -2   8   23.60   10.00
   8   1  -8   36.90   13.70
   8   1  -8   43.70   11.30
   7   1  -8  134.59   15.40
   7   1  -8  122.49   13.20
   6   1  -8   77.59   11.30
   6   1  -8   74.19   12.60
   5   1  -8   91.89   10.10
   5   1  -8   92.19   11.90
  -5  -1   8  108.19   11.20
   4   1  -8  147.69   13.40
   4   1  -8  162.58   12.50
  -4  -1   8  128.49   12.80
   3   1  -8   94.49   10.20
   3   1  -8   94.19    9.70
  -3  -1   8   76.99    9.40
   2   1  -8  120.19   10.00
   2   1  -8  106.89    9.60
  -2  -1   8  125.29   11.20
   1   1  -8   11.40    4.90
  -1  -1   8    4.70    6.30
   0   1  -8   35.80    5.90
   0  -1   8   39.30    6.20
   0  -1   8   29.30    7.40
  -1   1  -8   71.99    7.70
   1  -1   8   72.19    8.30
   2  -1   8   47.60    8.60
  -3   1  -8   13.50    8.30
   3  -1   8   -1.10    7.70
  -4   1  -8  206.08   17.50
   4  -1   8  195.88   16.90
   5  -1   8  167.88   15.90
   6  -1   8  159.48   16.70
   8   0  -8   29.50    9.00
   8   0  -8    2.60   11.10
   7   0  -8  273.07   20.10
   7   0  -8  220.68   16.10
   6   0  -8  312.47   17.40
   6   0  -8  389.86   21.80
  -6   0   8  389.16   19.00
   5   0  -8   59.79   10.60
  -5   0   8   61.59    9.50
   4   0  -8  647.84   21.90
   4   0  -8  608.74   23.10
  -4   0   8  624.14   22.50
   3   0  -8   54.59    7.90
   3   0  -8   59.49    8.20
  -3   0   8   63.39    8.40
   2   0  -8  177.68   10.80
   2   0  -8  199.18   12.60
  -2   0   8  217.58   12.50
   1   0  -8  770.92   24.90
  -1   0   8  767.92   24.10
   0   0  -8  217.38   11.00
   0   0   8  202.28   12.20
   0   0   8  201.88   11.40
  -1   0  -8   62.29    7.60
   1   0   8   69.39    8.50
  -2   0  -8 1537.75   42.70
   2   0   8 1492.65   44.70
  -3   0  -8   17.40    8.10
   3   0   8   15.60    8.40
   4   0   8  416.56   22.00
   5   0   8  365.36   22.40
   8  -1  -8   36.90   11.40
   7  -1  -8  749.23   30.30
   6  -1  -8  888.01   27.80
   6  -1  -8  859.51   32.20
   5  -1  -8  159.58   14.40
   4  -1  -8  103.89   10.20
   3  -1  -8   53.89    8.20
  -3   1   8   41.50    7.90
   2  -1  -8 1817.52   49.99
  -2   1   8 1803.22   47.70
   1  -1  -8 1646.84   45.90
   1  -1  -8 1675.23   42.20
  -1   1   8 1698.93   43.90
  -1   1   8 1560.94   43.90
   0  -1  -8  764.12   23.30
   0   1   8  826.12   25.30
  -1  -1  -8   15.90    5.60
   1   1   8   19.30    6.90
  -2  -1  -8   35.80    7.60
   2   1   8   40.20    8.70
   3   1   8  306.87   18.30
   4   1   8   55.29   11.00
   4   1   8   49.60   10.70
   5   1   8  313.67   21.10
   5   1   8  309.77   20.20
   8  -2  -8   11.00   10.30
   8  -2  -8    7.40    7.70
   7  -2  -8   77.59   12.50
   7  -2  -8   80.59   10.30
   6  -2  -8   12.20    9.20
   6  -2  -8    8.30    7.40
   5  -2  -8   12.40    7.40
   5  -2  -8   15.00    6.70
   4  -2  -8  198.18   13.40
   4  -2  -8  218.88   13.00
   3  -2  -8   -7.60    5.30
   2  -2  -8  114.89   11.40
  -2   2   8  114.89    9.40
   1  -2  -8  592.04   21.70
  -1   2   8  583.44   20.10
   0  -2  -8   24.40    7.90
   0  -2  -8   29.00    5.50
   0   2   8   44.00    7.50
  -1  -2  -8  589.24   20.00
   2   2   8  218.38   15.30
   3   2   8    7.20    8.80
   3   2   8   15.80    9.30
   4   2   8  160.38   15.70
   4   2   8  109.59   13.80
   5   2   8   12.00    9.50
   5   2   8   26.40   10.30
   8  -3  -8   86.09   13.20
   7  -3  -8   87.39   10.70
   7  -3  -8  105.29   13.20
   6  -3  -8   17.60    7.30
   6  -3  -8    7.10    8.70
   5  -3  -8  457.85   20.60
   5  -3  -8  463.55   19.10
   4  -3  -8 1071.89   33.70
   4  -3  -8 1087.89   32.00
  -4   3   8 1031.20   31.00
   3  -3  -8   -0.80    6.10
   3  -3  -8   -2.50    5.40
  -3   3   8    1.80    5.60
   2  -3  -8 1741.43   49.60
  -2   3   8 1770.12   48.10
   1  -3  -8 1055.89   33.30
  -1   3   8 1066.49   32.10
   0  -3  -8   90.39   10.80
   0   3   8   82.19    9.40
  -1  -3  -8  747.73   28.50
   1   3   8  787.22   27.60
   2   3   8   -9.50    8.10
   2   3   8    1.10    8.10
   3   3   8   51.29   10.50
   3   3   8   55.89   11.30
  -4  -3  -8  377.06   23.90
   4   3   8  387.46   22.60
   4   3   8  356.36   20.20
   8  -4  -8   76.09   11.10
   8  -4  -8   76.89   13.00
   7  -4  -8   53.99    9.80
   7  -4  -8   35.60   10.10
   6  -4  -8  124.29   12.00
   6  -4  -8   95.09   11.80
   5  -4  -8  278.87   16.40
   5  -4  -8  282.47   16.90
  -5   4   8  280.87   15.60
   4  -4  -8  167.88   13.20
   4  -4  -8  153.98   13.70
  -4   4   8  187.58   12.20
   3  -4  -8   13.50    6.70
   3  -4  -8    7.30    7.10
  -3   4   8   13.20    6.50
   2  -4  -8   -0.50    6.20
   2  -4  -8    5.90    6.50
  -2   4   8   -0.10    6.90
   1  -4  -8    5.60    6.90
  -1   4   8    2.00    7.00
   0  -4  -8  154.68   15.30
   0   4   8  148.39   13.80
  -1  -4  -8   45.90   11.30
   1   4   8   61.69   10.40
  -2  -4  -8   35.70   12.00
   2   4   8   56.99    9.90
   2   4   8   60.49   11.30
  -3  -4  -8    6.40   11.20
   3   4   8    0.00    9.40
   3   4   8    8.20    8.90
  -4  -4  -8    1.40   11.20
   4   4   8    2.90   12.60
   4   4   8   -3.70    8.90
   8  -5  -8   13.60    8.70
   7  -5  -8   20.60    9.40
   7  -5  -8   19.30    8.80
   6  -5  -8   19.90    9.10
   6  -5  -8   28.30    8.90
  -6   5   8   42.00   10.00
   5  -5  -8  656.63   26.50
   5  -5  -8  684.23   25.20
  -5   5   8  687.13   25.20
   4  -5  -8  211.68   15.60
   4  -5  -8  239.38   14.60
  -4   5   8  202.98   13.40
   3  -5  -8    3.60    7.30
   3  -5  -8   15.90    7.80
  -3   5   8   15.10    7.30
   2  -5  -8    2.10    7.60
  -2   5   8   -1.70    7.30
   1  -5  -8   52.59    9.50
  -1   5   8   50.19    9.60
   0  -5  -8  553.44   24.90
   0   5   8  514.65   23.40
  -1  -5  -8  497.75   25.40
   1   5   8  478.85   23.50
  -2  -5  -8  129.59   15.70
   2   5   8  147.19   15.70
  -3  -5  -8  102.59   14.70
   3   5   8   91.39   14.60
   8  -6  -8  141.69   14.50
   7  -6  -8   10.50    8.70
  -7   6   8   13.00   10.50
   6  -6  -8  212.48   17.10
   6  -6  -8  174.38   16.30
  -6   6   8  241.68   16.50
   5  -6  -8  187.58   15.60
   5  -6  -8  191.88   16.80
  -5   6   8  213.08   15.00
   4  -6  -8   35.20    9.90
   4  -6  -8   40.80    8.70
  -4   6   8   30.60    8.30
   3  -6  -8  102.89   10.70
   3  -6  -8   78.39   11.50
  -3   6   8   84.49   10.20
   2  -6  -8   30.30   10.00
  -2   6   8   67.99   10.50
   1  -6  -8    1.80    8.90
  -1   6   8    2.90    8.40
   0  -6  -8  381.16   22.80
   0   6   8  327.47   20.20
  -1  -6  -8  229.48   20.40
   1   6   8  194.88   17.70
  -2  -6  -8  -21.60   10.10
   2   6   8  -13.30    9.40
  -3  -6  -8   26.00   12.30
   3   6   8   21.70   14.10
   8  -7  -8   11.00   10.70
   7  -7  -8   82.89   12.40
  -7   7   8   79.89   12.10
   6  -7  -8   73.99   11.40
  -6   7   8   69.99   12.10
   5  -7  -8   25.80   10.00
   5  -7  -8   40.80    9.50
  -5   7   8   31.10    9.20
   4  -7  -8    9.60    8.50
   4  -7  -8   -2.50    9.10
  -4   7   8  -11.00    7.00
   3  -7  -8   -4.80   10.20
  -3   7   8   -6.00    7.90
   2  -7  -8    0.80   10.10
  -2   7   8    5.80    8.70
   1  -7  -8   -8.00   11.30
  -1   7   8  -11.30    8.00
   0  -7  -8   39.50   13.00
   0   7   8   17.20   10.10
  -1  -7  -8   -5.60   11.20
   1   7   8  -13.60    9.30
  -2  -7  -8  -20.90   11.00
   2   7   8   -1.10   13.20
   7  -8  -8    9.20    8.00
  -7   8   8   15.40   10.20
   6  -8  -8   -7.90    8.90
   6  -8  -8   -3.50    8.30
  -6   8   8   14.60    9.20
   5  -8  -8   65.79   10.70
   5  -8  -8   37.20   11.50
  -5   8   8   67.99   10.70
   4  -8  -8  534.55   26.50
   4  -8  -8  525.85   23.50
  -4   8   8  523.25   22.90
   3  -8  -8  609.74   28.90
  -3   8   8  512.75   23.70
   2  -8  -8  311.47   24.50
  -2   8   8  301.17   18.80
   1  -8  -8    5.40   13.20
  -1   8   8   20.40    9.60
   0  -8  -8   -3.60   10.70
   0   8   8   17.00    9.40
  -1  -8  -8   90.29   15.20
   1   8   8   78.69   14.80
   6  -9  -8  229.38   17.60
  -6   9   8  210.78   16.80
   5  -9  -8   14.00    8.90
   5  -9  -8   17.50   11.50
  -5   9   8   13.90    9.60
   4  -9  -8   92.59   12.40
   4  -9  -8   72.19   14.60
  -4   9   8   98.19   12.50
   3  -9  -8  101.59   16.80
  -3   9   8  107.49   12.50
   2  -9  -8   -8.30   14.10
  -2   9   8   24.90    9.80
   1  -9  -8   47.40   15.90
  -1   9   8   56.49   11.20
   0  -9  -8    5.30   14.40
   0   9   8    1.40    9.90
   5 -10  -8    1.40   12.00
   5 -10  -8   -4.00    8.40
  -5  10   8    5.80    8.40
   4 -10  -8   21.50    9.40
   4 -10  -8   -3.10   12.90
  -4  10   8    4.90    8.90
   3 -10  -8   23.50   16.20
  -3  10   8   24.10    9.70
   2 -10  -8   -6.90   15.00
  -2  10   8    6.90    9.70
   1  10  -9    4.40   12.90
  -1 -10   9   -4.90   13.00
   0  10  -9  -16.20   11.70
   0 -10   9  -25.00   11.50
  -1  10  -9   58.99   12.90
   1 -10   9   42.50   14.40
  -2  10  -9  348.27   23.10
   2 -10   9  368.16   26.70
  -3  10  -9   70.19   13.50
   3 -10   9   81.59   17.70
   3   9  -9   43.20   12.50
   2   9  -9   15.30   12.80
   1   9  -9  145.69   16.40
  -1  -9   9  135.79   17.20
   0   9  -9    2.60   10.90
   0  -9   9   -2.90   12.60
  -1   9  -9  472.15   24.50
   1  -9   9  484.85   28.50
  -2   9  -9  731.73   29.60
   2  -9   9  757.92   34.40
  -3   9  -9  107.69   13.80
   3  -9   9  102.49   18.60
  -4   9  -9   -2.80   10.80
   4  -9   9   -1.00   14.60
   4   8  -9  150.38   17.00
   3   8  -9    8.60   10.60
   2   8  -9   15.50   11.00
  -2  -8   9   -3.90   11.00
   1   8  -9  104.09   14.20
  -1  -8   9   89.09   14.10
   0   8  -9  -11.60    8.90
   0  -8   9   12.10   11.60
  -1   8  -9   23.20    9.60
   1  -8   9    7.60   12.40
  -2   8  -9   13.90    9.60
   2  -8   9    5.20   14.10
  -3   8  -9   17.80   10.40
   3  -8   9   19.40   15.10
  -4   8  -9    0.80   10.20
   4  -8   9    0.80   15.20
   4  -8   9   16.90    8.70
  -5   8  -9   64.79   12.50
   5  -8   9   71.49   19.10
   5  -8   9   70.89   11.60
   5   7  -9   17.40   13.50
   4   7  -9   31.90   13.30
   3   7  -9  167.08   17.40
  -3  -7   9  205.08   19.30
   2   7  -9  796.62   32.00
  -2  -7   9  827.32   31.90
   1   7  -9  251.37   19.40
  -1  -7   9  254.67   20.20
   0   7  -9    5.40    9.30
   0  -7   9    9.30   10.90
  -1   7  -9   25.30    9.70
   1  -7   9   41.30   12.20
  -2   7  -9    0.10    8.80
   2  -7   9   11.90   13.10
  -3   7  -9  226.68   17.40
   3  -7   9  191.88   15.40
   3  -7   9  177.98   20.10
  -4   7  -9  455.75   22.70
   4  -7   9  445.56   22.90
   4  -7   9  449.76   30.10
  -5   7  -9  252.87   19.60
   5  -7   9  166.78   21.70
   5  -7   9  236.48   19.00
   5   6  -9  227.08   20.30
   5   6  -9  254.27   23.10
   4   6  -9   34.40   11.80
   4   6  -9   45.60   12.90
   3   6  -9   23.80   11.50
  -3  -6   9    8.30   11.40
   2   6  -9  713.03   29.60
  -2  -6   9  779.12   29.80
   1   6  -9  111.59   12.40
  -1  -6   9  112.39   13.40
   0   6  -9    7.10    8.10
   0  -6   9   12.10    9.70
  -1   6  -9   56.99    9.50
   1  -6   9   71.49   13.30
  -2   6  -9   13.30    8.50
   2  -6   9   -3.20   12.50
  -3   6  -9   65.19   10.20
   3  -6   9   81.69   16.50
   3  -6   9   81.59   10.70
  -4   6  -9  155.38   14.50
   4  -6   9  119.99   18.90
   4  -6   9  183.68   16.40
  -5   6  -9    3.20   10.70
   5  -6   9    0.80    8.90
   6   5  -9    9.10   12.30
   6   5  -9   -4.00   11.80
   5   5  -9    5.80   11.10
   5   5  -9   -3.70   10.90
   4   5  -9    6.60    9.90
   4   5  -9   12.50   11.10
   3   5  -9  106.99   13.70
  -3  -5   9   85.49   13.00
   2   5  -9  149.19   15.10
  -2  -5   9  144.59   14.10
   1   5  -9  139.19   12.60
  -1  -5   9  133.69   13.70
   0   5  -9   20.40    7.80
   0  -5   9   20.50    9.50
  -1   5  -9  180.58   14.20
   1  -5   9  174.38   15.50
  -2   5  -9   67.79   10.00
   2  -5   9   64.49   13.60
   2  -5   9   75.19    9.80
  -3   5  -9  285.37   18.40
   3  -5   9  281.37   17.60
   3  -5   9  260.27   24.60
  -4   5  -9  246.68   19.00
   4  -5   9  249.48   18.50
   4  -5   9  223.18   21.40
  -5   5  -9   32.00   11.50
   5  -5   9   19.20    9.70
   6   4  -9  144.19   17.70
   6   4  -9  189.68   18.50
   5   4  -9  617.74   29.30
   5   4  -9  599.84   27.80
   4   4  -9   19.40   10.20
   4   4  -9   19.70   10.10
  -4  -4   9   11.30    9.70
   3   4  -9   37.20    9.60
   3   4  -9   34.00   10.00
  -3  -4   9   14.20    9.50
   2   4  -9  371.86   19.50
  -2  -4   9  365.96   18.80
   1   4  -9   52.29    8.60
  -1  -4   9   40.60    9.50
   0   4  -9 1121.59   33.00
   0  -4   9 1085.49   35.70
  -1   4  -9  542.05   20.90
   1  -4   9  528.35   24.00
  -2   4  -9  101.09   10.80
   2  -4   9  122.19   11.20
   2  -4   9   79.69   13.30
  -3   4  -9  578.14   24.90
   3  -4   9  612.24   25.40
  -4   4  -9   45.80   11.20
   4  -4   9   38.80   10.30
  -5   4  -9  133.69   16.20
   5  -4   9  128.39   14.50
   7   3  -9   48.60   14.30
   7   3  -9   54.79   13.50
   6   3  -9   39.20   11.90
   6   3  -9   30.70   11.20
   5   3  -9   -5.70    9.40
   5   3  -9    4.00    9.40
   4   3  -9  109.59   13.30
   4   3  -9  125.29   12.80
  -4  -3   9  101.49   11.70
   3   3  -9 1361.06   40.80
   3   3  -9 1296.37   40.40
  -3  -3   9 1282.77   38.70
   2   3  -9    0.70    6.30
  -2  -3   9   11.80    7.70
   1   3  -9    6.40    5.70
  -1  -3   9   12.10    8.10
   0   3  -9   93.59    9.30
   0  -3   9  111.99   11.90
  -1   3  -9   16.10    6.70
   1  -3   9   28.30    9.80
   1  -3   9   25.60    6.80
  -2   3  -9  199.98   15.00
   2  -3   9  201.68   14.20
   2  -3   9  177.38   16.00
  -3   3  -9  210.88   17.00
   3  -3   9  226.68   16.40
  -4   3  -9   21.90   10.60
   4  -3   9   13.40    9.10
  -5   3  -9   91.89   13.20
   5  -3   9   34.70   10.40
   7   2  -9   13.80   12.40
   7   2  -9   30.90   10.60
   6   2  -9  112.59   13.70
   6   2  -9  102.99   14.40
   5   2  -9   59.29   11.30
   5   2  -9   49.80   10.50
  -5  -2   9   87.29   11.40
   4   2  -9    6.30    8.50
   4   2  -9   -2.20    7.90
  -4  -2   9   11.70    8.40
   3   2  -9   14.70    8.40
   3   2  -9   10.80    7.70
  -3  -2   9   24.90    8.20
   2   2  -9  139.69   13.10
   2   2  -9  140.59   12.00
  -2  -2   9  164.68   12.80
   1   2  -9  314.17   14.30
  -1  -2   9  282.67   16.00
   0   2  -9  839.72   26.20
   0  -2   9  868.91   28.40
  -1   2  -9  170.48   12.20
   1  -2   9  179.98   16.00
   1  -2   9  164.28   12.20
   2  -2   9   14.50    7.80
  -3   2  -9   81.39   12.20
   3  -2   9   84.79   11.70
  -4   2  -9  185.88   18.00
   4  -2   9  198.58   17.10
  -5   2  -9  866.91   34.50
   5  -2   9  931.41   35.30
   8   1  -9   16.40   10.30
   8   1  -9    6.90   13.30
   7   1  -9  260.57   18.70
   7   1  -9  219.68   20.60
   6   1  -9  702.43   27.60
   6   1  -9  657.13   29.10
  -6  -1   9  670.33   25.80
   5   1  -9    5.10    8.60
   5   1  -9    6.40    7.40
  -5  -1   9    4.20    8.10
   4   1  -9  296.07   16.60
   4   1  -9  286.47   17.10
  -4  -1   9  274.17   16.40
   3   1  -9 1244.28   36.80
   3   1  -9 1173.48   37.00
  -3  -1   9 1260.17   35.90
   2   1  -9  148.69   12.60
   2   1  -9  156.38   11.40
  -2  -1   9  155.28   12.80
   1   1  -9 1275.17   34.90
  -1  -1   9 1241.68   36.10
   0   1  -9  624.54   21.00
   0  -1   9  660.43   23.40
  -1   1  -9   73.59    8.30
   1  -1   9   66.59    8.40
  -2   1  -9 1039.20   33.10
   2  -1   9 1080.39   34.70
  -3   1  -9   10.90    9.10
   3  -1   9   10.10    8.40
  -4   1  -9   42.90   11.30
   4  -1   9   48.40   10.80
  -5   1  -9  168.88   16.50
   5  -1   9  152.38   15.40
   8   0  -9   16.10   12.70
   7   0  -9  415.46   21.30
   7   0  -9  511.55   26.20
  -7   0   9  540.35   23.80
   6   0  -9  423.36   23.80
  -6   0   9  449.66   21.40
   5   0  -9  154.58   12.90
   5   0  -9  169.78   14.70
  -5   0   9  149.69   14.20
   4   0  -9   33.50    8.20
   4   0  -9   44.10    8.10
  -4   0   9   35.80    8.60
   3   0  -9   12.20    6.90
   3   0  -9   19.50    7.30
  -3   0   9   14.00    7.40
   2   0  -9   75.69    8.00
   2   0  -9   63.19    8.80
  -2   0   9   54.09    8.90
  -1   0   9  737.23   24.50
   0   0  -9  255.67   12.40
   0   0   9  258.17   13.00
  -1   0  -9  174.48   11.80
   1   0   9  158.18   12.50
  -2   0  -9  147.09   13.40
   2   0   9  134.49   13.70
  -3   0  -9  125.69   12.90
   3   0   9  100.99   12.20
  -4   0  -9   13.60    9.50
   4   0   9    7.80    9.80
   5   0   9   10.00    9.80
   8  -1  -9  -15.70   10.50
  -8   1   9    6.30   10.60
   7  -1  -9  192.18   17.00
   6  -1  -9  148.89   15.10
   5  -1  -9   -4.50    7.60
   4  -1  -9  839.82   29.20
  -4   1   9  895.71   28.50
   3  -1  -9  200.58   13.40
  -3   1   9  199.28   13.90
   2  -1  -9  294.67   15.30
  -2   1   9  250.17   14.90
   1  -1  -9  979.20   27.80
   1  -1  -9  982.70   31.10
  -1   1   9  972.70   29.00
  -1   1   9  992.40   29.70
   0  -1  -9   50.59    6.80
   0   1   9   45.00    7.70
  -1  -1  -9  936.71   28.70
   1   1   9  896.01   30.00
  -2  -1  -9  678.33   25.00
   2   1   9  686.73   26.30
  -3  -1  -9    2.50    8.20
   3   1   9   -2.30    8.30
   4   1   9   87.29   13.00
   5   1   9   28.70   11.00
   8  -2  -9  106.29   14.10
   7  -2  -9  261.57   20.70
   6  -2  -9  231.48   15.80
   6  -2  -9  231.08   18.30
   5  -2  -9    4.80    7.90
   4  -2  -9  526.55   21.50
   3  -2  -9  118.29   11.70
   2  -2  -9  465.45   19.40
  -2   2   9  441.46   18.80
  -2   2   9  449.16   16.70
   1  -2  -9  505.25   20.30
  -1   2   9  473.85   18.00
   0  -2  -9  373.06   18.30
   0  -2  -9  373.76   14.80
   0   2   9  391.06   17.40
  -1  -2  -9   12.20    5.30
   1   2   9    7.00    7.80
  -2  -2  -9    4.00    7.30
   2   2   9   19.20    8.60
   3   2   9    5.20    8.50
   4   2   9  293.27   21.00
   8  -3  -9    0.70   10.30
   8  -3  -9    1.90    8.50
   7  -3  -9    4.90    7.50
   7  -3  -9  -13.10    9.10
   6  -3  -9   15.10    7.90
   6  -3  -9    4.70    9.20
   5  -3  -9   15.20    8.50
   5  -3  -9    2.20    6.90
   4  -3  -9   19.50    7.80
   4  -3  -9   11.40    6.70
   3  -3  -9   -2.30    6.40
  -3   3   9  -10.90    5.80
   2  -3  -9  504.25   21.10
  -2   3   9  536.95   19.40
   1  -3  -9  179.38   14.40
  -1   3   9  209.68   13.70
   0  -3  -9  202.08   15.50
   0   3   9  173.08   14.10
  -1  -3  -9  422.46   18.40
  -1  -3  -9  418.96   22.40
   1   3   9  447.76   20.90
   2   3   9   10.50    9.10
   3   3   9   46.30   11.20
   4   3   9  116.19   15.10
   4   3   9  157.38   15.00
   8  -4  -9   37.60    9.90
   8  -4  -9   42.80   11.50
   7  -4  -9   22.10    8.60
   7  -4  -9   17.70    9.40
   6  -4  -9  356.56   18.80
   6  -4  -9  321.77   20.00
   5  -4  -9 1081.49   33.80
   5  -4  -9 1046.90   35.70
   4  -4  -9  412.76   18.50
   4  -4  -9  401.66   20.10
  -4   4   9  423.16   17.40
   3  -4  -9   -5.80    6.60
   3  -4  -9    6.30    7.70
  -3   4   9   -9.60    6.30
   2  -4  -9   55.69    9.40
  -2   4   9   70.49    9.50
   1  -4  -9   -4.70    7.30
  -1   4   9    1.00    7.70
   0  -4  -9  512.05   23.60
   0   4   9  506.45   22.00
  -1  -4  -9 1100.19   37.90
   1   4   9 1032.00   36.50
   2   4   9   64.29   11.80
  -3  -4  -9   94.19   14.10
   3   4   9   74.29   13.20
   8  -5  -9  176.88   17.10
   7  -5  -9   12.80    9.20
   7  -5  -9   -2.30    8.70
   6  -5  -9  409.26   20.90
   6  -5  -9  341.97   20.50
   5  -5  -9  203.08   15.80
   5  -5  -9  219.88   17.70
  -5   5   9  211.68   14.00
   4  -5  -9   16.20    7.80
   4  -5  -9   10.60    9.00
  -4   5   9   18.00    7.70
   3  -5  -9    0.70    7.10
   3  -5  -9    3.00    8.10
  -3   5   9   -4.20    7.10
   2  -5  -9   -3.10    7.80
  -2   5   9  -18.30    7.50
   1  -5  -9  168.78   15.80
  -1   5   9  162.28   14.00
   0  -5  -9  566.54   26.30
   0   5   9  541.15   24.40
  -1  -5  -9   88.49   15.00
   1   5   9   91.49   12.70
  -2  -5  -9   18.30   11.70
   2   5   9   15.10   10.70
  -3  -5  -9   93.09   14.80
   3   5   9  113.49   15.60
   8  -6  -9    9.20    9.80
   7  -6  -9   -4.70    9.40
   7  -6  -9    3.20    8.50
   6  -6  -9  112.99   12.40
   6  -6  -9  100.79   12.70
  -6   6   9  114.69   12.50
   5  -6  -9   25.70    9.20
   5  -6  -9   40.40   10.80
  -5   6   9   39.60    8.60
   4  -6  -9   -7.50    9.00
   4  -6  -9    5.40    7.90
  -4   6   9    7.50    8.10
   3  -6  -9   12.50    9.70
   3  -6  -9   -2.00    7.80
  -3   6   9    5.20    8.20
   2  -6  -9   -2.10    9.40
  -2   6   9   -8.70    8.20
   1  -6  -9  -11.00    9.00
  -1   6   9  -13.00    8.30
   0  -6  -9  270.97   21.30
   0   6   9  273.37   18.80
  -1  -6  -9   97.29   15.10
   1   6   9  126.49   14.90
  -2  -6  -9   -9.90   10.40
   2   6   9   -4.40   10.50
   7  -7  -9   12.20    9.80
   7  -7  -9   31.90   10.10
   6  -7  -9   42.30   11.10
   6  -7  -9   37.60   10.00
  -6   7   9   51.99    9.90
   5  -7  -9   18.00    9.70
   5  -7  -9   12.60    8.30
  -5   7   9   18.80    8.20
   4  -7  -9  408.06   20.00
   4  -7  -9  359.66   22.50
  -4   7   9  354.56   18.80
   3  -7  -9  490.25   26.10
  -3   7   9  456.55   21.80
   2  -7  -9  243.48   21.70
  -2   7   9  208.68   16.70
   1  -7  -9   72.49   13.80
  -1   7   9   76.09   11.70
   0  -7  -9   66.19   14.20
   0   7   9   73.59   12.60
  -1  -7  -9    4.10   13.00
   1   7   9    6.50   11.40
   7  -8  -9   31.50   10.20
  -7   8   9   38.30   11.00
   6  -8  -9   14.20   10.60
   6  -8  -9    8.50    8.80
  -6   8   9   30.60    9.20
   5  -8  -9   49.40   10.20
   5  -8  -9   28.60   11.10
  -5   8   9   43.50    9.40
   4  -8  -9    7.80    8.60
   4  -8  -9    9.30   11.40
  -4   8   9    2.90    8.80
   3  -8  -9   -7.20   12.10
  -3   8   9   19.30    9.60
   2  -8  -9   -6.90   12.70
  -2   8   9    7.90    9.20
   1  -8  -9  -15.20   13.20
  -1   8   9   12.20    9.90
   0  -8  -9  -18.70   11.60
   0   8   9   -5.30    9.70
   6  -9  -9   42.30   12.80
   6  -9  -9   40.20   10.40
  -6   9   9   42.50   10.10
   5  -9  -9    5.70   11.30
   5  -9  -9    9.10    8.80
  -5   9   9   17.80    9.40
   4  -9  -9  400.36   20.80
   4  -9  -9  422.56   27.40
  -4   9   9  339.47   20.30
   3  -9  -9  284.67   25.70
  -3   9   9  262.17   18.30
   2  -9  -9   -3.40   14.70
  -2   9   9   -7.10    9.20
   1  -9  -9   55.59   18.10
  -1   9   9   57.49   11.80
   0  10 -10   65.79   15.60
   0 -10  10   61.49   15.00
  -1  10 -10  114.79   15.10
   1 -10  10  113.99   18.40
  -2  10 -10   80.59   14.00
   2   9 -10   77.49   14.80
   1   9 -10   11.20   12.40
  -1  -9  10   -2.10   11.80
   0   9 -10   74.89   13.60
   0  -9  10   77.19   15.50
  -1   9 -10   10.80   10.90
   1  -9  10   -8.20   13.00
  -2   9 -10  118.59   14.00
   2  -9  10  122.69   19.10
  -3   9 -10   -0.80   10.10
   3  -9  10    6.00   15.90
   3   8 -10   38.30   13.40
   2   8 -10  296.37   22.80
  -2  -8  10  276.97   22.50
   1   8 -10  255.47   22.00
  -1  -8  10  287.77   23.00
   0   8 -10    4.50   10.20
   0  -8  10  -12.50   10.70
  -1   8 -10  164.08   15.00
   1  -8  10  181.48   19.00
  -2   8 -10   78.89   12.30
   2  -8  10   92.59   17.30
  -3   8 -10  235.78   19.70
   3  -8  10  202.98   21.50
  -4   8 -10  283.17   20.70
   4  -8  10  244.38   24.10
   4   7 -10   39.90   13.50
   4   7 -10   24.70   12.30
   3   7 -10  118.29   16.10
  -3  -7  10   92.69   14.50
   2   7 -10   76.09   13.80
  -2  -7  10   85.19   13.80
   1   7 -10   50.39   12.50
  -1  -7  10   60.39   13.00
   0   7 -10    8.70    9.30
   0  -7  10    4.50   10.90
  -1   7 -10   68.89   11.00
   1  -7  10   87.49   15.60
  -2   7 -10   12.50    9.40
   2  -7  10   -3.20   13.60
  -3   7 -10   58.89   11.50
   3  -7  10   56.99   16.50
  -4   7 -10    0.90   10.20
   4  -7  10    7.50    9.00
   4  -7  10    9.90   16.00
   5   6 -10  -20.60   10.30
   5   6 -10   -3.40   11.80
   4   6 -10   20.10   11.40
   4   6 -10   11.80   11.30
   3   6 -10  324.77   22.20
  -3  -6  10  312.67   22.20
   2   6 -10  204.28   19.20
  -2  -6  10  191.48   17.20
   1   6 -10  350.66   20.00
  -1  -6  10  325.97   21.30
   0   6 -10   87.79   11.30
   0  -6  10  100.09   13.00
  -1   6 -10   17.10    8.80
   1  -6  10   34.90   12.30
  -2   6 -10   89.09   11.10
   2  -6  10   96.19   15.90
  -3   6 -10  493.45   22.80
   3  -6  10  458.55   30.20
  -4   6 -10  434.26   23.10
   4  -6  10  471.85   23.60
   4  -6  10  439.66   31.10
  -5   6 -10  143.49   15.00
   5  -6  10  169.68   16.60
   6   5 -10   95.39   16.90
   6   5 -10  115.09   15.00
   5   5 -10  413.46   23.60
   5   5 -10  413.86   26.50
  -5  -5  10  412.36   22.90
   4   5 -10  112.79   15.90
   4   5 -10  111.49   14.20
   3   5 -10  282.87   21.00
  -3  -5  10  275.27   20.40
   2   5 -10  905.11   33.50
  -2  -5  10  917.81   32.60
   1   5 -10    2.50    8.10
  -1  -5  10    1.40    9.20
   0   5 -10  165.88   15.10
   0  -5  10  167.08   15.60
  -1   5 -10  174.88   16.00
   1  -5  10  199.48   17.10
  -2   5 -10   15.20    8.40
   2  -5  10    5.70   12.00
  -3   5 -10  202.18   17.20
   3  -5  10  205.28   20.30
   3  -5  10  192.48   16.10
  -4   5 -10  111.99   13.50
   4  -5  10   94.29   17.80
   4  -5  10  119.29   13.80
  -5   5 -10    4.80   10.90
   5  -5  10    5.30    8.90
   6   4 -10    8.60   11.30
   6   4 -10   15.90   11.90
   5   4 -10   14.00   11.20
   5   4 -10   -1.30   10.40
  -5  -4  10    1.30   10.20
   4   4 -10   -5.70   10.80
   4   4 -10   -9.60   10.40
  -4  -4  10  -23.70    9.50
   3   4 -10   37.10   10.40
   3   4 -10   29.80   10.90
  -3  -4  10   22.90   11.00
   2   4 -10  218.88   16.10
  -2  -4  10  161.58   15.90
   1   4 -10   89.39   10.20
  -1  -4  10   70.59   11.40
   0   4 -10  399.06   18.00
   0  -4  10  386.66   21.80
  -1   4 -10  240.98   16.10
   1  -4  10  250.47   19.70
  -2   4 -10   78.89   10.40
   2  -4  10   79.39   10.30
   2  -4  10   72.69   13.40
  -3   4 -10  109.59   12.40
   3  -4  10   89.99   12.00
   3  -4  10  103.09   16.80
  -4   4 -10   23.80   10.50
   4  -4  10   18.50    9.80
  -5   4 -10  212.78   18.30
   5  -4  10  177.28   18.30
   7   3 -10   59.39   14.90
   7   3 -10   73.79   15.50
   6   3 -10  545.45   28.50
   6   3 -10  581.94   27.30
   5   3 -10  417.26   24.60
   5   3 -10  431.16   23.90
  -5  -3  10  472.05   21.80
   4   3 -10    4.60    9.30
   4   3 -10   -0.40    9.70
  -4  -3  10   -9.50    8.70
   3   3 -10  408.76   21.20
   3   3 -10  402.76   21.00
  -3  -3  10  412.06   20.00
   2   3 -10  104.99   11.20
  -2  -3  10   86.39   11.40
   1   3 -10  802.22   26.20
  -1  -3  10  750.52   27.80
   0   3 -10 1390.56   40.10
   0  -3  10 1391.26   42.40
  -1   3 -10  568.34   21.90
   1  -3  10  579.94   25.60
   1  -3  10  587.74   22.00
  -2   3 -10  164.48   15.20
   2  -3  10  108.19   14.70
   2  -3  10  175.08   14.10
  -3   3 -10  167.58   15.00
   3  -3  10  176.58   15.70
  -4   3 -10  127.39   13.90
   4  -3  10  120.09   13.60
  -5   3 -10  558.94   28.80
   5  -3  10  592.54   28.10
   7   2 -10   -4.20   12.40
   7   2 -10   -1.60   10.70
   6   2 -10  202.88   19.30
   6   2 -10  197.68   19.20
  -6  -2  10  206.48   17.30
   5   2 -10   50.59   11.30
   5   2 -10   58.89   11.50
  -5  -2  10   49.90   10.80
   4   2 -10    7.70    9.30
   4   2 -10   -2.00    8.60
  -4  -2  10   15.70    8.90
   3   2 -10  273.47   17.30
   3   2 -10  280.57   17.30
  -3  -2  10  283.17   16.30
   2   2 -10    7.10    6.70
  -2  -2  10   -5.00    8.20
   1   2 -10   42.80    7.70
  -1  -2  10   38.70    9.80
   0   2 -10   46.40    7.90
   0  -2  10   45.80   10.20
  -1   2 -10   59.49    8.40
   1  -2  10   58.09   11.60
   1  -2  10   59.39    9.00
  -2   2 -10  141.49   12.60
   2  -2  10  139.09   14.40
  -3   2 -10   31.50   10.30
   3  -2  10   17.30    9.40
  -4   2 -10   12.60   10.50
   4  -2  10    6.00    8.80
  -5   2 -10   15.30   11.50
   5  -2  10   11.00    9.10
   7   1 -10   20.50    9.90
   7   1 -10   32.20   13.00
   6   1 -10   41.70   10.30
   6   1 -10   46.30   12.30
  -6  -1  10   47.20   11.00
   5   1 -10   30.20    9.60
   5   1 -10   26.40   10.40
  -5  -1  10   28.20   10.20
   4   1 -10  241.48   17.00
   4   1 -10  312.87   17.50
  -4  -1  10  280.57   17.10
   3   1 -10  167.18   14.30
   3   1 -10  135.59   13.30
  -3  -1  10  180.98   13.80
   2   1 -10  363.26   16.10
  -2  -1  10  330.07   17.50
   1   1 -10  287.87   13.60
  -1  -1  10  255.47   15.90
   0   1 -10  194.48   12.20
   0  -1  10  193.98   15.70
  -1   1 -10  184.18   13.30
   1  -1  10  166.88   13.50
  -2   1 -10  261.57   16.50
   2  -1  10  260.87   17.00
  -3   1 -10  120.69   13.50
   3  -1  10  123.99   13.20
  -4   1 -10  165.58   15.50
   4  -1  10  133.59   14.70
  -5   1 -10  140.29   16.70
   5  -1  10  139.19   15.40
   8   0 -10  -21.20   11.70
   7   0 -10  211.38   20.50
   6   0 -10  116.29   15.60
  -6   0  10  140.99   14.20
   5   0 -10    0.40    8.20
   5   0 -10   -4.60    6.80
  -5   0  10   -2.10    8.50
   4   0 -10  780.82   27.70
   4   0 -10  750.52   27.80
  -4   0  10  768.62   26.90
   3   0 -10  111.89   11.50
   3   0 -10   73.79   10.30
  -3   0  10   96.79   11.30
   2   0 -10  128.89   12.90
   2   0 -10  129.09   10.60
  -2   0  10  126.39   11.60
   1   0 -10  253.77   12.10
   0   0 -10    4.10    5.30
   0   0  10   11.10    6.50
  -1   0 -10  535.35   20.90
   1   0  10  557.54   22.00
  -2   0 -10  457.45   21.10
   2   0  10  437.36   21.10
  -3   0 -10    1.10    8.20
   3   0  10    5.60    8.60
  -4   0 -10   55.79   12.30
   4   0  10   83.89   12.90
   8  -1 -10  204.08   19.40
   7  -1 -10  371.56   24.70
  -7   1  10  422.76   22.40
   6  -1 -10   57.29   12.70
  -6   1  10   45.10   11.00
   5  -1 -10    2.10    9.00
  -5   1  10    3.60    8.90
   4  -1 -10   59.89   10.00
  -4   1  10   54.99    9.60
   3  -1 -10  315.17   16.90
  -3   1  10  314.07   17.10
   2  -1 -10  468.25   20.50
  -2   1  10  481.15   20.20
   1  -1 -10  149.79   12.60
   1  -1 -10  125.49   10.20
  -1   1  10  140.39   13.10
  -1   1  10  147.29   10.90
   0  -1 -10  234.08   12.50
   0   1  10  257.87   14.30
  -1  -1 -10  105.09    9.80
   1   1  10   91.29   10.80
  -2  -1 -10   52.39    9.70
   2   1  10   55.89   10.40
  -3  -1 -10   28.90    9.90
   3   1  10   24.10    9.80
  -4  -1 -10   17.70   10.00
   4   1  10    9.40    9.70
   8  -2 -10   20.20   12.20
   7  -2 -10   25.40   12.10
   6  -2 -10   -4.70    9.40
   5  -2 -10   40.50   10.20
   4  -2 -10  535.45   22.50
   3  -2 -10    5.20    6.90
  -3   2  10    2.40    8.10
   2  -2 -10  567.94   23.00
  -2   2  10  600.54   20.60
  -2   2  10  571.34   22.10
   1  -2 -10    6.00    7.70
  -1   2  10    7.70    6.50
   0  -2 -10  126.89   11.30
   0  -2 -10  127.49   12.90
   0   2  10  120.69   11.50
  -1  -2 -10  593.14   22.60
   1   2  10  653.73   25.40
  -2  -2 -10  385.86   19.70
   2   2  10  412.56   21.30
  -3  -2 -10   -3.60    8.20
   3   2  10   18.00    9.70
   4   2  10  202.68   18.80
   8  -3 -10   90.99   14.60
   7  -3 -10   13.40   10.90
   7  -3 -10   12.90    9.00
   6  -3 -10   97.59   12.10
   6  -3 -10   93.89   13.10
   5  -3 -10 1091.49   34.80
   5  -3 -10 1073.69   36.90
   4  -3 -10  281.67   17.40
   3  -3 -10    1.20    7.30
  -3   3  10    6.70    6.80
   2  -3 -10  194.08   15.10
  -2   3  10  203.58   13.10
  -2   3  10  216.78   15.10
   1  -3 -10   48.30   10.00
  -1   3  10   42.30    8.30
   0  -3 -10   37.30   10.50
   0   3  10   34.00    9.40
  -1  -3 -10  431.76   22.70
   1   3  10  438.96   22.00
   2   3  10   71.29   11.90
   3   3  10   -2.30    9.60
   8  -4 -10    5.10    9.60
   8  -4 -10   17.60   10.30
   7  -4 -10   -3.30    9.50
   7  -4 -10    2.70    8.20
   6  -4 -10   23.90    8.70
   6  -4 -10   28.90   10.40
   5  -4 -10   84.19   12.40
   5  -4 -10   75.69   10.50
   4  -4 -10  433.26   20.00
   4  -4 -10  407.76   21.70
  -4   4  10  423.16   18.20
   3  -4 -10  131.09   13.20
  -3   4  10  124.79   11.40
   2  -4 -10  417.56   20.50
  -2   4  10  434.06   19.20
   1  -4 -10   58.59   11.10
  -1   4  10   63.49   10.40
   0  -4 -10    6.50   10.20
   0   4  10   -4.80    8.80
  -1  -4 -10   35.40   12.30
   1   4  10   22.40   10.10
  -2  -4 -10   73.59   13.30
   2   4  10   70.19   12.70
  -3  -4 -10  572.44   29.20
   3   4  10  540.85   27.80
   8  -5 -10   59.19   11.50
   8  -5 -10   81.19   13.50
   7  -5 -10    8.80    9.40
   7  -5 -10   14.70   10.00
   6  -5 -10  356.06   21.60
   6  -5 -10  367.96   19.40
   5  -5 -10  637.14   28.10
   5  -5 -10  662.33   25.50
   4  -5 -10    7.90    7.90
   4  -5 -10   -2.20    9.20
  -4   5  10   -2.60    7.70
   3  -5 -10   52.19   11.20
   3  -5 -10   83.39   11.30
  -3   5  10   68.49   10.20
   2  -5 -10  110.29   12.90
  -2   5  10  140.99   13.80
   1  -5 -10  -10.80    9.00
  -1   5  10    0.40    8.70
   0  -5 -10  938.51   35.30
   0   5  10  879.21   33.20
  -1  -5 -10  138.89   16.30
   1   5  10  163.78   16.60
  -2  -5 -10    6.00   11.10
   2   5  10   -1.20   10.90
   7  -6 -10   24.90   10.60
   7  -6 -10   16.20   10.20
   6  -6 -10   31.60   10.80
   6  -6 -10   39.70   10.10
   5  -6 -10   68.59   12.20
   5  -6 -10   71.39   11.10
  -5   6  10   96.99   11.20
   4  -6 -10   -1.20    7.60
   4  -6 -10  -12.90    9.40
  -4   6  10    3.50    8.20
   3  -6 -10  100.59   14.50
  -3   6  10  108.79   12.40
   2  -6 -10    0.60    9.40
  -2   6  10  -12.10    7.70
   1  -6 -10   70.49   12.80
  -1   6  10   73.89   11.80
   0  -6 -10   44.40   12.70
   0   6  10   49.80   11.30
  -1  -6 -10  -12.60   11.30
   1   6  10   -9.20   10.30
   7  -7 -10    2.00   10.20
   7  -7 -10    0.80    8.60
   6  -7 -10   32.60   11.30
   6  -7 -10   42.90   10.50
   5  -7 -10   19.30   10.90
   5  -7 -10   13.10    9.00
  -5   7  10   16.50    8.80
   4  -7 -10    8.70   10.90
   4  -7 -10   -1.40    8.10
  -4   7  10  -11.70    8.60
   3  -7 -10  232.68   21.10
  -3   7  10  208.98   16.80
   2  -7 -10   -8.30   10.50
  -2   7  10   -8.10    8.20
   1  -7 -10   15.70   11.20
  -1   7  10   10.00    9.30
   0  -7 -10   90.99   16.00
   0   7  10   74.29   13.10
   6  -8 -10   44.80   10.00
   6  -8 -10   51.59   12.10
  -6   8  10   48.80   10.30
   5  -8 -10   34.50   12.20
   5  -8 -10   24.30    9.60
  -5   8  10   31.60   10.10
   4  -8 -10  353.16   20.40
   4  -8 -10  364.96   24.70
  -4   8  10  320.57   19.50
   3  -8 -10  540.95   29.20
  -3   8  10  445.06   22.90
   2  -8 -10   58.29   16.40
  -2   8  10   53.49   11.00
   1  -8 -10   19.50   12.50
  -1   8  10    8.80    9.50
   4  -9 -10   -2.60   12.70
   4  -9 -10    1.70    8.90
  -4   9  10   -8.10    8.90
   3  -9 -10  -11.10   14.80
  -3   9  10   -6.30    8.80
   1   9 -11   95.49   15.60
  -1  -9  11   72.99   15.40
   0   9 -11   24.20   12.00
   0  -9  11   40.70   14.70
  -1   9 -11   61.29   13.50
   1  -9  11  111.59   17.70
  -2   9 -11    9.40   11.10
   2  -9  11   23.00   17.30
   3   8 -11   45.30   15.70
  -3  -8  11   36.30   14.00
   2   8 -11  103.59   16.10
  -2  -8  11  102.09   15.60
   1   8 -11  -13.30   11.20
  -1  -8  11   15.70   12.30
   0   8 -11  -13.60   10.10
   0  -8  11   -2.30   12.00
  -1   8 -11  159.18   14.90
   1  -8  11  169.18   18.50
  -2   8 -11   53.59   12.00
   2  -8  11   77.29   17.40
  -3   8 -11   35.40   11.70
   3  -8  11   46.40   17.30
   4   7 -11   33.00   13.50
   4   7 -11   -4.00   11.30
   3   7 -11  196.98   19.40
  -3  -7  11  204.38   18.80
   2   7 -11  807.42   33.70
  -2  -7  11  794.22   33.00
   1   7 -11  264.47   20.50
  -1  -7  11  284.67   21.90
   0   7 -11   11.00   10.10
   0  -7  11   17.40   11.90
  -1   7 -11   29.70   10.50
   1  -7  11   32.10   14.00
  -2   7 -11   14.90    9.50
   2  -7  11   20.50   14.70
  -3   7 -11  767.72   30.10
   3  -7  11  733.03   37.90
  -4   7 -11  656.03   28.20
   5   6 -11   50.09   14.40
   5   6 -11   36.30   13.00
   4   6 -11    5.50   10.90
   4   6 -11   27.20   13.30
  -4  -6  11    9.70   11.90
   3   6 -11   40.20   12.80
  -3  -6  11   47.90   13.50
   2   6 -11   52.09   12.80
  -2  -6  11   15.40   12.00
   1   6 -11   -4.10    9.00
  -1  -6  11  -10.40   10.10
   0   6 -11    4.30    8.60
   0  -6  11    9.30   11.60
  -1   6 -11   48.30    9.70
   1  -6  11   10.90   12.70
  -2   6 -11   36.80   10.20
   2  -6  11   21.30   14.10
  -3   6 -11  119.89   13.30
   3  -6  11   95.89   18.40
  -4   6 -11   20.20   10.50
   5   5 -11   98.39   16.50
   5   5 -11   90.69   14.00
  -5  -5  11  103.99   14.70
   4   5 -11   65.39   12.40
   4   5 -11   71.59   15.50
  -4  -5  11   56.79   13.00
   3   5 -11    6.10   10.90
  -3  -5  11   14.90   11.20
   2   5 -11  124.69   14.80
  -2  -5  11  102.89   14.00
   1   5 -11   -9.00    8.40
  -1  -5  11    8.20   10.30
   0   5 -11  368.26   19.90
   0  -5  11  361.06   23.10
  -1   5 -11  160.38   14.10
   1  -5  11  151.98   16.40
  -2   5 -11   10.90    8.80
   2  -5  11   39.30   13.90
  -3   5 -11  112.59   12.20
   3  -5  11  102.99   17.80
  -4   5 -11  257.37   20.30
   4  -5  11  285.67   20.30
   6   4 -11  247.48   24.00
   6   4 -11  254.17   21.50
   5   4 -11  475.05   25.10
   5   4 -11  445.56   27.50
  -5  -4  11  490.65   24.60
   4   4 -11    0.30   10.00
   4   4 -11  -14.30   10.10
  -4  -4  11  -16.20    9.60
   3   4 -11  263.57   20.00
  -3  -4  11  233.28   18.80
   2   4 -11    6.20    9.00
  -2  -4  11   23.40   10.00
   1   4 -11  241.48   16.20
  -1  -4  11  220.88   18.90
   0   4 -11 1155.28   36.10
   0  -4  11 1182.58   39.70
  -1   4 -11  175.48   15.80
   1  -4  11  178.18   16.50
  -2   4 -11   30.30    9.30
   2  -4  11    3.10   12.20
  -3   4 -11    0.90    9.00
   3  -4  11   -6.20    8.10
  -4   4 -11   -4.90   10.30
   4  -4  11   -0.90    9.10
   6   3 -11   15.00   11.50
   6   3 -11   33.60   11.70
   5   3 -11   -8.90   10.30
   5   3 -11   13.50   10.70
  -5  -3  11   16.20   10.00
   4   3 -11    7.50   10.40
   4   3 -11   11.80   10.60
  -4  -3  11   14.70   10.00
   3   3 -11  339.67   20.50
   3   3 -11  371.86   21.20
  -3  -3  11  315.37   19.40
   2   3 -11   60.59   10.20
  -2  -3  11   72.19   11.50
   1   3 -11   81.49   10.60
  -1  -3  11   90.29   12.60
   0   3 -11  141.99   13.80
   0  -3  11  153.38   15.10
  -1   3 -11    7.50    7.80
   1  -3  11  -12.40   10.10
  -2   3 -11   25.30    8.90
   2  -3  11   12.80   12.10
   2  -3  11   24.50    8.80
  -3   3 -11   24.10    9.90
   3  -3  11   16.90    8.80
  -4   3 -11   72.89   12.60
   4  -3  11   50.19   11.20
   7   2 -11   25.60   13.00
   7   2 -11   13.50   11.50
   6   2 -11  142.59   16.20
   6   2 -11  173.08   16.70
  -6  -2  11  173.88   16.30
   5   2 -11   29.70   10.80
   5   2 -11   -1.10   10.60
  -5  -2  11   26.70   10.50
   4   2 -11  299.07   19.90
   4   2 -11  299.07   20.40
  -4  -2  11  295.27   18.20
   3   2 -11  747.93   28.90
   3   2 -11  750.42   28.20
  -3  -2  11  722.63   26.70
   2   2 -11   40.30    8.90
  -2  -2  11   47.00   10.70
   1   2 -11  982.00   30.50
  -1  -2  11  930.21   32.60
   0   2 -11  893.21   29.00
   0  -2  11  902.91   31.90
  -1   2 -11   31.00    7.70
   1  -2  11   40.90    8.60
   1  -2  11   21.20   11.50
  -2   2 -11  317.07   18.80
   2  -2  11  390.96   19.80
  -3   2 -11   47.10   10.30
   3  -2  11   51.19   10.60
  -4   2 -11  323.57   21.60
   4  -2  11  360.06   21.80
   7   1 -11  184.78   19.30
  -7  -1  11  153.78   16.10
   6   1 -11  150.78   16.60
   6   1 -11  159.98   15.70
  -6  -1  11  165.08   15.80
   5   1 -11    3.10    7.60
   5   1 -11    5.20   10.10
  -5  -1  11   -4.50    9.20
   4   1 -11  148.79   15.30
  -4  -1  11  116.49   13.50
   3   1 -11  398.26   20.20
  -3  -1  11  441.76   20.30
   2   1 -11    1.30    8.40
   2   1 -11    8.20    6.40
  -2  -1  11   -1.70    8.80
   1   1 -11  243.18   13.50
  -1  -1  11  242.08   16.90
   0   1 -11    4.80    6.20
   0  -1  11    3.40    9.00
  -1   1 -11   45.80    8.30
   1  -1  11   42.50    9.30
  -2   1 -11   68.19   10.60
   2  -1  11   78.39   11.20
  -3   1 -11   23.90    9.70
   3  -1  11    4.90    9.20
  -4   1 -11   -6.80   10.00
   4  -1  11   -0.20    9.40
   7   0 -11   69.29   14.80
  -7   0  11   85.19   13.30
   6   0 -11   -8.60   10.70
  -6   0  11   16.80    9.50
   5   0 -11  255.37   18.60
  -5   0  11  295.97   17.90
   4   0 -11  442.16   21.40
  -4   0  11  467.05   21.20
   3   0 -11  844.42   29.70
   3   0 -11  773.82   28.80
  -3   0  11  860.61   29.10
   2   0 -11   41.10    9.60
   2   0 -11   30.50    7.10
  -2   0  11   20.80    9.10
   1   0 -11  114.49    9.80
  -1   0  11  146.09   14.00
   0   0 -11   46.60    7.40
   0   0  11   37.30    9.90
   0   0  11   40.60    8.50
  -1   0 -11  591.64   22.60
   1   0  11  575.94   23.60
  -2   0 -11  658.23   25.50
   2   0  11  665.83   27.00
  -3   0 -11  193.58   16.40
   3   0  11  194.38   17.40
  -4   0 -11   63.79   12.70
   4   0  11   34.60   11.30
   7  -1 -11  221.98   21.80
  -7   1  11  238.88   19.00
   6  -1 -11   -1.90   10.70
  -6   1  11   10.00    9.40
   5  -1 -11  183.08   16.70
  -5   1  11  212.48   16.30
   4  -1 -11  556.34   24.50
  -4   1  11  616.84   24.60
   3  -1 -11   -7.20    7.80
  -3   1  11    3.90    8.90
   2  -1 -11   -3.40    8.00
  -2   1  11   -0.30    8.90
   1  -1 -11  175.28   15.60
   1  -1 -11  209.68   13.00
  -1   1  11  195.98   15.00
  -1   1  11  182.98   12.90
   0  -1 -11   11.00    6.00
   0   1  11   -3.70    6.90
  -1  -1 -11  272.87   15.40
   1   1  11  275.17   17.30
  -2  -1 -11  320.87   19.10
   2   1  11  338.57   19.80
  -3  -1 -11    2.40    9.10
   3   1  11    9.00    9.30
  -8   2  11   29.50   11.50
   7  -2 -11   -0.40   11.90
   6  -2 -11   44.40   11.70
  -6   2  11   38.40   11.40
   5  -2 -11  116.29   13.90
  -5   2  11  104.59   12.80
   4  -2 -11   -6.70    7.90
  -4   2  11   14.60    9.80
   3  -2 -11  106.19   13.00
  -3   2  11  100.69   11.90
   2  -2 -11   47.80   10.10
  -2   2  11   24.90    9.40
   1  -2 -11  161.58   15.50
  -1   2  11  160.38   12.90
   0  -2 -11   -3.40    9.00
   0   2  11  -11.80    7.50
   1   2  11   73.69   10.90
  -2  -2 -11  175.18   14.60
   2   2  11  162.28   16.50
  -3  -2 -11  -10.40    8.50
   3   2  11    3.20    9.60
   7  -3 -11  148.19   17.00
   6  -3 -11    6.60   10.10
   5  -3 -11   22.80   10.60
   4  -3 -11    1.60    7.60
   3  -3 -11  161.68   15.40
  -3   3  11  160.38   13.90
   2  -3 -11  187.88   16.30
  -2   3  11  193.58   13.90
  -2   3  11  209.98   15.70
   1  -3 -11  290.77   18.90
  -1   3  11  280.37   16.50
   0  -3 -11   -5.70    8.70
   0   3  11    6.90    8.40
   1   3  11   55.59   11.10
   2   3  11    1.70    9.40
   7  -4 -11   21.90   10.00
   7  -4 -11    2.10   11.20
   6  -4 -11  129.49   14.30
   6  -4 -11  155.58   16.60
   5  -4 -11  735.83   30.20
   4  -4 -11  104.09   13.30
   3  -4 -11  113.59   12.90
  -3   4  11  112.99   11.10
   2  -4 -11  309.37   19.20
  -2   4  11  292.47   16.80
  -2   4  11  294.07   17.90
   1  -4 -11  193.08   17.70
  -1   4  11  178.48   15.20
   0  -4 -11  528.95   25.70
   0   4  11  541.25   24.40
  -1  -4 -11  109.59   13.90
   1   4  11  100.69   13.60
  -2  -4 -11   -6.80   11.20
   2   4  11    3.20    9.50
   7  -5 -11   -0.80   10.80
   7  -5 -11    2.20    9.30
   6  -5 -11   15.90    8.90
   6  -5 -11   16.90   10.70
   5  -5 -11  171.28   15.60
   5  -5 -11  183.38   18.70
   4  -5 -11   80.39   11.40
   4  -5 -11   61.89   13.10
   3  -5 -11   50.09   10.50
  -3   5  11   30.10    9.80
   2  -5 -11   -4.10    8.90
  -2   5  11   -1.30    8.20
   1  -5 -11   -0.60   10.50
  -1   5  11   12.70    9.20
   0  -5 -11   30.80   12.00
   0   5  11   24.00   10.30
  -1  -5 -11   -4.40   10.50
   1   5  11   10.90   10.20
   7  -6 -11   12.10   11.10
   7  -6 -11    6.70    8.30
   6  -6 -11  169.88   15.80
   6  -6 -11  137.59   15.90
   5  -6 -11   63.49   10.70
   5  -6 -11   61.09   12.70
   4  -6 -11  113.29   14.50
   4  -6 -11  118.89   12.90
  -4   6  11   96.69   12.00
   3  -6 -11  549.65   26.50
  -3   6  11  509.35   23.30
   2  -6 -11  122.29   15.20
  -2   6  11  146.79   15.10
   1  -6 -11  280.37   21.20
  -1   6  11  201.58   17.70
   0  -6 -11  315.47   22.80
   0   6  11  307.07   21.10
   6  -7 -11    6.80    8.80
   6  -7 -11   17.30   12.70
   5  -7 -11   17.30    8.60
   5  -7 -11    7.90   11.60
  -5   7  11   -2.50    8.90
   4  -7 -11  219.38   17.00
   4  -7 -11  222.18   21.40
  -4   7  11  209.48   16.70
   3  -7 -11  180.38   19.10
  -3   7  11  171.48   16.00
   2  -7 -11  214.98   20.30
  -2   7  11  205.48   17.10
   1  -7 -11   62.49   14.20
  -1   7  11   59.29   11.80
   5  -8 -11    7.10   11.30
   5  -8 -11   -4.60    7.60
  -5   8  11   10.80    9.40
   4  -8 -11   97.19   12.40
   4  -8 -11   90.29   16.20
  -4   8  11   79.79   12.30
   3  -8 -11   37.70   14.30
  -3   8  11   36.40   10.80
   2   8 -12  396.56   27.80
  -2  -8  12  376.66   25.90
   1   8 -12  410.56   27.50
  -1  -8  12  445.76   27.30
   0   8 -12   27.60   12.70
   0  -8  12   33.70   13.80
  -1   8 -12    1.50   10.50
   1  -8  12  -12.70   14.90
  -2   8 -12   19.20   11.50
   2  -8  12   39.70   17.30
   3   7 -12   15.70   12.30
  -3  -7  12    3.20   12.10
   2   7 -12   13.90   11.90
  -2  -7  12    1.60   11.30
   1   7 -12   24.20   11.70
  -1  -7  12   24.00   12.80
   0   7 -12  114.19   14.50
   0  -7  12  135.99   16.30
  -1   7 -12  141.89   14.90
   1  -7  12  160.18   19.20
  -2   7 -12   94.39   13.60
   2  -7  12  111.89   18.40
   4   6 -12   60.79   16.30
  -4  -6  12   31.60   13.30
   3   6 -12  425.26   26.50
  -3  -6  12  412.06   25.40
   2   6 -12  181.78   18.70
  -2  -6  12  158.48   17.50
   1   6 -12    8.40   10.10
  -1  -6  12    4.20   11.70
   0   6 -12  109.19   12.90
   0  -6  12  105.79   15.60
  -1   6 -12  111.09   13.10
   1  -6  12  110.69   16.70
  -2   6 -12   80.69   12.60
   2  -6  12   88.69   17.40
  -3   6 -12  307.47   21.50
   3  -6  12  351.76   30.30
   5   5 -12  124.49   17.60
   5   5 -12  100.19   15.20
  -5  -5  12   95.39   15.00
   4   5 -12    9.40   12.70
   4   5 -12   17.90   11.20
  -4  -5  12   25.00   12.50
   3   5 -12  -12.00    9.80
  -3  -5  12   -3.00   10.50
   2   5 -12    7.90   10.20
  -2  -5  12    0.20   10.80
   1   5 -12  122.39   13.90
  -1  -5  12  113.59   15.20
   0   5 -12   11.90    8.90
   0  -5  12   11.20   12.30
  -1   5 -12   28.00    9.90
   1  -5  12    4.30   12.50
  -2   5 -12    2.50    8.90
   2  -5  12   -5.30   13.40
  -3   5 -12   -9.00    9.30
   3  -5  12    2.80   15.20
   5   4 -12  330.77   22.20
   5   4 -12  333.67   25.20
  -5  -4  12  295.17   21.80
   4   4 -12   12.20   12.10
   4   4 -12    5.80   10.50
  -4  -4  12   19.30   11.70
   3   4 -12   90.69   14.60
  -3  -4  12   50.29   11.60
   2   4 -12   71.19   11.50
  -2  -4  12   46.20   11.30
   1   4 -12  289.27   17.50
  -1  -4  12  248.98   20.70
   0   4 -12  831.32   28.90
   0  -4  12  757.82   32.60
  -1   4 -12  235.88   17.20
   1  -4  12  251.07   22.00
  -2   4 -12  168.78   16.10
   2  -4  12  151.28   17.70
  -3   4 -12   56.69   11.10
   3  -4  12   74.09   16.70
   6   3 -12  297.07   22.10
   6   3 -12  198.38   20.40
  -6  -3  12  264.87   20.50
   5   3 -12  216.68   20.60
   5   3 -12  195.08   19.10
  -5  -3  12  212.78   18.40
   4   3 -12   18.80   10.50
   4   3 -12    0.30   10.40
  -4  -3  12    8.90    9.90
   3   3 -12  127.69   15.30
   3   3 -12  116.39   13.80
  -3  -3  12  108.79   13.90
   2   3 -12   14.00    8.60
  -2  -3  12   30.00   12.10
   1   3 -12  844.22   29.00
  -1  -3  12  805.52   31.60
   0   3 -12  801.62   27.90
   0  -3  12  737.13   31.00
  -1   3 -12   72.99   10.70
   1  -3  12   48.00   13.20
  -2   3 -12    9.90    8.20
  -3   3 -12   11.00    9.20
   3  -3  12   -0.40    8.50
   6   2 -12   23.60   12.20
   6   2 -12    4.30   11.00
  -6  -2  12   -2.40   10.60
   5   2 -12   18.10   11.60
   5   2 -12   26.30   10.60
  -5  -2  12    5.60   10.10
   4   2 -12   13.90   10.20
   4   2 -12   13.10   10.00
  -4  -2  12    1.00    9.10
   3   2 -12   -4.60    8.80
   3   2 -12    0.70    9.00
  -3  -2  12    6.20    8.80
   2   2 -12   37.40    8.80
  -2  -2  12   34.80   11.30
   1   2 -12  138.39   13.40
  -1  -2  12  147.89   15.10
   0   2 -12    6.10    7.60
   0  -2  12   13.80   10.90
  -1   2 -12   -1.00    7.10
   1  -2  12    0.30   11.50
  -2   2 -12   23.90    9.10
   2  -2  12   15.50    9.40
  -3   2 -12   13.10    9.60
   3  -2  12   21.10    9.80
   7   1 -12    0.30   11.80
  -7  -1  12   -8.00   10.80
   6   1 -12    0.30   10.70
  -6  -1  12    6.60   10.50
   5   1 -12  136.99   15.50
  -5  -1  12  135.19   14.40
   4   1 -12  504.45   24.20
  -4  -1  12  517.55   22.90
   3   1 -12  371.56   20.10
  -3  -1  12  373.66   20.60
   2   1 -12    7.40    6.90
  -2  -1  12    7.00    9.60
   1   1 -12  107.99   10.40
  -1  -1  12  109.39   13.20
   0   1 -12   11.50    6.50
   0  -1  12   12.10    9.80
  -1   1 -12  461.75   20.20
  -2   1 -12  414.76   20.90
   2  -1  12  431.56   22.20
  -3   1 -12  241.08   18.40
   3  -1  12  231.08   18.70
   7   0 -12  298.77   25.20
  -7   0  12  253.67   20.00
   6   0 -12  -24.00    9.60
  -6   0  12   -4.70    9.40
   5   0 -12  117.89   14.60
  -5   0  12  116.19   14.20
   4   0 -12  316.67   19.40
  -4   0  12  335.97   19.30
   3   0 -12   -5.10    9.20
  -3   0  12   16.80   10.20
   2   0 -12   92.19   11.90
   2   0 -12   80.99   10.30
  -2   0  12   88.69   12.50
   1   0 -12   20.10    6.60
  -1   0  12   23.90    9.70
   0   0 -12   12.00    6.40
   0   0  12    5.30    9.70
  -1   0 -12  136.49   13.40
   1   0  12   99.19   11.50
  -2   0 -12  148.19   13.80
   2   0  12  160.98   16.10
  -3   0 -12    0.40    8.80
   3   0  12   -7.60    8.80
   7  -1 -12  -11.90   12.70
  -7   1  12   14.50   10.40
   6  -1 -12   10.60   11.20
  -6   1  12   -1.00    9.60
   5  -1 -12  128.39   14.50
  -5   1  12   95.29   13.40
   4  -1 -12   -2.60    9.40
  -4   1  12   -4.40    9.70
   3  -1 -12   -0.30    8.80
  -3   1  12   -6.90    9.50
   2  -1 -12   32.60   10.30
  -2   1  12   15.30    9.00
   1  -1 -12    3.90    9.50
  -1   1  12    7.90    8.80
   0   1  12   19.30    8.10
  -1  -1 -12  237.68   15.30
   1   1  12  319.37   18.50
  -2  -1 -12  439.66   21.20
   2   1  12  425.66   22.40
  -3  -1 -12   -4.00    9.70
   3   1  12   -7.90    9.20
   7  -2 -12  329.27   24.90
  -7   2  12  339.47   21.80
   6  -2 -12    2.60   11.10
  -6   2  12   -3.30   10.00
   5  -2 -12  269.77   19.20
  -5   2  12  209.88   18.80
   4  -2 -12   78.19   12.40
  -4   2  12   82.09   12.80
   3  -2 -12  121.39   14.20
  -3   2  12  114.99   13.00
   2  -2 -12  671.93   27.80
  -2   2  12  693.83   26.50
   1  -2 -12  225.08   17.70
  -1   2  12  232.18   16.10
   0  -2 -12   19.20    9.70
   0   2  12    5.00    8.00
   1   2  12  111.19   13.00
   2   2  12   15.50    9.80
   7  -3 -12   21.80   12.90
   6  -3 -12   -3.30   10.40
   5  -3 -12  345.47   21.20
  -5   3  12  318.87   20.70
   4  -3 -12  128.49   14.40
  -4   3  12  168.88   15.50
   3  -3 -12   50.49   10.90
  -3   3  12   39.80   10.90
   2  -3 -12   38.20   10.60
   1  -3 -12    2.70    9.10
  -1   3  12   19.90    8.50
   0  -3 -12   43.50   11.40
   0   3  12   42.50   10.50
   1   3  12   -2.40    9.00
   2   3  12  -12.70    9.10
   7  -4 -12   73.59   14.70
   6  -4 -12   -2.00   10.90
   5  -4 -12   31.10   11.90
   4  -4 -12   -1.40    8.70
  -4   4  12  -12.30    9.40
   3  -4 -12  442.26   22.50
  -3   4  12  403.46   21.90
   2  -4 -12 1078.39   38.00
  -2   4  12 1056.39   34.90
   1  -4 -12   59.59   12.00
  -1   4  12   56.39   10.90
   0  -4 -12   48.40   12.40
   0   4  12   53.79   11.20
   1   4  12  -12.60    8.80
   6  -5 -12   39.70   10.80
   6  -5 -12   54.49   12.70
   5  -5 -12  206.98   20.00
   4  -5 -12   -1.60    9.80
   3  -5 -12  294.17   20.20
  -3   5  12  276.67   18.90
   2  -5 -12   62.99   12.20
  -2   5  12   65.99   11.20
   1  -5 -12   -3.10   10.40
  -1   5  12    2.80    9.20
   0  -5 -12  163.88   16.40
   0   5  12  131.49   15.00
   6  -6 -12   11.70   12.00
   6  -6 -12    2.80    9.00
   5  -6 -12  106.19   15.20
   5  -6 -12  110.39   13.90
   4  -6 -12   65.99   13.70
   3  -6 -12    7.90    9.60
  -3   6  12   11.90    9.10
   2  -6 -12   23.60   11.40
  -2   6  12   21.40    9.90
   1  -6 -12    7.20   12.00
  -1   6  12    9.40    9.70
   5  -7 -12   -7.20   12.10
   5  -7 -12   -9.00    8.60
   4  -7 -12   47.40   13.50
  -4   7  12   54.89   11.50
   3  -7 -12   78.19   14.40
  -3   7  12   68.09   11.40
  -2   7  12   17.90    9.90
   2   7 -13  271.37   24.70
  -2  -7  13  233.08   23.10
   1   7 -13  219.98   20.50
  -1  -7  13  190.98   19.00
   0   7 -13   17.30   11.60
   0  -7  13    0.20   14.10
  -1   7 -13   37.20   12.20
   1  -7  13   39.10   15.70
   3   6 -13   35.40   13.40
  -3  -6  13   15.60   13.20
   2   6 -13   -5.60   11.50
  -2  -6  13   10.00   12.40
   1   6 -13   -8.10    9.90
  -1  -6  13  -12.60   10.80
   0   6 -13   13.80    9.90
   0  -6  13   20.90   14.20
  -1   6 -13   50.49   11.40
   1  -6  13   40.40   14.40
  -2   6 -13   -6.50   10.20
   2  -6  13   -7.60   14.90
   4   5 -13   55.79   15.80
   4   5 -13   89.69   13.60
  -4  -5  13   50.69   13.50
   3   5 -13  126.69   16.60
  -3  -5  13   76.09   14.50
   2   5 -13   41.20   12.10
  -2  -5  13   40.60   12.50
   1   5 -13   88.09   12.70
  -1  -5  13   75.19   15.40
   0   5 -13  411.76   21.50
   0  -5  13  362.56   25.40
  -1   5 -13   37.90    9.80
   1  -5  13    6.80   13.60
  -2   5 -13   29.20   10.40
   2  -5  13   30.40   15.30
   5   4 -13  144.99   19.10
   5   4 -13  139.49   16.30
  -5  -4  13  139.19   16.60
   4   4 -13   21.80   12.90
  -4  -4  13   24.70   11.80
   3   4 -13   51.19   13.20
  -3  -4  13   48.80   12.70
   2   4 -13   96.79   13.10
  -2  -4  13   88.49   13.70
   1   4 -13  266.37   18.00
  -1  -4  13  280.77   22.30
   0   4 -13   82.29   11.40
   0  -4  13   84.99   15.50
  -1   4 -13  205.38   17.20
   1  -4  13  172.08   17.80
  -2   4 -13  202.98   16.90
   2  -4  13  168.28   19.10
   5   3 -13  148.99   16.20
   5   3 -13  160.48   18.60
  -5  -3  13  138.09   15.80
   4   3 -13   26.30   11.40
   4   3 -13   28.90   11.80
  -4  -3  13   38.10   11.50
   3   3 -13   45.60   13.00
  -3  -3  13   76.89   12.90
   2   3 -13   22.40    9.60
  -2  -3  13   16.20   11.10
   1   3 -13  358.76   18.80
  -1  -3  13  348.67   23.40
   0   3 -13  460.15   20.80
   0  -3  13  404.86   25.40
  -1   3 -13   18.40    9.20
   1  -3  13   11.90   12.40
  -2   3 -13  197.28   16.50
   2  -3  13  134.59   17.80
   6   2 -13   59.59   13.20
  -6  -2  13   36.70   12.50
   5   2 -13   22.90   11.00
   5   2 -13    9.50   11.90
  -5  -2  13   29.90   11.10
   4   2 -13  417.26   24.80
   4   2 -13  474.05   24.40
  -4  -2  13  455.35   22.50
   3   2 -13  164.78   15.20
   3   2 -13  194.98   18.10
  -3  -2  13  197.38   17.60
   2   2 -13   -6.20    7.60
  -2  -2  13   -3.10   10.60
   1   2 -13  158.38   14.70
  -1  -2  13  160.18   16.10
   0   2 -13  109.69   12.20
   0  -2  13  117.19   15.40
  -1   2 -13   26.80    8.40
   1  -2  13    5.00   11.50
  -2   2 -13  117.89   12.20
   6   1 -13    3.50   12.00
  -6  -1  13   29.20   11.40
   5   1 -13   23.70   11.40
  -5  -1  13   30.60   11.50
   4   1 -13   38.80   10.80
  -4  -1  13   39.50   11.10
   3   1 -13   -7.40    6.60
  -3  -1  13    0.20    9.70
   2   1 -13    1.90    6.10
  -2  -1  13   -9.50    9.70
   1   1 -13   18.60    7.30
  -1  -1  13   29.10   11.30
   0   1 -13    8.00    7.40
   0  -1  13   14.30   11.00
  -1   1 -13   35.80    8.30
  -2   1 -13   20.50    8.70
   6   0 -13    4.30   10.80
  -6   0  13   -0.50   10.70
   5   0 -13  665.53   28.90
  -5   0  13  585.14   26.70
   4   0 -13  257.87   18.70
  -4   0  13  262.77   19.20
   3   0 -13  172.68   16.80
  -3   0  13  173.58   16.10
   2   0 -13   -8.30    8.20
  -2   0  13    0.90    9.30
  -1   0  13   19.30   10.10
   0   0 -13   91.29   10.00
  -1   0 -13  438.66   20.20
  -2   0 -13  774.02   29.20
   2   0  13  746.53   30.70
   6  -1 -13   -1.90   10.20
  -6   1  13    5.60   10.30
   5  -1 -13   98.19   14.60
  -5   1  13   95.39   13.20
   4  -1 -13  175.58   16.80
  -4   1  13  144.09   15.50
   3  -1 -13    5.30    8.70
  -3   1  13  -10.60    9.40
   2  -1 -13  192.88   16.90
  -2   1  13  191.38   16.90
   1  -1 -13  139.59   14.50
   1   1  13  123.69   13.40
   2   1  13   -5.40    9.10
   6  -2 -13   -7.10    9.70
  -6   2  13  -15.00    9.20
   5  -2 -13    8.30    9.70
  -5   2  13    3.10   10.80
   4  -2 -13    0.20    8.70
  -4   2  13   15.50   10.80
   3  -2 -13   60.19   11.50
  -3   2  13   42.60   11.30
   2  -2 -13   89.59   12.90
  -2   2  13   62.19   11.50
   1  -2 -13   63.29   11.50
   0   2  13   30.30   11.00
   1   2  13   21.00   10.40
   6  -3 -13   18.30   12.90
  -6   3  13    2.90   11.30
   5  -3 -13   92.19   13.60
  -5   3  13   65.79   13.20
   4  -3 -13   19.30    9.40
  -4   3  13   18.50   11.30
   3  -3 -13  597.44   26.90
  -3   3  13  601.54   26.10
   2  -3 -13  793.72   31.40
  -2   3  13  793.02   29.80
   1  -3 -13   52.89   12.00
   0   3  13    3.40    9.20
   1   3  13   -0.20    9.00
   6  -4 -13   15.20   12.20
   5  -4 -13  124.79   15.30
  -5   4  13   87.59   13.90
   4  -4 -13   -7.90    8.80
  -4   4  13  -18.40   10.60
   3  -4 -13    5.90    9.30
  -3   4  13   20.90   11.00
   2  -4 -13  -12.90    9.00
   1  -4 -13   -2.80    9.80
  -1   4  13   -4.60    8.60
   0  -4 -13  -15.80    9.60
   0   4  13   -3.50    9.80
   5  -5 -13  148.79   18.00
   4  -5 -13   11.30    9.40
  -4   5  13    3.00   10.90
   3  -5 -13  184.58   17.80
  -3   5  13  155.68   15.90
   2  -5 -13   59.59   12.60
   1  -5 -13  153.88   16.30
  -1   5  13  151.88   15.50
   4  -6 -13   43.70   12.40
   3  -6 -13   82.79   13.80
   1   6 -14   13.10   11.30
  -1  -6  14    1.10   13.80
   0   6 -14  132.59   15.00
   0  -6  14  107.89   18.00
   3   5 -14  175.98   19.50
  -3  -5  14  154.28   17.90
   2   5 -14  292.37   22.00
  -2  -5  14  263.07   22.10
   1   5 -14   25.60   11.10
  -1  -5  14   14.20   13.90
   0   5 -14  -11.10    8.80
   0  -5  14  -10.50   12.50
  -1   5 -14   52.79   10.90
   1  -5  14   50.59   15.80
   4   4 -14   32.20   13.30
   4   4 -14   18.20   11.00
  -4  -4  14    8.50   12.10
   3   4 -14  158.88   18.50
  -3  -4  14  124.89   16.30
   2   4 -14   29.80   10.70
  -2  -4  14   12.20   13.00
   1   4 -14   43.80   10.80
  -1  -4  14   50.49   14.20
   0   4 -14  111.09   13.20
   0  -4  14  122.89   17.40
  -1   4 -14   -7.90    8.70
   1  -4  14  -16.40   12.70
   4   3 -14   22.90   12.20
   4   3 -14   25.70   12.00
  -4  -3  14   10.60   11.30
   3   3 -14   -4.10   10.00
  -3  -3  14    5.70   10.50
   2   3 -14    6.70    8.90
  -2  -3  14   27.00   12.50
   1   3 -14   66.09   10.70
  -1  -3  14   51.19   14.20
   0   3 -14   13.70    8.20
   0  -3  14   28.50   13.10
  -1   3 -14   46.90   10.10
   5   2 -14   -9.40   11.00
  -5  -2  14  -10.00   10.00
   4   2 -14   99.69   14.90
  -4  -2  14   96.59   13.40
   3   2 -14   22.30   11.00
   3   2 -14   11.50   11.10
  -3  -2  14   23.00   11.80
   2   2 -14   12.50    8.70
  -2  -2  14   30.60   12.30
   1   2 -14  161.08   15.10
  -1  -2  14  140.49   16.30
   0   2 -14   87.89   11.70
   0  -2  14   77.19   14.70
  -1   2 -14   23.40    8.80
   5   1 -14  291.97   22.10
  -5  -1  14  293.47   20.80
   4   1 -14  469.35   24.50
  -4  -1  14  447.86   24.00
   3   1 -14  294.17   19.80
  -3  -1  14  322.37   20.90
  -2  -1  14    3.40   10.70
   1   1 -14   37.90    9.60
  -1  -1  14   36.80   12.50
   0   1 -14   72.89   10.40
  -1   1 -14  460.75   21.60
   5   0 -14   -3.50   10.50
  -5   0  14    8.90   10.70
   4   0 -14   58.19   12.50
  -4   0  14   71.39   13.40
   3   0 -14   25.00   10.70
  -3   0  14    7.30   10.90
  -2   0  14    3.70    9.60
  -1   0  14   18.60   11.30
  -6   1  14  -22.30   10.10
   5  -1 -14  147.49   16.90
  -5   1  14  114.69   16.50
   4  -1 -14   76.69   13.20
  -4   1  14   67.19   13.40
   3  -1 -14    8.60    9.50
  -3   1  14   -2.80   10.20
   2  -1 -14  231.08   17.80
  -2   1  14  198.18   17.90
  -6   2  14   16.50   10.80
   5  -2 -14   36.60   12.20
  -5   2  14   34.40   12.40
   4  -2 -14    6.70    9.30
  -4   2  14   -1.90   11.20
   3  -2 -14  277.27   19.00
  -3   2  14  270.87   19.90
   2  -2 -14  390.16   22.50
   1  -2 -14  110.39   14.00
   5  -3 -14    4.50   11.00
  -5   3  14   21.30   12.70
   4  -3 -14   15.20   10.20
  -4   3  14   28.40   12.40
   3  -3 -14  144.89   16.00
  -3   3  14  138.89   15.40
   2  -3 -14  166.18   16.30
  -2   3  14  153.28   15.50
   1  -3 -14   -1.80    9.00
  -5   4  14  142.59   16.90
   4  -4 -14   -1.40    9.40
  -4   4  14    4.40   11.60
   3  -4 -14  369.66   23.00
  -3   4  14  397.56   23.30
   2  -4 -14  278.67   20.10
   2   4 -15   83.69   13.80
  -2  -4  15   88.39   15.90
   1   4 -15   -8.40    9.00
  -1  -4  15    4.70   13.70
   3   3 -15   57.29   14.20
  -3  -3  15   40.60   14.40
   2   3 -15    1.00    9.70
  -2  -3  15    6.40   13.00
   1   3 -15  126.29   13.90
  -1  -3  15  122.39   17.20
  -4  -2  15  226.78   19.70
  -3  -2  15  178.68   17.90
  -2  -2  15   -2.40   11.40
   1   2 -15    3.70    8.00
  -1  -2  15    5.00   12.30
   0   2 -15    8.70    8.30
   0  -2  15   23.60   13.90
   4   1 -15    8.30   10.90
  -4  -1  15   16.10   12.60
   3   1 -15   62.39   12.60
  -3  -1  15   19.00   12.30
  -2  -1  15  133.99   16.60
  -1  -1  15  326.87   23.20
   4   0 -15  415.96   24.60
  -4   0  15  420.36   25.20
  -3   0  15  129.89   15.20
  -2   0  15  137.19   15.70
  -1   0  15    2.20   12.00
   4  -1 -15  -12.30    9.50
  -4   1  15    8.10   11.70
   3  -1 -15   12.50   10.10
  -3   1  15    4.40   11.60
   2  -1 -15    5.70    9.80
  -1   1  15   -1.50   11.40
  -4   2  15   53.79   13.70
   3  -2 -15   75.79   13.00
  -3   2  15   73.59   13.60
   0   0   0    0.00    0.00

_computing_structure_solution     'SHELXT 2014/5 (Sheldrick, 2014)'
;
_shelx_hkl_checksum              90124
loop_
_space_group_symop_operation_xyz
'x, y, z'
'-x, -y, -z'
loop_
_atom_site_label
_atom_site_type_symbol
_atom_site_fract_x
_atom_site_fract_y
_atom_site_fract_z
_atom_site_U_iso_or_equiv
_atom_site_adp_type
_atom_site_occupancy
_atom_site_site_symmetry_order
_atom_site_calc_flag
_atom_site_refinement_flags_posn
_atom_site_refinement_flags_adp
Fe1 Fe 0.69295(7) 0.74433(5) 0.82505(4) 0.02039(14) Uani 1 1 d . .
Fe2 Fe 0.33435(7) 0.63850(5) 0.78725(4) 0.02158(14) Uani 1 1 d . .
S1 S 0.50386(12) 0.58185(9) 0.68150(7) 0.0218(2) Uani 1 1 d . .
S2 S 0.48154(12) 0.85440(9) 0.76480(6) 0.02084(19) Uani 1 1 d . .
O1 O 0.2646(4) 0.7654(3) 0.9781(2) 0.0447(7) Uani 1 1 d . .
O2 O 0.3412(4) 0.3908(3) 0.8846(2) 0.0432(7) Uani 1 1 d . .
O3 O -0.0590(4) 0.5492(3) 0.6362(2) 0.0410(7) Uani 1 1 d . .
O4 O 1.0169(4) 0.8839(3) 0.7412(2) 0.0352(6) Uani 1 1 d . .
O5 O 0.8360(4) 0.5330(3) 0.9224(2) 0.0441(7) Uani 1 1 d . .
O6 O 0.8010(4) 0.9150(3) 1.0389(2) 0.0448(7) Uani 1 1 d . .
N1 N 0.3607(4) 0.7448(3) 0.5442(2) 0.0219(6) Uani 1 1 d . .
C1 C 0.2895(5) 0.7143(4) 0.9042(3) 0.0295(8) Uani 1 1 d . .
C2 C 0.4558(5) 0.8712(4) 0.6213(3) 0.0259(8) Uani 1 1 d . .
H2A H 0.3838 0.9335 0.6019 0.031 Uiso 1 1 calc R U
H2B H 0.5836 0.9133 0.6128 0.031 Uiso 1 1 calc R U
C3 C 0.4754(5) 0.6558(4) 0.5550(3) 0.0232(7) Uani 1 1 d . .
H3A H 0.6028 0.7072 0.5501 0.028 Uiso 1 1 calc R U
H3B H 0.4170 0.5815 0.4936 0.028 Uiso 1 1 calc R U
C4 C 0.2958(5) 0.7702(4) 0.4330(3) 0.0224(7) Uani 1 1 d . .
C5 C 0.3994(5) 0.7606(4) 0.3579(3) 0.0282(8) Uani 1 1 d . .
H5 H 0.5131 0.7400 0.3802 0.034 Uiso 1 1 calc R U
C6 C 0.3353(6) 0.7812(4) 0.2517(3) 0.0341(9) Uani 1 1 d . .
H6 H 0.4054 0.7747 0.2025 0.041 Uiso 1 1 calc R U
C7 C 0.1666(6) 0.8115(4) 0.2184(3) 0.0350(9) Uani 1 1 d . .
H7 H 0.1235 0.8270 0.1469 0.042 Uiso 1 1 calc R U
C8 C 0.0615(5) 0.8189(4) 0.2917(3) 0.0319(9) Uani 1 1 d . .
H8 H -0.0529 0.8383 0.2683 0.038 Uiso 1 1 calc R U
C9 C 0.1233(5) 0.7979(4) 0.3996(3) 0.0275(8) Uani 1 1 d . .
C10 C -0.0018(6) 0.8006(5) 0.4737(4) 0.0428(11) Uani 1 1 d . .
H10A H -0.1161 0.8176 0.4340 0.064 Uiso 1 1 calc R U
H10B H 0.0685 0.8721 0.5353 0.064 Uiso 1 1 calc R U
H10C H -0.0376 0.7138 0.4992 0.064 Uiso 1 1 calc R U
C11 C 0.3332(5) 0.4856(4) 0.8459(3) 0.0298(8) Uani 1 1 d . .
C12 C 0.0935(5) 0.5845(4) 0.6940(3) 0.0285(8) Uani 1 1 d . .
C13 C 0.8942(5) 0.8312(4) 0.7746(3) 0.0245(8) Uani 1 1 d . .
C14 C 0.7816(5) 0.6153(4) 0.8852(3) 0.0286(8) Uani 1 1 d . .
C15 C 0.7613(5) 0.8495(4) 0.9561(3) 0.0286(8) Uani 1 1 d . .
loop_
_atom_site_aniso_label
_atom_site_aniso_U_11
_atom_site_aniso_U_22
_atom_site_aniso_U_33
_atom_site_aniso_U_23
_atom_site_aniso_U_13
_atom_site_aniso_U_12
Fe1 0.0175(2) 0.0237(3) 0.0178(3) 0.00499(19) 0.00141(19) 0.0063(2)
Fe2 0.0184(3) 0.0241(3) 0.0204(3) 0.0048(2) 0.00383(19) 0.0056(2)
S1 0.0216(4) 0.0225(5) 0.0210(4) 0.0034(3) 0.0024(3) 0.0098(3)
S2 0.0229(4) 0.0227(5) 0.0167(4) 0.0031(3) 0.0038(3) 0.0088(3)
O1 0.0508(18) 0.055(2) 0.0325(16) 0.0031(14) 0.0211(14) 0.0175(16)
O2 0.0436(17) 0.0350(17) 0.0438(17) 0.0182(14) 0.0045(13) 0.0069(13)
O3 0.0207(14) 0.0402(18) 0.0497(18) 0.0057(14) -0.0034(13) 0.0039(12)
O4 0.0297(14) 0.0372(17) 0.0405(16) 0.0087(13) 0.0154(13) 0.0086(13)
O5 0.0410(16) 0.0451(19) 0.0462(17) 0.0200(15) 0.0005(14) 0.0215(15)
O6 0.0469(18) 0.050(2) 0.0259(16) -0.0065(14) -0.0018(13) 0.0121(15)
N1 0.0254(15) 0.0247(16) 0.0159(14) 0.0040(11) 0.0024(11) 0.0113(13)
C1 0.0231(18) 0.034(2) 0.029(2) 0.0112(17) 0.0081(15) 0.0055(16)
C2 0.036(2) 0.0215(19) 0.0188(17) 0.0057(14) 0.0023(15) 0.0119(16)
C3 0.0221(17) 0.032(2) 0.0174(17) 0.0044(14) 0.0037(13) 0.0127(15)
C4 0.0212(16) 0.0228(19) 0.0198(17) 0.0060(14) 0.0016(13) 0.0054(14)
C5 0.0292(19) 0.030(2) 0.0263(19) 0.0068(15) 0.0067(15) 0.0121(16)
C6 0.041(2) 0.036(2) 0.026(2) 0.0056(16) 0.0114(17) 0.0130(19)
C7 0.039(2) 0.040(2) 0.0214(19) 0.0066(16) 0.0000(16) 0.0121(18)
C8 0.0265(19) 0.031(2) 0.035(2) 0.0105(17) 0.0005(16) 0.0102(16)
C9 0.0271(18) 0.027(2) 0.0264(19) 0.0071(15) 0.0045(15) 0.0084(15)
C10 0.039(2) 0.060(3) 0.041(2) 0.021(2) 0.0159(19) 0.025(2)
C11 0.0272(19) 0.034(2) 0.0242(19) 0.0078(16) 0.0049(15) 0.0067(17)
C12 0.030(2) 0.023(2) 0.032(2) 0.0081(15) 0.0088(17) 0.0069(16)
C13 0.0222(18) 0.0253(19) 0.0225(18) 0.0023(14) -0.0003(15) 0.0088(15)
C14 0.0228(18) 0.037(2) 0.0215(18) 0.0052(16) 0.0018(14) 0.0074(16)
C15 0.0212(18) 0.035(2) 0.024(2) 0.0097(17) -0.0010(15) 0.0066(16)
loop_
_atom_type_symbol
_atom_type_description
_atom_type_scat_dispersion_real
_atom_type_scat_dispersion_imag
_atom_type_scat_source
C C 0.0033 0.0016 'International Tables Vol C Tables 4.2.6.8 and 6.1.1.4'
H H 0.0000 0.0000 'International Tables Vol C Tables 4.2.6.8 and 6.1.1.4'
Fe Fe 0.3463 0.8444 'International Tables Vol C Tables 4.2.6.8 and 6.1.1.4'
N N 0.0061 0.0033 'International Tables Vol C Tables 4.2.6.8 and 6.1.1.4'
O O 0.0106 0.0060 'International Tables Vol C Tables 4.2.6.8 and 6.1.1.4'
S S 0.1246 0.1234 'International Tables Vol C Tables 4.2.6.8 and 6.1.1.4'
loop_
_geom_angle_atom_site_label_1
_geom_angle_atom_site_label_2
_geom_angle_atom_site_label_3
_geom_angle
C15 Fe1 C14 92.27(17)
C15 Fe1 C13 99.99(16)
C14 Fe1 C13 99.20(16)
C15 Fe1 S1 157.82(12)
C14 Fe1 S1 87.84(12)
C13 Fe1 S1 101.89(11)
C15 Fe1 S2 87.42(12)
C14 Fe1 S2 157.98(12)
C13 Fe1 S2 102.54(11)
S1 Fe1 S2 84.33(4)
C15 Fe1 Fe2 102.47(12)
C14 Fe1 Fe2 102.69(12)
C13 Fe1 Fe2 147.76(11)
S1 Fe1 Fe2 56.07(3)
S2 Fe1 Fe2 56.11(3)
C11 Fe2 C1 91.78(17)
C11 Fe2 C12 101.10(17)
C1 Fe2 C12 99.16(17)
C11 Fe2 S1 87.63(12)
C1 Fe2 S1 158.45(12)
C12 Fe2 S1 102.09(13)
C11 Fe2 S2 152.35(12)
C1 Fe2 S2 86.24(13)
C12 Fe2 S2 106.45(12)
S1 Fe2 S2 84.38(4)
C11 Fe2 Fe1 97.72(12)
C1 Fe2 Fe1 102.75(12)
C12 Fe2 Fe1 150.52(12)
S1 Fe2 Fe1 56.10(3)
S2 Fe2 Fe1 56.17(3)
C3 S1 Fe2 112.55(11)
C3 S1 Fe1 110.46(12)
Fe2 S1 Fe1 67.82(3)
C2 S2 Fe2 112.18(12)
C2 S2 Fe1 110.60(12)
Fe2 S2 Fe1 67.73(3)
C3 N1 C4 113.6(3)
C3 N1 C2 112.0(3)
C4 N1 C2 111.9(3)
O1 C1 Fe2 178.2(4)
N1 C2 S2 115.8(2)
N1 C2 H2A 108.3
S2 C2 H2A 108.3
N1 C2 H2B 108.3
S2 C2 H2B 108.3
H2A C2 H2B 107.4
N1 C3 S1 115.3(2)
N1 C3 H3A 108.4
S1 C3 H3A 108.4
N1 C3 H3B 108.4
S1 C3 H3B 108.4
H3A C3 H3B 107.5
C9 C4 C5 119.9(3)
C9 C4 N1 119.2(3)
C5 C4 N1 120.8(3)
C6 C5 C4 120.8(3)
C6 C5 H5 119.6
C4 C5 H5 119.6
C5 C6 C7 119.7(4)
C5 C6 H6 120.1
C7 C6 H6 120.1
C6 C7 C8 119.8(3)
C6 C7 H7 120.1
C8 C7 H7 120.1
C7 C8 C9 121.5(3)
C7 C8 H8 119.2
C9 C8 H8 119.2
C4 C9 C8 118.2(3)
C4 C9 C10 122.7(3)
C8 C9 C10 119.0(3)
C9 C10 H10A 109.5
C9 C10 H10B 109.5
H10A C10 H10B 109.5
C9 C10 H10C 109.5
H10A C10 H10C 109.5
H10B C10 H10C 109.5
O2 C11 Fe2 176.9(3)
O3 C12 Fe2 179.0(4)
O4 C13 Fe1 178.6(3)
O5 C14 Fe1 179.3(4)
O6 C15 Fe1 178.7(3)
loop_
_geom_bond_atom_site_label_1
_geom_bond_atom_site_label_2
_geom_bond_distance
Fe1 C15 1.798(4)
Fe1 C14 1.801(4)
Fe1 C13 1.813(4)
Fe1 S1 2.2455(10)
Fe1 S2 2.2487(10)
Fe1 Fe2 2.5052(8)
Fe2 C11 1.792(4)
Fe2 C1 1.795(4)
Fe2 C12 1.804(4)
Fe2 S1 2.2448(10)
Fe2 S2 2.2472(11)
S1 C3 1.823(3)
S2 C2 1.817(3)
O1 C1 1.135(5)
O2 C11 1.139(5)
O3 C12 1.136(4)
O4 C13 1.125(4)
O5 C14 1.135(5)
O6 C15 1.135(5)
N1 C3 1.438(4)
N1 C4 1.448(4)
N1 C2 1.448(4)
C2 H2A 0.9700
C2 H2B 0.9700
C3 H3A 0.9700
C3 H3B 0.9700
C4 C9 1.391(5)
C4 C5 1.399(5)
C5 C6 1.373(5)
C5 H5 0.9300
C6 C7 1.378(5)
C6 H6 0.9300
C7 C8 1.385(6)
C7 H7 0.9300
C8 C9 1.392(5)
C8 H8 0.9300
C9 C10 1.502(5)
C10 H10A 0.9600
C10 H10B 0.9600
C10 H10C 0.9600
loop_
_geom_torsion_atom_site_label_1
_geom_torsion_atom_site_label_2
_geom_torsion_atom_site_label_3
_geom_torsion_atom_site_label_4
_geom_torsion
C3 N1 C2 S2 -68.1(3)
C4 N1 C2 S2 163.1(2)
Fe2 S2 C2 N1 -4.8(3)
Fe1 S2 C2 N1 68.7(3)
C4 N1 C3 S1 -163.5(2)
C2 N1 C3 S1 68.5(3)
Fe2 S1 C3 N1 3.6(3)
Fe1 S1 C3 N1 -70.1(3)
C3 N1 C4 C9 151.1(3)
C2 N1 C4 C9 -80.9(4)
C3 N1 C4 C5 -25.8(5)
C2 N1 C4 C5 102.2(4)
C9 C4 C5 C6 1.5(6)
N1 C4 C5 C6 178.3(3)
C4 C5 C6 C7 -0.1(6)
C5 C6 C7 C8 -1.0(6)
C6 C7 C8 C9 0.8(6)
C5 C4 C9 C8 -1.7(5)
N1 C4 C9 C8 -178.6(3)
C5 C4 C9 C10 175.9(4)
N1 C4 C9 C10 -1.0(6)
C7 C8 C9 C4 0.6(6)
C7 C8 C9 C10 -177.1(4)
