#------------------------------------------------------------------------------
#$Date: 2019-11-26 05:01:24 +0200 (Tue, 26 Nov 2019) $
#$Revision: 242657 $
#$URL: file:///home/coder/svn-repositories/cod/cif/4/13/27/4132744.cif $
#------------------------------------------------------------------------------
#
# This file is available in the Crystallography Open Database (COD),
# http://www.crystallography.net/
#
# All data on this site have been placed in the public domain by the
# contributors.
#
data_4132744
loop_
_publ_author_name
'Ahmed, Md Estak'
'Dey, Subal'
'Darensbourg, Marcetta Y.'
'Dey, Abhishek'
_publ_section_title
;
 Oxygen-Tolerant H<sub>2</sub> Production by [FeFe]-H<sub>2</sub>ase
 Active Site Mimics Aided by Second Sphere Proton Shuttle.
;
_journal_issue                   39
_journal_name_full               'Journal of the American Chemical Society'
_journal_page_first              12457
_journal_page_last               12468
_journal_paper_doi               10.1021/jacs.8b05983
_journal_volume                  140
_journal_year                    2018
_chemical_formula_moiety         'C16 H13 Fe2 N O6 S2'
_chemical_formula_sum            'C16 H13 Fe2 N O6 S2'
_chemical_formula_weight         491.09
_space_group_crystal_system      triclinic
_space_group_IT_number           2
_space_group_name_Hall           '-P 1'
_space_group_name_H-M_alt        'P -1'
_atom_sites_solution_hydrogens   geom
_audit_creation_method           SHELXL-2014/7
_cell_angle_alpha                66.080(2)
_cell_angle_beta                 82.174(3)
_cell_angle_gamma                78.089(3)
_cell_formula_units_Z            2
_cell_length_a                   7.6300(10)
_cell_length_b                   11.4442(15)
_cell_length_c                   12.1777(16)
_cell_measurement_reflns_used    3591
_cell_measurement_temperature    293(2)
_cell_measurement_theta_max      25.645
_cell_measurement_theta_min      1.833
_cell_volume                     949.5(2)
_computing_cell_refinement       'Bruker SMART'
_computing_data_collection       'Bruker SMART'
_computing_data_reduction        'Bruker SHELXTL'
_computing_molecular_graphics    'Ortep-3 for windows'
_computing_publication_material  Platon
_computing_structure_refinement  'SHELXL-2014/7 (Sheldrick, 2014)'
_computing_structure_solution    'SHELXL-2014/7 (Sheldrick, 2014)'
_diffrn_ambient_temperature      293(2)
_diffrn_measured_fraction_theta_full 0.999
_diffrn_measured_fraction_theta_max 0.999
_diffrn_measurement_device_type  'Bruker APEXII CCD area-detector'
_diffrn_measurement_method       '\f and \w'
_diffrn_radiation_type           MoK\a
_diffrn_radiation_wavelength     0.71073
_diffrn_reflns_av_R_equivalents  0.0357
_diffrn_reflns_av_unetI/netI     0.0417
_diffrn_reflns_Laue_measured_fraction_full 0.999
_diffrn_reflns_Laue_measured_fraction_max 0.999
_diffrn_reflns_limit_h_max       9
_diffrn_reflns_limit_h_min       -9
_diffrn_reflns_limit_k_max       13
_diffrn_reflns_limit_k_min       -13
_diffrn_reflns_limit_l_max       14
_diffrn_reflns_limit_l_min       -14
_diffrn_reflns_number            9540
_diffrn_reflns_point_group_measured_fraction_full 0.999
_diffrn_reflns_point_group_measured_fraction_max 0.999
_diffrn_reflns_theta_full        25.242
_diffrn_reflns_theta_max         25.645
_diffrn_reflns_theta_min         1.833
_diffrn_source                   'fine-focus sealed tube'
_exptl_absorpt_coefficient_mu    1.780
_exptl_absorpt_correction_T_max  0.779
_exptl_absorpt_correction_T_min  0.718
_exptl_absorpt_correction_type   empirical
_exptl_absorpt_process_details   'Sadabs Bruker'
_exptl_crystal_colour            Red
_exptl_crystal_density_diffrn    1.718
_exptl_crystal_density_method    'not measured'
_exptl_crystal_description       Needle
_exptl_crystal_F_000             496
_exptl_crystal_size_max          0.20
_exptl_crystal_size_mid          0.16
_exptl_crystal_size_min          0.14
_refine_diff_density_max         0.363
_refine_diff_density_min         -0.359
_refine_diff_density_rms         0.062
_refine_ls_extinction_method     none
_refine_ls_goodness_of_fit_ref   1.065
_refine_ls_hydrogen_treatment    constr
_refine_ls_matrix_type           full
_refine_ls_number_parameters     245
_refine_ls_number_reflns         3591
_refine_ls_number_restraints     0
_refine_ls_restrained_S_all      1.065
_refine_ls_R_factor_all          0.0325
_refine_ls_R_factor_gt           0.0269
_refine_ls_shift/su_max          0.001
_refine_ls_shift/su_mean         0.000
_refine_ls_structure_factor_coef Fsqd
_refine_ls_weighting_details
'w=1/[\s^2^(Fo^2^)+(0.0291P)^2^] where P=(Fo^2^+2Fc^2^)/3'
_refine_ls_weighting_scheme      calc
_refine_ls_wR_factor_gt          0.0652
_refine_ls_wR_factor_ref         0.0679
_reflns_Friedel_coverage         0.000
_reflns_number_gt                3118
_reflns_number_total             3591
_reflns_threshold_expression     'I > 2\s(I)'
_cod_data_source_file            ja8b05983_si_002.cif
_cod_data_source_block           shelx
_cod_database_code               4132744
_shelx_shelxl_version_number     2014/7
_shelx_space_group_comment
;
The symmetry employed for this shelxl refinement is uniquely defined
by the following loop, which should always be used as a source of
symmetry information in preference to the above space-group names.
They are only intended as comments.
;
_shelx_res_file
;

    shelx.res created by SHELXL-2014/7

TITL data_a.res in P-1
CELL  0.71073   7.6300  11.4442  12.1777   66.080   82.174   78.089
ZERR     2.00   0.0010   0.0015   0.0016    0.002    0.003    0.003
LATT   1
SFAC  C    H    N    O    S    FE
UNIT  32 26 2 12 4 4
MERG   2
FMAP   2
PLAN   20
ACTA
BOND   $H
CONF
L.S.  10
TEMP    20.00
WGHT    0.029100
FVAR       0.65139
FE1   6    0.795867    0.826416   -0.231699    11.00000    0.02135    0.02481 =
         0.02391   -0.01027   -0.00111   -0.00354
FE2   6    0.469409    0.920632   -0.221233    11.00000    0.02235    0.02162 =
         0.01900   -0.00618   -0.00358   -0.00219
S1    5    0.576381    0.706849   -0.152280    11.00000    0.02670    0.02145 =
         0.02252   -0.00890   -0.00513   -0.00562
S2    5    0.673332    0.924652   -0.105608    11.00000    0.02664    0.01866 =
         0.02237   -0.00728   -0.00413   -0.00432
O1    4    0.472964    1.199192   -0.353545    11.00000    0.07421    0.02736 =
         0.03544   -0.00273   -0.00381   -0.00846
O2    4    0.132987    0.927427   -0.072279    11.00000    0.03053    0.05456 =
         0.04436   -0.02442    0.00885   -0.00873
O3    4    0.335670    0.897530   -0.425440    11.00000    0.05354    0.05388 =
         0.03407   -0.02120   -0.01832   -0.00071
O4    4    0.790778    0.770761   -0.446036    11.00000    0.05181    0.06001 =
         0.03300   -0.02777    0.00014   -0.00911
O5    4    1.115474    0.647600   -0.115257    11.00000    0.03663    0.05309 =
         0.05749   -0.03246   -0.01733    0.01483
O6    4    0.955145    1.059035   -0.373415    11.00000    0.05114    0.04534 =
         0.05169   -0.01020    0.00975   -0.02450
N1    3    0.690180    0.673961    0.067014    11.00000    0.02877    0.01655 =
         0.01970   -0.00516   -0.00764   -0.00395
C1    1    0.469750    1.091905   -0.303592    11.00000    0.03386    0.03087 =
         0.02138   -0.00858   -0.00363   -0.00147
C2    1    0.644036    0.809745    0.049209    11.00000    0.03335    0.02349 =
         0.01966   -0.00825   -0.00385   -0.00484
AFIX  23
H2A   2    0.717108    0.825907    0.099142    11.00000   -1.20000
H2B   2    0.519714    0.826326    0.077029    11.00000   -1.20000
AFIX   0
C3    1    0.713505    0.590361    0.192295    11.00000    0.03602    0.02009 =
         0.02023   -0.00915   -0.00415   -0.00182
C4    1    0.577876    0.523958    0.262350    11.00000    0.04621    0.03331 =
         0.02596   -0.00878   -0.00391   -0.01176
AFIX  43
H4    2    0.469097    0.536973    0.229253    11.00000   -1.20000
AFIX   0
C5    1    0.602098    0.439154    0.380068    11.00000    0.07675    0.04396 =
         0.02731   -0.00424   -0.00262   -0.02621
AFIX  43
H5    2    0.511208    0.394272    0.425817    11.00000   -1.20000
AFIX   0
C6    1    0.762290    0.421774    0.428966    11.00000    0.10190    0.03928 =
         0.02700    0.00092   -0.02045   -0.01551
AFIX  43
H6    2    0.780788    0.364115    0.507983    11.00000   -1.20000
AFIX   0
C7    1    0.894853    0.489467    0.361226    11.00000    0.06609    0.03704 =
         0.03768   -0.01185   -0.02863    0.00251
AFIX  43
H7    2    1.000963    0.478072    0.396683    11.00000   -1.20000
AFIX   0
C8    1    0.877030    0.574706    0.241324    11.00000    0.04323    0.02615 =
         0.02636   -0.01236   -0.01221    0.00340
C9    1    1.029909    0.643458    0.171446    11.00000    0.03289    0.05529 =
         0.04058   -0.02420   -0.01247   -0.00443
AFIX  23
H9A   2    0.997919    0.694003    0.088939    11.00000   -1.20000
H9B   2    1.134667    0.579314    0.170323    11.00000   -1.20000
AFIX   0
C10   1    1.078063    0.733060    0.223315    11.00000    0.06652    0.06414 =
         0.04503   -0.01597   -0.01568   -0.02592
AFIX 137
H10A  2    0.976565    0.799107    0.221630    11.00000   -1.50000
H10B  2    1.177269    0.772740    0.176069    11.00000   -1.50000
H10C  2    1.110645    0.683693    0.304870    11.00000   -1.50000
AFIX   0
C11   1    0.567743    0.635755    0.011969    11.00000    0.02844    0.02348 =
         0.02346   -0.00621   -0.00508   -0.00801
AFIX  23
H11A  2    0.446520    0.658929    0.041528    11.00000   -1.20000
H11B  2    0.592583    0.542126    0.038334    11.00000   -1.20000
AFIX   0
C12   1    0.262783    0.925760   -0.130710    11.00000    0.03164    0.02314 =
         0.02460   -0.00696   -0.00894   -0.00285
C13   1    0.385862    0.906648   -0.345864    11.00000    0.02902    0.02935 =
         0.02887   -0.00986   -0.00211   -0.00079
C14   1    0.798537    0.790158   -0.362343    11.00000    0.02707    0.03162 =
         0.03181   -0.01107   -0.00086   -0.00176
C15   1    0.991873    0.716020   -0.160329    11.00000    0.02918    0.03462 =
         0.03667   -0.02073   -0.00322   -0.00199
C16   1    0.895779    0.967784   -0.318466    11.00000    0.02633    0.04061 =
         0.03336   -0.01608    0.00205   -0.00694
HKLF    4

REM  data_a.res in P-1
REM R1 =  0.0269 for    3118 Fo > 4sig(Fo)  and  0.0325 for all    3591 data
REM    245 parameters refined using      0 restraints

END

WGHT      0.0290      0.0000

REM Highest difference peak  0.363,  deepest hole -0.359,  1-sigma level  0.062
Q1    1   0.5884  0.8648 -0.1160  11.00000  0.05    0.36
Q2    1   0.7399  0.8740 -0.1597  11.00000  0.05    0.33
Q3    1   0.7163  0.8284 -0.1577  11.00000  0.05    0.32
Q4    1   0.3228  0.9516 -0.2222  11.00000  0.05    0.30
Q5    1   0.4184  0.9413 -0.1536  11.00000  0.05    0.29
Q6    1   0.5427  0.9039 -0.2986  11.00000  0.05    0.28
Q7    1   0.6947  0.6129  0.1341  11.00000  0.05    0.28
Q8    1   0.6256  0.6427  0.0596  11.00000  0.05    0.27
Q9    1   0.8045  0.9210 -0.2991  11.00000  0.05    0.27
Q10   1   0.8763  0.8033 -0.3153  11.00000  0.05    0.27
Q11   1   0.6913  0.7157 -0.1561  11.00000  0.05    0.27
Q12   1   0.7054  0.4188  0.3834  11.00000  0.05    0.26
Q13   1   0.6317  0.5797  0.2422  11.00000  0.05    0.26
Q14   1   0.7832  0.8785 -0.1297  11.00000  0.05    0.26
Q15   1   0.6638  0.7387  0.0411  11.00000  0.05    0.26
Q16   1   0.8587  0.8733 -0.3075  11.00000  0.05    0.26
Q17   1   0.8942  0.9008 -0.2369  11.00000  0.05    0.26
Q18   1   0.6174  0.8992 -0.2205  11.00000  0.05    0.26
Q19   1   0.3896  0.8593 -0.2211  11.00000  0.05    0.25
Q20   1   0.6135  0.4619  0.2988  11.00000  0.05    0.25
;
_shelx_res_checksum              64979
_shelx_hkl_file
;
  -1   0   0 1591.34   69.29
  -1   0   0 1607.74   73.69
  -2   0   0  210.38   10.10
  -2   0   0  222.28   11.00
  -2   0   0  219.98   13.60
  -2   0   0  211.08   11.80
  -3   0   0  811.42   36.10
  -3   0   0  819.22   37.90
  -3   0   0  843.72   40.50
  -3   0   0  878.81   47.90
  -4   0   0   93.39    6.70
  -4   0   0   93.99    5.70
  -4   0   0   89.39    7.10
  -4   0   0   91.79    7.80
  -5   0   0   10.10    3.20
  -5   0   0    6.20    2.70
  -5   0   0   12.90    3.20
  -5   0   0   10.80    2.30
  -6   0   0   36.40    5.80
  -6   0   0   45.10    6.40
  -6   0   0   41.40    4.40
  -6   0   0   47.50    6.10
  -7   0   0   32.70    5.50
  -7   0   0   27.30    5.80
  -8   0   0  115.49   11.30
  -8   0   0  115.79    9.80
  -9   0   0  211.58   14.90
  -9   0   0  193.28   16.30
  -8   1   0   36.20    6.20
  -8   1   0   30.80    6.50
  -7   1   0   75.99    7.40
  -7   1   0   82.69    8.90
  -7   1   0   68.39    8.80
  -6   1   0 1059.69   60.39
  -6   1   0 1030.10   47.80
  -6   1   0  964.60   51.19
  -5   1   0   68.49    6.90
  -5   1   0   70.99    6.10
  -5   1   0   66.29    4.90
  -4   1   0  138.39    8.10
  -4   1   0  117.39    9.80
  -4   1   0  113.69    6.70
  -4   1   0  119.19    8.70
  -3   1   0 1146.39   64.59
  -3   1   0 1144.29   50.69
  -3   1   0 1109.19   48.40
  -3   1   0 1139.69   54.19
  -2   1   0  288.97   17.50
  -2   1   0  269.07   12.60
  -2   1   0  283.17   14.60
  -1   1   0  455.95   19.80
  -1   1   0  466.55   20.40
  -1   1   0  449.36   22.00
   0  -1   0 2632.34  101.89
   0   1   0 2252.07  111.89
  -1  -1   0 5828.22  238.78
  -1  -1   0 6082.69  246.68
   1   1   0 5286.67  262.07
  -2  -1   0  317.37   15.70
  -2  -1   0  339.77   16.80
  -3  -1   0   64.49    5.40
  -3  -1   0   68.09    5.20
  -3  -1   0   57.09    4.20
  -3  -1   0   65.49    5.10
  -4  -1   0 1847.82   77.89
  -4  -1   0 1910.31  101.99
  -4  -1   0 1756.62   86.29
  -4  -1   0 1786.32   81.09
  -5  -1   0  124.19    9.30
  -5  -1   0  121.49    7.40
  -5  -1   0  113.39    8.40
  -5  -1   0  126.39    9.30
  -6  -1   0    8.70    3.70
  -6  -1   0   18.20    3.20
  -6  -1   0   13.10    3.80
  -7  -1   0  451.55   24.60
  -7  -1   0  466.45   26.60
  -8  -1   0   -0.20    2.70
  -8  -1   0    0.00    3.30
  -9  -1   0  388.76   26.40
  -9  -1   0  450.15   24.70
  -8   2   0    1.10    2.80
  -8   2   0    5.00    3.50
  -7   2   0    9.80    3.80
  -7   2   0   11.80    3.60
  -7   2   0   11.70    4.40
  -6   2   0  751.62   39.20
  -6   2   0  742.73   35.90
  -6   2   0  740.93   45.80
  -5   2   0 1784.62  100.39
  -5   2   0 1726.83   84.29
  -5   2   0 1746.63   74.99
  -4   2   0   36.80    4.30
  -4   2   0   41.20    5.20
  -4   2   0   40.10    3.50
  -4   2   0   42.50    6.20
  -3   2   0  363.76   23.20
  -3   2   0  365.86   19.50
  -3   2   0  380.16   17.70
  -3   2   0  362.26   16.80
  -2   2   0 2558.74  138.59
  -2   2   0 2474.05  108.09
  -2   2   0 2497.95  115.59
  -2   2   0 2434.66  104.59
   1  -2   0    5.50    2.30
  -1   2   0   12.00    4.00
  -1   2   0   14.20    3.00
  -1   2   0   10.90    1.70
   0  -2   0    5.00    1.70
   0   2   0    7.00    0.90
   0   2   0    7.00    1.70
  -1  -2   0  922.31   39.50
  -1  -2   0  900.61   40.40
   1   2   0  927.31   43.00
  -2  -2   0  217.98   10.80
  -2  -2   0  218.88   11.40
   2   2   0  221.58   11.80
  -3  -2   0 1472.25   63.69
  -3  -2   0 1398.96   61.29
   3   2   0 1427.56   67.39
  -4  -2   0   81.29    7.10
  -4  -2   0   92.69    6.30
  -4  -2   0   81.79    6.90
  -5  -2   0  256.57   13.50
  -5  -2   0  257.87   14.60
  -5  -2   0  271.17   15.80
  -6  -2   0  417.46   20.50
  -6  -2   0  408.06   23.50
  -6  -2   0  422.86   22.10
  -7  -2   0    5.80    3.60
  -7  -2   0    0.80    3.00
  -8  -2   0  193.68   13.70
  -9  -2   0   58.79    8.40
   9   2   0   50.89    8.20
  -8   3   0   29.70    7.00
  -8   3   0   41.60    8.10
  -7   3   0  165.88   13.40
  -7   3   0  156.98   14.60
  -6   3   0   15.30    5.00
  -6   3   0   11.90    4.40
  -6   3   0   22.70    4.00
  -5   3   0 1289.07   57.59
  -5   3   0 1259.57   62.59
  -5   3   0 1253.97   74.29
  -4   3   0  414.26   20.70
  -4   3   0  423.46   27.60
  -4   3   0  445.26   23.40
   3  -3   0   48.70    4.20
  -3   3   0   39.60    3.80
  -3   3   0   43.80    6.40
  -3   3   0   43.00    5.10
   2  -3   0 1214.08   51.59
  -2   3   0 1173.88   52.79
  -2   3   0 1196.58   68.79
  -2   3   0 1237.28   57.49
   1  -3   0  551.54   25.40
  -1   3   0  609.84   28.40
  -1   3   0  595.64   34.00
  -1   3   0  555.14   25.40
   0  -3   0  118.19    6.80
   0   3   0   94.39    6.70
   0   3   0  101.19    5.20
   0   3   0  109.39    8.30
  -1  -3   0 1433.46   61.49
  -1  -3   0 1486.55   62.89
   1   3   0 1397.86   67.29
  -2  -3   0  771.92   33.20
  -2  -3   0  768.92   34.00
   2   3   0  716.83   35.90
  -3  -3   0 1849.21   82.59
  -3  -3   0 1891.11   79.99
   3   3   0 1872.51   87.49
  -4  -3   0 1771.12   74.69
  -4  -3   0 1720.73   77.29
   4   3   0 1701.13   81.69
  -5  -3   0    7.80    2.90
  -5  -3   0   10.40    2.70
   5   3   0    6.00    2.80
  -6  -3   0   49.90    6.40
   6   3   0   54.09    6.50
  -7  -3   0  598.64   29.30
  -7  -3   0  609.34   31.30
   7   3   0  615.24   32.80
  -8  -3   0    0.20    3.00
   8   3   0    2.00    3.20
  -9  -3   0   48.10    7.90
   9   3   0   58.79    8.70
  -8   4   0  107.09   13.40
  -8   4   0  131.59   13.90
  -7   4   0    6.60    4.10
  -7   4   0   11.30    5.10
  -6   4   0  148.79   13.50
  -6   4   0  128.59   11.60
  -5   4   0   19.40    3.50
  -5   4   0   21.90    4.90
  -5   4   0   21.60    5.70
   4  -4   0  389.46   18.30
  -4   4   0  391.76   18.80
  -4   4   0  367.76   25.50
  -4   4   0  374.26   21.70
   3  -4   0   27.80    3.40
  -3   4   0   25.50    5.40
  -3   4   0   25.80    4.60
  -3   4   0   28.00    3.00
   2  -4   0  471.95   22.00
  -2   4   0  503.15   25.10
  -2   4   0  482.35   29.80
  -2   4   0  464.95   21.70
   1  -4   0  227.78   11.30
  -1   4   0  218.68   15.10
  -1   4   0  216.38   10.20
  -1   4   0  224.78   12.80
   0  -4   0  649.24   28.50
   0   4   0  661.53   37.00
   0   4   0  593.74   31.00
   0   4   0  624.84   28.00
  -1  -4   0 2513.45  111.49
  -1  -4   0 2542.65  108.99
   1   4   0 2478.35  119.39
   1   4   0 2749.32  142.19
  -2  -4   0 1748.43   75.29
  -2  -4   0 1782.92   77.09
   2   4   0 1730.73   82.09
  -3  -4   0    2.10    2.60
  -3  -4   0    0.30    2.40
   3   4   0    0.90    2.10
  -4  -4   0 1101.29   47.30
  -4  -4   0 1057.79   48.70
   4   4   0 1030.40   51.29
  -5  -4   0  528.25   24.40
  -5  -4   0  496.85   25.10
   5   4   0  466.75   25.90
  -6  -4   0    5.70    2.80
  -6  -4   0    6.50    3.10
   6   4   0    7.40    3.10
  -7  -4   0  152.08   11.50
   7   4   0  148.69   11.40
  -8  -4   0  141.39   11.40
   8   4   0  132.29   11.30
  -9  -4   0   63.59    9.00
   9   4   0   67.09    9.30
  -7   5   0  190.98   17.40
  -7   5   0  179.38   15.40
  -6   5   0   31.30    6.40
  -6   5   0   21.00    6.10
  -5   5   0    5.30    4.00
  -5   5   0    5.50    3.90
   4  -5   0  399.36   19.70
  -4   5   0  432.96   23.70
  -4   5   0  391.76   27.40
   3  -5   0   51.29    5.10
  -3   5   0   58.09    7.30
  -3   5   0   55.09    4.00
  -3   5   0   49.50    6.20
   2  -5   0 1176.28   51.19
  -2   5   0 1217.68   57.49
  -2   5   0 1171.28   51.39
  -2   5   0 1132.69   68.19
   1  -5   0  380.46   18.30
  -1   5   0  371.76   20.40
  -1   5   0  382.16   16.90
  -1   5   0  364.86   24.00
   0  -5   0  677.73   30.90
   0   5   0  676.33   30.30
   0   5   0  680.93   33.90
   0   5   0  689.53   40.10
  -1  -5   0 2065.39   91.09
  -1  -5   0 2141.29   89.79
   1   5   0 2023.20   98.09
   1   5   0 2146.79  116.59
  -2  -5   0 1166.88   50.79
  -2  -5   0 1138.19   51.19
   2   5   0 1116.29   54.89
   2   5   0 1168.48   64.09
  -3  -5   0  297.87   15.70
  -3  -5   0  306.97   15.90
   3   5   0  305.07   16.70
  -4  -5   0  177.98   10.80
  -4  -5   0  175.88   10.70
   4   5   0  170.48   11.00
  -5  -5   0  943.31   42.70
  -5  -5   0  927.21   43.80
   5   5   0  923.71   46.10
  -6  -5   0   -0.90    2.50
  -6  -5   0    6.20    3.20
   6   5   0    1.80    2.30
  -7  -5   0   43.80    6.60
  -7  -5   0   39.60    5.90
   7   5   0   37.70    6.10
  -8  -5   0   21.80    5.60
   8   5   0   21.10    5.00
  -7   6   0    5.90    5.00
  -7   6   0    3.70    4.30
  -6   6   0   -0.10    3.90
  -6   6   0    0.80    3.20
  -5   6   0  145.19   12.50
  -5   6   0  133.39   13.60
  -4   6   0    3.10    3.40
  -4   6   0   -2.50    3.30
   3  -6   0  314.97   16.30
  -3   6   0  312.97   19.40
  -3   6   0  326.77   22.90
   2  -6   0  233.58   12.50
  -2   6   0  216.28   16.70
  -2   6   0  227.18   14.80
   1  -6   0 1202.18   51.19
  -1   6   0 1193.78   56.79
  -1   6   0 1169.18   67.19
  -1   6   0 1072.09   50.29
   0  -6   0  533.85   25.50
   0   6   0  529.45   32.70
   0   6   0  522.15   24.20
   0   6   0  563.14   27.90
  -1  -6   0  222.88   12.70
  -1  -6   0  205.18   11.20
   1   6   0  225.48   15.10
   1   6   0  244.58   13.70
  -2  -6   0  451.45   21.80
  -2  -6   0  434.26   20.90
   2   6   0  412.96   23.00
   2   6   0  444.76   25.90
  -3  -6   0   72.19    6.70
  -3  -6   0   61.69    5.60
   3   6   0   67.09    6.00
  -4  -6   0   55.69    6.30
  -4  -6   0   55.19    5.80
   4   6   0   60.09    6.00
  -5  -6   0 1110.19   52.69
  -5  -6   0 1172.08   51.69
   5   6   0 1120.89   55.59
  -6  -6   0  209.28   13.50
  -6  -6   0  224.08   13.70
   6   6   0  194.68   13.50
  -7  -6   0   37.70    5.90
  -7  -6   0   28.70    5.40
   7   6   0   26.20    5.10
  -8  -6   0   13.30    4.60
  -8  -6   0   14.40    4.40
   8   6   0    8.20    3.70
  -6   7   0   14.50    6.10
  -6   7   0   17.70    6.20
  -5   7   0  291.67   23.50
  -5   7   0  306.07   21.00
  -4   7   0  329.37   24.70
  -4   7   0  331.37   21.70
   3  -7   0   15.10    3.80
  -3   7   0   14.00    4.40
  -3   7   0   20.80    5.60
   2  -7   0  120.59    8.80
  -2   7   0  117.79   10.40
  -2   7   0  133.59   12.10
   1  -7   0 1266.17   56.49
  -1   7   0 1281.57   74.19
  -1   7   0 1268.47   62.79
   0  -7   0 1057.99   45.60
   0   7   0  949.80   49.40
   0   7   0 1003.70   58.79
  -1  -7   0   72.29    6.60
   1   7   0   80.19    7.70
   1   7   0   80.19    6.80
   1   7   0   74.99    4.80
  -2  -7   0   68.89    5.30
  -2  -7   0   55.99    6.30
   2   7   0   64.39    6.30
   2   7   0   61.79    6.40
  -3  -7   0   45.30    6.00
  -3  -7   0   49.00    5.20
   3   7   0   54.59    6.50
  -4  -7   0   56.69    6.50
  -4  -7   0   57.99    6.20
   4   7   0   68.39    6.50
  -5  -7   0  205.08   13.20
  -5  -7   0  210.38   13.60
   5   7   0  223.18   14.10
  -6  -7   0  445.86   23.50
  -6  -7   0  413.26   23.30
   6   7   0  446.46   24.60
  -7  -7   0    8.70    4.20
  -7  -7   0   14.00    4.30
   7   7   0    7.60    3.70
  -8  -7   0   75.39    9.20
  -8  -7   0   80.19    9.40
   8   7   0   78.99    9.30
  -6   8   0   55.39    9.90
  -6   8   0   62.09   11.60
  -5   8   0   54.39    9.70
  -5   8   0   62.39   10.90
  -4   8   0  308.57   24.20
  -4   8   0  312.47   21.60
   3  -8   0  242.88   14.30
  -3   8   0  230.08   17.10
  -3   8   0  235.48   19.40
   2  -8   0   46.80    6.00
  -2   8   0   49.50    7.90
  -2   8   0   43.90    8.00
   1  -8   0  613.54   30.40
  -1   8   0  628.74   34.10
  -1   8   0  651.13   39.90
   0  -8   0 1762.72   75.89
   0   8   0 1655.93   82.89
   0   8   0 1745.53   98.69
  -1  -8   0   16.00    4.20
   1   8   0   20.00    4.60
   1   8   0   17.60    3.80
  -2  -8   0    2.80    2.30
  -2  -8   0   -4.50    2.50
   2   8   0    4.10    3.00
  -3  -8   0    8.60    3.40
  -3  -8   0    1.10    2.30
   3   8   0   18.20    4.40
  -4  -8   0   78.39    6.90
  -4  -8   0   90.59    8.30
   4   8   0   68.29    7.40
  -5  -8   0  105.09    8.80
  -5  -8   0   97.99    9.50
   5   8   0  116.39    9.40
  -6  -8   0   16.90    4.80
  -6  -8   0   20.20    5.00
   6   8   0   21.50    4.70
  -7  -8   0   30.10    6.20
  -7  -8   0   26.70    5.70
   7   8   0   24.10    5.00
  -8  -8   0   50.09    7.80
  -8  -8   0   82.19    9.70
   8   8   0   58.09    8.00
  -5   9   0    2.20    4.40
  -5   9   0    7.30    4.80
  -4   9   0  100.99   13.20
  -4   9   0  115.89   13.10
  -3   9   0   69.39   10.00
  -3   9   0   62.09   10.00
   2  -9   0    1.40    3.70
  -2   9   0    2.80    4.10
  -2   9   0    2.20    3.40
   1  -9   0  140.19   10.40
  -1   9   0  125.79   12.80
  -1   9   0  132.39   11.60
   0  -9   0  363.36   20.20
   0   9   0  385.36   25.60
   0   9   0  358.06   21.70
  -1  -9   0   99.89    9.50
   1   9   0   70.69    7.60
   1   9   0   80.59    8.50
  -2  -9   0   -0.20    2.80
   2   9   0   -0.10    2.80
  -3  -9   0    0.20    3.10
   3   9   0   -2.90    2.40
  -4  -9   0    9.20    3.50
  -4  -9   0   18.10    4.90
   4   9   0    9.00    3.70
  -5  -9   0  266.67   16.00
  -5  -9   0  275.67   17.30
   5   9   0  268.57   17.40
  -6  -9   0   71.19    8.70
  -6  -9   0   63.39    7.60
   6   9   0   78.49    8.10
  -7  -9   0   15.60    5.20
  -7  -9   0   19.90    5.10
   7   9   0   23.10    5.30
  -4  10   0    5.50    5.00
  -4  10   0    7.20    5.50
  -3  10   0   36.10    8.20
  -3  10   0   20.00    6.20
   2 -10   0   89.29    9.10
  -2  10   0   74.69   10.70
  -2  10   0   88.59   12.20
   1 -10   0  480.05   25.00
  -1  10   0  450.85   27.60
  -1  10   0  464.35   31.90
   0 -10   0  162.38   12.10
   0  10   0  147.69   12.30
   0  10   0  154.28   14.00
  -1 -10   0   22.80    5.50
   1  10   0   20.20    4.60
  -2 -10   0    3.00    3.70
   2  10   0   -2.60    2.50
  -3 -10   0  110.69   10.30
   3  10   0  122.49   10.60
  -4 -10   0   12.90    4.60
   4  10   0   11.90    4.60
  -5 -10   0   39.10    6.70
   5  10   0   45.30    7.30
  -6 -10   0  190.68   13.20
  -6 -10   0  177.28   14.00
   6  10   0  177.98   13.90
  -3  11   0   19.50    7.20
  -3  11   0   12.60    5.70
  -2  11   0   -2.50    4.30
  -2  11   0   -0.30    3.90
   1 -11   0  131.59   11.40
  -1  11   0  127.59   12.20
  -1  11   0  138.39   14.20
   0 -11   0  405.56   23.20
   0  11   0  412.96   25.30
   0  11   0  392.46   28.40
  -1 -11   0   81.19    9.80
   1  11   0   89.69   10.50
  -2 -11   0  103.09   11.10
   2  11   0   90.19    9.10
  -3 -11   0  493.65   28.20
   3  11   0  530.95   29.30
  -4 -11   0  222.88   16.30
   4  11   0  271.47   17.60
  -5 -11   0   80.19    9.90
   5  11   0   81.69   10.00
   1 -12   0   11.90    5.50
  -1  12   0    7.30    5.00
  -1  12   0    2.20    4.00
   0 -12   0  256.27   17.60
   0  12   0  258.17   18.50
  -1 -12   0   16.40    5.90
   1  12   0   11.60    4.40
  -2 -12   0  185.58   15.60
   2  12   0  235.18   16.00
  -3 -12   0   26.90    6.70
   3  12   0   25.50    5.60
  -4 -12   0  177.88   14.60
   4  12   0  188.28   14.60
   3  12  -1   72.19    9.40
  -3 -12   1   85.39   10.40
   2  12  -1    6.90    3.90
  -2 -12   1   11.30    5.40
   1  12  -1   23.90    5.80
  -1 -12   1   26.90    6.60
   0  12  -1    9.30    4.60
   0 -12   1    8.20    5.20
   5  11  -1    9.10    4.70
  -5 -11   1    4.90    4.40
   4  11  -1   -1.50    2.80
  -4 -11   1   -3.50    3.10
   3  11  -1   57.79    7.80
  -3 -11   1   59.29    8.70
   2  11  -1   46.70    7.20
  -2 -11   1   54.09    8.20
   1  11  -1  302.77   19.70
  -1 -11   1  309.47   19.50
   0  11  -1    2.70    4.00
   0 -11   1    2.90    4.40
  -1  11  -1    1.00    3.80
  -1  11  -1    5.90    4.40
   1 -11   1    1.30    3.90
  -2  11  -1    7.00    4.60
  -2  11  -1    9.80    5.40
   6  10  -1   10.40    4.60
  -6 -10   1   22.90    6.00
  -6 -10   1   17.20    4.80
   5  10  -1    4.90    3.90
  -5 -10   1    9.10    4.70
   4  10  -1  136.09   11.60
  -4 -10   1  133.89   11.90
   3  10  -1  218.18   15.40
  -3 -10   1  223.38   15.20
   2  10  -1    2.40    3.30
  -2 -10   1   -3.50    3.30
   1  10  -1  101.59    9.80
  -1 -10   1  106.59   10.80
   0  10  -1  572.04   33.80
   0  10  -1  626.54   39.40
   0 -10   1  615.64   31.20
  -1  10  -1   18.20    5.50
  -1  10  -1   20.50    6.10
   1 -10   1   13.80    4.90
  -2  10  -1   53.69    9.40
  -2  10  -1   47.70    8.40
  -3  10  -1   36.60    8.70
  -3  10  -1   40.60    8.20
  -4  10  -1   23.50    7.80
  -4  10  -1   29.30    8.00
   7   9  -1    0.40    2.90
  -7  -9   1   -3.80    3.50
  -7  -9   1    5.40    3.70
   6   9  -1   43.50    7.00
  -6  -9   1   52.49    7.80
  -6  -9   1   41.70    6.40
   5   9  -1  222.68   15.50
  -5  -9   1  207.78   13.90
  -5  -9   1  236.08   15.50
   4   9  -1   63.39    8.10
  -4  -9   1   56.69    6.50
  -4  -9   1   43.40    6.80
   3   9  -1   49.50    7.00
  -3  -9   1   55.39    7.60
   2   9  -1  127.39   10.00
  -2  -9   1  112.59   10.40
   1   9  -1  296.97   17.70
  -1  -9   1  257.17   16.60
   0   9  -1 1013.00   51.59
   0   9  -1 1003.80   60.69
   0  -9   1 1017.80   47.30
  -1   9  -1  613.54   39.90
  -1   9  -1  611.34   34.40
   1  -9   1  627.44   30.60
  -2   9  -1   11.10    5.00
  -2   9  -1   11.40    4.90
   2  -9   1    5.50    3.80
  -3   9  -1    8.40    4.80
  -3   9  -1    9.70    5.20
  -4   9  -1  283.47   21.70
  -4   9  -1  306.27   24.30
  -5   9  -1    8.80    5.10
  -5   9  -1    2.40    4.60
   7   8  -1    3.80    3.30
  -7  -8   1    2.80    3.60
  -7  -8   1    1.40    3.40
   6   8  -1  541.15   30.40
  -6  -8   1  584.14   29.80
  -6  -8   1  554.64   29.10
   5   8  -1  277.07   17.70
  -5  -8   1  286.07   16.80
  -5  -8   1  292.57   17.60
   4   8  -1  255.37   16.30
  -4  -8   1  255.17   14.80
  -4  -8   1  250.77   16.00
   3   8  -1   -1.00    2.50
  -3  -8   1    5.60    3.30
  -3  -8   1    1.30    2.50
   2   8  -1   39.60    5.70
   2   8  -1   42.30    3.90
  -2  -8   1   41.30    6.00
   1   8  -1   -2.20    2.50
   1   8  -1    0.00    2.70
  -1  -8   1   -1.20    2.80
   0   8  -1  162.68   13.70
   0   8  -1  155.28   11.80
   0  -8   1  173.88   11.40
  -1   8  -1  439.36   30.10
  -1   8  -1  453.55   26.20
   1  -8   1  466.95   23.20
  -2   8  -1  116.79   11.30
  -2   8  -1  134.89   13.00
   2  -8   1  137.39    9.90
  -3   8  -1  121.49   11.30
  -3   8  -1   94.99   11.90
  -4   8  -1   55.19    8.90
  -4   8  -1   56.79    9.90
  -5   8  -1  364.16   24.00
  -5   8  -1  307.47   25.60
   8   7  -1  124.19   10.60
  -8  -7   1   98.89   11.10
  -8  -7   1  101.79   10.00
   7   7  -1    8.00    3.50
  -7  -7   1   13.90    4.60
  -7  -7   1   13.60    4.60
   6   7  -1  450.45   25.30
  -6  -7   1  441.86   24.20
  -6  -7   1  456.65   24.60
   5   7  -1 1108.19   56.19
  -5  -7   1 1162.08   53.19
  -5  -7   1 1146.09   52.89
   4   7  -1  223.58   14.40
  -4  -7   1  238.38   14.30
  -4  -7   1  221.18   13.40
   3   7  -1   -1.70    2.20
  -3  -7   1   -0.60    2.60
  -3  -7   1    2.20    2.40
   2   7  -1  280.57   16.60
  -2  -7   1  269.77   15.70
  -2  -7   1  284.97   14.60
   1   7  -1  380.46   23.40
   1   7  -1  329.47   20.00
   1   7  -1  372.46   17.60
  -1  -7   1  364.96   19.20
   0   7  -1    2.60    3.20
   0   7  -1    2.90    2.60
   0  -7   1    2.30    2.80
  -1   7  -1  200.18   13.80
  -1   7  -1  201.98   15.80
   1  -7   1  214.28   12.50
  -2   7  -1    8.20    4.10
  -2   7  -1    2.40    2.90
   2  -7   1    9.80    3.30
  -3   7  -1  796.72   42.80
  -3   7  -1  772.02   49.90
   3  -7   1  836.72   37.40
  -4   7  -1  386.26   24.00
  -4   7  -1  371.26   27.40
  -5   7  -1   28.70    7.70
  -5   7  -1   26.80    7.00
  -6   7  -1    5.30    5.00
  -6   7  -1   -3.80    3.60
   8   6  -1   83.79    8.50
  -8  -6   1   68.99    8.70
  -8  -6   1   85.19    9.40
   7   6  -1   16.50    4.20
  -7  -6   1   23.10    5.40
  -7  -6   1   24.90    5.30
   6   6  -1    4.60    3.00
  -6  -6   1    7.80    3.70
  -6  -6   1    2.60    3.10
   5   6  -1  421.66   22.80
  -5  -6   1  405.36   21.70
  -5  -6   1  403.36   21.80
   4   6  -1 1285.77   60.79
  -4  -6   1 1236.98   57.09
  -4  -6   1 1224.88   56.19
   3   6  -1   77.79    7.00
  -3  -6   1   91.29    7.60
  -3  -6   1   83.39    6.60
   2   6  -1  153.38   10.00
  -2  -6   1  131.19   10.60
  -2  -6   1  140.49    8.50
  -2  -6   1  143.09    9.80
   1   6  -1 1297.57   75.79
   1   6  -1 1383.86   58.99
   1   6  -1 1306.67   63.99
  -1  -6   1 1348.97   58.99
   0   6  -1    7.80    3.40
   0   6  -1    9.00    2.00
   0   6  -1    6.90    2.80
   0  -6   1   11.10    3.30
  -1   6  -1  367.46   17.20
  -1   6  -1  364.86   24.30
  -1   6  -1  370.96   20.90
   1  -6   1  363.96   18.40
  -2   6  -1  328.87   18.80
  -2   6  -1  304.57   21.60
   2  -6   1  290.67   15.70
  -3   6  -1  137.99   11.10
  -3   6  -1  135.79   12.90
   3  -6   1  149.99    9.20
  -4   6  -1  854.51   45.00
  -4   6  -1  848.22   52.79
  -5   6  -1  185.58   14.50
  -5   6  -1  160.68   15.80
  -6   6  -1    2.30    3.70
  -6   6  -1    6.60    4.60
  -7   6  -1  144.69   15.50
  -7   6  -1  140.49   14.20
   8   5  -1   56.59    7.90
  -8  -5   1   55.39    7.40
  -8  -5   1   60.99    8.40
   7   5  -1   70.09    8.30
  -7  -5   1   74.09    8.30
  -7  -5   1   73.69    8.50
   6   5  -1    6.20    3.00
  -6  -5   1    4.90    3.20
  -6  -5   1    7.40    3.40
   5   5  -1   13.80    3.30
  -5  -5   1    8.70    3.00
  -5  -5   1    7.90    3.40
   4   5  -1 1020.20   47.90
  -4  -5   1  910.31   45.10
  -4  -5   1  999.60   44.50
   3   5  -1    2.60    2.20
  -3  -5   1    4.30    2.30
  -3  -5   1    2.90    2.80
   2   5  -1  928.11   48.60
  -2  -5   1 1018.70   45.30
  -2  -5   1 1075.69   45.10
  -2  -5   1 1000.50   56.99
   1   5  -1    4.10    2.80
   1   5  -1    1.50    2.20
  -1  -5   1    1.90    2.80
   0   5  -1  127.49    9.10
   0   5  -1  144.09    7.70
   0   5  -1  132.99   10.90
   0  -5   1  143.09    8.90
  -1   5  -1  858.11   36.10
  -1   5  -1  780.92   47.70
  -1   5  -1  815.32   40.40
   1  -5   1  768.72   36.00
  -2   5  -1   13.00    3.40
  -2   5  -1   11.60    2.00
  -2   5  -1    9.80    3.70
   2  -5   1   19.70    3.30
  -3   5  -1  402.06   22.40
  -3   5  -1  377.86   18.70
  -3   5  -1  401.26   26.50
   3  -5   1  393.26   18.80
  -4   5  -1  556.34   36.00
  -4   5  -1  552.54   30.50
  -5   5  -1  365.46   23.00
  -5   5  -1  388.46   27.10
  -6   5  -1    8.10    4.00
  -6   5  -1    2.10    3.90
  -7   5  -1   33.80    7.50
  -7   5  -1   30.30    7.50
   8   4  -1   19.70    4.90
  -8  -4   1   23.90    5.70
  -8  -4   1   19.50    5.40
   7   4  -1   59.39    7.50
  -7  -4   1   61.09    7.40
  -7  -4   1   62.49    7.30
   6   4  -1  158.98   11.30
  -6  -4   1  165.88   11.00
  -6  -4   1  165.28   11.50
   5   4  -1  243.78   13.70
  -5  -4   1  231.08   13.10
  -5  -4   1  188.68   12.70
   4   4  -1  202.38   12.60
  -4  -4   1  222.58   12.40
  -4  -4   1  230.58   12.60
   3   4  -1  413.56   20.30
  -3  -4   1  377.46   19.00
  -3  -4   1  365.66   19.10
   2   4  -1 2535.15  118.19
  -2  -4   1 2480.45  108.19
  -2  -4   1 2609.24  111.09
   1   4  -1 2252.57  120.19
   1   4  -1 2142.59  101.09
  -1  -4   1 2025.30   94.49
  -1  -4   1 2246.88   92.49
   0   4  -1  125.69    9.70
   0   4  -1  124.59    8.10
   0   4  -1  125.29    6.80
   0  -4   1  128.19    7.70
  -1   4  -1 2634.34  147.59
  -1   4  -1 2588.04  114.59
  -1   4  -1 2671.43  123.39
   1  -4   1 2682.03  111.79
  -2   4  -1  646.54   32.00
  -2   4  -1  633.94   38.30
  -2   4  -1  610.64   28.40
   2  -4   1  631.94   28.20
  -3   4  -1    7.00    3.60
  -3   4  -1    6.40    1.90
  -3   4  -1    5.60    2.60
   3  -4   1    7.60    2.20
  -4   4  -1   12.60    3.70
  -4   4  -1    9.10    2.40
  -4   4  -1    8.80    4.30
   4  -4   1    7.90    2.30
  -5   4  -1  580.14   38.90
  -5   4  -1  630.34   29.50
  -5   4  -1  620.74   33.20
  -6   4  -1  143.59   13.80
  -6   4  -1  137.19   12.00
  -7   4  -1  341.67   21.80
  -7   4  -1  299.87   24.10
  -8   4  -1   44.90    8.50
  -8   4  -1   52.99   10.00
   9   3  -1  123.99   11.50
  -9  -3   1  128.49   11.20
   8   3  -1  165.08   12.10
  -8  -3   1  115.69   10.60
   7   3  -1  126.69   10.30
  -7  -3   1  119.89    9.90
  -7  -3   1  124.69    9.40
   6   3  -1  162.78   11.40
  -6  -3   1  166.08   10.60
  -6  -3   1  166.48   11.20
   5   3  -1  168.38   10.70
  -5  -3   1  151.08   10.20
  -5  -3   1  166.08   10.10
   4   3  -1   26.90    3.70
  -4  -3   1   23.40    3.80
  -4  -3   1   25.50    3.90
   3   3  -1 1283.37   61.79
  -3  -3   1 1338.97   58.69
  -3  -3   1 1303.47   56.89
   2   3  -1   72.29    5.30
  -2  -3   1   71.59    5.30
  -2  -3   1   70.79    5.10
  -1  -3   1 5761.02  231.68
  -1  -3   1 5295.17  238.48
   0   3  -1 3604.84  189.88
   0   3  -1 3212.28  158.48
   0   3  -1 3354.06  148.59
   0  -3   1 3586.14  144.49
  -1   3  -1    3.10    1.30
  -1   3  -1    4.10    2.80
  -1   3  -1    3.90    2.00
   1  -3   1    4.50    1.90
  -2   3  -1  647.14   29.60
  -2   3  -1  643.44   32.60
  -2   3  -1  676.53   39.30
   2  -3   1  666.33   28.80
  -3   3  -1 2242.18   97.89
  -3   3  -1 2306.57  105.29
  -3   3  -1 2129.79  125.89
   3  -3   1 2264.37   94.39
  -4   3  -1    5.40    2.20
  -4   3  -1    9.60    3.40
  -4   3  -1    9.00    3.90
   4  -3   1   15.30    2.40
  -5   3  -1  865.61   51.99
  -5   3  -1  846.22   43.90
  -5   3  -1  852.41   40.00
  -6   3  -1  576.44   37.20
  -6   3  -1  565.94   28.30
  -6   3  -1  563.94   31.70
  -7   3  -1   81.79   10.30
  -7   3  -1   68.29   10.10
  -8   3  -1  112.49   13.30
  -8   3  -1  108.89   12.30
   9   2  -1   51.69    8.20
  -9  -2   1   44.30    7.40
   8   2  -1    7.10    3.90
  -8  -2   1    6.20    3.90
   7   2  -1  498.55   26.70
  -7  -2   1  470.45   23.50
  -7  -2   1  438.66   24.90
   6   2  -1   64.69    7.30
  -6  -2   1   55.69    5.40
  -6  -2   1   57.69    6.70
   5   2  -1   88.99    7.40
  -5  -2   1   97.69    6.80
  -5  -2   1   84.89    7.00
   4   2  -1 1064.79   50.19
  -4  -2   1 1051.59   58.19
  -4  -2   1 1010.80   45.80
  -4  -2   1 1031.30   47.60
   3   2  -1 1457.35   66.69
  -3  -2   1 1307.57   60.99
  -3  -2   1 1487.65   63.19
   2   2  -1 1421.66   66.59
  -2  -2   1 1412.56   62.89
  -2  -2   1 1444.06   61.09
   1   2  -1 2151.78  100.29
  -1  -2   1 2117.39   94.29
  -1  -2   1 2245.48   91.59
   0   2  -1 2305.67  107.89
   0   2  -1 2601.84  137.69
   0   2  -1 2569.14  115.09
   0  -2   1 2490.85  104.79
  -1   2  -1  566.74   34.70
  -1   2  -1  597.34   29.00
  -1   2  -1  604.54   26.70
   1  -2   1  623.04   26.00
  -2   2  -1 1320.07   63.89
  -2   2  -1 1357.96   59.59
  -2   2  -1 1392.46   76.89
   2  -2   1 1354.76   57.29
  -3   2  -1  297.07   14.90
  -3   2  -1  297.07   19.90
  -3   2  -1  306.37   16.70
   3  -2   1  302.77   13.80
  -4   2  -1   40.90    6.30
  -4   2  -1   39.80    5.30
  -4   2  -1   34.40    3.00
  -5   2  -1    3.50    2.00
  -5   2  -1    2.10    2.70
  -5   2  -1   10.30    4.00
  -6   2  -1  665.63   41.40
  -6   2  -1  662.43   32.20
  -6   2  -1  639.54   35.10
  -7   2  -1   57.39    6.90
  -7   2  -1   54.39    8.30
  -7   2  -1   54.39    8.80
  -8   2  -1  125.09   12.10
  -8   2  -1  129.89   10.50
  -8   2  -1  134.39   14.30
  -9  -1   1    2.30    3.50
  -8  -1   1   25.40    6.10
  -8  -1   1   40.50    6.30
  -7  -1   1  285.57   17.80
  -7  -1   1  257.97   16.20
  -7  -1   1  263.17   14.90
  -6  -1   1  387.76   18.60
  -6  -1   1  356.76   19.70
  -6  -1   1  350.96   21.00
  -5  -1   1    9.70    2.80
  -5  -1   1   12.40    3.40
  -5  -1   1    8.10    3.00
  -4  -1   1  147.89    8.50
  -4  -1   1  150.58   10.00
  -4  -1   1  135.19    9.10
  -4  -1   1  137.49    9.40
  -3  -1   1 2349.67  102.19
  -3  -1   1 2415.86  133.29
  -3  -1   1 2395.06  105.79
  -3  -1   1 2495.65  112.29
   2   1  -1  789.02   37.20
  -2  -1   1  779.22   35.30
  -2  -1   1  786.42   34.20
   1   1  -1   29.10    2.40
  -1  -1   1   22.80    2.40
  -1  -1   1   32.90    2.80
   0   1  -1 3768.72  168.98
   0  -1   1 3593.64  153.58
  -1   1  -1 1079.19   51.19
  -1   1  -1 1090.49   61.49
   1  -1   1 1119.59   46.10
  -2   1  -1 9999.00  524.35
  -2   1  -1 9438.56  437.46
  -2   1  -1 9229.68  398.06
  -3   1  -1   80.49    6.30
  -3   1  -1   78.19    4.30
  -3   1  -1   78.69    7.10
  -3   1  -1   77.89    5.60
  -4   1  -1    1.20    1.20
  -4   1  -1    1.90    2.50
  -4   1  -1    2.10    2.20
  -4   1  -1    4.30    2.90
  -5   1  -1  776.32   46.00
  -5   1  -1  736.03   38.90
  -5   1  -1  761.92   33.50
  -5   1  -1  783.52   36.30
  -6   1  -1   47.50    6.80
  -6   1  -1   30.90    5.90
  -6   1  -1   42.60    5.80
  -7   1  -1    2.90    3.10
  -7   1  -1    2.50    2.50
  -7   1  -1    5.10    3.10
  -8   1  -1   47.60    6.80
  -8   1  -1   30.60    6.60
  -9   0   1  167.78   13.00
  -8   0   1    5.80    3.60
  -8   0   1    3.10    3.80
  -7   0   1   85.69    9.10
  -7   0   1   97.69    8.60
  -6   0   1 1451.85   70.49
  -6   0   1 1454.25   82.59
  -6   0   1 1369.66   62.79
  -6   0   1 1496.55   66.19
  -5   0   1  186.38   13.20
  -5   0   1  184.78   10.20
  -5   0   1  190.78   11.30
  -5   0   1  178.08   11.90
  -4   0   1   88.89    6.70
  -4   0   1   94.59    7.10
  -4   0   1   86.49    7.50
  -3   0   1  238.38   14.80
  -3   0   1  241.88   12.30
  -3   0   1  229.38   12.90
  -2   0   1 1467.25   64.19
  -2   0   1 1455.25   61.99
  -1   0   1    4.40    1.60
  -1   0   1    5.10    1.40
  -1   0   1    5.60    1.60
   0   0  -1 1156.48   51.09
   0   0  -1 1041.90   48.40
   0   0   1 1129.49   46.80
  -1   0  -1  746.73   34.60
  -1   0  -1  732.43   32.60
  -2   0  -1 1069.89   44.90
  -2   0  -1 1077.69   50.39
  -2   0  -1 1089.29   59.99
  -2   0  -1 1036.30   47.30
  -3   0  -1 1343.67   56.89
  -3   0  -1 1382.46   63.79
  -3   0  -1 1315.37   59.79
  -4   0  -1   38.00    5.20
  -4   0  -1   36.20    3.10
  -4   0  -1   44.20    5.00
  -4   0  -1   46.10    5.60
  -5   0  -1    6.60    2.80
  -5   0  -1    6.00    1.60
  -5   0  -1    5.00    2.70
  -5   0  -1    8.70    3.10
  -6   0  -1 1038.00   59.39
  -6   0  -1 1006.50   47.40
  -6   0  -1  973.80   50.59
  -7   0  -1   73.59    9.20
  -7   0  -1   69.09    7.70
  -8   0  -1   37.90    7.40
  -8   0  -1   43.20    6.70
  -9   0  -1  609.74   32.40
  -9   0  -1  588.24   35.40
  -8   1   1  111.09   11.20
  -8   1   1  120.89    9.90
  -7   1   1    2.70    2.90
  -7   1   1    2.60    2.80
  -6   1   1  383.56   24.90
  -6   1   1  385.36   20.20
  -6   1   1  359.06   18.40
  -6   1   1  372.76   21.80
  -5   1   1 1722.13  102.99
  -5   1   1 1840.12   81.39
  -5   1   1 1885.41   86.99
  -5   1   1 1832.22   77.99
  -4   1   1  263.17   15.00
  -4   1   1  256.67   12.80
  -4   1   1  263.67   13.90
  -3   1   1  118.49    6.30
  -3   1   1   96.99    8.00
  -2   1   1   86.29    6.10
  -2   1   1  100.39    7.40
  -1   1   1 3445.46  139.79
  -1   1   1 3241.48  144.09
   0  -1  -1 2711.13  116.79
   0   1   1 2704.93  113.19
  -1  -1  -1 1297.17   59.79
  -1  -1  -1 1305.87   54.19
  -1  -1  -1 1274.87   56.29
  -2  -1  -1  318.17   17.20
  -2  -1  -1  336.27   15.00
  -2  -1  -1  356.86   16.50
  -3  -1  -1  808.92   39.60
  -3  -1  -1  839.22   46.40
  -3  -1  -1  798.62   35.20
  -3  -1  -1  832.52   37.30
  -4  -1  -1  903.21   41.40
  -4  -1  -1  872.81   38.80
  -4  -1  -1  917.11   44.10
  -4  -1  -1  895.41   51.19
  -5  -1  -1   66.59    6.90
  -5  -1  -1   74.19    6.30
  -5  -1  -1   70.99    6.70
  -5  -1  -1   75.09    5.10
  -6  -1  -1  120.79    9.10
  -6  -1  -1  111.39    9.60
  -7  -1  -1   63.69    7.50
  -7  -1  -1   75.09    9.10
  -8  -1  -1   19.70    5.70
  -8  -1  -1    7.30    3.90
  -9  -1  -1   98.39   12.50
  -9  -1  -1  122.39   10.90
  -8   2   1   29.30    5.20
  -8   2   1   20.00    5.60
  -7   2   1   43.70    7.20
  -7   2   1   30.90    5.10
  -6   2   1    0.40    2.40
  -6   2   1    0.90    2.30
  -6   2   1    0.90    2.90
  -5   2   1  991.10   44.50
  -5   2   1 1071.59   50.49
  -5   2   1  977.60   59.49
  -4   2   1 1833.72   85.69
  -4   2   1 1772.32  102.19
  -4   2   1 1804.42   76.99
  -3   2   1   20.90    3.60
  -3   2   1   25.20    3.10
  -3   2   1   17.40    3.80
  -3   2   1   21.80    2.80
  -2   2   1    4.80    2.40
  -2   2   1    3.70    1.40
  -2   2   1    6.50    2.10
  -1   2   1 1505.65   68.99
  -1   2   1 1554.44   82.99
  -1   2   1 1388.86   62.79
  -1   2   1 1494.75   64.29
   0  -2  -1 7176.68  307.27
   0  -2  -1 7566.94  316.97
  -1  -2  -1 2811.42  113.29
  -1  -2  -1 2622.64  116.79
   1   2   1 2672.93  124.19
  -2  -2  -1   97.89    6.70
   2   2   1  101.39    6.60
  -3  -2  -1  152.68    8.10
  -3  -2  -1  158.08    9.70
  -3  -2  -1  160.98    9.10
  -4  -2  -1 4056.69  175.58
  -4  -2  -1 4258.07  193.78
  -4  -2  -1 3992.40  182.18
   4   2   1 4412.26  230.88
  -5  -2  -1  676.33   28.80
  -5  -2  -1  642.14   30.70
  -5  -2  -1  630.64   32.70
   5   2   1  583.04   37.50
  -6  -2  -1  171.58    9.60
  -6  -2  -1  155.88   11.50
  -6  -2  -1  148.99   10.80
  -7  -2  -1   86.19    9.80
  -7  -2  -1   80.69    7.90
  -8  -2  -1   32.00    6.00
  -8  -2  -1   12.80    4.50
  -9  -2  -1   37.80    7.10
  -8   3   1    1.80    3.60
  -7   3   1  136.19   11.70
  -7   3   1  127.99   12.90
  -6   3   1  219.18   14.90
  -6   3   1  208.18   12.70
  -6   3   1  214.88   17.10
  -5   3   1  243.08   12.60
  -5   3   1  244.78   13.30
  -5   3   1  239.28   17.80
  -5   3   1  220.38   14.90
  -4   3   1  348.87   24.10
  -4   3   1  377.06   17.80
  -4   3   1  375.96   18.30
  -4   3   1  372.76   20.50
  -3   3   1  807.92   49.20
  -3   3   1  871.41   41.30
  -3   3   1  831.42   37.70
  -3   3   1  841.32   36.90
  -2   3   1 1715.43   75.19
  -2   3   1 1701.63   97.29
  -2   3   1 1771.62   81.19
   1  -3  -1  760.02   35.20
  -1   3   1  795.52   35.10
  -1   3   1  856.51   38.90
  -1   3   1  825.92   46.60
   0  -3  -1  118.99    7.30
   0  -3  -1  118.99    5.50
   0   3   1  120.29    9.20
  -1  -3  -1  328.47   15.40
  -1  -3  -1  327.97   15.10
   1   3   1  310.97   16.30
  -2  -3  -1 1229.48   55.69
  -2  -3  -1 1319.37   54.19
   2   3   1 1233.78   59.19
  -3  -3  -1  492.65   23.40
  -3  -3  -1  495.45   22.50
   3   3   1  490.75   24.70
  -4  -3  -1  926.91   42.60
   4   3   1  920.31   45.00
  -5  -3  -1  491.15   23.00
  -5  -3  -1  483.05   24.60
   5   3   1  486.75   25.80
  -6  -3  -1   75.39    6.10
  -6  -3  -1   78.59    7.30
   6   3   1   66.39    6.80
  -7  -3  -1  231.78   14.80
   7   3   1  229.78   15.60
  -8  -3  -1  159.28   12.70
   8   3   1  184.08   13.70
  -9  -3  -1   -3.40    3.30
   9   3   1   -1.10    3.20
  -8   4   1   18.90    5.90
  -8   4   1    7.10    4.90
  -7   4   1   37.50    8.00
  -7   4   1   45.30    7.80
  -6   4   1   85.09    8.90
  -6   4   1   83.99   11.30
  -5   4   1  992.60   44.70
  -5   4   1  945.71   58.49
  -5   4   1  973.00   49.40
  -4   4   1   64.49    6.80
  -4   4   1   67.69    5.10
  -4   4   1   63.39    7.90
   3  -4  -1  347.27   17.30
  -3   4   1  383.76   20.10
  -3   4   1  364.26   17.10
  -3   4   1  351.26   23.70
   2  -4  -1 3139.29  131.49
  -2   4   1 3324.07  145.09
  -2   4   1 2997.40  134.49
  -2   4   1 3002.70  173.48
   1  -4  -1 2566.84  107.99
  -1   4   1 2536.15  142.29
  -1   4   1 2557.14  118.89
   0  -4  -1 2788.32  114.49
   0   4   1 2545.45  125.39
   0   4   1 2792.52  150.18
  -1  -4  -1  608.84   27.20
  -1  -4  -1  596.94   27.00
   1   4   1  597.64   29.60
   1   4   1  612.24   34.60
  -2  -4  -1  137.99    8.00
  -2  -4  -1  131.59    7.70
   2   4   1  137.89    8.20
  -3  -4  -1   37.00    4.30
  -3  -4  -1   53.69    5.00
   3   4   1   46.80    4.50
  -4  -4  -1   -0.60    2.50
  -4  -4  -1   -1.90    2.00
   4   4   1    1.40    1.90
  -5  -4  -1  629.94   29.70
  -5  -4  -1  647.44   31.20
   5   4   1  640.14   32.60
  -6  -4  -1   48.20    6.20
  -6  -4  -1   54.69    5.70
   6   4   1   56.49    6.60
  -7  -4  -1  513.65   26.90
  -7  -4  -1  520.15   25.10
   7   4   1  470.65   27.70
  -8  -4  -1   21.60    5.20
   8   4   1   22.20    5.50
  -9  -4  -1    6.80    4.30
   9   4   1    0.40    3.40
  -7   5   1    1.70    4.30
  -7   5   1    6.70    4.30
  -6   5   1   -1.70    3.00
  -6   5   1   -2.00    3.50
  -5   5   1  272.17   20.90
  -5   5   1  270.87   17.80
   4  -5  -1  302.97   15.30
  -4   5   1  274.57   17.80
  -4   5   1  295.67   21.30
   3  -5  -1    9.00    2.80
  -3   5   1   12.70    3.70
  -3   5   1    8.80    1.80
  -3   5   1   13.30    4.40
   2  -5  -1   81.39    6.40
  -2   5   1   86.99    8.90
  -2   5   1   87.09    4.60
  -2   5   1   85.29    7.50
   1  -5  -1 1614.04   67.99
  -1   5   1 1614.04   89.59
  -1   5   1 1496.45   74.89
   0  -5  -1  767.82   33.60
   0   5   1  691.73   36.50
   0   5   1  770.92   43.50
   0   5   1  750.52   32.50
  -1  -5  -1  403.86   19.80
  -1  -5  -1  419.16   19.10
   1   5   1  408.76   21.50
   1   5   1  427.86   24.90
  -2  -5  -1  592.04   27.70
   2   5   1  622.04   34.40
   2   5   1  590.24   29.90
  -3  -5  -1    6.80    2.80
  -3  -5  -1    7.60    2.80
   3   5   1    8.70    2.60
  -4  -5  -1    5.20    2.60
  -4  -5  -1    4.60    2.70
   4   5   1    1.00    2.00
  -5  -5  -1  120.69    8.90
  -5  -5  -1  116.59    8.30
   5   5   1  110.89    8.50
  -6  -5  -1  117.49    8.60
  -6  -5  -1  107.99    8.90
   6   5   1  104.99    8.70
  -7  -5  -1  464.65   24.90
   7   5   1  440.76   25.40
  -8  -5  -1  134.69   11.60
   8   5   1  136.59   11.20
  -9  -5  -1   60.79    8.50
   9   5   1   78.69   10.00
  -7   6   1  185.88   15.80
  -7   6   1  180.68   17.70
  -6   6   1   24.30    7.20
  -6   6   1   32.40    6.80
  -5   6   1  557.34   31.20
  -5   6   1  517.95   35.90
   4  -6  -1  388.56   19.50
  -4   6   1  379.66   26.90
  -4   6   1  393.96   23.30
   3  -6  -1    8.80    3.10
  -3   6   1    8.50    3.80
  -3   6   1    8.30    3.40
   2  -6  -1  150.88    9.50
  -2   6   1  150.38   11.00
  -2   6   1  153.28   12.90
   1  -6  -1   16.70    3.50
  -1   6   1   15.50    3.90
  -1   6   1   16.30    4.40
   0  -6  -1   23.80    3.90
   0   6   1   20.10    3.80
   0   6   1   29.20    5.10
   0   6   1   30.30    2.10
  -1  -6  -1  377.26   18.50
  -1  -6  -1  434.66   20.10
   1   6   1  402.96   24.60
   1   6   1  395.66   21.30
  -2  -6  -1  134.69    8.80
  -2  -6  -1  119.39    7.40
   2   6   1  116.89    8.70
   2   6   1  122.79    9.00
  -3  -6  -1  508.05   24.70
  -3  -6  -1  517.15   24.90
   3   6   1  516.15   26.50
  -4  -6  -1  641.94   29.20
  -4  -6  -1  592.74   29.30
   4   6   1  589.64   31.00
  -5  -6  -1   16.30    3.80
  -5  -6  -1   11.10    3.70
   5   6   1   13.40    3.30
  -6  -6  -1   81.49    8.70
  -6  -6  -1   87.19    7.70
   6   6   1   81.09    7.70
  -7  -6  -1   23.70    5.00
  -7  -6  -1   26.90    5.50
   7   6   1   37.50    6.20
  -8  -6  -1  116.29   10.50
   8   6   1  123.19   10.80
  -6   7   1  101.89   12.70
  -6   7   1   77.49   12.40
  -5   7   1  201.98   16.00
  -5   7   1  197.68   18.00
   4  -7  -1  376.06   19.50
  -4   7   1  370.26   27.00
  -4   7   1  369.16   23.30
   3  -7  -1  435.96   21.60
  -3   7   1  436.96   29.40
  -3   7   1  409.76   25.10
   2  -7  -1  239.98   13.10
  -2   7   1  238.28   17.40
  -2   7   1  194.28   14.70
   1  -7  -1    3.60    2.90
  -1   7   1    4.70    3.80
  -1   7   1    9.20    3.60
   0  -7  -1  263.07   14.10
   0   7   1  229.88   17.10
   0   7   1  249.78   14.90
  -1  -7  -1  397.66   19.90
  -1  -7  -1  425.06   21.50
   1   7   1  468.25   23.40
   1   7   1  441.36   26.80
  -2  -7  -1  991.40   44.80
  -2  -7  -1  990.20   45.20
   2   7   1 1016.40   56.99
   2   7   1  985.80   49.00
  -3  -7  -1  138.79    8.50
   3   7   1  123.09    9.40
  -4  -7  -1  872.41   41.40
  -4  -7  -1  899.31   41.80
   4   7   1  906.01   44.70
  -5  -7  -1  431.36   22.40
  -5  -7  -1  407.86   22.30
   5   7   1  435.66   23.60
  -6  -7  -1   61.79    7.30
  -6  -7  -1   48.10    6.60
   6   7   1   61.29    7.60
  -7  -7  -1    7.00    3.70
  -7  -7  -1    2.30    3.40
   7   7   1    2.50    3.00
  -8  -7  -1   88.09   10.20
   8   7   1   99.79    9.60
  -6   8   1   85.69   13.10
  -6   8   1   93.59   12.80
  -5   8   1   -1.00    3.70
  -5   8   1    4.90    3.90
  -4   8   1   22.20    6.80
  -4   8   1   26.20    6.20
   3  -8  -1   25.70    4.70
  -3   8   1   23.90    6.70
  -3   8   1   28.10    6.50
   2  -8  -1  140.59   10.30
  -2   8   1  148.99   13.80
  -2   8   1  161.28   12.60
   1  -8  -1   87.79    7.90
  -1   8   1   92.59    9.90
  -1   8   1   94.79    9.00
   0  -8  -1  142.19    9.90
   0   8   1  131.89   11.70
   0   8   1  128.59    9.80
  -1  -8  -1   45.30    5.90
   1   8   1   52.29    6.80
   1   8   1   43.10    5.40
  -2  -8  -1  107.09    7.10
  -2  -8  -1  113.99    8.70
   2   8   1  130.99    9.30
   2   8   1  108.09    9.30
  -3  -8  -1  134.79   10.20
  -3  -8  -1  137.29    8.70
   3   8   1  130.39   10.00
  -4  -8  -1  211.88   13.10
  -4  -8  -1  198.08   11.90
   4   8   1  179.08   12.70
  -5  -8  -1  744.33   36.70
  -5  -8  -1  787.02   37.00
   5   8   1  741.33   39.00
  -6  -8  -1  224.08   14.70
  -6  -8  -1  222.98   14.80
   6   8   1  239.68   15.40
  -7  -8  -1    1.60    3.50
  -7  -8  -1    0.60    3.30
   7   8   1    1.30    2.60
  -8  -8  -1   28.20    6.00
  -8  -8  -1   24.30    5.60
   8   8   1   28.00    5.60
  -5   9   1   32.00    8.10
  -5   9   1   32.50    8.00
  -4   9   1   44.90    9.00
  -4   9   1   33.60    7.90
   3  -9  -1   25.80    5.00
  -3   9   1   23.70    6.20
  -3   9   1   23.70    6.60
   2  -9  -1  181.08   11.80
  -2   9   1  126.89   12.50
  -2   9   1  173.68   15.00
   1  -9  -1 1049.09   49.20
  -1   9   1 1083.29   54.79
  -1   9   1 1075.89   64.29
   0  -9  -1  168.78   11.60
   0   9   1  141.69   13.20
   0   9   1  163.68   11.90
  -1  -9  -1  201.98   13.10
   1   9   1  194.38   15.20
   1   9   1  198.98   13.40
  -2  -9  -1    8.90    3.70
   2   9   1   10.00    3.90
  -3  -9  -1   29.60    5.50
   3   9   1   24.20    4.80
  -4  -9  -1   91.89    7.60
  -4  -9  -1   79.49    8.80
   4   9   1   86.89    8.30
  -5  -9  -1   12.30    3.80
  -5  -9  -1   17.60    4.90
   5   9   1   10.00    3.90
  -6  -9  -1  213.68   13.80
  -6  -9  -1  194.98   14.10
   6   9   1  199.28   14.30
  -7  -9  -1    4.50    4.00
  -7  -9  -1   13.80    4.40
   7   9   1   12.40    4.40
  -4  10   1    9.20    5.50
  -4  10   1   22.30    7.80
  -3  10   1   47.80    8.90
  -3  10   1   48.40    9.20
   2 -10  -1   -1.20    3.40
  -2  10   1    1.10    3.90
  -2  10   1    5.00    4.00
   1 -10  -1  252.47   16.40
  -1  10   1  267.07   18.20
  -1  10   1  263.27   20.80
   0 -10  -1  672.83   34.50
   0  10   1  707.33   37.50
   0  10   1  715.63   44.10
  -1 -10  -1   19.70    4.90
   1  10   1   26.50    5.40
   1  10   1   21.90    5.60
  -2 -10  -1   12.20    4.40
   2  10   1   16.20    4.40
  -3 -10  -1   59.99    7.90
   3  10   1   48.80    7.00
  -4 -10  -1  165.58   12.50
   4  10   1  170.08   12.70
  -5 -10  -1    5.40    4.00
   5  10   1   17.70    5.10
  -6 -10  -1   75.09    9.50
  -6 -10  -1   79.29    8.60
   6  10   1   67.79    8.80
  -7 -10  -1   21.80    5.30
  -7 -10  -1   22.00    5.90
   7  10   1   24.40    5.50
  -3  11   1   83.29   12.10
  -3  11   1   71.39   11.80
   2 -11  -1   13.40    5.10
  -2  11   1   14.20    6.10
  -2  11   1   12.80    5.20
   1 -11  -1    4.80    4.10
  -1  11   1    3.20    3.70
  -1  11   1   -4.00    3.60
   0 -11  -1  297.57   18.50
   0  11   1  288.97   22.40
   0  11   1  307.87   19.80
  -1 -11  -1  178.98   13.50
   1  11   1  173.88   13.30
  -2 -11  -1   87.79    9.90
   2  11   1   91.89    9.00
  -3 -11  -1    6.50    4.70
   3  11   1   14.10    4.60
  -4 -11  -1  163.18   12.50
   4  11   1  136.99   11.80
  -5 -11  -1   -0.20    3.40
   5  11   1    1.60    3.40
  -6 -11  -1    1.00    3.80
   6  11   1    1.70    3.10
  -2  12   1   19.50    6.40
  -2  12   1   22.30    7.10
   1 -12  -1   10.80    5.10
  -1  12   1   11.10    5.20
  -1  12   1    2.10    4.40
   0 -12  -1   22.60    5.90
   0  12   1    7.70    4.40
  -1 -12  -1   33.50    7.00
   1  12   1   21.60    5.50
  -2 -12  -1   38.10    7.60
   2  12   1   26.80    6.10
  -3 -12  -1  208.98   16.20
   3  12   1  230.78   15.90
  -4 -12  -1    9.70    5.00
   4  12   1    9.60    4.60
  -5 -12  -1   15.60    5.80
   5  12   1   18.40    5.30
  -1 -13  -1  172.18   15.00
   1  13   1  192.18   14.90
  -2 -13  -1    3.80    5.00
   2  13   1    5.00    4.00
   4  11  -2   28.60    6.00
  -4 -11   2   25.50    6.20
   3  11  -2  206.28   14.90
  -3 -11   2  194.48   15.30
   2  11  -2   32.10    6.40
  -2 -11   2   27.20    6.50
   1  11  -2   16.00    4.80
  -1 -11   2   14.70    5.30
   0  11  -2  201.28   15.90
   0 -11   2  202.88   14.80
  -1  11  -2   14.60    5.50
  -2  11  -2  208.78   17.40
   5  10  -2   93.29   10.80
  -5 -10   2   97.49   11.10
   4  10  -2   10.20    4.20
  -4 -10   2    3.90    4.20
   3  10  -2  375.66   22.80
  -3 -10   2  404.26   23.20
   2  10  -2  136.39   11.40
  -2 -10   2  128.29   11.60
   1  10  -2  127.19   11.50
  -1 -10   2  160.48   12.30
   0  10  -2  631.94   35.70
   0 -10   2  649.34   32.80
  -1  10  -2  159.38   15.20
  -1  10  -2  176.78   14.10
   1 -10   2  156.28   12.50
  -2  10  -2   52.89    9.40
  -2  10  -2   58.69    9.30
  -3  10  -2  193.48   18.20
  -3  10  -2  179.68   16.40
   6   9  -2   76.79    9.10
  -6  -9   2   55.39    8.40
  -6  -9   2   63.59    8.10
   5   9  -2  184.38   14.10
  -5  -9   2  188.78   14.50
  -5  -9   2  214.18   13.90
   4   9  -2   55.49    7.70
  -4  -9   2   49.20    7.60
  -4  -9   2   45.80    6.60
   3   9  -2    3.90    3.30
  -3  -9   2    2.90    3.40
   2   9  -2  399.16   23.50
  -2  -9   2  422.96   22.80
   1   9  -2   -3.10    2.40
  -1  -9   2   -0.90    3.70
   0   9  -2    3.70    3.40
   0  -9   2    3.90    3.80
  -1   9  -2  292.97   22.70
  -1   9  -2  302.27   20.10
   1  -9   2  320.37   18.10
  -2   9  -2   29.60    7.00
  -2   9  -2   26.20    6.50
  -3   9  -2   59.19    9.90
  -3   9  -2   97.29   11.60
  -4   9  -2    0.90    4.00
  -4   9  -2   -0.40    4.00
   7   8  -2   12.10    4.00
  -7  -8   2   18.80    5.40
  -7  -8   2   21.70    5.90
   6   8  -2   37.20    6.50
  -6  -8   2   49.80    7.00
  -6  -8   2   40.40    7.00
   5   8  -2  904.91   45.00
  -5  -8   2  866.71   42.30
  -5  -8   2  825.02   41.70
   4   8  -2    3.30    3.50
  -4  -8   2    0.10    2.80
  -4  -8   2    3.50    3.20
   3   8  -2  273.47   17.20
  -3  -8   2  277.07   17.00
   2   8  -2  120.09    9.40
   2   8  -2  124.69    8.00
  -2  -8   2  130.59   10.40
   1   8  -2   34.10    5.70
  -1  -8   2   37.00    6.10
  -1  -8   2   44.90    7.80
   0   8  -2  255.67   16.10
   0   8  -2  216.18   17.80
   0  -8   2  254.67   14.90
  -1   8  -2  202.38   14.70
  -1   8  -2  215.88   17.10
   1  -8   2  201.48   13.00
  -2   8  -2    6.70    3.90
  -2   8  -2    4.90    4.00
   2  -8   2    5.80    3.40
  -3   8  -2  172.38   15.70
  -3   8  -2  148.79   13.40
  -4   8  -2  118.99   12.40
  -4   8  -2  118.59   13.50
  -5   8  -2   72.29   11.60
  -5   8  -2   76.09   11.30
   7   7  -2   14.40    4.60
  -7  -7   2    7.50    4.30
  -7  -7   2   10.50    4.30
   6   7  -2   58.49    7.50
  -6  -7   2   54.79    7.80
  -6  -7   2   50.29    6.80
   5   7  -2  341.27   20.20
  -5  -7   2  330.07   19.30
  -5  -7   2  358.76   20.00
   4   7  -2  385.96   22.40
  -4  -7   2  401.76   21.00
  -4  -7   2  405.46   21.70
   3   7  -2   22.40    4.60
  -3  -7   2   21.60    4.20
  -3  -7   2   15.40    4.40
   2   7  -2  700.73   33.00
   2   7  -2  722.33   36.40
  -2  -7   2  709.43   34.10
   1   7  -2   17.00    2.80
   1   7  -2    8.20    3.20
  -1  -7   2   22.30    5.50
  -1  -7   2   13.70    4.10
   0   7  -2   17.80    4.70
   0   7  -2   19.70    4.10
   0  -7   2   21.10    4.30
  -1   7  -2  838.02   52.69
  -1   7  -2  916.61   45.00
   1  -7   2  867.81   40.20
  -2   7  -2    7.60    4.30
  -2   7  -2    4.40    3.10
   2  -7   2    4.70    3.00
  -3   7  -2  236.98   19.10
  -3   7  -2  229.98   16.60
  -4   7  -2 1596.74   78.49
  -4   7  -2 1519.95   92.39
  -5   7  -2  210.98   16.70
  -5   7  -2  208.18   18.60
  -6   7  -2   16.60    6.30
  -6   7  -2   16.50    6.30
   8   6  -2   42.40    6.80
  -8  -6   2   54.99    7.90
  -8  -6   2   39.60    7.10
   7   6  -2    2.10    2.70
  -7  -6   2    4.30    3.60
  -7  -6   2    5.00    3.90
   6   6  -2  101.99    8.70
  -6  -6   2   92.49    8.80
  -6  -6   2   93.59    8.80
   5   6  -2  414.96   22.30
  -5  -6   2  384.46   21.20
  -5  -6   2  378.26   21.40
   4   6  -2   27.00    4.60
  -4  -6   2   19.80    4.10
  -4  -6   2   14.20    4.10
   3   6  -2   25.60    4.40
  -3  -6   2   21.00    3.80
  -3  -6   2   27.50    4.60
   2   6  -2 2817.12  128.99
  -2  -6   2 2830.22  118.19
  -2  -6   2 2605.04  153.38
   1   6  -2  678.93   30.10
   1   6  -2  673.73   33.00
  -1  -6   2  672.63   30.90
  -1  -6   2  567.24   39.20
   0   6  -2   16.90    4.40
   0   6  -2    8.50    3.00
   0   6  -2   14.70    2.80
   0  -6   2   16.40    3.80
  -1   6  -2  171.58   12.30
  -1   6  -2  191.88   14.60
  -1   6  -2  185.58   10.00
   1  -6   2  183.88   11.00
  -2   6  -2    3.00    2.60
  -2   6  -2    2.40    3.30
   2  -6   2    4.10    2.60
  -3   6  -2   76.69   10.40
  -3   6  -2   70.19    8.70
  -4   6  -2  138.59   13.70
  -4   6  -2  134.09   11.80
  -5   6  -2 1193.18   60.99
  -5   6  -2 1156.58   71.59
  -6   6  -2   15.00    5.50
  -6   6  -2   20.80    6.20
  -8  -5   2   74.99    9.00
  -8  -5   2   72.79    8.90
   7   5  -2    2.50    2.90
  -7  -5   2    3.80    3.70
  -7  -5   2    4.60    3.50
   6   5  -2   13.70    3.60
  -6  -5   2   15.50    4.40
  -6  -5   2   17.30    4.20
   5   5  -2  161.68   10.90
  -5  -5   2  154.48   10.60
  -5  -5   2  161.18   11.10
   4   5  -2  442.46   23.20
  -4  -5   2  419.46   22.10
  -4  -5   2  439.36   22.20
   3   5  -2   57.79    6.10
  -3  -5   2   41.80    5.10
  -3  -5   2   48.90    5.80
   2   5  -2 2249.38  109.09
  -2  -5   2 2021.80  102.29
  -2  -5   2 2452.75  100.39
  -2  -5   2 2593.84  130.09
   1   5  -2 3194.68  152.28
   1   5  -2 3207.58  142.59
  -1  -5   2 3231.48  182.68
  -1  -5   2 3490.65  139.59
   0   5  -2  301.87   14.20
   0   5  -2  279.77   18.50
   0   5  -2  274.17   15.60
   0  -5   2  241.48   14.30
  -1   5  -2   88.59    9.20
  -1   5  -2  102.19    8.00
  -1   5  -2  104.09    6.30
   1  -5   2   95.29    7.00
  -2   5  -2  689.93   42.40
  -2   5  -2  689.93   35.50
  -2   5  -2  702.03   31.70
   2  -5   2  685.13   31.30
  -3   5  -2   68.39    7.20
  -3   5  -2   64.49    9.00
  -3   5  -2   60.19    5.00
   3  -5   2   71.99    5.60
  -4   5  -2   -0.20    2.50
  -4   5  -2    4.40    3.90
  -5   5  -2   87.69   11.70
  -5   5  -2   78.69    9.50
  -6   5  -2   95.59   11.80
  -6   5  -2  108.19   12.20
  -7   5  -2  141.69   15.00
  -7   5  -2  162.78   14.30
   8   4  -2  137.19   11.20
  -8  -4   2  130.99   11.00
  -8  -4   2  139.09   11.60
   7   4  -2  306.07   18.20
  -7  -4   2  287.47   17.70
  -7  -4   2  296.47   17.30
   6   4  -2   17.70    4.10
  -6  -4   2   14.10    3.90
  -6  -4   2    8.30    3.30
   5   4  -2   48.30    5.60
  -5  -4   2   33.70    5.00
  -5  -4   2   31.90    4.90
   4   4  -2  564.64   28.90
  -4  -4   2  552.84   27.40
  -4  -4   2  589.24   27.90
   3   4  -2   84.19    6.60
  -3  -4   2   87.99    7.00
  -3  -4   2   84.49    6.40
   2   4  -2   -2.00    2.30
  -2  -4   2    4.00    2.60
  -2  -4   2    1.00    2.60
  -2  -4   2    5.70    2.30
   1   4  -2 1502.05   70.49
  -1  -4   2 1480.95   64.59
   0   4  -2 2190.08   96.39
   0   4  -2 2165.08  102.79
   0  -4   2 2248.58   93.89
  -1   4  -2  351.26   23.00
  -1   4  -2  374.16   17.30
  -1   4  -2  354.06   19.30
   1  -4   2  345.07   17.10
  -2   4  -2    2.10    3.00
  -2   4  -2    0.70    2.40
  -2   4  -2    3.30    1.70
   2  -4   2    5.40    2.30
  -3   4  -2  603.34   38.40
  -3   4  -2  612.74   28.70
  -3   4  -2  615.14   32.20
   3  -4   2  636.74   27.70
  -4   4  -2   11.00    4.60
  -4   4  -2   10.60    2.60
  -4   4  -2    6.10    3.00
  -5   4  -2   19.60    3.60
  -5   4  -2   20.10    5.50
  -5   4  -2   15.60    4.20
  -6   4  -2  145.19   13.90
  -6   4  -2  133.29   12.00
  -7   4  -2  221.48   19.10
  -7   4  -2  212.08   16.60
   8   3  -2    2.70    3.00
  -8  -3   2    1.80    3.30
  -8  -3   2    1.00    3.10
   7   3  -2  616.34   31.70
  -7  -3   2  570.04   30.20
  -7  -3   2  573.94   29.20
   6   3  -2  490.15   26.10
  -6  -3   2  485.15   24.40
  -6  -3   2  482.05   25.40
   5   3  -2  145.99    9.60
  -5  -3   2  140.99    9.40
  -5  -3   2  118.29    9.30
   4   3  -2  500.75   25.80
  -4  -3   2  496.35   24.90
  -4  -3   2  523.65   24.50
   3   3  -2 1065.29   51.79
  -3  -3   2 1170.08   49.40
  -3  -3   2 1024.90   48.00
   2   3  -2  456.65   22.20
  -2  -3   2  432.26   20.80
  -2  -3   2  435.96   21.00
   1   3  -2   67.99    5.30
  -1  -3   2   61.69    5.10
   0   3  -2 1227.78   54.29
   0   3  -2 1118.39   50.89
   0  -3   2 1195.18   49.60
   0  -3   2 1043.80   65.29
  -1   3  -2  110.29    7.20
  -1   3  -2   89.59    8.20
  -1   3  -2   92.99    6.10
   1  -3   2  102.39    6.10
  -2   3  -2  888.81   53.09
  -2   3  -2  913.81   40.80
  -2   3  -2  890.21   44.20
   2  -3   2  935.51   39.30
  -3   3  -2  101.39   10.00
  -3   3  -2  101.59    8.10
  -3   3  -2  113.09    7.00
   3  -3   2  119.49    6.30
  -4   3  -2    1.10    2.50
  -4   3  -2   -1.20    2.60
  -4   3  -2    1.30    1.90
  -5   3  -2   62.59    5.90
  -5   3  -2   73.69    8.50
  -5   3  -2   57.59    7.40
  -6   3  -2    6.60    3.60
  -6   3  -2    2.10    2.40
  -6   3  -2    6.30    3.70
  -7   3  -2    7.70    4.00
  -7   3  -2   11.60    4.60
  -8   3  -2  287.17   20.60
   8   2  -2  111.59   10.00
  -8  -2   2  101.09    9.70
   7   2  -2   36.90    5.80
  -7  -2   2   36.20    5.80
  -7  -2   2   29.80    5.10
   6   2  -2  946.11   44.90
  -6  -2   2  897.91   42.60
  -6  -2   2  831.32   40.80
   5   2  -2  363.76   19.50
  -5  -2   2  367.16   18.30
  -5  -2   2  342.17   18.80
   4   2  -2  482.15   24.30
  -4  -2   2  467.75   27.40
  -4  -2   2  483.05   22.90
  -4  -2   2  474.95   23.50
   3   2  -2  677.83   34.50
  -3  -2   2  740.93   32.30
  -3  -2   2  726.93   33.10
   2   2  -2   10.80    2.20
  -2  -2   2    6.90    2.20
  -2  -2   2    3.50    2.00
   1   2  -2 1403.56   65.29
  -1  -2   2 1366.96   59.79
  -1  -2   2 1396.46   61.49
  -1  -2   2 1426.06   78.29
   0  -2   2  841.72   37.90
   0  -2   2  921.21   50.59
  -1   2  -2   23.10    2.90
  -1   2  -2   21.50    3.10
   1  -2   2   19.80    2.50
  -2   2  -2 1034.20   61.49
  -2   2  -2 1092.39   47.80
  -2   2  -2 1069.79   51.29
   2  -2   2 1094.89   45.60
  -3   2  -2 1098.99   64.59
  -3   2  -2 1120.09   53.99
   3  -2   2 1128.79   47.30
  -4   2  -2   39.70    6.40
  -4   2  -2   46.60    5.70
   4  -2   2   43.60    3.20
  -5   2  -2  671.13   41.30
  -5   2  -2  611.04   31.70
  -5   2  -2  711.93   35.10
  -6   2  -2  175.28   14.60
  -6   2  -2  164.48   11.00
  -6   2  -2  160.28   12.50
  -7   2  -2   29.70    5.30
  -7   2  -2   30.90    6.00
  -8   2  -2   29.30    6.50
  -8   2  -2   24.00    5.00
   8  -2   2   18.80    8.10
  -8  -1   2   11.70    4.40
  -7  -1   2  272.37   16.00
  -7  -1   2  240.68   16.70
  -6  -1   2   69.49    6.50
  -6  -1   2   84.59    7.70
  -6  -1   2   84.09    7.50
  -5  -1   2  369.36   20.00
  -5  -1   2  398.76   19.30
  -5  -1   2  392.86   21.30
  -4  -1   2  573.04   25.10
  -4  -1   2  540.85   25.80
  -4  -1   2  492.75   30.90
   3   1  -2  225.88   12.40
  -3  -1   2  232.18   12.30
  -3  -1   2  225.28   14.10
  -3  -1   2  230.68   11.90
   2   1  -2   32.60    3.00
  -2  -1   2   31.30    3.50
  -2  -1   2   40.80    3.80
   1   1  -2  751.92   35.40
  -1  -1   2  762.42   33.00
   0   1  -2   18.60    2.80
   0   1  -2   20.80    2.60
   0  -1   2   20.30    2.70
   0  -1   2   29.00    4.90
  -1   1  -2   28.40    3.70
  -1   1  -2   36.30    3.90
   1  -1   2   30.20    3.00
   1  -1   2   44.60    6.30
  -2   1  -2  283.87   14.70
  -2   1  -2  259.27   13.40
   2  -1   2  277.47   11.90
  -3   1  -2 1991.70   94.99
  -3   1  -2 2048.59  113.69
  -3   1  -2 2076.29   89.19
   3  -1   2 1984.80   84.69
  -4   1  -2  344.37   23.10
  -4   1  -2  361.36   18.20
  -4   1  -2  373.06   19.90
  -4   1  -2  350.36   15.70
  -5   1  -2  270.97   16.30
  -5   1  -2  268.17   14.90
  -5   1  -2  262.87   18.90
  -6   1  -2  359.26   19.90
  -6   1  -2  370.76   21.90
  -6   1  -2  372.06   25.20
  -7   1  -2  132.39   11.50
  -7   1  -2  146.09   10.60
  -8   1  -2    7.30    3.60
  -8   1  -2    3.40    3.60
  -8   0   2   27.70    6.10
  -8   0   2   28.50    5.50
  -7   0   2  121.19   10.00
  -7   0   2  124.59    9.00
  -7   0   2  154.08   11.50
  -6   0   2   41.90    5.60
  -6   0   2   46.00    6.30
  -5   0   2   90.89    8.30
  -5   0   2  106.69    8.20
  -5   0   2  102.89    7.50
  -5   0   2   99.19    6.90
  -4   0   2  752.72   35.80
  -4   0   2  788.92   44.70
  -4   0   2  771.82   34.60
  -3   0   2 3092.49  127.29
  -3   0   2 2723.03  161.08
  -3   0   2 2751.82  134.79
  -3   0   2 3095.59  123.19
  -2   0   2 5205.18  223.18
  -2   0   2 5430.76  244.58
  -2   0   2 5214.68  230.38
  -2   0   2 5484.75  293.17
   1   0  -2  239.58   11.60
  -1   0   2  236.28   11.60
  -1   0   2  242.88   11.80
   0   0  -2 4549.24  200.58
   0   0  -2 4344.57  189.18
   0   0   2 4262.57  182.88
  -1   0  -2    1.90    2.00
  -1   0  -2    4.30    2.30
   1   0   2    0.50    0.90
   1   0   2    0.40    3.60
  -2   0  -2  203.48   10.50
  -2   0  -2  200.88   11.30
  -3   0  -2  889.41   45.30
  -3   0  -2  903.71   42.60
  -3   0  -2  899.91   39.60
   3   0   2 1089.39   55.29
  -4   0  -2  336.87   15.10
  -4   0  -2  342.87   17.60
  -4   0  -2  345.47   18.90
  -5   0  -2   15.90    3.80
  -5   0  -2   18.10    3.50
  -6   0  -2   68.59    7.40
  -6   0  -2   71.99    7.80
   6   0   2   98.79   11.10
  -7   0  -2    8.20    3.60
  -7   0  -2    7.70    3.40
   7   0   2   36.70    8.60
  -8   0  -2    6.90    4.00
  -8   0  -2    6.70    3.60
  -9   0  -2   29.40    6.40
  -9   0  -2   23.30    6.60
  -8   1   2    1.10    3.40
  -8   1   2    3.50    3.30
  -7   1   2   98.39    8.50
  -7   1   2   89.49    9.10
  -6   1   2  123.39    8.80
  -6   1   2  110.29    9.30
  -6   1   2  107.79   10.20
  -6   1   2  108.49    7.80
  -5   1   2  154.08   10.70
  -5   1   2  165.18   10.20
  -5   1   2  161.78   12.40
  -4   1   2    6.80    2.50
  -4   1   2    7.50    2.20
  -4   1   2   11.90    3.30
  -4   1   2   10.80    2.90
  -3   1   2 1855.11   76.99
  -3   1   2 1632.74   74.29
  -2   1   2 6804.72  291.77
  -2   1   2 6846.81  282.67
  -2   1   2 6658.33  309.97
  -1   1   2  569.44   25.00
  -1   1   2  574.34   26.70
  -1   1   2  600.64   33.00
  -1   1   2  533.45   25.40
   0  -1  -2 2191.18   92.29
   0   1   2 2015.80   97.29
   0   1   2 2181.68   89.19
  -1  -1  -2 3345.17  140.79
  -1  -1  -2 3471.65  146.09
  -1  -1  -2 3310.67  154.88
  -2  -1  -2   -0.70    1.20
  -2  -1  -2    0.40    2.30
  -2  -1  -2    1.30    2.60
   2   1   2    1.40    3.60
  -3  -1  -2 2130.99   92.79
  -3  -1  -2 2109.39   88.49
  -3  -1  -2 2088.69   98.59
  -4  -1  -2 2873.61  125.89
  -4  -1  -2 2954.50  131.79
  -4  -1  -2 2934.61  140.09
   4   1   2 3258.87  167.98
  -5  -1  -2  198.28   12.80
  -5  -1  -2  197.88   12.00
  -5  -1  -2  195.68    9.70
   5   1   2  188.88   15.30
  -6  -1  -2  128.49    9.80
  -6  -1  -2  135.99   10.60
   6   1   2  141.19   13.20
  -7  -1  -2   30.00    5.90
  -7  -1  -2   31.90    5.50
  -8  -1  -2   65.49    8.50
  -8  -1  -2   86.79   10.70
  -9  -1  -2  115.49   10.90
  -9  -1  -2  117.09   12.10
  -8   2   2   38.60    6.00
  -8   2   2   32.30    6.80
  -7   2   2    9.50    3.80
  -7   2   2   15.00    5.00
  -7   2   2   17.50    4.30
  -6   2   2  550.04   26.80
  -6   2   2  542.35   29.20
  -6   2   2  507.05   25.20
  -5   2   2  264.87   14.30
  -5   2   2  266.87   18.40
  -5   2   2  244.58   13.40
  -5   2   2  258.67   15.70
  -4   2   2    8.60    2.90
  -4   2   2    9.40    3.30
  -3   2   2   12.00    3.50
  -3   2   2    9.10    2.20
  -3   2   2    8.10    2.30
  -3   2   2    7.50    2.20
  -2   2   2 1815.52   93.59
  -2   2   2 1708.03   70.79
  -2   2   2 1674.23   72.69
  -2   2   2 1463.35   77.29
  -1   2   2 1037.10   47.10
  -1   2   2  952.60   44.00
  -1   2   2 1032.50   57.09
   0  -2  -2 2194.68   88.39
   0   2   2 1978.30   85.89
   0   2   2 2046.00  113.09
   0   2   2 1946.91   93.89
  -1  -2  -2 1354.96   58.89
   1   2   2 1340.17   62.39
  -2  -2  -2  141.59    7.10
  -2  -2  -2  142.69    8.60
  -2  -2  -2  136.29    8.30
  -3  -2  -2   27.40    2.60
  -3  -2  -2   31.50    3.80
  -3  -2  -2   21.40    3.40
   3   2   2   19.90    3.80
  -4  -2  -2 1458.75   60.69
  -4  -2  -2 1339.47   67.89
  -4  -2  -2 1401.96   63.99
   4   2   2 1476.25   80.59
  -5  -2  -2 1416.96   66.09
  -5  -2  -2 1472.15   70.49
  -5  -2  -2 1427.06   62.39
   5   2   2 1505.35   83.39
  -6  -2  -2   17.70    4.50
  -6  -2  -2    9.30    3.50
   6   2   2    5.70    4.30
  -7  -2  -2   16.30    4.80
  -7  -2  -2   15.00    4.20
  -8  -2  -2   29.70    6.10
  -8  -2  -2   30.10    6.60
  -9  -2  -2   91.39   11.70
  -9  -2  -2   82.09   10.10
  -8   3   2   64.19    9.50
  -7   3   2  119.79   12.30
  -7   3   2  125.59   11.10
  -6   3   2  120.29   10.10
  -6   3   2  128.29    8.80
  -6   3   2  119.39    8.30
  -6   3   2  112.39   11.50
  -5   3   2 1703.53   99.89
  -5   3   2 1713.63   83.69
  -5   3   2 1794.72   75.29
  -5   3   2 1738.83   77.59
  -4   3   2  383.36   18.10
  -4   3   2  356.06   24.00
  -4   3   2  348.87   19.90
  -3   3   2   31.50    4.40
  -3   3   2   17.60    2.90
  -3   3   2   23.70    4.90
  -3   3   2   23.30    2.90
  -2   3   2 2215.58   94.29
  -2   3   2 2151.98  124.29
  -2   3   2 2321.47  103.49
  -2   3   2 2198.58   96.39
  -1   3   2 1322.97   75.19
  -1   3   2 1341.77   57.09
   0  -3  -2  229.08   11.40
   0  -3  -2  236.18   10.50
   0   3   2  230.98   14.90
   0   3   2  210.48   12.00
  -1  -3  -2  226.58   11.10
  -1  -3  -2  224.28   11.20
   1   3   2  226.98   14.30
   1   3   2  203.38   11.60
  -2  -3  -2  971.80   44.20
  -2  -3  -2  998.40   42.70
   2   3   2 1002.50   46.90
  -3  -3  -2  568.84   27.40
  -3  -3  -2  582.94   26.00
   3   3   2  588.44   33.20
   3   3   2  591.04   28.90
  -4  -3  -2  654.63   31.50
  -4  -3  -2  633.64   29.50
   4   3   2  722.03   38.60
   4   3   2  632.34   33.10
  -5  -3  -2  133.49    9.70
  -5  -3  -2  121.19    8.90
  -5  -3  -2  111.29    7.60
   5   3   2  144.59   10.20
  -6  -3  -2   78.89    5.80
  -6  -3  -2   70.99    7.70
  -6  -3  -2   71.19    7.40
  -7  -3  -2  194.48   13.30
  -7  -3  -2  188.48   14.00
  -8  -3  -2   17.10    5.00
  -9  -3  -2    0.00    3.10
   9   3   2    3.30    3.70
  -8   4   2   32.00    7.90
  -8   4   2   32.00    7.40
  -7   4   2    2.20    3.70
  -7   4   2    6.00    4.10
  -6   4   2   27.50    5.50
  -6   4   2   24.50    6.30
  -5   4   2  445.36   25.80
  -5   4   2  482.05   22.80
  -5   4   2  447.56   30.70
  -5   4   2  474.15   22.50
  -4   4   2   62.69    5.50
  -4   4   2   72.49    5.30
  -4   4   2   78.29    7.10
  -4   4   2   74.99    8.50
  -3   4   2  149.49   12.20
  -3   4   2  147.69    8.00
  -3   4   2  140.29    8.50
  -3   4   2  152.28   10.10
   2  -4  -2    8.50    2.60
  -2   4   2    3.80    1.20
  -2   4   2    7.40    2.70
  -2   4   2    7.30    3.40
   1  -4  -2 1003.60   43.10
   1  -4  -2  991.90   42.50
  -1   4   2  937.01   56.59
  -1   4   2 1006.10   47.30
   0  -4  -2 2687.23  111.99
   0  -4  -2 2649.33  113.99
   0   4   2 2609.84  122.69
  -1  -4  -2  444.06   20.10
  -1  -4  -2  425.06   19.70
   1   4   2  428.66   21.60
   1   4   2  438.76   25.60
  -2  -4  -2  331.17   16.00
  -2  -4  -2  346.77   16.00
   2   4   2  332.97   19.60
   2   4   2  316.37   17.00
  -3  -4  -2  548.95   24.40
  -3  -4  -2  521.45   25.20
   3   4   2  519.35   26.50
  -4  -4  -2 1655.43   73.79
   4   4   2 1636.94   77.99
  -5  -4  -2  260.07   14.90
  -5  -4  -2  263.07   13.80
   5   4   2  260.17   15.40
  -6  -4  -2  296.87   15.60
  -6  -4  -2  281.47   17.00
   6   4   2  313.37   18.00
  -7  -4  -2  614.94   32.30
   7   4   2  645.54   34.00
  -8  -4  -2  195.08   14.60
   8   4   2  225.38   15.50
  -9  -4  -2   25.40    6.00
   9   4   2   20.50    5.60
  -7   5   2   86.79   10.70
  -7   5   2   73.39   11.70
  -6   5   2   27.60    6.10
  -6   5   2   24.20    6.70
  -5   5   2   94.99   10.60
  -5   5   2   88.29    8.90
   4  -5  -2  328.17   16.60
  -4   5   2  303.17   18.80
  -4   5   2  318.67   22.70
   3  -5  -2 1391.26   62.29
  -3   5   2 1363.16   82.59
  -3   5   2 1503.15   69.39
  -3   5   2 1454.05   62.69
   2  -5  -2 1993.40   84.59
  -2   5   2 1984.80   93.29
  -2   5   2 1965.50  111.69
  -2   5   2 1935.61   85.09
   1  -5  -2  505.85   23.20
  -1   5   2  471.45   25.60
  -1   5   2  505.65   30.60
   0  -5  -2   39.40    4.50
   0   5   2   48.60    6.10
   0   5   2   43.00    4.80
  -1  -5  -2  264.37   12.50
  -1  -5  -2  258.37   13.50
   1   5   2  266.27   14.50
   1   5   2  265.37   16.80
  -2  -5  -2    2.10    2.10
  -2  -5  -2    8.10    2.70
   2   5   2    2.40    2.10
   2   5   2   17.40    3.00
  -3  -5  -2    5.60    2.70
  -3  -5  -2    6.00    2.70
   3   5   2    7.80    2.50
  -4  -5  -2  438.06   20.60
  -4  -5  -2  419.76   21.30
   4   5   2  407.86   22.30
  -5  -5  -2  163.68   10.00
  -5  -5  -2  166.68   11.00
   5   5   2  172.38   11.20
  -6  -5  -2  319.37   17.70
  -6  -5  -2  303.77   16.30
   6   5   2  287.67   17.70
  -7  -5  -2   99.99    9.30
   7   5   2  115.49    9.80
  -8  -5  -2  401.66   23.60
   8   5   2  414.36   24.50
  -9  -5  -2   87.29   10.30
   9   5   2   77.59   10.10
  -7   6   2  132.49   12.70
  -7   6   2  106.59   13.40
  -6   6   2   55.49    8.70
  -6   6   2   34.30    8.40
   5  -6  -2   36.20    5.20
  -5   6   2   41.20    7.40
  -5   6   2   37.00    7.80
   4  -6  -2  110.29    8.10
  -4   6   2  111.99    9.80
  -4   6   2  100.09   11.40
   3  -6  -2   17.30    3.70
  -3   6   2   23.50    5.70
  -3   6   2   17.10    4.10
   2  -6  -2 1384.46   60.19
  -2   6   2 1410.36   79.79
  -2   6   2 1323.27   66.79
   1  -6  -2  975.60   42.50
  -1   6   2  919.11   46.80
  -1   6   2  942.11   55.69
   0  -6  -2    5.10    2.70
   0   6   2    0.90    3.00
   0   6   2    2.20    2.20
  -1  -6  -2  546.75   25.20
  -1  -6  -2  569.74   26.50
   1   6   2  562.74   28.40
   1   6   2  558.74   33.30
  -2  -6  -2 1136.49   52.09
  -2  -6  -2 1205.78   52.59
   2   6   2 1227.28   56.89
   2   6   2 1154.98   66.59
  -3  -6  -2  116.59    8.00
  -3  -6  -2  119.99    8.40
   3   6   2  121.79    8.60
   3   6   2  126.29    8.40
  -4  -6  -2  673.93   32.20
  -4  -6  -2  697.53   32.90
   4   6   2  697.33   34.90
  -5  -6  -2  983.10   46.60
  -5  -6  -2 1004.10   45.30
   5   6   2  996.00   49.20
  -6  -6  -2   13.70    3.90
  -6  -6  -2    4.10    2.90
   6   6   2    1.10    2.60
  -7  -6  -2  163.58   11.60
  -7  -6  -2  109.39    9.70
   7   6   2  161.28   11.60
  -8  -6  -2    2.00    3.60
   8   6   2    2.20    2.80
  -6   7   2    7.20    5.40
  -6   7   2    9.60    4.80
  -5   7   2   67.59    9.30
  -5   7   2   69.29   10.70
   4  -7  -2  146.79   10.30
  -4   7   2  151.28   14.40
  -4   7   2  173.88   13.10
   3  -7  -2    6.60    3.20
  -3   7   2    6.80    3.80
  -3   7   2    7.40    4.20
   2  -7  -2  234.38   13.00
  -2   7   2  192.38   14.50
  -2   7   2  230.98   17.30
   1  -7  -2  507.55   24.20
  -1   7   2  504.65   31.50
  -1   7   2  465.35   26.70
   0  -7  -2   56.79    6.20
   0   7   2   47.70    6.70
   0   7   2   60.69    5.90
  -1  -7  -2  103.79    6.00
  -1  -7  -2  104.29    8.20
   1   7   2  114.89    9.40
   1   7   2  121.89    8.60
  -2  -7  -2  705.23   32.70
  -2  -7  -2  694.23   33.40
   2   7   2  740.53   41.80
   2   7   2  721.53   36.10
  -3  -7  -2  331.77   17.40
  -3  -7  -2  320.67   16.60
   3   7   2  317.37   18.00
  -4  -7  -2   92.59    8.00
  -4  -7  -2  105.19    8.00
   4   7   2  121.19    8.50
  -5  -7  -2  456.45   23.90
  -5  -7  -2  449.46   23.50
   5   7   2  485.95   25.50
  -6  -7  -2  276.77   16.00
  -6  -7  -2  270.87   16.60
   6   7   2  277.97   17.10
  -7  -7  -2   33.60    5.70
  -7  -7  -2   28.20    5.60
   7   7   2   37.50    6.00
  -8  -7  -2   50.69    7.60
   8   7   2   28.00    5.60
  -6   8   2    7.40    5.20
  -6   8   2   10.40    6.10
  -5   8   2  144.49   15.00
  -5   8   2  137.39   13.30
   4  -8  -2  497.25   24.60
  -4   8   2  473.05   33.40
  -4   8   2  453.85   28.70
   3  -8  -2  422.26   20.80
  -3   8   2  363.56   23.70
  -3   8   2  373.06   27.50
   2  -8  -2   99.79    8.20
  -2   8   2   97.59   10.90
  -2   8   2   93.79   10.70
   1  -8  -2  941.01   40.90
  -1   8   2  895.31   53.19
  -1   8   2  794.62   44.60
   0  -8  -2  386.36   20.40
   0   8   2  389.96   25.70
   0   8   2  390.66   21.80
  -1  -8  -2  140.59    9.90
   1   8   2  141.69   11.80
   1   8   2  154.98   10.50
  -2  -8  -2   88.09    7.60
  -2  -8  -2   78.29    5.70
   2   8   2   81.99    7.70
   2   8   2   79.19    7.40
  -3  -8  -2  752.42   34.00
  -3  -8  -2  669.33   34.30
   3   8   2  745.63   37.10
  -4  -8  -2   43.00    6.00
  -4  -8  -2   24.70    4.30
   4   8   2   26.10    4.50
  -5  -8  -2   37.00    5.90
  -5  -8  -2   43.90    6.10
   5   8   2   34.00    5.40
  -6  -8  -2   39.90    6.30
  -6  -8  -2   55.99    7.10
   6   8   2   52.19    6.80
  -7  -8  -2    4.80    3.50
  -7  -8  -2    1.70    2.70
   7   8   2    0.70    2.70
  -8  -8  -2   75.19    9.80
   8   8   2   94.69    9.30
  -5   9   2    3.10    4.20
  -5   9   2    6.00    5.40
  -4   9   2  101.29   13.20
  -4   9   2  119.79   13.80
   3  -9  -2  199.48   12.80
  -3   9   2  173.98   14.80
  -3   9   2  173.48   16.70
   2  -9  -2   80.39    8.50
  -2   9   2   90.59   10.80
  -2   9   2   81.29   10.30
   1  -9  -2  150.78   10.80
  -1   9   2  147.59   11.70
  -1   9   2  124.29   12.90
   0  -9  -2 1444.36   65.79
   0   9   2 1466.85   85.29
   0   9   2 1487.85   71.69
  -1  -9  -2   68.49    7.60
   1   9   2   61.89    7.30
   1   9   2   66.29    7.70
  -2  -9  -2   89.49    9.00
   2   9   2   96.69    8.50
  -3  -9  -2   34.10    6.00
   3   9   2   33.90    5.60
  -4  -9  -2   53.59    5.80
  -4  -9  -2   43.60    6.40
   4   9   2   53.99    6.90
  -5  -9  -2   29.90    5.60
  -5  -9  -2   29.30    5.10
   5   9   2   26.20    5.30
  -6  -9  -2   38.80    6.50
  -6  -9  -2   47.60    6.60
   6   9   2   48.70    6.90
  -7  -9  -2   21.40    5.10
  -7  -9  -2   23.00    5.40
   7   9   2   16.10    4.60
  -4  10   2   46.80    9.90
  -4  10   2   29.30    7.70
   3 -10  -2    1.80    3.90
  -3  10   2    6.50    5.30
  -3  10   2    2.10    3.10
   2 -10  -2   21.20    5.20
  -2  10   2   17.10    5.70
  -2  10   2   15.40    5.50
   1 -10  -2  113.99   10.20
  -1  10   2  107.29   12.00
  -1  10   2  104.09   10.10
   0 -10  -2  363.56   20.10
   0  10   2  329.97   24.40
   0  10   2  354.56   21.10
  -1 -10  -2  134.49   10.50
   1  10   2  106.79   10.90
   1  10   2  112.29    9.50
  -2 -10  -2  229.78   15.20
   2  10   2  254.87   16.00
  -3 -10  -2   92.59    9.80
   3  10   2   87.29    8.60
  -4 -10  -2  115.79   10.60
   4  10   2  126.89   10.70
  -5 -10  -2    0.80    3.20
   5  10   2    2.60    3.00
  -6 -10  -2   35.00    5.70
  -6 -10  -2   40.80    6.80
   6  10   2   38.50    6.30
  -7 -10  -2    2.30    3.50
  -7 -10  -2    3.20    3.60
   7  10   2    2.60    3.40
  -3  11   2   13.90    6.00
  -3  11   2    8.80    5.80
   2 -11  -2   13.30    5.00
  -2  11   2    4.00    4.40
  -2  11   2    3.40    4.70
   1 -11  -2  204.18   14.50
  -1  11   2  197.18   17.80
  -1  11   2  213.18   15.70
   0 -11  -2   67.49    8.50
   0  11   2   55.69    8.10
   0  11   2   64.79    9.80
  -1 -11  -2   -1.20    3.90
   1  11   2    2.30    2.90
  -2 -11  -2  209.18   14.80
   2  11   2  211.08   14.50
  -3 -11  -2  609.84   32.10
   3  11   2  625.74   33.80
  -4 -11  -2  165.68   13.40
   4  11   2  196.68   13.90
  -5 -11  -2   26.20    5.90
   5  11   2   16.90    4.80
  -6 -11  -2   45.20    7.70
   6  11   2   47.60    7.40
   2 -12  -2    2.80    4.60
  -2  12   2   -1.30    3.80
  -2  12   2    3.50    4.80
   1 -12  -2    1.00    4.30
  -1  12   2    3.20    4.00
  -1  12   2   -1.70    4.20
   0 -12  -2   42.40    7.40
   0  12   2   57.59    8.70
   0  12   2   57.49    9.70
  -1 -12  -2   23.00    6.20
   1  12   2   11.40    4.40
  -2 -12  -2    5.50    4.60
   2  12   2    2.80    3.40
  -3 -12  -2  426.36   25.20
   3  12   2  449.26   26.00
  -4 -12  -2  476.35   27.40
   4  12   2  485.15   28.30
  -5 -12  -2   42.10    7.80
   5  12   2   39.00    7.00
   0 -13  -2    1.30    4.60
   0  13   2    5.50    4.30
  -1 -13  -2   90.49   11.20
   1  13   2   88.69   10.70
  -2 -13  -2   15.30    6.10
   2  13   2   20.80    5.20
  -3 -13  -2   22.20    6.50
   3  13   2   14.00    4.70
   3  11  -3    5.90    3.80
  -3 -11   3    2.80    4.50
   2  11  -3   30.70    6.50
  -2 -11   3   32.40    7.30
   1  11  -3  105.49   11.00
  -1 -11   3  111.09   11.70
   0  11  -3   -0.80    3.40
   0 -11   3    0.80    4.70
   5  10  -3  150.98   12.90
  -5 -10   3  166.58   14.00
   4  10  -3   10.70    4.30
  -4 -10   3    7.60    4.70
   3  10  -3  194.58   14.40
  -3 -10   3  214.18   15.20
   2  10  -3   12.10    4.30
  -2 -10   3   12.00    5.20
   1  10  -3    4.40    3.60
  -1 -10   3   -1.50    3.70
   0  10  -3   24.00    5.90
   0 -10   3   19.30    5.20
  -1  10  -3   23.10    6.10
   1 -10   3    9.60    6.90
  -2  10  -3    4.20    4.30
   2 -10   3    3.00    6.60
   6   9  -3   15.90    5.10
  -6  -9   3   23.10    6.70
  -6  -9   3   23.30    6.30
   5   9  -3   57.79    7.80
  -5  -9   3   56.39    7.80
  -5  -9   3   63.69    9.20
   4   9  -3    1.20    3.20
  -4  -9   3    4.60    4.40
   3   9  -3  640.64   34.00
  -3  -9   3  630.84   32.90
   2   9  -3  599.84   32.70
  -2  -9   3  610.84   31.50
   1   9  -3  168.58   12.90
  -1  -9   3  179.78   12.80
   0   9  -3  231.68   16.30
   0  -9   3  229.88   14.90
  -1   9  -3  115.99   11.30
   1  -9   3  118.39   10.00
  -2   9  -3   15.30    4.90
   2  -9   3   11.60    7.60
  -3   9  -3   15.30    5.80
  -4   9  -3  326.97   23.50
   6   8  -3    9.60    4.20
  -6  -8   3    2.30    4.10
  -6  -8   3    2.60    3.60
   5   8  -3    6.10    3.70
  -5  -8   3    1.50    4.00
  -5  -8   3    3.50    4.20
   4   8  -3  170.88   12.50
  -4  -8   3  156.98   12.60
   3   8  -3  130.29    9.50
   3   8  -3  180.38   12.20
  -3  -8   3  183.08   12.60
   2   8  -3  259.47   15.90
  -2  -8   3  232.98   15.60
   1   8  -3   12.50    3.90
  -1  -8   3   22.10    5.00
   0   8  -3   22.60    5.00
   0  -8   3   16.00    4.30
   0  -8   3   10.10    4.10
  -1   8  -3  680.83   35.30
   1  -8   3  712.53   31.70
   1  -8   3  518.85   41.90
  -2   8  -3  156.88   13.00
  -3   8  -3    2.50    3.50
  -4   8  -3  408.86   26.60
  -5   8  -3  162.38   15.40
   7   7  -3   41.30    6.60
  -7  -7   3   45.40    6.90
  -7  -7   3   22.60    5.90
   6   7  -3   34.20    6.00
  -6  -7   3   25.30    5.60
  -6  -7   3   45.70    6.70
   5   7  -3  263.87   16.50
  -5  -7   3  268.17   16.10
  -5  -7   3  246.18   16.40
   4   7  -3    7.20    3.60
  -4  -7   3    7.20    3.90
  -4  -7   3    9.20    3.90
   3   7  -3    5.50    3.20
   3   7  -3    6.20    2.40
  -3  -7   3    4.60    3.70
   2   7  -3  583.64   27.90
   2   7  -3  569.74   30.20
  -2  -7   3  583.54   29.00
   1   7  -3  182.38   10.30
   1   7  -3  157.48   11.30
  -1  -7   3  150.48   14.40
  -1  -7   3  181.48   11.60
   0   7  -3  745.63   35.90
   0  -7   3  606.34   31.80
  -1   7  -3    2.70    3.00
   1  -7   3    6.70    5.20
   1  -7   3    8.20    3.40
  -2   7  -3   16.80    4.70
  -3   7  -3    3.80    4.20
  -3   7  -3    6.50    3.80
  -4   7  -3   26.30    6.20
  -4   7  -3   27.50    7.00
  -5   7  -3  204.78   16.70
   7   6  -3  113.09    9.80
  -7  -6   3  131.79   11.20
  -7  -6   3  109.19   10.50
   6   6  -3  110.69    9.10
  -6  -6   3   94.79    9.00
  -6  -6   3   98.69    9.50
   5   6  -3  680.23   35.80
  -5  -6   3  678.73   34.20
  -5  -6   3  727.33   34.70
   4   6  -3  508.65   27.20
  -4  -6   3  494.15   26.10
  -4  -6   3  517.15   25.90
   3   6  -3   64.99    7.10
  -3  -6   3   72.79    6.60
  -3  -6   3   44.80    6.10
   2   6  -3   23.80    4.20
  -2  -6   3   25.20    4.60
   1   6  -3 1250.17   55.29
  -1  -6   3 1253.47   71.89
  -1  -6   3 1161.28   54.59
   0   6  -3    1.50    2.00
   0   6  -3    4.40    2.70
   0  -6   3    0.70    2.60
   0  -6   3    0.90    3.30
  -1   6  -3  686.13   30.80
  -1   6  -3  647.74   34.10
   1  -6   3  616.94   30.50
  -2   6  -3  132.49   10.40
   2  -6   3  128.89    8.90
  -3   6  -3  253.97   20.30
  -3   6  -3  266.17   17.10
  -4   6  -3  143.49   14.90
  -4   6  -3  185.48   13.70
  -5   6  -3   38.60    7.40
  -6   6  -3    0.10    3.30
  -8  -5   3   55.79    7.80
  -8  -5   3   40.10    6.90
   7   5  -3   89.89    8.60
  -7  -5   3   92.79   10.00
  -7  -5   3  105.59    9.30
   6   5  -3    6.40    2.90
  -6  -5   3   -1.70    3.00
  -6  -5   3    0.30    2.80
   5   5  -3    9.80    3.40
  -5  -5   3   12.00    4.00
  -5  -5   3   13.10    4.00
   4   5  -3  418.46   22.60
  -4  -5   3  428.36   21.80
  -4  -5   3  414.16   21.90
   3   5  -3    3.50    2.70
  -3  -5   3    4.60    2.80
  -3  -5   3    0.30    2.60
   2   5  -3   20.10    3.90
   2   5  -3   31.60    3.80
  -2  -5   3   21.20    4.20
   1   5  -3  676.03   30.20
   1   5  -3  648.54   32.40
  -1  -5   3  603.64   30.10
   0   5  -3 1560.54   69.69
   0   5  -3 1715.63   74.49
   0  -5   3 1654.03   67.99
   0  -5   3 1302.67   89.39
  -1   5  -3   34.80    4.20
  -1   5  -3   24.80    4.20
   1  -5   3   33.40    4.30
   1  -5   3   13.90    5.20
  -2   5  -3  246.78   13.30
  -2   5  -3  251.77   15.40
   2  -5   3  252.27   13.20
  -3   5  -3    1.30    1.90
  -3   5  -3   -5.80    1.90
  -3   5  -3    3.40    3.60
  -4   5  -3  539.45   35.00
  -4   5  -3  501.85   29.00
  -5   5  -3  371.06   28.20
  -5   5  -3  423.46   24.60
  -6   5  -3    2.00    3.40
  -7   5  -3  163.08   14.40
  -8  -4   3   23.60    5.70
  -8  -4   3   32.70    6.40
   7   4  -3  257.47   15.70
  -7  -4   3  238.48   15.50
  -7  -4   3  227.88   15.30
   6   4  -3  404.16   22.50
  -6  -4   3  409.16   22.20
  -6  -4   3  410.56   22.00
   5   4  -3    6.20    2.80
  -5  -4   3   10.10    3.50
  -5  -4   3   10.40    3.30
   4   4  -3  107.49    8.00
  -4  -4   3  107.59    8.40
  -4  -4   3  109.89    8.10
   3   4  -3   15.30    3.30
  -3  -4   3   18.50    3.60
  -3  -4   3   20.80    4.00
   2   4  -3 1563.74   76.29
  -2  -4   3 1586.94   70.39
  -2  -4   3 1700.13   72.19
   1   4  -3  820.92   34.50
   1   4  -3  741.63   36.50
  -1  -4   3  646.84   43.90
  -1  -4   3  783.52   34.20
   0   4  -3  260.07   14.00
   0   4  -3  265.87   14.80
   0  -4   3  283.97   19.10
   0  -4   3  259.37   13.70
  -1   4  -3   94.29    6.90
  -1   4  -3   91.99    7.50
   1  -4   3  106.09   10.80
   1  -4   3   97.49    6.80
  -2   4  -3  569.84   29.70
  -2   4  -3  566.44   27.10
   2  -4   3  585.94   26.10
  -3   4  -3    2.70    1.90
  -3   4  -3    2.30    2.90
  -3   4  -3    0.00    2.10
  -4   4  -3   16.70    3.20
  -4   4  -3   19.20    5.70
  -4   4  -3   10.60    4.00
  -5   4  -3  120.49   10.20
  -5   4  -3  107.19   11.50
  -5   4  -3  102.79    8.70
  -6   4  -3   21.60    5.50
  -7   4  -3   13.70    4.90
   7  -4   3    3.70    6.10
  -8  -3   3   16.20    4.70
  -8  -3   3   17.20    4.90
   7   3  -3    4.00    2.90
  -7  -3   3    0.30    2.90
  -7  -3   3   -2.40    2.70
   6   3  -3  708.23   35.50
  -6  -3   3  685.03   34.30
  -6  -3   3  681.23   33.40
   5   3  -3  195.08   11.90
  -5  -3   3  190.88   11.90
  -5  -3   3  182.58   11.80
   4   3  -3  133.29    8.70
  -4  -3   3  132.89    9.10
  -4  -3   3  129.09    9.00
   3   3  -3    0.80    1.90
  -3  -3   3   -1.90    2.30
  -3  -3   3    3.80    2.60
  -3  -3   3   -0.30    1.50
   2   3  -3 1711.43   81.39
  -2  -3   3 1863.21   77.29
  -2  -3   3 1614.54   74.79
  -2  -3   3 1760.42   96.79
   1   3  -3  951.00   48.30
   1   3  -3 1036.30   45.60
  -1  -3   3 1140.19   58.79
  -1  -3   3  950.70   44.60
   0   3  -3    1.80    1.50
   0   3  -3    4.70    2.00
   0  -3   3    3.80    2.30
   0  -3   3    6.10    3.60
  -1   3  -3    1.80    2.40
  -1   3  -3    2.00    2.10
   1  -3   3    1.40    3.90
   1  -3   3    5.10    2.20
  -2   3  -3 2424.16  117.59
  -2   3  -3 2577.54  110.39
   2  -3   3 2547.75  106.09
  -3   3  -3 1254.37   56.59
  -3   3  -3 1241.98   60.89
   3  -3   3 1273.97   53.59
  -4   3  -3  293.47   18.00
  -4   3  -3  294.37   16.10
  -4   3  -3  338.47   22.20
  -5   3  -3   94.69    8.90
  -5   3  -3   97.69    7.50
  -6   3  -3  175.18   13.50
  -6   3  -3  174.58   11.60
  -7   3  -3   31.90    6.30
   7  -3   3   12.10    8.00
  -8   3  -3    0.60    3.40
   8  -3   3    4.60    7.70
  -8  -2   3   64.59    7.80
  -8  -2   3   54.89    7.90
   7   2  -3  556.04   29.20
  -7  -2   3  520.95   27.00
  -7  -2   3  526.35   28.00
   6   2  -3   30.70    4.80
  -6  -2   3   26.70    4.80
  -6  -2   3   26.80    4.70
   5   2  -3    3.00    2.30
  -5  -2   3    5.70    2.60
  -5  -2   3    2.60    2.40
   4   2  -3  269.57   14.60
  -4  -2   3  266.47   14.30
  -4  -2   3  254.27   14.40
   3   2  -3 1153.38   53.89
  -3  -2   3 1083.89   63.89
  -3  -2   3 1122.39   51.49
  -3  -2   3 1198.38   50.39
   2   2  -3    2.30    1.80
  -2  -2   3    1.40    2.10
  -2  -2   3   -1.30    1.60
  -2  -2   3   -3.60    1.90
   1   2  -3 1481.85   71.69
   1   2  -3 1574.14   67.79
  -1  -2   3 1615.74   86.49
  -1  -2   3 1488.25   65.99
   0   2  -3  229.98   11.60
   0   2  -3  223.38   11.50
   0  -2   3  230.08   15.20
   0  -2   3  189.48   10.60
  -1   2  -3   -2.50    1.50
  -1   2  -3    1.20    2.00
   1  -2   3   -0.50    3.20
   1  -2   3   -2.30    1.40
  -2   2  -3  171.28   10.60
   2  -2   3  178.98   14.80
   2  -2   3  187.08    8.70
  -3   2  -3 1579.14   79.09
   3  -2   3 1813.22   97.09
   3  -2   3 1631.04   70.09
  -4   2  -3  939.91   44.30
  -4   2  -3  830.42   40.80
  -5   2  -3   87.39    7.90
  -5   2  -3   73.79    6.70
  -6   2  -3  209.18   15.00
  -6   2  -3  218.98   13.50
   6  -2   3  217.98   20.70
  -7   2  -3    1.80    2.70
  -7   2  -3   -1.80    2.80
   7  -2   3    1.20    6.60
  -8   2  -3   33.10    6.00
  -8   2  -3   27.20    6.60
   8  -2   3   19.60    9.10
   8   1  -3   13.00    4.50
  -8  -1   3   18.60    4.80
   7   1  -3  504.75   27.50
  -7  -1   3  481.95   25.00
  -7  -1   3  492.85   26.20
   6   1  -3  194.68   12.70
  -6  -1   3  188.38   12.40
  -6  -1   3  185.18   11.80
   5   1  -3    4.40    2.50
  -5  -1   3    4.60    2.40
  -5  -1   3    6.50    3.00
   4   1  -3  479.15   24.00
  -4  -1   3  472.45   22.80
  -4  -1   3  472.15   28.10
  -4  -1   3  469.35   23.30
   3   1  -3  776.42   40.60
  -3  -1   3  855.31   48.80
  -3  -1   3  911.21   39.40
  -3  -1   3  884.61   38.20
   2   1  -3  321.27   15.60
  -2  -1   3  305.87   15.20
  -2  -1   3  314.07   19.10
  -2  -1   3  317.77   15.60
   1   1  -3 1384.06   57.29
   1   1  -3 1284.97   60.19
  -1  -1   3 1249.57   72.59
  -1  -1   3 1276.37   55.69
   0   1  -3    5.60    2.10
   0   1  -3    8.70    1.90
   0  -1   3    7.20    2.10
   0  -1   3    3.40    3.30
  -1   1  -3  836.12   40.70
  -1   1  -3  810.22   38.90
   1  -1   3  922.71   50.29
   1  -1   3  875.81   36.70
  -2   1  -3  806.02   37.40
  -2   1  -3  790.42   39.60
   2  -1   3  836.62   34.70
   2  -1   3  858.61   49.00
  -3   1  -3  152.58    9.30
  -3   1  -3  157.28   10.00
  -4   1  -3  493.15   25.30
  -4   1  -3  477.45   27.10
   4  -1   3  611.24   35.10
  -5   1  -3  196.88   12.70
  -5   1  -3  201.58   11.70
   5  -1   3  149.39   16.00
  -6   1  -3   14.50    4.30
  -6   1  -3   13.90    3.90
   6  -1   3   23.80    7.90
  -7   1  -3   16.80    5.20
  -7   1  -3   11.10    3.90
   7  -1   3   18.70    8.10
  -8   1  -3   94.09   11.40
  -8   1  -3  105.19    9.30
   8  -1   3   66.29   13.50
  -8   0   3   10.50    4.80
  -8   0   3    6.60    3.80
  -7   0   3   47.20    7.10
  -7   0   3   59.59    7.10
  -7   0   3   53.19    6.20
  -6   0   3  414.06   22.00
  -6   0   3  416.16   21.10
  -5   0   3   78.59    6.60
  -5   0   3   87.19    6.60
  -5   0   3   77.39    7.40
  -5   0   3   71.19    6.70
  -4   0   3  211.48   12.10
  -4   0   3  217.28   14.40
  -4   0   3  211.28   11.70
  -4   0   3  203.08   12.10
  -3   0   3  393.26   19.80
  -3   0   3  423.46   20.40
  -3   0   3  446.56   25.40
  -3   0   3  412.96   21.00
   2   0  -3  319.67   18.00
  -2   0   3  408.96   17.70
  -2   0   3  398.66   22.60
  -2   0   3  380.66   17.90
   1   0  -3  893.91   41.80
   1   0  -3  927.31   40.10
  -1   0   3  879.81   39.20
   0   0  -3  791.72   36.50
   0   0  -3  788.52   35.60
   0   0   3  781.22   34.00
  -1   0  -3  996.30   48.60
  -1   0  -3  998.70   46.50
   1   0   3 1168.08   59.79
   1   0   3 1005.80   43.80
  -2   0  -3 1493.65   67.99
  -2   0  -3 1510.45   71.99
   2   0   3 1612.34   87.39
  -3   0  -3  295.27   16.20
  -3   0  -3  294.77   15.20
  -4   0  -3  222.18   12.90
  -4   0  -3  208.78   13.50
   4   0   3  258.37   18.10
  -5   0  -3  340.17   16.90
  -5   0  -3  308.17   17.90
   5   0   3  248.28   21.60
  -6   0  -3  298.77   18.90
  -6   0  -3  325.47   17.80
   6   0   3  309.27   24.10
  -7   0  -3  275.77   17.10
  -7   0  -3  257.57   15.60
   7   0   3  188.68   20.50
  -8   0  -3   42.60    7.40
  -8   0  -3   47.20    7.00
  -8   1   3  139.19   12.40
  -8   1   3  134.39   10.80
  -7   1   3   83.89    7.80
  -7   1   3   65.39    8.50
  -6   1   3  344.07   22.50
  -6   1   3  330.17   18.20
  -6   1   3  313.67   17.10
  -5   1   3  410.46   25.90
  -5   1   3  419.26   20.10
  -5   1   3  411.76   20.80
  -5   1   3  375.46   21.70
  -4   1   3  544.65   26.00
  -4   1   3  543.05   33.80
  -4   1   3  603.44   27.00
  -4   1   3  548.55   28.20
  -3   1   3   31.40    3.60
  -3   1   3   33.70    3.80
  -3   1   3   35.20    4.00
  -3   1   3   24.00    4.40
  -2   1   3   29.10    3.20
  -2   1   3   36.00    4.60
  -2   1   3   30.50    2.90
  -2   1   3   33.50    3.30
   1  -1  -3    7.70    1.90
  -1   1   3    9.80    3.30
  -1   1   3    5.30    2.30
  -1   1   3    7.60    1.20
   0  -1  -3    0.90    2.80
   0   1   3   -0.50    2.30
   0   1   3   -1.20    3.20
  -1  -1  -3  304.57   15.20
  -1  -1  -3  299.57   15.30
   1   1   3  303.67   13.70
   1   1   3  319.37   19.30
  -2  -1  -3  370.66   18.20
  -2  -1  -3  372.86   19.10
  -2  -1  -3  376.66   16.20
   2   1   3  390.76   23.50
  -3  -1  -3  684.03   34.50
  -3  -1  -3  692.83   29.60
   3   1   3  728.73   41.80
  -4  -1  -3    0.40    2.80
  -4  -1  -3    1.10    0.90
  -4  -1  -3    2.30    2.40
   4   1   3    2.70    4.10
  -5  -1  -3    1.40    2.50
  -5  -1  -3    2.60    2.50
   5   1   3   15.10    5.00
  -6  -1  -3  515.65   25.70
  -6  -1  -3  486.45   27.30
   6   1   3  468.85   32.90
  -7  -1  -3  519.75   29.20
  -7  -1  -3  529.15   27.10
   7   1   3  474.55   34.80
  -8  -1  -3  112.69   11.60
  -8  -1  -3  145.39   11.30
  -9  -1  -3  250.27   17.10
  -9  -1  -3  245.98   18.90
  -8   2   3  136.99   10.80
  -8   2   3  137.39   12.40
  -7   2   3   92.69    8.10
  -7   2   3   85.69   10.00
  -6   2   3  620.34   33.30
  -6   2   3  636.74   31.10
  -6   2   3  634.54   39.50
  -5   2   3 1332.37   58.69
  -5   2   3 1244.38   56.69
  -4   2   3    6.80    3.20
  -4   2   3    7.10    2.50
  -4   2   3    8.90    2.50
  -4   2   3   11.10    2.80
  -3   2   3  633.74   32.60
  -3   2   3  696.13   30.30
  -3   2   3  675.93   39.80
  -2   2   3   22.60    4.10
  -2   2   3   26.30    2.90
  -2   2   3   20.00    2.50
  -2   2   3   29.30    3.30
   1  -2  -3 1112.39   50.49
  -1   2   3 1154.78   49.60
  -1   2   3 1220.08   53.49
  -1   2   3 1127.19   65.39
   0  -2  -3 4092.29  167.78
   0   2   3 3926.71  213.98
   0   2   3 3568.24  177.58
   0   2   3 3934.61  162.48
  -1  -2  -3  130.29    7.60
  -1  -2  -3  156.88    8.60
   1   2   3  148.79   10.60
   1   2   3  153.28    8.10
  -2  -2  -3 3437.76  151.28
  -2  -2  -3 3497.35  160.58
  -2  -2  -3 3335.27  145.49
   2   2   3 3657.53  192.18
  -3  -2  -3 3034.40  130.59
  -3  -2  -3 3024.40  136.29
  -3  -2  -3 3095.29  144.79
   3   2   3 3323.97  173.38
  -4  -2  -3  316.97   18.20
  -4  -2  -3  322.37   17.10
  -4  -2  -3  321.67   14.90
   4   2   3  340.67   21.50
  -5  -2  -3  119.89    9.30
  -5  -2  -3  129.09    8.90
  -5  -2  -3  124.19    6.60
   5   2   3  105.09   10.60
  -6  -2  -3    3.10    2.60
  -6  -2  -3   -0.60    2.60
   6   2   3    6.80    4.40
  -7  -2  -3  344.87   19.60
  -7  -2  -3  324.27   20.80
  -8  -2  -3   98.39   10.00
  -8  -2  -3   97.79    9.20
  -9  -2  -3   -2.50    3.50
  -9  -2  -3    2.00    3.90
  -8   3   3   86.59   10.80
  -7   3   3    0.80    3.20
  -7   3   3    1.50    1.80
  -7   3   3    2.20    3.20
  -6   3   3    2.50    2.20
  -6   3   3   14.50    4.60
  -6   3   3   14.90    4.40
  -6   3   3   10.60    3.10
  -5   3   3  387.76   20.00
  -5   3   3  398.26   26.60
  -5   3   3  391.26   19.70
  -5   3   3  394.36   22.00
  -4   3   3  105.89    7.40
  -4   3   3  104.69   10.10
  -4   3   3  118.99    7.30
  -3   3   3  747.43   34.10
  -3   3   3  756.52   34.40
  -3   3   3  772.52   45.40
  -3   3   3  759.82   37.20
  -2   3   3  148.49    8.60
  -2   3   3  144.09    8.30
  -2   3   3  146.99    7.60
  -2   3   3  139.19   11.20
   1  -3  -3  530.45   23.80
  -1   3   3  520.15   24.20
  -1   3   3  535.95   32.10
  -1   3   3  553.44   25.90
   0  -3  -3 1911.51   80.59
   0   3   3 1794.42   85.69
   0   3   3 1850.31  103.49
  -1  -3  -3  156.58    8.50
  -1  -3  -3  154.88    8.20
   1   3   3  158.48   10.80
  -2  -3  -3  483.25   21.40
  -2  -3  -3  456.55   22.40
   2   3   3  485.35   23.60
   2   3   3  487.55   27.90
  -3  -3  -3  855.51   37.60
  -3  -3  -3  825.92   39.60
   3   3   3  877.51   49.30
   3   3   3  909.21   42.10
  -4  -3  -3 4328.17  190.28
  -4  -3  -3 4325.97  182.88
  -4  -3  -3 4338.27  202.18
   4   3   3 4442.96  241.08
  -5  -3  -3  277.47   16.50
  -5  -3  -3  246.28   15.10
  -5  -3  -3  284.47   13.50
  -6  -3  -3   72.09    6.90
  -6  -3  -3   56.69    7.50
  -7  -3  -3  350.36   22.70
  -7  -3  -3  404.86   21.80
  -8  -3  -3   72.99   10.00
  -8  -3  -3   72.49    8.80
  -9  -3  -3    5.40    3.70
  -8   4   3   -1.10    3.40
  -7   4   3    1.40    3.20
  -7   4   3   -0.50    3.60
  -6   4   3   13.30    4.00
  -6   4   3   10.50    3.20
  -6   4   3   13.80    5.30
  -5   4   3  312.47   18.50
  -5   4   3  281.17   21.80
  -5   4   3  312.67   16.00
  -4   4   3   11.70    3.50
  -4   4   3   11.80    4.10
  -4   4   3   17.60    3.30
  -4   4   3   17.70    2.80
  -3   4   3  666.33   42.20
  -3   4   3  708.03   31.90
  -3   4   3  711.43   31.60
  -2   4   3 2111.09   91.59
  -2   4   3 2167.08   90.19
  -2   4   3 2049.89  118.99
   1  -4  -3  466.35   19.80
  -1   4   3  413.26   27.30
   0  -4  -3   10.30    2.40
   0  -4  -3    6.70    1.60
   0   4   3    5.20    3.30
  -1  -4  -3  528.85   24.00
  -1  -4  -3  513.25   24.00
   1   4   3  517.55   25.70
   1   4   3  545.85   31.20
  -2  -4  -3  121.59    7.30
  -2  -4  -3  119.29    7.10
   2   4   3  119.59    8.60
   2   4   3  120.19    7.40
  -3  -4  -3  193.88   11.20
   3   4   3  192.58   12.50
   3   4   3  196.38   11.30
  -4  -4  -3  628.44   32.60
  -4  -4  -3  760.12   34.90
   4   4   3  786.92   36.80
   4   4   3  771.12   42.10
  -5  -4  -3  701.63   30.40
  -5  -4  -3  657.53   32.50
   5   4   3  640.34   34.00
  -6  -4  -3   24.90    5.00
  -6  -4  -3   20.10    3.80
   6   4   3   24.20    4.90
  -7  -4  -3   13.30    4.20
   7   4   3    7.00    3.50
  -8  -4  -3  193.58   14.30
   8   4   3  195.78   14.70
  -9  -4  -3   34.30    6.60
   9   4   3   29.80    6.50
  -7   5   3    9.60    4.30
  -7   5   3    2.50    4.50
  -6   5   3   20.40    5.20
  -6   5   3   16.30    5.90
  -5   5   3  274.27   17.20
  -5   5   3  260.17   20.40
  -4   5   3  200.58   16.20
  -4   5   3  203.88   11.60
  -4   5   3  186.78   13.10
  -3   5   3  236.68   17.60
  -3   5   3  232.88   11.50
  -3   5   3  231.28   14.30
   2  -5  -3 4205.28  182.28
   2  -5  -3 4172.18  178.78
  -2   5   3 4248.77  196.28
  -2   5   3 4313.97  235.78
   1  -5  -3 1735.63   77.39
   1  -5  -3 1931.91   77.79
  -1   5   3 1731.73   84.89
  -1   5   3 1787.02  101.99
   0  -5  -3  232.68   10.60
   0  -5  -3  227.48   12.20
   0   5   3  237.48   12.90
   0   5   3  222.68   15.80
  -1  -5  -3  206.48   10.20
  -1  -5  -3  196.38   10.90
   1   5   3  220.68   14.00
   1   5   3  194.18   11.50
  -2  -5  -3 1325.27   58.29
  -2  -5  -3 1349.16   59.59
   2   5   3 1341.37   63.49
   2   5   3 1356.16   75.49
  -3  -5  -3  128.29    8.10
  -3  -5  -3  135.89    8.60
   3   5   3  127.89    9.20
   3   5   3  127.99    8.60
  -4  -5  -3   25.40    4.00
   4   5   3   28.40    3.60
   4   5   3   25.40    4.00
  -5  -5  -3   12.90    3.00
  -5  -5  -3   12.00    3.60
   5   5   3   14.70    3.50
  -6  -5  -3    1.60    2.10
  -6  -5  -3    0.00    2.90
   6   5   3   -0.60    2.20
  -7  -5  -3  582.84   30.70
   7   5   3  594.24   32.10
  -8  -5  -3    4.80    3.80
   8   5   3    0.50    3.00
  -9  -5  -3    7.80    4.50
   9   5   3    6.00    4.40
  -7   6   3  203.18   16.50
  -7   6   3  223.38   20.00
  -6   6   3   -0.80    3.20
  -6   6   3    3.10    4.30
   5  -6  -3   45.40    5.90
  -5   6   3   34.60    7.80
  -5   6   3   52.89    7.70
   4  -6  -3   49.40    5.90
  -4   6   3   62.19    9.30
  -4   6   3   54.39    7.20
   3  -6  -3  274.47   14.80
  -3   6   3  278.47   20.30
  -3   6   3  257.57   16.50
   2  -6  -3   23.10    4.00
  -2   6   3   22.80    5.50
  -2   6   3   29.70    4.90
   1  -6  -3 1805.82   77.39
  -1   6   3 1904.61  102.19
  -1   6   3 1654.93   84.79
   0  -6  -3  904.71   41.20
   0   6   3  928.11   44.60
   0   6   3  916.41   53.69
  -1  -6  -3    4.30    1.90
  -1  -6  -3    4.10    2.80
   1   6   3    2.90    2.30
   1   6   3    0.50    3.10
  -2  -6  -3  605.34   27.40
  -2  -6  -3  572.24   26.90
   2   6   3  550.04   29.10
   2   6   3  600.44   34.30
  -3  -6  -3  575.94   27.40
  -3  -6  -3  576.34   27.10
   3   6   3  572.24   29.20
   3   6   3  580.44   33.60
  -4  -6  -3   35.90    4.90
  -4  -6  -3   33.40    4.60
   4   6   3   36.90    5.00
  -5  -6  -3  144.39    9.40
  -5  -6  -3  147.99   10.30
   5   6   3  140.79   10.20
  -6  -6  -3    4.90    3.40
  -6  -6  -3    1.90    2.50
   6   6   3    3.60    2.80
  -7  -6  -3  575.84   30.60
   7   6   3  593.24   32.00
  -8  -6  -3  511.15   28.20
   8   6   3  503.65   29.10
  -9  -6  -3   10.40    5.10
   9   6   3   11.20    4.90
  -6   7   3   72.79   11.70
  -6   7   3   88.29   11.20
   5  -7  -3  197.08   13.10
  -5   7   3  210.48   15.80
  -5   7   3  212.58   18.60
   4  -7  -3  364.56   19.20
  -4   7   3  349.77   22.10
  -4   7   3  361.56   26.50
   3  -7  -3    4.70    3.10
  -3   7   3    0.30    2.70
  -3   7   3    1.50    3.40
   2  -7  -3  251.97   14.10
  -2   7   3  228.88   15.80
  -2   7   3  269.17   19.10
   1  -7  -3    0.80    2.70
  -1   7   3    2.60    3.20
  -1   7   3    3.40    2.60
   0  -7  -3  294.47   15.70
   0   7   3  276.97   19.70
   0   7   3  293.47   16.50
  -1  -7  -3  387.36   18.20
  -1  -7  -3  386.26   20.00
   1   7   3  393.66   21.30
   1   7   3  418.56   25.30
  -2  -7  -3 1746.03   75.79
  -2  -7  -3 1712.63   76.39
   2   7   3 1768.92   82.49
   2   7   3 1718.43   97.69
  -3  -7  -3    1.70    2.20
  -3  -7  -3   -1.80    1.90
   3   7   3    0.20    1.80
   3   7   3    2.50    2.30
  -4  -7  -3   40.60    5.30
  -4  -7  -3   52.79    5.80
   4   7   3   54.69    6.10
  -5  -7  -3  157.18   10.80
  -5  -7  -3  149.19   10.30
   5   7   3  154.08   10.80
  -6  -7  -3  320.47   17.30
  -6  -7  -3  318.97   18.00
   6   7   3  280.97   18.10
  -7  -7  -3    5.70    3.20
  -7  -7  -3   12.00    4.60
   7   7   3    9.30    3.60
  -8  -7  -3  261.37   17.10
   8   7   3  250.07   17.30
  -6   8   3  181.98   18.30
  -6   8   3  172.28   15.50
  -5   8   3    9.60    5.20
  -5   8   3    6.90    4.40
   4  -8  -3    1.40    3.10
  -4   8   3    1.80    4.70
  -4   8   3    5.40    3.60
   3  -8  -3  388.46   20.40
  -3   8   3  390.56   27.60
  -3   8   3  357.56   23.10
   2  -8  -3    8.40    3.50
  -2   8   3   12.10    5.00
  -2   8   3    7.20    3.50
   1  -8  -3    2.20    2.90
  -1   8   3    6.70    3.20
  -1   8   3   -0.20    3.30
   0  -8  -3  418.86   21.80
   0   8   3  432.86   23.30
   0   8   3  422.36   27.80
  -1  -8  -3   13.90    3.70
   1   8   3   10.50    3.30
   1   8   3   17.40    4.60
  -2  -8  -3 1452.55   65.49
  -2  -8  -3 1507.95   65.39
   2   8   3 1472.85   83.99
   2   8   3 1462.85   71.09
  -3  -8  -3  356.86   18.60
  -3  -8  -3  403.86   19.90
   3   8   3  357.66   20.50
  -4  -8  -3   63.89    6.10
  -4  -8  -3   53.79    6.40
   4   8   3   61.79    6.50
  -5  -8  -3  759.82   37.60
  -5  -8  -3  810.32   38.30
   5   8   3  797.62   40.50
  -6  -8  -3  320.67   18.40
  -6  -8  -3  289.77   17.50
   6   8   3  310.77   18.80
  -7  -8  -3  111.79   10.30
  -7  -8  -3  107.79    9.50
   7   8   3  117.59   10.00
  -8  -8  -3   71.79    9.20
   8   8   3   82.39    8.60
  -5   9   3    2.70    4.30
  -5   9   3    5.70    5.50
   4  -9  -3  160.48   11.80
  -4   9   3  140.69   13.70
  -4   9   3  157.68   15.70
   3  -9  -3   76.09    8.20
  -3   9   3   61.79    9.30
  -3   9   3   80.29   11.70
   2  -9  -3    2.10    3.20
  -2   9   3    3.00    3.90
  -2   9   3    1.00    3.20
   1  -9  -3  116.29    9.50
  -1   9   3  117.59   12.00
  -1   9   3  105.39    9.90
   0  -9  -3   70.59    8.00
   0   9   3   68.59    9.30
   0   9   3   71.79    8.10
  -1  -9  -3  271.07   16.30
   1   9   3  299.67   17.00
   1   9   3  276.37   19.80
  -2  -9  -3  859.71   40.90
   2   9   3  853.91   51.09
   2   9   3  887.41   43.90
  -3  -9  -3  325.77   18.50
   3   9   3  328.97   19.30
  -4  -9  -3   14.30    4.00
  -4  -9  -3   10.80    3.40
   4   9   3   10.90    3.70
  -5  -9  -3   15.50    4.60
  -5  -9  -3   22.80    4.60
   5   9   3   27.40    5.20
  -6  -9  -3  233.78   14.90
  -6  -9  -3  209.48   14.50
   6   9   3  236.88   15.50
  -7  -9  -3  210.28   14.00
  -7  -9  -3  186.78   13.90
   7   9   3  201.78   14.50
  -8  -9  -3   43.10    7.60
   8   9   3   42.20    7.40
  -4  10   3  152.08   15.80
  -4  10   3  101.29   13.40
   3 -10  -3  326.27   17.70
  -3  10   3  279.67   22.80
  -3  10   3  222.18   18.50
   2 -10  -3    3.90    4.00
  -2  10   3    1.90    3.40
  -2  10   3   -1.30    3.90
   1 -10  -3  210.88   14.50
  -1  10   3  214.08   15.50
  -1  10   3  221.68   18.30
   0 -10  -3  259.67   16.20
   0  10   3  271.17   20.30
   0  10   3  257.27   16.90
  -1 -10  -3    2.70    3.30
   1  10   3   -3.90    2.20
   1  10   3   -2.20    3.30
  -2 -10  -3   78.89    8.70
   2  10   3   87.29    8.10
  -3 -10  -3  425.26   23.40
   3  10   3  439.96   24.60
  -4 -10  -3   92.69   10.00
   4  10   3  112.69    9.50
  -5 -10  -3  146.49   11.60
   5  10   3  137.69   11.50
  -6 -10  -3   10.40    4.10
  -6 -10  -3    9.30    4.20
   6  10   3    6.40    3.50
  -7 -10  -3    7.10    4.30
  -7 -10  -3    8.90    4.00
   7  10   3    5.90    3.30
  -4  11   3    3.00    5.30
   3 -11  -3  124.89   11.20
  -3  11   3  103.89   14.70
  -3  11   3   87.59   12.10
   2 -11  -3   92.79   10.20
  -2  11   3  103.59   12.80
  -2  11   3  114.39   11.70
   1 -11  -3    7.10    4.60
  -1  11   3   16.50    5.30
  -1  11   3   11.10    5.60
   0 -11  -3  142.49   11.90
   0  11   3  163.08   12.20
   0  11   3  152.08   14.60
  -1 -11  -3   56.49    8.10
   1  11   3   62.89    7.90
   1  11   3   61.09    9.00
  -2 -11  -3   14.50    5.20
   2  11   3   15.80    4.50
  -3 -11  -3  220.58   15.20
   3  11   3  216.58   15.20
  -4 -11  -3  532.75   29.10
   4  11   3  561.04   30.80
  -5 -11  -3   -2.50    3.20
   5  11   3    1.10    3.60
  -6 -11  -3   39.00    6.90
   6  11   3   44.40    7.10
   2 -12  -3   90.89   11.10
  -2  12   3  113.39   14.00
  -2  12   3  135.29   12.90
   1 -12  -3    6.50    4.60
  -1  12   3   -0.80    3.40
  -1  12   3   -1.50    4.20
   0 -12  -3    2.90    4.30
   0  12   3   -1.60    3.70
   0  12   3    1.80    3.40
  -1 -12  -3    6.30    4.60
   1  12   3    8.30    4.00
  -2 -12  -3   24.20    6.00
   2  12   3   31.90    5.80
  -3 -12  -3   41.80    7.80
   3  12   3   43.20    6.60
  -4 -12  -3  217.48   16.30
   4  12   3  234.08   16.40
  -5 -12  -3   95.79   11.20
   5  12   3   92.39    9.60
   1 -13  -3  122.79   13.00
  -1  13   3  124.89   14.70
  -1  13   3  143.89   13.30
   0 -13  -3   -2.40    3.70
   0  13   3    0.00    3.20
  -1 -13  -3   11.40    5.70
   1  13   3    9.90    4.70
  -2 -13  -3    5.50    5.00
   2  13   3   18.50    5.20
  -3 -13  -3  189.08   15.40
   3  13   3  193.18   14.50
  -4 -13  -3   12.60    5.60
   4  13   3    8.00    4.10
   4  10  -4    4.20    3.70
  -4 -10   4    7.10    5.30
   3  10  -4  356.56   22.30
  -3 -10   4  379.86   22.90
   2  10  -4  354.86   21.90
  -2 -10   4  358.76   21.70
   1  10  -4   -1.30    3.00
  -1 -10   4   -5.00    3.50
   0  10  -4    7.40    4.00
   0 -10   4    8.40    4.90
  -1  10  -4   13.40    5.30
   1 -10   4   -0.70    6.00
   5   9  -4   83.49   10.00
   5   9  -4  100.79    8.40
  -5  -9   4  100.69   11.60
   4   9  -4   -1.90    2.90
  -4  -9   4    3.60    4.40
   3   9  -4   59.99    7.60
  -3  -9   4   53.79    8.20
   2   9  -4  808.72   43.20
  -2  -9   4  867.11   41.30
   1   9  -4   87.69    9.00
  -1  -9   4   84.19    9.50
   0   9  -4   57.29    8.40
   0  -9   4   67.19    8.30
  -1   9  -4   38.60    7.20
   1  -9   4   38.30   10.00
  -2   9  -4    4.00    3.60
   2  -9   4   -3.10    5.80
  -3   9  -4   69.59    9.70
   3  -9   4   28.00   10.70
  -6  -8   4   -0.60    4.10
  -6  -8   4   -3.20    3.70
   5   8  -4  180.98   13.10
  -5  -8   4  166.98   13.70
   4   8  -4    2.50    2.30
   4   8  -4   -1.90    2.80
  -4  -8   4   -3.10    3.60
   3   8  -4  264.77   15.30
   3   8  -4  179.48   12.80
  -3  -8   4  280.77   16.50
   2   8  -4   26.90    5.10
  -2  -8   4   21.00    5.10
   1   8  -4  221.38   14.50
  -1  -8   4  205.08   14.20
   0   8  -4    1.70    2.90
   0  -8   4   11.00    4.30
   0  -8   4    1.80    3.10
  -1   8  -4   48.00    7.30
   1  -8   4   50.89   10.50
  -2   8  -4   59.29    8.50
   2  -8   4   52.49   11.70
  -3   8  -4    9.30    4.40
   3  -8   4    7.60    7.40
  -4   8  -4    1.20    3.70
   4  -8   4    0.10    7.00
  -6  -7   4   11.60    4.80
  -6  -7   4    5.80    3.90
   5   7  -4  235.38   16.20
  -5  -7   4  276.37   16.60
  -5  -7   4  258.37   16.70
   4   7  -4   58.69    7.30
  -4  -7   4   61.59    8.10
   3   7  -4   27.40    4.90
   3   7  -4   28.70    4.40
  -3  -7   4   26.00    5.50
   2   7  -4   58.79    7.00
  -2  -7   4   55.29    7.10
   1   7  -4   48.20    6.20
   1   7  -4   40.20    5.10
  -1  -7   4   17.60    6.10
  -1  -7   4   41.30    6.00
   0   7  -4   25.10    5.20
   0  -7   4   26.60    6.90
   0  -7   4   32.20    5.40
  -1   7  -4  815.92   39.10
   1  -7   4  771.22   34.70
   1  -7   4  593.74   46.80
  -2   7  -4  129.99   10.80
   2  -7   4   83.79   14.30
  -3   7  -4   33.80    6.30
   3  -7   4   16.80    7.40
  -4   7  -4  245.58   16.90
   4  -7   4  156.48   20.40
  -5   7  -4    3.50    3.80
   5  -7   4   -4.60    6.00
  -7  -6   4   52.69    7.90
  -7  -6   4   60.39    8.40
  -6  -6   4    3.10    3.80
  -6  -6   4    5.20    3.90
   5   6  -4   18.00    4.20
  -5  -6   4   13.40    4.70
  -5  -6   4   14.40    4.80
   4   6  -4    2.30    2.70
  -4  -6   4    1.20    3.00
  -4  -6   4    2.60    3.60
   3   6  -4  244.28   14.10
   3   6  -4  208.58   12.40
  -3  -6   4  194.98   13.60
   2   6  -4  216.88   12.60
   2   6  -4  223.28   13.60
  -2  -6   4  229.18   13.90
   1   6  -4  152.08    9.60
   1   6  -4  139.89   10.20
  -1  -6   4  169.18   13.90
  -1  -6   4  146.09   10.40
   0   6  -4  240.08   14.30
   0   6  -4  266.87   15.70
   0  -6   4  249.97   14.40
  -1   6  -4  602.04   32.60
  -1   6  -4  605.74   29.70
   1  -6   4  637.94   29.30
   1  -6   4  611.04   41.00
  -2   6  -4  764.82   40.30
   2  -6   4  783.82   50.89
  -3   6  -4  224.78   15.60
   3  -6   4  230.18   21.70
  -4   6  -4  101.29    9.90
   4  -6   4   89.59   15.50
  -5   6  -4  418.86   26.20
  -6   6  -4    1.10    3.60
   6  -6   4    3.50    7.40
  -7  -5   4    1.40    3.00
  -7  -5   4   -2.60    3.40
   6   5  -4   14.90    4.00
  -6  -5   4   13.10    4.50
  -6  -5   4   11.20    4.50
   5   5  -4  132.79    9.60
  -5  -5   4  102.19    9.10
  -5  -5   4  133.89   10.10
   4   5  -4  532.35   26.70
  -4  -5   4  554.54   26.20
  -4  -5   4  425.66   25.50
   3   5  -4  312.57   17.20
  -3  -5   4  282.87   16.70
   2   5  -4  938.01   41.10
   2   5  -4  785.22   43.30
  -2  -5   4  924.71   52.29
  -2  -5   4  904.71   41.00
   1   5  -4  794.72   36.30
  -1  -5   4  752.42   35.70
   0   5  -4  342.07   18.80
   0   5  -4  318.87   17.60
   0  -5   4  330.27   17.30
   0  -5   4  352.76   24.10
  -1   5  -4   24.20    4.10
  -1   5  -4   21.40    4.40
   1  -5   4   25.00    4.00
   1  -5   4   33.20    7.40
  -2   5  -4 1015.40   45.80
  -2   5  -4  966.40   49.40
   2  -5   4  989.50   44.00
  -3   5  -4  118.69   10.30
  -3   5  -4  128.59    8.60
   3  -5   4  136.79   15.30
  -4   5  -4   98.39    9.60
   4  -5   4  111.09   16.10
  -5   5  -4   32.10    6.70
   5  -5   4   35.10    9.70
  -6   5  -4    1.80    3.50
   6  -5   4    3.80    7.20
  -8  -4   4   30.90    6.30
  -8  -4   4   35.90    6.50
  -7  -4   4   -2.80    2.90
  -7  -4   4   -0.90    3.20
   6   4  -4   27.70    4.70
  -6  -4   4   17.10    4.40
  -6  -4   4   27.00    5.40
   5   4  -4   -1.00    2.10
  -5  -4   4    2.40    2.70
  -5  -4   4    3.70    3.00
   4   4  -4  975.70   47.50
  -4  -4   4  947.41   44.80
  -4  -4   4  995.60   45.80
   3   4  -4  261.17   15.20
  -3  -4   4  285.67   15.30
  -3  -4   4  268.07   15.30
   2   4  -4  830.32   37.50
   2   4  -4  818.82   39.80
  -2  -4   4  814.52   47.10
  -2  -4   4  784.02   37.30
   1   4  -4 1932.81   81.49
  -1  -4   4 1807.52  104.09
  -1  -4   4 1751.12   79.19
   0   4  -4  136.49    8.90
   0  -4   4  127.39    8.30
   0  -4   4  119.99   11.60
  -1   4  -4   23.50    4.10
  -1   4  -4   22.80    3.90
   1  -4   4   21.50    3.40
   1  -4   4    7.20    4.70
  -2   4  -4  558.04   26.80
  -2   4  -4  531.05   28.70
   2  -4   4  564.44   25.20
  -3   4  -4  148.69    9.60
  -3   4  -4  133.79   10.70
   3  -4   4  210.28   17.40
  -4   4  -4    3.90    2.80
  -4   4  -4    2.60    2.20
   4  -4   4   -0.30    5.80
  -5   4  -4    1.00    3.00
   5  -4   4    2.50    6.50
  -6   4  -4    1.30    3.30
   6  -4   4    5.30    7.30
  -7   4  -4  234.28   16.90
   7  -4   4  166.48   24.40
  -8  -3   4  165.08   13.00
  -8  -3   4  188.78   13.40
  -7  -3   4  435.16   23.90
  -7  -3   4  446.66   24.40
   6   3  -4    7.80    3.10
  -6  -3   4    6.20    3.50
  -6  -3   4   14.10    4.00
   5   3  -4  147.89    9.80
  -5  -3   4  152.98   10.30
  -5  -3   4  133.59   10.00
   4   3  -4  383.26   20.10
  -4  -3   4  371.06   19.80
  -4  -3   4  384.26   19.90
   3   3  -4    2.00    2.10
  -3  -3   4    0.10    1.70
  -3  -3   4    1.50    2.70
  -3  -3   4   -0.80    2.40
   2   3  -4    8.70    2.60
   2   3  -4   14.30    2.80
  -2  -3   4   12.30    3.10
  -2  -3   4    9.80    3.30
   1   3  -4   68.09    5.40
   1   3  -4   65.79    5.50
  -1  -3   4   73.09    6.10
  -1  -3   4   94.59    8.50
   0   3  -4  346.07   17.60
   0   3  -4  346.87   17.80
   0  -3   4  326.87   16.60
   0  -3   4  334.57   22.80
  -1   3  -4   57.19    5.60
  -1   3  -4   53.49    5.20
   1  -3   4   55.69    8.00
   1  -3   4   48.60    4.80
  -2   3  -4   -0.10    1.90
  -2   3  -4    2.70    1.70
   2  -3   4   28.10    6.70
   2  -3   4   -0.10    1.80
  -3   3  -4  935.21   45.90
  -3   3  -4 1015.30   49.50
   3  -3   4 1067.29   62.19
  -4   3  -4   50.09    5.80
  -4   3  -4   68.99    6.80
   4  -3   4   98.39   13.20
  -5   3  -4   13.30    4.30
  -5   3  -4    4.60    2.50
   5  -3   4    5.70    6.40
  -6   3  -4    0.30    3.20
  -6   3  -4   -1.10    1.60
   6  -3   4    1.20    6.00
  -7   3  -4   41.50    7.40
   7  -3   4   21.40    9.40
  -8  -2   4   54.19    7.50
  -8  -2   4   54.99    8.00
  -7  -2   4  765.32   37.90
  -7  -2   4  807.72   39.20
   6   2  -4  666.83   35.20
  -6  -2   4  697.93   33.50
  -6  -2   4  713.53   34.40
   5   2  -4   24.60    3.90
  -5  -2   4   18.20    3.90
  -5  -2   4   23.60    4.30
   4   2  -4   97.39    7.00
  -4  -2   4  100.49    7.70
  -4  -2   4  102.19    7.60
   3   2  -4  409.26   20.30
  -3  -2   4  391.06   24.30
  -3  -2   4  430.36   20.50
  -3  -2   4  373.36   19.70
   2   2  -4   11.60    2.60
  -2  -2   4    9.30    2.70
  -2  -2   4   11.80    3.00
   1   2  -4   38.40    3.60
   1   2  -4   39.80    4.20
  -1  -2   4   32.20    3.80
  -1  -2   4   34.80    4.80
   0   2  -4  429.86   20.80
   0   2  -4  404.46   20.80
   0  -2   4  408.66   19.50
   0  -2   4  439.36   26.80
  -1   2  -4 1365.76   64.59
  -1   2  -4 1257.57   61.59
   1  -2   4 1445.46   79.49
   1  -2   4 1414.96   58.59
  -2   2  -4 1534.75   67.59
  -2   2  -4 1483.95   71.29
   2  -2   4 1542.65   63.79
   2  -2   4 1460.45   87.49
  -3   2  -4  320.57   16.80
  -3   2  -4  320.47   18.00
  -4   2  -4  134.89    9.30
  -4   2  -4  155.88   10.50
  -5   2  -4   31.60    5.60
  -5   2  -4   49.20    5.90
   5  -2   4   22.10    8.00
  -6   2  -4  143.29   11.50
  -6   2  -4  149.88   10.50
   6  -2   4  138.29   18.60
  -7   2  -4   11.30    3.90
  -7   2  -4   14.30    5.00
   7  -2   4   15.80    8.50
  -8   2  -4  111.49   11.40
   8  -2   4   84.69   16.20
  -8  -1   4    5.10    3.50
  -8  -1   4    2.10    3.50
  -7  -1   4   68.49    8.10
  -7  -1   4   72.79    7.90
   6   1  -4  506.35   26.70
  -6  -1   4  519.75   26.20
  -6  -1   4  475.55   25.10
   5   1  -4   37.90    4.70
  -5  -1   4   32.10    4.70
  -5  -1   4   38.10    5.10
   4   1  -4   62.19    5.30
  -4  -1   4   66.49    6.00
  -4  -1   4   67.29    6.40
  -4  -1   4   64.69    6.00
   3   1  -4  151.98    9.10
  -3  -1   4  166.58    9.80
  -3  -1   4  168.48   10.00
  -3  -1   4  163.68   11.60
   2   1  -4  666.73   31.40
  -2  -1   4  662.23   29.90
  -2  -1   4  654.93   30.60
  -2  -1   4  649.54   38.30
   1   1  -4   43.10    3.30
   1   1  -4   52.99    4.20
  -1  -1   4   37.60    4.00
   0   1  -4 1428.06   64.99
   0   1  -4 1402.46   67.69
   0  -1   4 1394.76   62.29
   0  -1   4 1622.54   83.29
  -1   1  -4 1358.66   63.19
  -1   1  -4 1229.58   60.49
   1  -1   4 1389.16   57.39
   1  -1   4 1420.46   77.69
  -2   1  -4 2355.16  105.79
  -2   1  -4 2360.76  111.79
   2  -1   4 2397.26  100.49
   2  -1   4 2501.55  135.89
  -3   1  -4 2049.59   92.29
  -3   1  -4 2011.10   97.89
   3  -1   4 2196.38  119.49
  -4   1  -4   65.19    7.10
  -4   1  -4   70.29    6.10
   4  -1   4   57.29    9.80
  -5   1  -4  236.58   13.90
  -5   1  -4  219.28   14.80
   5  -1   4  241.48   19.90
  -6   1  -4  398.36   23.50
  -6   1  -4  404.26   21.80
   6  -1   4  394.76   30.50
  -7   1  -4  230.28   16.40
  -7   1  -4  232.78   14.80
   7  -1   4  210.08   21.70
  -8   1  -4   77.09   10.40
  -8   1  -4   85.79    9.50
   8  -1   4   41.50   12.10
  -8   0   4   62.09    7.50
  -8   0   4   61.49    8.10
  -7   0   4   53.29    7.00
  -7   0   4   38.70    5.70
  -6   0   4   94.89    8.40
  -6   0   4  106.89    8.30
  -5   0   4   60.69    6.30
  -5   0   4   66.99    7.00
  -5   0   4   64.39    6.20
   4   0  -4  768.82   43.10
  -4   0   4 1009.60   52.89
  -4   0   4  950.70   40.90
  -4   0   4  892.81   41.90
   3   0  -4 1913.41   89.79
  -3   0   4 1960.40   85.59
  -3   0   4 1944.51   83.19
  -3   0   4 1921.81  108.69
   2   0  -4  202.38   10.00
  -2   0   4  197.28   13.40
  -2   0   4  185.08   10.40
   1   0  -4  597.74   29.80
  -1   0   4  685.53   37.50
  -1   0   4  656.73   28.70
   0   0  -4  133.79    8.00
   0   0  -4  125.89    6.80
   0   0   4  129.39    7.10
   0   0   4  136.09    9.60
  -1   0  -4   35.50    3.60
  -1   0  -4   31.90    4.10
   1   0   4   63.79    7.10
   1   0   4   34.80    3.00
  -2   0  -4  110.19    7.20
  -2   0  -4  102.39    7.20
   2   0   4   99.39    5.00
   2   0   4  130.69   10.50
  -3   0  -4 1076.89   55.49
  -3   0  -4 1086.79   52.49
   3   0   4 1327.27   68.49
  -4   0  -4   23.00    4.30
  -4   0  -4   28.10    4.30
   4   0   4   53.49    8.10
  -5   0  -4   73.69    6.50
  -5   0  -4   68.19    7.10
   5   0   4   54.49    9.60
  -6   0  -4  294.17   18.90
  -6   0  -4  300.17   17.70
   6   0   4  343.37   25.40
  -7   0  -4  314.47   18.70
  -7   0  -4  319.17   20.20
   7   0   4  307.67   26.10
  -8   0  -4   28.80    6.20
  -8   0  -4   18.30    5.00
  -8   1   4  106.29    9.60
  -7   1   4   13.70    3.70
  -7   1   4   13.30    4.10
  -6   1   4   58.79    6.50
  -6   1   4   49.10    6.20
  -6   1   4   44.40    6.30
  -5   1   4  169.78   10.90
  -5   1   4  158.48   10.20
  -5   1   4  165.58   10.60
  -5   1   4  160.08   12.90
  -4   1   4  576.04   27.20
  -4   1   4  583.84   35.30
  -4   1   4  579.54   27.80
  -4   1   4  574.84   29.00
  -3   1   4 1499.45   62.99
  -3   1   4 1355.16   67.79
  -3   1   4 1501.95   64.69
  -2   1   4  463.75   22.60
  -2   1   4  493.05   28.90
  -2   1   4  429.96   22.20
  -2   1   4  518.35   22.20
   1  -1  -4  274.87   13.30
  -1   1   4  278.77   17.50
  -1   1   4  265.47   13.30
   0  -1  -4 2289.57  101.09
   0  -1  -4 2307.47   96.79
   0   1   4 2148.29   93.09
   0   1   4 2074.79  122.79
  -1  -1  -4 2857.41  128.39
  -1  -1  -4 3008.40  135.39
   1   1   4 2924.21  163.08
   1   1   4 2973.90  123.19
  -2  -1  -4   17.60    1.70
  -2  -1  -4   20.00    3.50
  -2  -1  -4   15.00    2.90
   2   1   4   30.00    5.30
  -3  -1  -4 1699.23   79.09
  -3  -1  -4 1711.23   83.79
   3   1   4 1936.91  101.49
  -4  -1  -4  488.05   25.40
  -4  -1  -4  471.05   23.80
   4   1   4  474.45   30.90
  -5  -1  -4  282.67   15.20
  -5  -1  -4  282.37   16.10
   5   1   4  203.68   18.80
  -6  -1  -4   19.40    4.50
  -6  -1  -4   17.90    4.70
   6   1   4   17.30    6.30
  -7  -1  -4  124.09   10.90
  -7  -1  -4  123.29   10.40
   7   1   4  128.39   14.90
  -8  -1  -4    5.00    3.80
  -8  -1  -4    5.00    4.00
  -9  -1  -4   24.40    5.80
  -8   2   4    2.90    3.20
  -7   2   4   -0.10    2.50
  -7   2   4   -1.20    2.60
  -6   2   4  353.26   25.10
  -6   2   4  351.26   20.90
  -6   2   4  379.16   19.40
  -6   2   4  373.16   19.70
  -5   2   4    8.70    2.90
  -5   2   4    9.60    3.10
  -5   2   4    7.90    3.40
  -5   2   4   10.00    3.10
  -4   2   4   70.59    5.70
  -4   2   4   69.09    7.60
  -4   2   4   60.39    5.50
  -4   2   4   54.59    5.40
  -3   2   4 1874.21   79.39
  -3   2   4 1791.82   77.29
  -3   2   4 1780.22   83.89
  -3   2   4 1737.63  101.69
  -2   2   4 1621.24   70.59
  -2   2   4 1642.74   74.39
  -2   2   4 1549.45   90.79
  -2   2   4 1601.24   68.99
   1  -2  -4    9.30    1.90
  -1   2   4   11.00    3.50
  -1   2   4    8.70    2.10
  -1   2   4   11.50    1.30
   0  -2  -4  243.58   12.30
   0   2   4  228.18   11.50
   0   2   4  252.47   15.60
   0   2   4  231.48   11.30
  -1  -2  -4 6667.63  282.57
   1   2   4 6335.27  359.46
   1   2   4 6603.44  272.87
  -2  -2  -4 1529.15   73.19
  -2  -2  -4 1546.85   65.89
  -2  -2  -4 1601.34   69.49
   2   2   4 1575.84   87.79
  -3  -2  -4   94.49    6.90
  -3  -2  -4   86.59    6.70
  -3  -2  -4   87.09    4.70
  -4  -2  -4 1332.27   63.49
  -4  -2  -4 1329.97   59.99
  -4  -2  -4 1266.67   55.59
   4   2   4 1345.97   75.99
  -5  -2  -4  194.28   12.80
  -5  -2  -4  195.18   12.00
   5   2   4  166.48   14.60
  -6  -2  -4  369.16   20.00
  -6  -2  -4  361.46   21.20
   6   2   4  331.07   24.70
  -7  -2  -4    5.20    3.60
  -7  -2  -4    4.40    3.50
  -8  -2  -4    9.90    4.00
  -8  -2  -4    5.40    3.90
  -9  -2  -4   87.99   11.60
  -9  -2  -4  105.19   11.70
  -7   3   4  115.29    9.40
  -6   3   4  185.18   11.70
  -6   3   4  180.58   12.90
  -6   3   4  182.68   15.60
  -5   3   4  352.76   19.40
  -5   3   4  296.27   17.40
  -5   3   4  345.37   23.80
  -5   3   4  363.26   17.80
  -4   3   4   14.20    4.40
  -4   3   4   26.10    3.70
  -4   3   4   22.90    3.70
  -4   3   4   14.10    3.00
  -3   3   4    3.70    2.00
  -3   3   4    3.00    1.70
  -3   3   4   -0.60    1.60
  -3   3   4   -1.30    2.90
  -2   3   4 2380.46   98.59
  -2   3   4 2284.37  129.79
  -2   3   4 2267.67  106.99
   1  -3  -4  216.18   11.00
  -1   3   4  231.08   11.70
  -1   3   4  228.78   15.60
  -1   3   4  235.88   11.70
   0  -3  -4 1973.60   82.99
   0   3   4 1865.21   87.39
   0   3   4 1870.91  106.19
   0   3   4 1864.11   80.59
  -1  -3  -4 3102.89  133.69
  -1  -3  -4 3294.37  138.29
   1   3   4 3052.69  146.09
   1   3   4 3264.37  175.98
  -2  -3  -4  138.29    8.30
  -2  -3  -4  134.89    7.30
   2   3   4  143.39   10.10
   2   3   4  134.69    8.10
  -3  -3  -4  299.27   16.30
  -3  -3  -4  292.37   13.80
   3   3   4  295.77   18.70
  -4  -3  -4  619.84   27.80
  -4  -3  -4  644.04   32.40
  -4  -3  -4  632.54   30.60
  -5  -3  -4  792.22   38.20
  -5  -3  -4  807.12   40.50
   5   3   4  783.62   47.50
  -6  -3  -4  122.69   10.20
  -6  -3  -4  130.69    9.50
   6   3   4  100.49   10.90
  -7  -3  -4  170.28   13.40
  -7  -3  -4  174.68   12.70
  -8  -3  -4    2.70    3.50
  -8  -3  -4   -1.50    3.20
  -9  -3  -4    7.00    4.20
  -9  -3  -4    3.60    4.20
  -7   4   4   29.30    7.30
  -6   4   4    8.50    3.00
  -6   4   4    9.90    4.50
  -6   4   4    0.20    2.00
  -5   4   4  359.46   21.30
  -5   4   4  377.86   19.40
  -5   4   4  391.36   19.30
  -5   4   4  369.36   26.20
  -4   4   4  453.75   30.20
  -4   4   4  455.55   22.40
  -4   4   4  436.46   24.20
  -4   4   4  479.25   22.20
  -3   4   4  111.89    7.70
  -3   4   4  116.89    6.80
  -3   4   4  115.09    8.00
  -3   4   4  100.09   10.40
   2  -4  -4 1385.46   60.59
  -2   4   4 1428.66   60.49
  -2   4   4 1200.18   79.39
  -2   4   4 1522.95   65.59
   1  -4  -4 2859.21  124.89
  -1   4   4 2806.72  161.08
  -1   4   4 2961.80  122.39
  -1   4   4 2912.81  133.39
   0  -4  -4  214.18   10.90
   0  -4  -4  218.28   11.40
   0   4   4  211.68   14.90
  -1  -4  -4  685.23   31.20
  -1  -4  -4  674.93   30.60
   1   4   4  697.23   40.20
  -2  -4  -4   96.89    6.50
   2   4   4   94.69    7.70
   2   4   4   82.89    6.00
  -3  -4  -4  656.03   28.50
  -3  -4  -4  589.44   30.00
   3   4   4  633.54   31.50
   3   4   4  657.63   37.10
  -4  -4  -4  501.35   25.70
  -4  -4  -4  514.45   23.80
   4   4   4  507.65   30.80
   4   4   4  557.04   27.00
  -5  -4  -4   92.39    6.20
  -5  -4  -4   86.49    7.50
   5   4   4   94.49    8.00
   5   4   4   91.89    7.80
  -6  -4  -4   37.50    6.00
   6   4   4   40.70    6.10
  -7  -4  -4  668.13   34.80
   7   4   4  694.13   36.70
  -8  -4  -4  172.68   13.30
   8   4   4  174.08   13.60
  -9  -4  -4  107.89   12.00
   9   4   4   99.29   12.30
  -7   5   4  188.78   17.60
  -6   5   4   43.80    5.80
  -6   5   4   37.80    8.00
  -6   5   4   36.50    6.60
  -5   5   4  114.49   12.30
  -5   5   4  122.79    9.00
  -4   5   4  182.58   15.30
  -4   5   4  178.18   11.00
  -3   5   4  245.18   18.50
  -3   5   4  225.88   13.20
  -3   5   4  259.67   14.80
  -3   5   4  248.58   12.20
   2  -5  -4    5.30    1.40
  -2   5   4    6.70    2.70
  -2   5   4    4.60    2.40
  -2   5   4    2.90    3.80
   1  -5  -4  236.98   12.90
   1  -5  -4  237.88   11.10
  -1   5   4  225.08   16.50
  -1   5   4  221.28   13.20
   0  -5  -4  323.17   15.30
   0  -5  -4  308.67   16.30
   0   5   4  341.17   21.50
  -1  -5  -4  762.72   34.80
  -1  -5  -4  776.62   34.80
   1   5   4  772.22   45.20
   1   5   4  783.32   37.30
  -2  -5  -4  112.29    7.70
  -2  -5  -4  119.79    7.60
   2   5   4  121.69    9.50
   2   5   4  119.59    7.70
  -3  -5  -4    8.30    3.00
  -3  -5  -4    3.40    1.80
   3   5   4    4.90    2.40
   3   5   4    5.30    2.70
  -4  -5  -4  239.68   12.30
  -4  -5  -4  231.98   13.30
   4   5   4  227.58   14.90
   4   5   4  217.68   13.40
  -5  -5  -4  352.66   19.40
  -5  -5  -4  356.66   17.70
   5   5   4  366.16   20.20
  -6  -5  -4   -1.30    2.60
   6   5   4   -1.50    2.20
  -7  -5  -4  812.92   41.60
   7   5   4  859.21   43.70
  -8  -5  -4  728.53   38.50
   8   5   4  767.62   40.50
  -9  -5  -4   29.50    6.50
   9   5   4   21.10    5.90
  -7   6   4  428.26   32.10
  -6   6   4   63.39   10.70
  -6   6   4   49.90    7.90
  -5   6   4  248.08   20.60
  -5   6   4  248.48   16.60
  -4   6   4    6.00    4.00
  -4   6   4    0.10    2.50
   3  -6  -4  206.28   11.60
  -3   6   4  161.28   11.70
  -3   6   4  168.18   15.10
   2  -6  -4  358.26   17.90
  -2   6   4  322.47   23.40
   1  -6  -4  172.88    8.20
   1  -6  -4  170.78   10.40
  -1   6   4  161.68   10.80
  -1   6   4  173.78   13.90
   0  -6  -4    1.90    2.30
   0   6   4    4.20    3.50
  -1  -6  -4  458.75   22.30
  -1  -6  -4  453.15   21.40
   1   6   4  451.45   28.60
   1   6   4  487.35   23.80
  -2  -6  -4 3729.33  164.68
  -2  -6  -4 3866.71  160.58
   2   6   4 3847.61  175.48
   2   6   4 3721.33  209.88
  -3  -6  -4   23.60    4.00
  -3  -6  -4   28.10    4.10
   3   6   4   32.10    4.30
   3   6   4   27.90    4.50
  -4  -6  -4   25.80    4.40
  -4  -6  -4   38.10    4.60
   4   6   4   30.00    4.30
   4   6   4   31.90    4.40
  -5  -6  -4  366.76   18.90
  -5  -6  -4  380.26   20.30
   5   6   4  369.36   20.80
  -6  -6  -4    7.50    3.70
  -6  -6  -4    4.30    2.50
   6   6   4    9.80    3.40
  -7  -6  -4    0.60    3.40
   7   6   4    1.60    2.80
  -8  -6  -4  384.26   22.80
   8   6   4  371.36   23.10
  -9  -6  -4   23.10    5.90
   9   6   4   14.10    5.00
  -6   7   4  161.18   16.70
  -6   7   4  162.48   13.90
   5  -7  -4    8.50    3.80
  -5   7   4    9.90    4.50
  -5   7   4   10.30    5.90
   4  -7  -4  128.09    9.30
  -4   7   4  101.69   12.00
  -4   7   4   99.79    9.80
   3  -7  -4    2.50    3.00
  -3   7   4    3.30    4.30
  -3   7   4    4.70    3.30
   2  -7  -4  139.49    9.20
  -2   7   4  125.59   11.90
  -2   7   4   99.19    9.20
   1  -7  -4 1450.65   64.29
  -1   7   4 1409.96   70.19
  -1   7   4 1511.95   84.89
   0  -7  -4  190.98   11.80
   0   7   4  213.48   12.20
   0   7   4  177.78   14.70
  -1  -7  -4  118.59    6.80
  -1  -7  -4  114.39    8.50
   1   7   4  125.89    8.60
   1   7   4  125.79   10.50
  -2  -7  -4 3470.45  147.09
  -2  -7  -4 3438.26  150.18
   2   7   4 3500.75  160.58
   2   7   4 3401.86  191.78
  -3  -7  -4  809.82   38.60
  -3  -7  -4  873.71   38.50
   3   7   4  822.92   48.30
   3   7   4  834.72   41.30
  -4  -7  -4   51.49    5.80
  -4  -7  -4   58.69    6.30
   4   7   4   55.49    5.90
  -5  -7  -4   13.10    3.90
  -5  -7  -4   12.00    3.50
   5   7   4   11.10    3.60
  -6  -7  -4   66.09    7.10
  -6  -7  -4   56.69    7.20
   6   7   4   61.89    7.50
  -7  -7  -4   54.59    7.40
   7   7   4   42.50    6.90
  -8  -7  -4    6.80    4.00
   8   7   4    4.60    3.60
  -6   8   4    3.00    3.50
  -6   8   4    6.80    5.30
   5  -8  -4   18.00    4.80
  -5   8   4   13.70    5.20
  -5   8   4   20.70    7.30
   4  -8  -4  251.37   14.90
  -4   8   4  243.98   20.40
  -4   8   4  220.08   16.60
   3  -8  -4   68.19    7.60
  -3   8   4   57.79    8.20
  -3   8   4   63.69   10.30
   2  -8  -4   -2.00    2.10
  -2   8   4   -0.50    3.90
  -2   8   4    2.60    2.90
   1  -8  -4  227.08   13.60
  -1   8   4  223.48   17.60
  -1   8   4  213.28   14.30
   0  -8  -4   19.30    4.10
   0   8   4   40.60    5.20
   0   8   4   20.10    5.40
  -1  -8  -4   53.79    6.20
   1   8   4   57.49    6.00
   1   8   4   58.79    7.80
  -2  -8  -4   50.29    6.20
  -2  -8  -4   41.00    4.30
   2   8   4   49.80    5.90
   2   8   4   40.60    6.20
  -3  -8  -4 1599.64   72.69
  -3  -8  -4 1603.14   71.99
   3   8   4 1634.84   78.09
   3   8   4 1682.53   92.99
  -4  -8  -4   11.20    3.30
  -4  -8  -4   14.00    3.80
   4   8   4   13.30    3.50
  -5  -8  -4  354.66   19.10
  -5  -8  -4  366.46   19.50
   5   8   4  327.17   19.90
  -6  -8  -4  196.88   12.80
  -6  -8  -4  193.48   13.60
   6   8   4  211.18   13.80
  -7  -8  -4    3.20    3.70
   7   8   4    2.80    2.70
  -8  -8  -4   21.30    5.70
   8   8   4   15.20    4.40
  -5   9   4   -0.90    3.50
  -5   9   4    0.10    5.00
   4  -9  -4  325.67   18.60
  -4   9   4  271.27   20.60
  -4   9   4  343.57   25.90
   3  -9  -4 1036.00   46.00
  -3   9   4  843.92   50.29
  -3   9   4 1039.90   61.49
   2  -9  -4  182.38   12.60
  -2   9   4  197.88   16.90
  -2   9   4  172.18   13.80
   1  -9  -4  262.57   15.80
  -1   9   4  267.77   17.10
  -1   9   4  272.27   20.50
   0  -9  -4  522.65   27.80
   0   9   4  559.34   35.80
   0   9   4  584.24   29.70
  -1  -9  -4    5.40    3.30
   1   9   4    9.10    2.90
   1   9   4    1.50    3.50
  -2  -9  -4   70.89    7.90
   2   9   4   64.99    7.90
   2   9   4   64.99    7.50
  -3  -9  -4   41.10    5.90
   3   9   4   46.10    6.10
  -4  -9  -4   -2.90    2.70
  -4  -9  -4    0.10    2.60
   4   9   4   -0.50    2.10
  -5  -9  -4  269.47   16.10
  -5  -9  -4  261.77   15.60
   5   9   4  254.37   16.40
  -6  -9  -4   31.70    5.70
  -6  -9  -4   47.10    6.70
   6   9   4   27.90    5.50
  -7  -9  -4   18.40    5.20
  -7  -9  -4   14.00    4.30
   7   9   4   18.10    4.70
  -8  -9  -4   39.60    7.10
   8   9   4   30.90    6.40
   4 -10  -4   18.30    5.20
  -4  10   4    2.30    4.30
  -4  10   4   15.00    6.80
   3 -10  -4  226.28   14.70
  -3  10   4  214.78   16.60
  -3  10   4  207.18   19.60
   2 -10  -4  281.47   17.10
  -2  10   4  270.27   18.60
  -2  10   4  264.67   22.10
   1 -10  -4   66.39    8.30
  -1  10   4   83.79    9.70
  -1  10   4   76.99   11.10
   0 -10  -4  237.88   15.40
   0  10   4  260.67   16.00
   0  10   4  235.08   19.20
  -1 -10  -4  227.78   15.40
   1  10   4  256.07   19.00
   1  10   4  267.97   15.80
  -2 -10  -4    9.90    3.90
   2  10   4   -2.20    2.30
   2  10   4    2.70    3.70
  -3 -10  -4   97.69    9.20
   3  10   4   97.69    8.70
  -4 -10  -4  343.17   19.90
   4  10   4  344.77   20.40
  -5 -10  -4   69.99    7.70
  -5 -10  -4   69.09    8.60
   5  10   4   82.09    8.20
  -6 -10  -4  457.45   24.10
  -6 -10  -4  411.96   23.80
   6  10   4  432.96   25.20
  -7 -10  -4  119.19   10.50
  -7 -10  -4  102.39   10.90
   7  10   4  110.19   10.40
  -4  11   4   82.79   13.70
  -4  11   4   71.89   11.20
   3 -11  -4    3.70    4.00
  -3  11   4   11.10    6.20
  -3  11   4    3.40    3.80
   2 -11  -4   93.99   10.20
  -2  11   4   77.99   12.40
  -2  11   4   84.99   10.60
   1 -11  -4  114.89   11.50
  -1  11   4  114.39   10.80
  -1  11   4  105.59   12.80
   0 -11  -4   97.99   10.60
   0  11   4   89.99   11.40
   0  11   4  109.49    9.60
  -1 -11  -4   42.70    7.40
   1  11   4   39.80    6.40
   1  11   4   40.60    7.70
  -2 -11  -4  181.08   14.10
   2  11   4  214.88   14.30
  -3 -11  -4   31.60    6.00
   3  11   4   33.80    5.90
  -4 -11  -4  130.59   11.40
   4  11   4  130.49   11.10
  -5 -11  -4  143.69   12.10
   5  11   4  143.89   11.80
  -6 -11  -4  151.98   12.20
   6  11   4  143.89   12.30
  -7 -11  -4  135.59   12.20
   7  11   4  142.09   12.30
   2 -12  -4   69.39    9.10
  -2  12   4   56.49   11.10
  -2  12   4   52.59    8.90
   1 -12  -4    6.30    4.80
  -1  12   4    6.70    4.00
  -1  12   4    7.50    5.50
   0 -12  -4  269.97   17.90
   0  12   4  245.38   20.90
   0  12   4  260.97   17.50
  -1 -12  -4  218.98   15.60
   1  12   4  202.58   14.70
  -2 -12  -4  215.18   16.00
   2  12   4  238.98   15.50
  -3 -12  -4  422.96   24.70
   3  12   4  436.96   25.40
  -4 -12  -4  179.18   14.20
   4  12   4  182.08   13.70
  -5 -12  -4   44.10    7.80
   5  12   4   29.70    6.10
  -6 -12  -4   35.00    7.00
   6  12   4   46.80    7.30
   1 -13  -4   67.29    9.80
  -1  13   4   70.49   11.70
  -1  13   4   59.69    9.40
   0 -13  -4    4.20    4.90
   0  13   4    2.80    3.60
   0  13   4    2.00    4.60
  -1 -13  -4  134.29   12.80
   1  13   4  134.49   11.70
  -2 -13  -4   68.09    9.60
   2  13   4   69.89    8.80
  -3 -13  -4  146.29   13.30
   3  13   4  157.08   12.80
  -4 -13  -4  289.77   20.00
   4  13   4  306.87   20.10
   2  10  -5  118.09   11.00
  -2 -10   5  120.59   12.50
   1  10  -5   24.80    5.90
  -1 -10   5   27.50    6.60
   0  10  -5   20.70    5.80
  -4  -9   5  112.69   12.70
   3   9  -5  439.86   24.90
  -3  -9   5  416.46   24.90
   2   9  -5    7.00    3.40
  -2  -9   5   14.60    5.20
   1   9  -5   63.79    8.60
  -1  -9   5   60.09    8.60
   0   9  -5   63.79    8.90
  -1   9  -5   66.39    9.10
   1  -9   5   55.29   12.10
  -2   9  -5   32.50    7.40
   2  -9   5   18.60    8.40
   5   8  -5    3.60    2.80
  -5  -8   5    5.40    4.40
   4   8  -5   -0.50    2.10
  -4  -8   5    0.00    4.00
   3   8  -5  479.95   25.20
   3   8  -5  493.95   27.00
  -3  -8   5  485.55   26.90
   2   8  -5  204.38   14.80
  -2  -8   5  281.47   16.50
   1   8  -5    1.70    3.00
  -1  -8   5    1.60    3.90
   0   8  -5   25.20    5.30
   0  -8   5   37.90    6.10
  -1   8  -5  197.58   14.50
   1  -8   5  179.38   19.50
  -2   8  -5  429.06   23.50
   2  -8   5  263.77   28.00
  -3   8  -5   14.90    5.80
   3  -8   5   10.60    7.90
  -4   8  -5  111.49   11.80
  -6  -7   5   -0.30    3.40
  -6  -7   5   -8.40    3.30
   5   7  -5   20.30    4.50
  -5  -7   5   17.70    5.30
   4   7  -5   26.40    4.50
   4   7  -5   18.50    5.00
  -4  -7   5   24.30    5.70
   3   7  -5   38.50    5.30
   3   7  -5   50.49    6.30
  -3  -7   5   43.10    7.10
   2   7  -5  459.65   25.40
   2   7  -5  467.05   24.20
  -2  -7   5  482.35   25.10
   1   7  -5   69.49    7.10
   1   7  -5   56.29    6.70
  -1  -7   5   67.09    8.00
   0   7  -5    5.90    3.20
   0  -7   5    0.80    4.00
   0  -7   5   10.00    3.70
  -1   7  -5  294.17   18.20
   1  -7   5  262.37   23.70
  -2   7  -5  389.66   22.10
   2  -7   5  293.77   27.70
  -3   7  -5   53.09    8.60
   3  -7   5   46.30   11.70
  -4   7  -5  108.09   10.90
   4  -7   5   64.99   14.10
  -5   7  -5   44.40    8.30
   5  -7   5   17.00    9.90
  -6  -6   5   -0.90    3.30
  -6  -6   5   -1.00    3.70
  -5  -6   5  223.38   15.60
  -5  -6   5  263.77   16.10
   4   6  -5   79.39    6.70
   4   6  -5   76.99    7.40
  -4  -6   5   53.99    7.20
   3   6  -5    1.00    1.80
   3   6  -5    0.50    2.50
  -3  -6   5    0.30    3.50
   2   6  -5   22.30    4.20
   2   6  -5   17.00    3.60
  -2  -6   5   15.60    4.30
   1   6  -5   39.10    5.30
   1   6  -5   60.59    5.90
  -1  -6   5   44.90    7.80
  -1  -6   5   54.29    6.70
   0   6  -5  236.08   14.00
   0   6  -5  235.58   14.70
   0  -6   5  237.28   13.80
   0  -6   5  206.28   18.70
  -1   6  -5   34.00    5.10
  -1   6  -5   33.30    5.70
   1  -6   5   32.60    5.00
   1  -6   5   10.70    6.30
  -2   6  -5  176.38   13.20
   2  -6   5  199.48   19.00
  -3   6  -5    2.80    3.40
   3  -6   5    8.50    6.70
  -4   6  -5   22.90    6.00
   4  -6   5    5.70    7.20
  -5   6  -5  105.29   11.00
   5  -6   5   80.19   16.40
  -7  -5   5  275.77   17.30
  -7  -5   5  245.28   17.20
  -6  -5   5    1.00    3.90
  -6  -5   5    0.20    3.30
  -5  -5   5   54.59    7.30
  -5  -5   5   49.30    7.30
   4   5  -5  417.66   22.20
  -4  -5   5  381.06   21.60
   3   5  -5  332.17   18.20
   3   5  -5  322.07   17.20
  -3  -5   5  309.97   18.10
   2   5  -5  414.96   23.10
   2   5  -5  460.55   22.60
  -2  -5   5  462.75   23.10
   1   5  -5  544.95   25.40
   1   5  -5  506.35   26.00
  -1  -5   5  495.65   24.80
  -1  -5   5  456.55   32.30
   0   5  -5    1.10    1.30
   0   5  -5    7.20    2.70
   0  -5   5    0.70    2.70
   0  -5   5    7.80    4.80
  -1   5  -5  730.43   34.20
  -1   5  -5  713.03   35.70
   1  -5   5  726.03   32.30
   1  -5   5  599.24   44.30
  -2   5  -5    9.60    3.20
  -2   5  -5    2.80    3.00
   2  -5   5   -3.00    4.50
  -3   5  -5   12.60    3.60
  -3   5  -5   19.30    4.80
   3  -5   5    6.20    5.50
  -4   5  -5  335.77   19.80
   4  -5   5  256.37   25.10
  -5   5  -5  271.87   17.60
   5  -5   5  187.28   22.70
  -6   5  -5   90.89   11.00
   6  -5   5   25.10   11.00
  -7  -4   5  267.87   17.30
  -7  -4   5  265.17   17.00
  -6  -4   5    1.40    3.40
  -6  -4   5    0.50    2.90
  -5  -4   5  130.09   10.20
  -5  -4   5   90.99    8.90
   4   4  -5    8.20    2.90
  -4  -4   5    7.30    3.70
  -4  -4   5    5.10    3.50
   3   4  -5   44.60    5.10
   3   4  -5   48.00    5.40
  -3  -4   5   41.50    5.70
   2   4  -5  125.99    8.00
   2   4  -5  109.39    7.80
  -2  -4   5  107.89    8.50
  -2  -4   5  114.29    9.40
   1   4  -5  457.35   24.00
   1   4  -5  491.25   23.60
  -1  -4   5  491.05   30.70
  -1  -4   5  448.46   23.10
   0   4  -5  357.26   19.50
   0   4  -5  368.76   19.70
   0  -4   5  372.86   25.50
   0  -4   5  376.56   18.70
  -1   4  -5   98.39    7.70
   1  -4   5  108.29   11.30
   1  -4   5   99.39    7.20
  -2   4  -5  403.46   19.70
  -2   4  -5  371.26   20.40
   2  -4   5  305.27   26.40
  -3   4  -5   25.50    4.80
  -3   4  -5   18.90    4.00
   3  -4   5   20.00    8.00
  -4   4  -5  156.78   11.90
  -4   4  -5  160.78   10.70
  -5   4  -5  358.56   21.30
   5  -4   5  299.57   28.10
  -6   4  -5  203.78   15.60
   6  -4   5  189.78   22.10
  -7   4  -5  308.27   20.60
   7  -4   5  236.88   27.20
  -7  -3   5  270.97   17.10
  -7  -3   5  279.57   17.20
  -6  -3   5   97.99    8.70
  -6  -3   5   90.89    8.70
  -5  -3   5   52.89    6.90
  -5  -3   5   58.89    7.10
   4   3  -5  331.37   17.60
  -4  -3   5  340.47   18.30
  -4  -3   5  296.17   17.50
   3   3  -5  116.19    7.90
   3   3  -5  130.79    8.30
  -3  -3   5  111.49    8.80
   2   3  -5  147.59    9.00
   2   3  -5  159.58    9.10
  -2  -3   5  141.59   10.80
  -2  -3   5  133.69    9.20
   1   3  -5  453.75   22.40
   1   3  -5  460.35   22.70
  -1  -3   5  438.36   21.90
   0   3  -5   -1.50    1.70
   0   3  -5   -0.60    1.70
   0  -3   5    1.50    3.40
   0  -3   5   -1.90    2.10
  -1   3  -5   62.09    7.10
  -1   3  -5   78.19    6.40
   1  -3   5  103.49   10.50
   1  -3   5   85.59    6.20
  -2   3  -5 2472.15  119.29
  -2   3  -5 2637.44  113.09
   2  -3   5 2328.57  145.19
   2  -3   5 2722.33  107.79
  -3   3  -5   18.10    3.60
  -3   3  -5   15.40    3.50
   3  -3   5   13.70    6.40
  -4   3  -5    2.60    2.00
  -4   3  -5   -1.70    2.30
   4  -3   5   -6.00    4.60
  -5   3  -5    2.10    3.10
  -5   3  -5    1.30    2.10
   5  -3   5    4.90    6.70
  -6   3  -5   77.99    9.80
   6  -3   5  109.29   16.50
  -7   3  -5   12.30    4.60
   7  -3   5    2.50    8.30
  -8  -2   5    2.30    3.40
  -8  -2   5   -1.70    3.30
  -7  -2   5   11.90    4.50
  -7  -2   5   11.30    4.40
  -6  -2   5  220.18   14.20
  -6  -2   5  228.48   14.30
  -5  -2   5    3.60    2.70
  -5  -2   5   -1.90    2.40
   4   2  -5  499.25   24.80
  -4  -2   5  512.65   25.10
  -4  -2   5  454.65   24.20
   3   2  -5   14.20    2.70
  -3  -2   5   13.20    3.30
  -3  -2   5    8.70    3.00
   2   2  -5  137.69    8.20
   2   2  -5  143.49    8.50
  -2  -2   5  127.59   10.10
  -2  -2   5  135.69    9.00
   1   2  -5  518.75   25.70
   1   2  -5  574.14   25.80
  -1  -2   5  505.15   24.80
   0   2  -5 1188.48   55.39
   0   2  -5 1247.38   53.89
   0  -2   5 1159.48   51.19
   0  -2   5 1105.19   68.39
  -1   2  -5  175.98   12.40
  -1   2  -5  200.48   11.90
   1  -2   5  218.58   11.00
   1  -2   5  261.87   17.30
  -2   2  -5 2692.23  126.59
  -2   2  -5 2777.12  133.69
   2  -2   5 3086.09  163.18
   2  -2   5 2942.61  120.89
  -3   2  -5 2097.59   92.49
  -3   2  -5 2038.30   97.79
  -4   2  -5   11.20    3.20
  -4   2  -5   10.60    3.30
   4  -2   5    6.50    5.10
  -5   2  -5   12.70    4.00
  -5   2  -5   11.10    3.80
   5  -2   5   29.10    9.10
  -6   2  -5  360.16   18.80
  -6   2  -5  297.67   19.60
   6  -2   5  275.77   26.40
  -7   2  -5    0.20    2.80
  -7   2  -5    3.00    3.50
   7  -2   5    5.80    8.10
  -8   2  -5   21.70    5.70
  -8  -1   5    4.10    4.00
  -8  -1   5    2.60    3.70
  -7  -1   5  239.68   15.50
  -7  -1   5  240.98   15.20
  -6  -1   5  100.89    8.90
  -6  -1   5  114.29    9.00
  -5  -1   5   81.59    7.40
  -5  -1   5   81.79    7.50
  -4  -1   5  931.81   42.30
  -4  -1   5  831.12   40.90
  -4  -1   5  932.51   52.79
   3   1  -5 1615.34   70.89
  -3  -1   5 1509.65   86.09
  -3  -1   5 1599.64   66.59
  -3  -1   5 1335.67   67.89
   2   1  -5  202.38   10.60
   2   1  -5  202.08   10.90
  -2  -1   5  198.88   11.30
  -2  -1   5  197.48   13.90
   1   1  -5    2.70    1.40
   1   1  -5    4.90    2.20
  -1  -1   5    3.20    2.20
  -1  -1   5    5.50    2.70
   0   1  -5    3.30    1.70
   0   1  -5   10.00    3.00
   0  -1   5    3.30    2.30
   0  -1   5    3.70    3.20
  -1   1  -5    7.50    3.10
  -1   1  -5    2.90    1.90
   1  -1   5   -0.20    1.80
   1  -1   5   -0.60    3.50
  -2   1  -5  390.36   20.10
  -2   1  -5  374.36   20.10
   2  -1   5  393.26   17.20
  -3   1  -5 1369.96   62.99
  -3   1  -5 1248.88   65.99
   3  -1   5 1560.54   82.29
  -4   1  -5  633.14   30.30
  -4   1  -5  564.94   31.70
   4  -1   5  650.33   40.90
  -5   1  -5    6.60    3.40
  -5   1  -5    4.50    2.80
   5  -1   5    3.70    5.30
  -6   1  -5   60.39    7.40
  -6   1  -5   51.29    7.60
   6  -1   5   55.69   11.30
  -7   1  -5  373.36   23.00
  -7   1  -5  399.26   21.40
   7  -1   5  304.47   29.30
  -8   1  -5   13.20    4.50
  -8   1  -5   23.60    6.00
   8  -1   5   12.50    8.60
  -8   0   5   31.50    6.30
  -8   0   5   32.80    6.00
  -7   0   5  104.69    9.20
  -7   0   5  106.89    9.10
  -6   0   5  238.38   14.20
  -6   0   5  226.58   14.40
  -5   0   5   60.89    6.50
  -5   0   5   45.60    5.80
   4   0  -5  222.68   12.40
  -4   0   5  258.17   16.50
  -4   0   5  215.28   12.90
  -4   0   5  206.28   12.80
   3   0  -5 2409.66  106.39
  -3   0   5 2277.77   98.69
  -3   0   5 2449.05  101.79
  -3   0   5 2056.69  128.69
   2   0  -5 1386.96   61.19
   2   0  -5 1353.86   58.89
  -2   0   5 1412.36   57.89
  -2   0   5 1135.49   74.89
   1   0  -5  110.49    5.70
   1   0  -5  112.39    7.20
  -1   0   5  111.99    9.00
  -1   0   5  105.29    7.10
   0   0  -5  919.41   41.30
   0   0  -5  894.31   40.80
   0   0   5  865.91   51.09
   0   0   5  852.41   38.60
  -1   0  -5   62.49    4.80
  -1   0  -5   51.79    5.80
   1   0   5   66.39    8.10
   1   0   5   73.39    4.60
  -2   0  -5  143.39    9.60
  -2   0  -5  142.79    8.90
   2   0   5  172.98   13.00
   2   0   5  123.69    6.70
  -3   0  -5  113.19    8.50
  -3   0  -5  112.59    8.30
  -4   0  -5  664.83   34.10
  -4   0  -5  680.33   32.50
   4   0   5  655.33   42.40
  -5   0  -5  363.96   20.70
  -5   0  -5  366.06   19.50
   5   0   5  328.17   26.10
  -6   0  -5  377.06   21.70
  -6   0  -5  404.26   20.60
   6   0   5  283.07   26.60
  -7   0  -5    5.20    3.60
  -7   0  -5    0.50    3.00
   7   0   5    5.20    7.20
  -8   0  -5    0.20    2.80
  -8   0  -5    0.20    2.90
   8   0   5   -0.60    6.10
  -8   1   5   59.79    8.00
  -8   1   5   69.09    8.40
  -7   1   5    4.90    3.30
  -7   1   5    3.40    3.30
  -6   1   5  121.69    9.50
  -6   1   5  116.39    9.10
  -5   1   5    2.40    2.40
  -5   1   5    4.90    3.10
  -5   1   5    4.10    2.70
  -4   1   5  531.85   28.40
  -4   1   5  597.14   27.90
  -4   1   5  577.84   27.30
  -4   1   5  587.34   35.50
  -3   1   5  254.17   13.50
  -3   1   5  243.78   13.30
   2  -1  -5 1697.83   75.59
   2  -1  -5 1646.04   72.39
  -2   1   5 1603.24   70.79
  -2   1   5 1612.44   93.09
   1  -1  -5    1.80    1.70
  -1   1   5   -3.10    2.00
  -1   1   5    2.70    2.00
   0  -1  -5  109.79    7.10
   0  -1  -5  105.99    5.40
   0   1   5   92.69    8.50
   0   1   5  102.19    6.20
  -1  -1  -5  628.94   29.30
  -1  -1  -5  583.44   29.10
   1   1   5  635.74   36.50
   1   1   5  598.04   26.80
  -2  -1  -5  156.68    9.60
  -2  -1  -5  150.98    8.90
   2   1   5  142.09    7.10
   2   1   5  123.29   12.20
  -3  -1  -5  990.80   43.70
  -3  -1  -5  936.71   45.50
   3   1   5  878.21   55.49
  -4  -1  -5  239.28   13.20
  -4  -1  -5  208.58   13.40
   4   1   5  204.28   16.80
  -5  -1  -5   -1.70    2.40
  -5  -1  -5    2.10    2.70
   5   1   5    4.00    4.30
  -6  -1  -5  856.61   41.40
  -6  -1  -5  858.31   43.90
   6   1   5  822.12   53.29
  -7  -1  -5  464.15   25.20
  -7  -1  -5  506.85   27.30
   7   1   5  389.06   32.20
  -8  -1  -5   58.99    8.20
  -8  -1  -5   42.20    7.60
  -8   2   5  427.86   23.90
  -7   2   5   82.99    8.20
  -7   2   5   91.69    8.40
  -6   2   5  151.58   10.50
  -6   2   5  145.89   13.40
  -6   2   5  139.79   10.30
  -5   2   5  220.18   13.20
  -5   2   5  231.48   13.30
  -4   2   5   -1.50    2.20
  -4   2   5   -1.90    2.00
  -4   2   5   -1.50    2.00
  -4   2   5    1.10    1.70
  -3   2   5  111.69    7.10
  -3   2   5  117.09    8.10
  -3   2   5  131.29    7.90
  -3   2   5  121.19   10.60
   2  -2  -5   37.40    3.70
  -2   2   5   32.50    4.20
  -2   2   5   39.30    5.90
  -2   2   5   33.40    2.70
   1  -2  -5  318.27   15.50
  -1   2   5  312.37   20.40
  -1   2   5  316.87   15.40
   0  -2  -5 3458.45  143.49
   0   2   5 3089.29  182.38
   0   2   5 3288.87  150.28
   0   2   5 3311.07  138.39
  -1  -2  -5  474.85   22.10
  -1  -2  -5  448.56   22.30
   1   2   5  455.75   20.40
   1   2   5  429.26   27.50
  -2  -2  -5   26.00    4.00
  -2  -2  -5   28.40    2.70
  -2  -2  -5   26.40    3.50
   2   2   5   30.20    4.80
  -3  -2  -5 1533.45   67.39
  -3  -2  -5 1517.25   70.79
  -3  -2  -5 1431.16   62.79
  -4  -2  -5    1.40    2.40
  -4  -2  -5   -1.80    2.40
   4   2   5   -0.20    3.40
  -5  -2  -5   18.90    4.40
  -5  -2  -5   14.10    3.80
   5   2   5   37.90    6.60
  -6  -2  -5  457.15   25.10
  -6  -2  -5  439.96   23.40
   6   2   5  393.96   29.20
  -7  -2  -5  491.55   27.70
  -7  -2  -5  486.85   25.80
   7   2   5  416.66   32.00
  -8  -2  -5   47.60    8.10
  -8  -2  -5   47.10    7.80
  -7   3   5  247.98   16.00
  -7   3   5  252.27   15.30
  -6   3   5   32.00    6.90
  -6   3   5   44.90    5.70
  -6   3   5   51.59    6.30
  -5   3   5  169.68   14.30
  -5   3   5  162.68   10.90
  -5   3   5  141.69   10.10
  -4   3   5  186.98   11.80
  -4   3   5  205.58   11.90
  -4   3   5  213.98   16.10
  -3   3   5    5.10    3.30
  -3   3   5    0.60    1.60
  -3   3   5    5.30    1.90
  -3   3   5    0.80    1.90
   2  -3  -5  123.79    6.90
  -2   3   5  124.89    7.90
  -2   3   5  102.79    6.70
  -2   3   5  126.39   10.80
   1  -3  -5 1636.74   70.49
  -1   3   5 1578.64   91.09
  -1   3   5 1639.44   73.99
  -1   3   5 1551.24   68.89
   0  -3  -5 1725.93   73.69
   0   3   5 1621.04   71.29
   0   3   5 1615.54   93.99
   0   3   5 1694.03   76.89
  -1  -3  -5 1463.35   64.49
   1   3   5 1439.26   67.09
   1   3   5 1454.55   81.89
   1   3   5 1427.46   61.89
  -2  -3  -5  327.97   15.70
  -2  -3  -5  351.36   17.50
   2   3   5  333.37   21.40
   2   3   5  336.37   17.20
  -3  -3  -5  353.16   16.80
  -3  -3  -5  382.16   19.30
  -3  -3  -5  387.56   20.00
   3   3   5  369.06   23.30
  -4  -3  -5  649.83   31.90
  -4  -3  -5  673.33   33.70
  -4  -3  -5  649.74   28.70
  -5  -3  -5  360.56   19.40
  -5  -3  -5  337.47   20.00
  -6  -3  -5   26.60    5.10
  -6  -3  -5   31.80    5.80
   6   3   5   18.70    6.10
  -7  -3  -5  725.93   40.00
  -7  -3  -5  763.22   37.90
  -8  -3  -5  115.89   10.30
  -8  -3  -5  106.29   10.70
  -9  -3  -5   75.19    9.80
  -9  -3  -5   75.79   10.50
  -7   4   5  109.49    9.40
  -7   4   5  110.89   12.80
  -6   4   5   70.69    7.40
  -6   4   5   64.89   10.20
  -5   4   5   65.79    9.60
  -5   4   5   68.19    6.10
  -5   4   5   53.19    6.30
  -5   4   5   62.19    6.40
  -4   4   5   59.49    6.20
  -4   4   5   54.89    5.10
  -4   4   5   46.90    5.60
  -4   4   5   50.59    8.10
  -3   4   5   20.00    3.60
  -3   4   5   21.30    3.40
  -3   4   5   18.10    5.00
   2  -4  -5  172.58    9.00
  -2   4   5  167.98   13.80
  -2   4   5  189.58   10.10
  -2   4   5  161.48   10.20
   1  -4  -5  171.18    9.30
  -1   4   5  186.78   13.80
  -1   4   5  167.78    9.50
  -1   4   5  170.38   10.00
   0  -4  -5  185.08    9.80
   0   4   5  160.18    9.40
   0   4   5  191.88   10.00
   0   4   5  165.78   13.00
  -1  -4  -5 1389.06   58.89
  -1  -4  -5 1433.76   60.79
   1   4   5 1329.17   77.29
   1   4   5 1296.47   63.39
  -2  -4  -5 1787.52   80.09
  -2  -4  -5 1926.71   83.29
   2   4   5 1925.71  105.69
  -3  -4  -5    3.80    1.80
  -3  -4  -5    3.40    2.90
   3   4   5   -0.40    2.60
   3   4   5    0.40    2.00
  -4  -4  -5  118.09    6.80
  -4  -4  -5  106.89    8.40
   4   4   5  112.59    8.30
   4   4   5  113.09    9.40
  -5  -4  -5  444.06   23.80
   5   4   5  464.95   28.30
  -6  -4  -5   26.80    5.40
  -7  -4  -5  253.17   16.30
  -8  -4  -5  345.87   21.30
  -9  -4  -5    2.00    3.60
   9   4   5    2.70    3.70
  -7   5   5    1.10    4.40
  -6   5   5   -0.20    2.90
  -6   5   5   -0.30    3.80
  -5   5   5  508.05   27.50
  -5   5   5  488.95   25.20
  -5   5   5  506.85   34.30
  -4   5   5  199.48   13.20
  -4   5   5  219.28   12.80
  -4   5   5  222.88   17.90
   3  -5  -5   12.70    2.10
  -3   5   5    8.40    4.50
  -3   5   5   13.40    3.00
  -3   5   5    9.80    3.10
   2  -5  -5 1529.45   70.49
  -2   5   5 1681.83   76.29
  -2   5   5 1638.24   93.09
  -2   5   5 1605.14   70.29
   1  -5  -5  145.79    7.90
  -1   5   5  150.68    9.10
  -1   5   5  143.29   12.30
  -1   5   5  132.69    8.80
   0  -5  -5  405.56   18.70
   0  -5  -5  394.36   19.20
   0   5   5  367.86   24.90
  -1  -5  -5  243.38   12.60
  -1  -5  -5  236.08   12.40
   1   5   5  225.18   12.50
   1   5   5  229.08   16.30
  -2  -5  -5  522.05   24.40
  -2  -5  -5  518.35   25.00
   2   5   5  515.75   31.60
   2   5   5  529.55   26.00
  -3  -5  -5  189.38   10.20
  -3  -5  -5  160.98   10.90
   3   5   5  188.48   13.00
   3   5   5  191.68   11.10
  -4  -5  -5  100.79    6.70
  -4  -5  -5  100.79    7.80
   4   5   5   97.69    8.40
   4   5   5  101.39    7.70
  -5  -5  -5  176.78   11.70
  -5  -5  -5  191.98   10.10
   5   5   5  161.98   12.50
   5   5   5  169.88   11.70
  -6  -5  -5    0.30    2.90
   6   5   5    1.20    2.40
  -7  -5  -5   47.10    7.10
   7   5   5   54.39    7.60
  -8  -5  -5  254.67   17.40
   8   5   5  260.67   17.80
  -9  -5  -5   64.89    9.30
   9   5   5   68.09    9.80
  -7   6   5    4.90    5.40
  -6   6   5   36.10    8.50
  -6   6   5   32.20    5.50
  -5   6   5   13.70    4.20
  -5   6   5   13.30    4.00
  -5   6   5   15.80    6.10
  -4   6   5  651.53   31.80
  -4   6   5  700.03   43.40
  -4   6   5  649.04   34.90
  -3   6   5  100.39   11.20
  -3   6   5  111.09    8.80
  -3   6   5  121.59    8.50
   2  -6  -5  260.47   13.00
  -2   6   5  256.07   15.30
  -2   6   5  287.27   20.20
   1  -6  -5 1386.36   58.89
   1  -6  -5 1377.76   59.29
  -1   6   5 1250.17   63.99
  -1   6   5 1351.26   78.09
   0  -6  -5  943.31   43.40
   0  -6  -5  927.61   42.90
   0   6   5  961.30   56.99
   0   6   5 1032.30   46.50
  -1  -6  -5   38.10    4.00
  -1  -6  -5   33.60    4.50
   1   6   5   39.60    6.20
  -2  -6  -5 2990.00  131.49
  -2  -6  -5 2970.20  127.99
   2   6   5 3008.40  167.58
   2   6   5 3061.29  139.79
  -3  -6  -5  204.18   12.00
  -3  -6  -5  211.68   11.80
   3   6   5  207.28   12.30
   3   6   5  210.58   14.50
  -4  -6  -5  187.38   10.70
  -4  -6  -5  189.78   11.80
   4   6   5  173.98   13.00
   4   6   5  194.38   11.90
  -5  -6  -5   14.00    4.00
  -5  -6  -5   13.00    3.20
   5   6   5   11.40    3.40
  -6  -6  -5  145.19   10.80
   6   6   5  138.59   10.50
  -7  -6  -5  321.57   19.60
   7   6   5  315.27   19.70
  -8  -6  -5  137.49   12.10
   8   6   5  137.89   12.00
   6  -7  -5   10.00    4.30
  -6   7   5    2.90    4.80
   5  -7  -5   92.49    9.30
  -5   7   5  100.19   12.60
   4  -7  -5  474.85   23.80
  -4   7   5  428.46   31.80
   3  -7  -5  192.28   11.90
  -3   7   5  163.68   12.10
  -3   7   5  181.28   15.90
   2  -7  -5   69.49    7.00
  -2   7   5   54.09    6.90
  -2   7   5   65.19    9.30
   1  -7  -5   19.70    4.10
  -1   7   5   26.20    5.70
   0  -7  -5   74.09    6.70
   0  -7  -5   72.29    4.70
   0   7   5   87.09    9.00
   0   7   5   79.19    6.30
  -1  -7  -5  144.89    9.70
  -1  -7  -5  129.69    7.80
   1   7   5  135.49   11.60
   1   7   5  150.68    9.40
  -2  -7  -5  283.17   14.70
  -2  -7  -5  277.57   15.40
   2   7   5  281.57   15.80
   2   7   5  289.47   19.30
  -3  -7  -5  889.51   40.70
  -3  -7  -5  863.91   41.20
   3   7   5  938.51   43.90
   3   7   5  871.71   51.79
  -4  -7  -5  144.99    9.60
  -4  -7  -5  151.48   10.20
   4   7   5  156.98   10.30
  -5  -7  -5  238.98   14.50
  -5  -7  -5  216.98   13.20
   5   7   5  237.78   14.60
  -6  -7  -5   34.30    5.90
  -6  -7  -5   25.80    4.50
   6   7   5   27.50    4.90
  -7  -7  -5   86.89   10.00
   7   7   5  108.39    9.30
  -8  -7  -5  282.07   18.50
   8   7   5  270.87   18.40
  -6   8   5   80.59   13.60
   5  -8  -5   24.60    5.20
  -5   8   5   23.70    5.90
  -5   8   5   23.00    7.50
   4  -8  -5   20.50    5.10
  -4   8   5   15.80    4.80
  -4   8   5   29.80    7.40
   3  -8  -5  585.44   28.80
  -3   8   5  543.35   31.40
  -3   8   5  596.24   38.90
   2  -8  -5    4.00    3.10
  -2   8   5   13.90    3.80
  -2   8   5   10.60    5.10
   1  -8  -5   22.80    4.40
  -1   8   5   16.30    5.10
  -1   8   5   37.70    5.60
   0  -8  -5    1.40    2.50
   0   8   5    0.50    2.10
   0   8   5    0.50    3.40
  -1  -8  -5  410.36   21.30
   1   8   5  369.06   26.50
   1   8   5  447.16   22.30
  -2  -8  -5 1073.59   50.59
  -2  -8  -5 1171.28   51.39
   2   8   5 1183.48   55.19
   2   8   5 1097.69   65.49
  -3  -8  -5    0.40    2.50
  -3  -8  -5    1.00    2.50
   3   8   5    3.80    3.10
   3   8   5    0.00    2.10
  -4  -8  -5   85.39    7.30
  -4  -8  -5   80.49    7.40
   4   8   5   90.99    7.60
  -5  -8  -5  332.17   19.30
  -5  -8  -5  362.26   18.90
   5   8   5  343.17   20.00
  -6  -8  -5  266.07   16.60
   6   8   5  262.57   16.70
  -7  -8  -5   12.00    4.70
   7   8   5    8.70    3.90
  -8  -8  -5   46.90    8.00
   8   8   5   52.09    8.00
   5  -9  -5   11.00    4.50
  -5   9   5   16.00    5.30
  -5   9   5   19.80    7.70
   4  -9  -5   -1.00    3.10
  -4   9   5    3.50    5.10
  -4   9   5    3.00    3.60
   3  -9  -5  181.58   12.50
  -3   9   5  158.88   13.40
  -3   9   5  178.28   16.80
   2  -9  -5  280.47   16.70
  -2   9   5  293.57   22.10
  -2   9   5  248.68   17.60
   1  -9  -5   85.09    8.60
  -1   9   5   85.29   10.20
  -1   9   5   82.49    8.10
   0  -9  -5   -1.10    2.90
   0   9   5   11.10    3.40
   0   9   5    4.40    4.10
  -1  -9  -5    2.00    2.90
   1   9   5    5.80    3.80
   1   9   5    2.90    2.50
  -2  -9  -5  936.01   43.50
   2   9   5  926.41   54.99
   2   9   5  913.71   46.20
  -3  -9  -5  873.71   42.00
  -3  -9  -5  905.41   42.30
   3   9   5  902.51   45.00
  -4  -9  -5   10.80    3.70
  -4  -9  -5   16.00    3.60
   4   9   5   11.10    3.30
  -5  -9  -5  317.57   18.20
  -5  -9  -5  326.07   18.20
   5   9   5  310.27   19.00
  -6  -9  -5  477.75   25.00
  -6  -9  -5  399.56   23.60
   6   9   5  480.85   26.00
  -7  -9  -5  151.68   12.50
   7   9   5  178.18   13.20
  -8  -9  -5   36.70    6.80
   8   9   5   27.10    5.70
   4 -10  -5  194.68   14.20
  -4  10   5  212.28   19.80
  -4  10   5  174.28   15.40
   3 -10  -5  126.69   10.80
  -3  10   5  119.59   11.50
  -3  10   5  105.69   13.50
   2 -10  -5   78.39    8.70
  -2  10   5   82.59   10.10
  -2  10   5   70.09   10.90
   1 -10  -5   21.50    5.00
  -1  10   5   24.10    7.10
  -1  10   5   28.20    5.60
   0 -10  -5  185.38   13.20
   0  10   5  198.68   13.00
   0  10   5  170.88   16.10
  -1 -10  -5   45.20    6.90
   1  10   5   53.89    8.40
   1  10   5   55.09    6.60
  -2 -10  -5    4.10    3.70
   2  10   5   -2.20    3.20
   2  10   5    3.80    3.10
  -3 -10  -5  440.96   24.10
   3  10   5  452.55   25.10
  -4 -10  -5   53.79    7.30
   4  10   5   72.49    8.10
  -5 -10  -5   16.70    4.30
  -5 -10  -5   17.10    4.50
   5  10   5   26.10    5.40
  -6 -10  -5  333.07   19.80
  -6 -10  -5  328.27   19.70
   6  10   5  349.07   21.00
  -7 -10  -5  284.47   18.10
   7  10   5  282.97   18.70
   4 -11  -5   37.30    6.90
  -4  11   5   36.40    9.80
  -4  11   5   25.10    7.10
   3 -11  -5  294.57   18.30
  -3  11   5  279.27   20.10
  -3  11   5  275.27   23.90
   2 -11  -5   38.20    6.70
  -2  11   5   27.30    8.20
  -2  11   5   36.90    7.30
   1 -11  -5   -2.30    3.00
  -1  11   5    2.00    3.10
  -1  11   5   -0.40    3.90
   0 -11  -5  480.85   26.30
   0  11   5  475.45   33.10
   0  11   5  485.05   27.00
  -1 -11  -5  276.37   17.70
   1  11   5  284.97   17.30
   1  11   5  263.37   20.90
  -2 -11  -5  214.48   15.00
   2  11   5  218.38   14.50
  -3 -11  -5  177.68   13.40
   3  11   5  206.28   13.90
  -4 -11  -5   36.90    6.60
   4  11   5   31.80    6.10
  -5 -11  -5  225.88   15.60
   5  11   5  225.08   15.50
  -6 -11  -5   61.99    8.80
   6  11   5   63.59    8.50
  -7 -11  -5   64.99    8.80
   7  11   5   73.49    9.30
   2 -12  -5   41.50    7.60
  -2  12   5   46.00   10.00
  -2  12   5   45.60    8.20
   1 -12  -5  109.49   11.60
  -1  12   5  102.79   13.30
  -1  12   5  121.19   11.20
   0 -12  -5    9.90    4.80
   0  12   5    4.20    5.10
   0  12   5   10.50    3.90
  -1 -12  -5  164.88   13.70
   1  12   5  166.28   12.70
   1  12   5  173.28   15.90
  -2 -12  -5   81.09   10.40
   2  12   5   88.99    8.70
  -3 -12  -5  155.88   12.60
   3  12   5  132.09   11.30
  -4 -12  -5  186.88   14.30
   4  12   5  187.78   14.20
  -5 -12  -5    8.90    4.60
   5  12   5   11.70    4.60
  -6 -12  -5  129.29   12.20
   6  12   5  140.19   12.10
   1 -13  -5    2.30    4.50
  -1  13   5    2.70    3.80
  -1  13   5   -0.20    4.90
   0 -13  -5  130.89   13.80
   0  13   5  175.68   13.30
   0  13   5  130.69   15.00
  -1 -13  -5   11.80    5.80
   1  13   5   10.10    4.20
  -2 -13  -5   19.70    5.70
   2  13   5   27.10    5.60
  -3 -13  -5   57.49    9.10
   3  13   5   62.39    8.60
  -4 -13  -5    5.70    4.70
   4  13   5   17.40    5.30
  -5 -13  -5    1.90    4.10
  -2  -9   6  395.36   23.70
   1   9  -6    0.80    3.30
  -1  -9   6   -1.40    4.10
   0   9  -6   -0.70    2.90
  -1   9  -6   50.69    8.00
   1  -9   6   43.40   11.40
   4   8  -6   23.20    4.80
  -4  -8   6   27.40    6.30
   3   8  -6   55.19    6.90
  -3  -8   6   59.09    8.30
  -2  -8   6  485.85   26.90
   1   8  -6   46.60    6.80
  -1  -8   6   53.19    7.70
   0   8  -6   33.70    6.30
  -1   8  -6   45.00    7.10
   1  -8   6   41.30   10.70
  -2   8  -6  150.98   12.70
   2  -8   6  116.49   18.40
  -3   8  -6    2.20    3.80
   3  -8   6    3.10    7.10
   5   7  -6   21.00    4.60
  -5  -7   6   20.80    6.00
   4   7  -6   29.50    4.90
  -4  -7   6   44.00    7.30
   3   7  -6   18.50    3.90
  -3  -7   6    4.40    4.50
   2   7  -6   66.19    7.50
   2   7  -6   66.09    6.90
  -2  -7   6   71.79    8.90
   1   7  -6  109.79    9.20
  -1  -7   6   98.89   10.20
   0   7  -6   86.39    8.80
   0  -7   6   99.39    8.90
  -1   7  -6  198.18   13.20
   1  -7   6  126.79   16.50
  -2   7  -6   22.00    5.30
   2  -7   6   31.90   10.20
  -3   7  -6   41.10    7.50
   3  -7   6   35.80   10.90
  -4   7  -6   24.40    6.20
   4  -7   6   11.50    8.50
   6   6  -6   10.00    3.50
  -6  -6   6    7.30    4.10
   5   6  -6   21.10    4.40
  -5  -6   6   15.00    5.30
   4   6  -6  133.29    9.80
  -4  -6   6  136.19   11.50
   3   6  -6    7.40    2.90
  -3  -6   6   11.10    4.30
   2   6  -6    0.90    2.70
   2   6  -6   -0.50    2.00
  -2  -6   6    4.20    3.70
   1   6  -6   76.19    7.30
   1   6  -6   79.79    7.50
  -1  -6   6   70.29   10.80
  -1  -6   6   80.29    8.60
   0   6  -6    2.90    2.00
   0   6  -6    5.00    3.00
   0  -6   6    4.70    3.50
   0  -6   6    0.60    3.60
  -1   6  -6  436.86   23.60
  -1   6  -6  432.76   22.60
   1  -6   6  357.26   30.20
  -2   6  -6  258.07   16.00
   2  -6   6  195.88   21.10
  -3   6  -6   14.10    4.80
   3  -6   6   10.60    7.70
  -4   6  -6  110.89   10.60
   4  -6   6   67.79   14.40
  -5   6  -6   83.29   10.80
   5  -6   6   61.09   15.10
  -6  -5   6    4.30    3.80
  -6  -5   6    3.20    4.40
   5   5  -6  384.86   21.40
  -5  -5   6  410.66   22.70
   4   5  -6    2.40    2.40
  -4  -5   6   -3.20    3.20
   3   5  -6    6.00    2.60
  -3  -5   6    5.00    3.80
   2   5  -6   88.09    7.20
   2   5  -6   82.89    6.80
  -2  -5   6   91.39    8.30
   1   5  -6  244.98   14.10
   1   5  -6  239.68   13.70
  -1  -5   6  228.78   14.00
  -1  -5   6  176.58   17.40
   0   5  -6   16.10    4.20
   0   5  -6   21.40    4.10
   0  -5   6   24.80    4.70
   0  -5   6    8.00    4.70
  -1   5  -6  369.76   22.10
   1  -5   6  427.26   20.80
   1  -5   6  416.96   29.90
  -2   5  -6  629.64   32.70
  -2   5  -6  648.44   31.20
   2  -5   6  555.14   41.80
  -3   5  -6   49.20    7.40
  -3   5  -6   45.00    7.00
   3  -5   6   56.09   11.80
  -4   5  -6   10.40    4.10
   4  -5   6   23.80    9.40
  -5   5  -6  270.77   18.30
   5  -5   6  232.48   25.50
  -6   5  -6  140.49   12.90
   6  -5   6   98.39   18.20
  -7  -4   6   -2.90    3.40
  -7  -4   6    5.80    4.70
  -6  -4   6    4.00    3.70
  -6  -4   6   -0.10    3.80
  -5  -4   6  291.97   17.60
   4   4  -6  777.12   37.50
  -4  -4   6  791.42   37.80
   3   4  -6  420.46   21.80
  -3  -4   6  432.26   22.60
   2   4  -6    2.70    2.10
   2   4  -6    4.40    2.40
  -2  -4   6    4.10    3.10
  -2  -4   6    4.50    3.00
   1   4  -6  764.32   37.00
   1   4  -6  746.63   36.10
  -1  -4   6  733.93   35.00
   0   4  -6   25.60    4.80
   0   4  -6   14.60    3.20
   0  -4   6   17.00    3.70
   0  -4   6   10.10    4.90
  -1   4  -6   28.60    5.30
  -1   4  -6   13.40    3.40
   1  -4   6   43.90    8.30
   1  -4   6   15.60    3.60
  -2   4  -6  903.51   45.10
  -2   4  -6  991.00   47.50
   2  -4   6  954.40   59.99
  -3   4  -6   38.70    5.70
   3  -4   6   31.40    8.70
  -4   4  -6  207.58   14.60
  -4   4  -6  205.08   13.30
  -5   4  -6   30.70    6.10
   5  -4   6   30.80   10.70
  -6   4  -6   72.29    9.90
   6  -4   6   69.39   14.70
  -7  -3   6   35.80    6.70
  -7  -3   6   45.80    7.40
  -6  -3   6   14.40    4.40
  -6  -3   6   12.20    5.10
  -5  -3   6   81.69    8.90
  -5  -3   6   71.09    8.00
   4   3  -6  526.15   26.20
  -4  -3   6  516.25   26.30
   3   3  -6  204.98   12.20
  -3  -3   6  220.78   13.10
   2   3  -6  211.98   11.90
   2   3  -6  217.48   12.40
  -2  -3   6  228.48   13.00
  -2  -3   6  204.48   15.10
   1   3  -6  946.51   44.00
   1   3  -6  989.00   43.10
  -1  -3   6  930.21   41.60
  -1  -3   6  799.92   53.49
   0   3  -6  784.92   41.30
   0   3  -6  921.51   41.10
   0  -3   6  901.01   38.80
   0  -3   6  817.22   51.99
  -1   3  -6   64.59    7.80
  -1   3  -6   81.39    6.60
   1  -3   6   82.59    6.30
   1  -3   6   93.79   10.20
  -2   3  -6  657.53   32.70
  -2   3  -6  602.24   33.20
   2  -3   6  732.63   43.60
  -3   3  -6 1312.77   63.49
  -3   3  -6 1373.86   60.49
   3  -3   6 1202.58   78.79
  -4   3  -6   43.20    6.20
  -4   3  -6   44.10    6.30
   4  -3   6   38.90    9.80
  -5   3  -6  516.65   25.90
  -5   3  -6  494.55   27.80
   5  -3   6  440.46   36.30
  -6   3  -6   16.00    4.90
  -6   3  -6   16.10    4.30
   6  -3   6    4.20    6.90
  -7   3  -6   42.40    7.60
   7  -3   6   14.20    9.60
  -7  -2   6  215.78   14.80
  -7  -2   6  212.18   14.90
  -6  -2   6  143.29   11.50
  -6  -2   6  142.49   10.90
  -5  -2   6   25.50    4.70
  -5  -2   6   38.80    5.70
  -4  -2   6   55.29    6.50
   3   2  -6 1114.39   52.49
  -3  -2   6 1146.69   51.99
  -3  -2   6 1197.08   66.79
   2   2  -6  292.37   15.60
   2   2  -6  303.47   15.10
  -2  -2   6  280.87   15.70
  -2  -2   6  299.67   19.50
   1   2  -6  137.89    8.20
   1   2  -6  146.39    9.30
  -1  -2   6  138.29    9.00
   0   2  -6  123.09    8.90
   0   2  -6  124.69    7.80
   0  -2   6  132.89    8.20
  -1   2  -6    7.00    3.10
  -1   2  -6   11.30    2.70
   1  -2   6    4.20    2.30
   1  -2   6    0.20    3.50
  -2   2  -6    3.00    2.30
  -2   2  -6    3.90    3.20
   2  -2   6    2.60    1.90
   2  -2   6   26.10    6.60
  -3   2  -6  305.97   17.60
  -3   2  -6  277.67   17.50
   3  -2   6  373.46   25.00
  -4   2  -6  266.37   15.60
  -4   2  -6  245.58   15.80
   4  -2   6  256.17   22.20
  -5   2  -6    6.40    3.40
  -5   2  -6    6.30    3.30
   5  -2   6    6.00    5.70
  -6   2  -6  195.58   14.30
  -6   2  -6  206.78   13.40
   6  -2   6  146.89   19.50
  -7   2  -6    1.80    2.80
  -7   2  -6    1.60    3.40
   7  -2   6   -4.60    6.30
  -7  -1   6   71.19    8.80
  -7  -1   6   66.49    8.00
  -6  -1   6  380.76   20.90
  -6  -1   6  340.77   20.00
  -5  -1   6   -1.80    2.70
  -5  -1   6   -1.20    2.70
  -4  -1   6   71.39    6.60
  -4  -1   6   68.69    6.60
   3   1  -6 1848.81   80.29
  -3  -1   6 1787.32   78.49
  -3  -1   6 1763.02  102.09
   2   1  -6  421.16   19.40
   2   1  -6  401.66   19.90
  -2  -1   6  392.76   19.80
  -2  -1   6  366.76   25.00
   1   1  -6  319.77   15.80
   1   1  -6  295.97   14.70
  -1  -1   6  271.87   19.40
  -1  -1   6  295.87   15.30
   0   1  -6  752.12   36.10
   0   1  -6  791.22   36.30
   0  -1   6  722.13   45.00
   0  -1   6  768.72   34.10
  -1   1  -6   26.20    3.50
  -1   1  -6   20.60    4.70
   1  -1   6   23.50    6.40
   1  -1   6   26.70    3.30
  -2   1  -6  423.16   22.50
  -2   1  -6  428.06   22.10
   2  -1   6  436.16   19.10
   2  -1   6  404.76   28.60
  -3   1  -6  154.38   10.50
  -3   1  -6  163.68   10.10
   3  -1   6  108.39   13.10
  -4   1  -6    2.50    2.60
  -4   1  -6   -0.30    2.70
   4  -1   6    1.30    4.90
  -5   1  -6  247.18   14.80
  -5   1  -6  238.58   15.30
   5  -1   6  207.28   20.70
  -6   1  -6  640.24   31.60
  -6   1  -6  660.13   33.80
   6  -1   6  505.25   41.90
  -7   1  -6   -1.10    3.00
  -7   1  -6   -1.60    2.70
   7  -1   6    4.50    7.40
  -8   1  -6    4.00    3.90
  -8   1  -6    1.60    3.30
   8  -1   6   -0.50    6.80
  -7   0   6   34.50    5.90
  -7   0   6   28.50    5.70
  -6   0   6   27.60    5.30
  -6   0   6   29.30    5.40
  -5   0   6   11.50    3.70
  -5   0   6   15.20    4.40
  -4   0   6    5.10    3.30
  -4   0   6    9.00    3.40
  -4   0   6    2.40    2.90
   3   0  -6   75.19    5.90
  -3   0   6   75.39    8.00
  -3   0   6   85.59    7.10
   2   0  -6 2567.24  129.49
   2   0  -6 2908.41  123.89
  -2   0   6 3025.20  120.69
   1   0  -6   43.30    3.00
   1   0  -6   49.10    4.70
  -1   0   6   56.29    6.90
  -1   0   6   49.20    4.90
   0   0  -6  835.32   36.60
   0   0  -6  765.62   36.20
   0   0   6  744.13   34.20
   0   0   6  740.43   45.40
  -1   0  -6   39.90    4.10
  -1   0  -6   48.50    6.30
   1   0   6   40.30    3.90
   1   0   6   51.59    6.80
  -2   0  -6   27.00    3.80
  -2   0  -6   27.10    4.60
   2   0   6   29.10    6.80
   2   0   6   23.70    2.50
  -3   0  -6  937.51   47.40
  -3   0  -6 1004.10   46.00
   3   0   6  976.40   58.89
  -4   0  -6   14.70    3.50
  -4   0  -6   17.20    4.10
   4   0   6    8.60    5.30
  -5   0  -6   76.89    8.40
  -5   0  -6   67.39    8.30
   5   0   6   92.79   13.00
  -6   0  -6 1178.98   53.19
  -6   0  -6 1099.99   55.89
   6   0   6 1025.00   68.69
  -7   0  -6  484.05   25.80
  -7   0  -6  460.05   27.20
   7   0   6  426.26   34.40
  -8   0  -6   -0.70    3.40
  -8   0  -6    1.10    3.10
   8   0   6   -2.50    6.10
  -7   1   6    2.60    3.20
  -7   1   6   -0.70    3.00
  -6   1   6  131.29   10.50
  -6   1   6  165.58   11.30
  -5   1   6    8.40    3.50
  -5   1   6    7.10    4.10
  -5   1   6    6.90    3.30
  -4   1   6  272.37   14.10
  -4   1   6  252.57   13.90
  -4   1   6  191.08   16.70
   3  -1  -6  950.00   42.80
  -3   1   6  919.01   42.30
   2  -1  -6    2.20    1.80
  -2   1   6    3.70    3.00
  -2   1   6    3.30    2.40
   1  -1  -6    1.30    2.00
  -1   1   6   -0.20    2.10
  -1   1   6    0.50    2.70
   0  -1  -6  130.09    8.60
   0  -1  -6  122.09    6.60
   0   1   6  127.59    7.60
   0   1   6  137.79   10.60
  -1  -1  -6  267.47   13.80
  -1  -1  -6  254.47   14.90
   1   1   6  268.77   18.30
   1   1   6  272.47   12.90
  -2  -1  -6   44.10    4.70
  -2  -1  -6   45.40    5.90
   2   1   6   49.10    3.60
  -3  -1  -6   92.49    7.30
  -3  -1  -6   89.89    8.00
  -4  -1  -6  173.78   11.70
  -4  -1  -6  167.28   11.80
   4   1   6  216.18   16.30
  -5  -1  -6  284.17   16.60
  -5  -1  -6  277.67   15.90
   5   1   6  218.98   20.00
  -6  -1  -6  109.79    9.90
  -6  -1  -6  110.99    9.80
   6   1   6  138.99   14.50
  -7  -1  -6  503.45   29.30
  -7  -1  -6  507.35   27.70
   7   1   6  512.55   36.90
  -8  -1  -6   39.40    7.00
  -8  -1  -6   29.70    6.80
  -7   2   6  117.89   10.00
  -7   2   6  115.49    9.90
  -6   2   6   90.19    8.10
  -6   2   6   60.49    7.00
  -5   2   6    2.60    3.80
  -5   2   6    9.10    3.40
  -5   2   6    4.50    2.90
  -4   2   6   -3.30    2.20
  -4   2   6    3.50    2.30
  -4   2   6    3.60    2.70
   3  -2  -6 1200.48   53.49
  -3   2   6 1180.88   52.79
  -3   2   6 1182.78   69.59
   2  -2  -6  948.31   44.20
  -2   2   6 1057.89   43.90
  -2   2   6  934.91   57.39
   1  -2  -6   30.60    4.10
  -1   2   6   31.80    5.80
  -1   2   6   34.70    4.30
   0  -2  -6 1948.01   83.19
   0   2   6 1794.02   85.49
   0   2   6 1836.72  105.59
   0   2   6 1905.91   79.79
  -1  -2  -6 3211.28  143.69
  -1  -2  -6 3324.47  150.58
   1   2   6 3351.16  182.38
   1   2   6 3200.78  137.69
  -2  -2  -6  642.44   30.80
  -2  -2  -6  637.94   30.60
   2   2   6  626.44   27.60
   2   2   6  600.04   37.60
  -3  -2  -6  419.36   21.60
  -3  -2  -6  408.76   18.20
  -3  -2  -6  410.86   21.70
  -4  -2  -6  543.75   27.20
  -4  -2  -6  501.55   26.10
   4   2   6  485.95   33.20
  -5  -2  -6   12.50    3.80
  -5  -2  -6   12.60    3.70
   5   2   6    8.10    5.00
  -6  -2  -6  114.59   10.00
  -6  -2  -6  106.99    9.40
   6   2   6   88.19   12.30
  -7  -2  -6   45.30    7.00
  -7  -2  -6   43.10    7.60
  -8  -2  -6   35.00    7.00
  -8  -2  -6   49.99    8.00
  -7   3   6    7.30    4.00
  -7   3   6   14.70    4.20
  -6   3   6  160.28   11.10
  -6   3   6  148.69   10.90
  -5   3   6  279.17   21.20
  -5   3   6  271.57   15.80
  -4   3   6   14.50    3.60
  -4   3   6   18.00    3.50
  -4   3   6   13.30    4.80
   3  -3  -6  342.97   17.40
  -3   3   6  364.56   24.40
  -3   3   6  358.66   18.30
   2  -3  -6  516.15   23.70
  -2   3   6  519.55   24.10
  -2   3   6  495.55   31.80
  -2   3   6  483.85   23.90
   1  -3  -6  318.37   15.90
  -1   3   6  300.67   21.10
  -1   3   6  318.47   14.90
  -1   3   6  319.07   15.90
   0  -3  -6  192.98   11.40
   0   3   6  174.28   14.30
   0   3   6  219.08    9.90
   0   3   6  192.38   10.70
  -1  -3  -6 1390.56   58.79
   1   3   6 1324.47   74.29
   1   3   6 1142.79   60.19
   1   3   6 1345.37   55.99
  -2  -3  -6 2265.27   95.49
  -2  -3  -6 2289.77  100.09
   2   3   6 2204.48  126.59
  -3  -3  -6  234.48   13.70
  -3  -3  -6  217.88   13.30
  -3  -3  -6  235.18   11.10
   3   3   6  218.48   15.80
  -4  -3  -6  134.29    9.30
  -4  -3  -6  116.49    9.00
   4   3   6  118.69   10.60
  -5  -3  -6  469.85   24.60
  -5  -3  -6  455.05   25.50
  -6  -3  -6   42.40    6.50
  -6  -3  -6   58.99    7.80
   6   3   6   34.60    7.80
  -7  -3  -6    6.90    3.70
  -7  -3  -6    2.00    3.40
  -8  -3  -6   22.30    5.80
  -8  -3  -6   13.20    5.10
  -7   4   6    5.10    3.30
  -6   4   6   17.50    6.30
  -6   4   6   11.40    3.80
  -5   4   6  408.56   19.90
  -5   4   6  366.96   26.80
  -5   4   6  330.07   19.60
  -4   4   6  772.92   48.30
  -4   4   6  770.92   36.30
   3  -4  -6  452.95   21.30
  -3   4   6  439.06   29.60
  -3   4   6  466.75   22.50
  -3   4   6  431.96   22.60
   2  -4  -6  536.65   25.20
  -2   4   6  548.05   25.90
  -2   4   6  569.44   26.50
  -2   4   6  508.45   34.30
   1  -4  -6  827.02   38.70
  -1   4   6  874.61   40.20
  -1   4   6  867.61   38.50
  -1   4   6  840.92   50.79
   0  -4  -6  992.80   43.80
   0   4   6 1024.80   45.10
   0   4   6  902.91   56.19
   0   4   6  905.71   42.50
  -1  -4  -6  147.99    9.30
   1   4   6  134.89    7.80
   1   4   6  139.89   11.60
  -2  -4  -6 1130.39   50.39
  -2  -4  -6 1170.18   52.99
   2   4   6 1143.09   66.69
   2   4   6 1188.18   54.89
  -3  -4  -6   21.20    4.10
  -3  -4  -6   27.70    3.30
   3   4   6   28.00    3.80
   3   4   6   21.90    4.60
  -4  -4  -6  182.28   11.60
  -4  -4  -6  182.78    9.30
   4   4   6  170.48   11.20
   4   4   6  172.38   13.20
  -5  -4  -6    0.60    2.40
  -5  -4  -6   -0.40    2.70
   5   4   6   -0.40    2.50
  -6  -4  -6   19.10    5.00
  -6  -4  -6   15.70    4.50
   6   4   6   20.00    5.00
  -7  -4  -6   58.59    8.20
  -7  -4  -6   54.39    7.60
  -8  -4  -6   31.70    6.70
  -7   5   6   53.89   10.50
  -7   5   6   41.90    6.60
  -6   5   6   74.09   11.80
  -6   5   6   64.39    7.70
  -5   5   6    0.80    2.70
  -5   5   6    2.50    4.40
   4  -5  -6  334.97   17.00
  -4   5   6  353.36   25.40
  -4   5   6  340.27   18.50
   3  -5  -6  177.88    9.80
  -3   5   6  184.48   15.50
  -3   5   6  187.58   11.60
  -3   5   6  188.58   11.30
   2  -5  -6   81.29    5.40
  -2   5   6   91.29    9.70
  -2   5   6   79.39    6.00
  -2   5   6   82.69    7.00
   1  -5  -6  742.03   34.20
  -1   5   6  762.42   36.30
  -1   5   6  741.63   45.70
  -1   5   6  762.52   34.60
   0  -5  -6   23.00    3.70
   0   5   6   19.80    5.20
   0   5   6   37.00    3.50
  -1  -5  -6  256.17   14.30
  -1  -5  -6  290.17   14.30
   1   5   6  270.27   14.10
   1   5   6  259.47   18.50
  -2  -5  -6  700.13   31.80
  -2  -5  -6  585.24   30.10
   2   5   6  694.03   32.50
   2   5   6  677.23   40.00
  -3  -5  -6  286.27   15.30
  -3  -5  -6  269.37   13.90
   3   5   6  268.37   15.10
   3   5   6  266.07   18.40
  -4  -5  -6  750.12   35.20
  -4  -5  -6  809.92   38.10
   4   5   6  839.92   39.60
   4   5   6  769.32   46.60
  -5  -5  -6  727.63   36.50
   5   5   6  737.43   37.80
   5   5   6  755.72   44.30
  -6  -5  -6   86.89    8.50
   6   5   6   97.19    8.70
  -7  -5  -6  453.35   25.30
   7   5   6  431.96   25.60
  -8  -5  -6   42.80    7.70
   8   5   6   37.50    7.10
  -6   6   6    1.70    3.20
  -6   6   6    0.20    4.20
  -5   6   6  299.97   17.30
  -5   6   6  299.27   24.00
  -4   6   6  325.37   23.40
  -4   6   6  257.67   16.10
  -3   6   6   87.19    7.30
  -3   6   6   64.69    9.90
  -3   6   6   69.99    6.60
   2  -6  -6  354.76   17.80
  -2   6   6  399.06   26.60
  -2   6   6  360.96   20.10
  -2   6   6  407.16   19.70
   1  -6  -6   77.39    5.50
  -1   6   6   75.29    6.20
  -1   6   6   84.09    9.40
   0  -6  -6  160.88    9.30
   0  -6  -6  161.98   10.30
   0   6   6  166.58    9.60
   0   6   6  160.48   13.40
  -1  -6  -6  301.97   15.50
  -1  -6  -6  276.27   14.90
   1   6   6  299.17   15.50
   1   6   6  272.47   19.60
  -2  -6  -6  186.28   10.90
  -2  -6  -6  187.08   10.90
   2   6   6  175.38   13.70
  -3  -6  -6   44.90    5.50
   3   6   6   51.49    5.10
   3   6   6   62.79    6.90
  -4  -6  -6   62.79    5.50
  -4  -6  -6   55.89    6.80
   4   6   6   63.69    7.00
   4   6   6   61.99    5.80
  -5  -6  -6  573.54   29.20
  -5  -6  -6  571.84   26.80
   5   6   6  562.64   29.90
  -6  -6  -6  232.58   15.20
   6   6   6  225.58   14.80
  -7  -6  -6   54.39    7.90
   7   6   6   62.19    8.10
  -8  -6  -6  381.06   23.00
   8   6   6  374.16   23.40
  -6   7   6   19.80    7.60
  -5   7   6  172.68   12.20
  -5   7   6  184.78   17.80
  -4   7   6    1.10    4.20
  -3   7   6  220.88   18.40
  -3   7   6  198.58   13.60
   2  -7  -6  230.78   13.30
  -2   7   6  222.68   17.90
  -2   7   6  189.58   13.00
   1  -7  -6  991.60   46.50
  -1   7   6 1011.20   61.39
  -1   7   6 1059.29   50.09
   0  -7  -6  144.09    7.90
   0  -7  -6  135.49    9.40
   0   7   6  133.09    8.80
   0   7   6  118.39   11.60
  -1  -7  -6  238.08   14.30
  -1  -7  -6  260.07   13.30
   1   7   6  259.67   18.40
  -2  -7  -6 1176.58   53.39
  -2  -7  -6 1154.48   53.89
   2   7   6 1215.88   69.29
   2   7   6 1226.58   57.39
  -3  -7  -6   10.30    3.20
  -3  -7  -6   10.90    3.20
   3   7   6    9.80    2.80
   3   7   6    6.30    3.40
  -4  -7  -6   52.79    6.30
   4   7   6   58.39    6.80
   4   7   6   57.09    6.40
  -5  -7  -6  162.68   10.20
  -5  -7  -6  177.38   11.60
   5   7   6  141.49   10.90
  -6  -7  -6  283.97   17.60
   6   7   6  291.27   17.80
  -7  -7  -6   41.40    7.00
   7   7   6   29.40    5.70
  -8  -7  -6   83.99   10.30
   8   7   6   68.99    9.40
   6  -8  -6   49.30    7.30
  -6   8   6   41.20   10.70
   5  -8  -6   43.20    6.40
  -5   8   6   41.00    9.60
   4  -8  -6  271.97   16.40
  -4   8   6  249.78   22.20
   3  -8  -6   40.50    6.30
  -3   8   6   46.50    9.30
  -3   8   6   33.20    5.80
   2  -8  -6  183.78   12.20
  -2   8   6  180.38   12.80
  -2   8   6  201.68   17.00
   1  -8  -6   67.29    7.60
  -1   8   6   79.39   10.00
  -1   8   6   78.49    7.20
   0  -8  -6  534.65   26.50
   0   8   6  523.85   34.30
  -1  -8  -6  151.98   10.70
   1   8   6  157.58   10.20
   1   8   6  150.88   13.00
  -2  -8  -6 1652.83   76.39
  -2  -8  -6 1695.53   75.89
   2   8   6 1812.82   98.79
   2   8   6 1726.83   81.99
  -3  -8  -6 1218.68   55.59
  -3  -8  -6 1196.58   56.09
   3   8   6 1277.87   59.89
   3   8   6 1234.78   71.29
  -4  -8  -6   54.89    6.50
  -4  -8  -6   42.60    5.70
   4   8   6   55.69    6.50
  -5  -8  -6   29.80    5.50
   5   8   6   26.20    4.90
  -6  -8  -6  334.97   20.20
   6   8   6  357.26   20.80
  -7  -8  -6    1.10    3.20
   7   8   6   -1.40    2.60
  -8  -8  -6   38.20    7.00
   8   8   6   45.00    7.60
   5  -9  -6   31.80    6.20
  -5   9   6   30.90    8.80
   4  -9  -6  366.46   20.40
  -4   9   6  328.77   27.20
   3  -9  -6  590.14   28.80
  -3   9   6  516.05   37.90
   2  -9  -6    0.10    3.20
  -2   9   6   -2.00    3.80
  -2   9   6   -0.50    1.60
   1  -9  -6    2.50    3.30
  -1   9   6    2.50    2.70
  -1   9   6    5.40    4.30
   0  -9  -6   95.59    8.90
   0   9   6  104.59   11.30
   0   9   6  103.39    8.20
  -1  -9  -6    2.50    3.10
   1   9   6    5.40    3.90
   1   9   6    2.70    2.40
  -2  -9  -6   47.40    6.70
   2   9   6   55.29    6.50
   2   9   6   58.29    8.00
  -3  -9  -6  941.71   44.80
  -3  -9  -6  976.80   44.50
   3   9   6  906.11   56.39
   3   9   6 1004.10   47.90
  -4  -9  -6    4.60    3.00
  -4  -9  -6    3.80    3.20
   4   9   6    2.50    2.30
  -5  -9  -6  361.16   19.50
  -5  -9  -6  349.96   19.80
   5   9   6  332.37   20.20
  -6  -9  -6  121.89   10.40
   6   9   6  115.49    9.90
  -7  -9  -6  216.28   15.20
   7   9   6  213.48   15.10
  -8  -9  -6   15.60    5.50
   8   9   6   11.00    4.10
   4 -10  -6   69.79    8.90
  -4  10   6   78.99   13.40
   3 -10  -6 1065.59   48.50
  -3  10   6 1006.20   52.99
  -3  10   6  970.50   64.19
   2 -10  -6   87.99    9.30
  -2  10   6   80.19   12.80
  -2  10   6   93.09    9.30
   1 -10  -6   -0.30    3.70
  -1  10   6    3.40    4.40
  -1  10   6    3.50    3.00
   0 -10  -6  335.97   19.70
   0  10   6  343.07   25.30
   0  10   6  345.87   19.90
  -1 -10  -6  154.98   12.20
   1  10   6  175.08   11.70
   1  10   6  177.18   15.40
  -2 -10  -6   -0.80    2.80
   2  10   6    4.80    3.10
   2  10   6   -3.20    3.20
  -3 -10  -6   25.60    5.40
   3  10   6   18.20    4.20
  -4 -10  -6   42.40    6.60
   4  10   6   40.30    6.10
  -5 -10  -6  233.48   14.30
  -5 -10  -6  201.08   14.30
   5  10   6  230.78   15.10
  -6 -10  -6  319.67   19.10
  -6 -10  -6  316.67   18.80
   6  10   6  306.57   19.50
  -7 -10  -6    5.50    4.40
   7  10   6    3.10    3.30
   3 -11  -6  118.39   12.10
  -3  11   6  113.89   11.70
  -3  11   6  119.39   16.60
   2 -11  -6  364.76   22.40
  -2  11   6  409.36   24.50
  -2  11   6  395.26   30.00
   1 -11  -6   36.10    6.70
  -1  11   6   44.10    7.00
  -1  11   6   37.90    8.60
   0 -11  -6    5.30    4.40
   0  11   6    6.60    3.50
   0  11   6    8.50    5.40
  -1 -11  -6  591.04   32.30
   1  11   6  646.74   41.10
   1  11   6  641.44   33.30
  -2 -11  -6   83.69    9.80
   2  11   6   84.19   10.40
   2  11   6  106.19    8.90
  -3 -11  -6   11.60    4.60
   3  11   6   13.60    4.20
  -4 -11  -6   10.20    4.70
   4  11   6   22.80    5.20
  -5 -11  -6   88.99   10.20
   5  11   6   87.29    8.70
  -6 -11  -6  196.58   14.10
   6  11   6  171.98   13.50
   7  11   6   76.19    9.50
   2 -12  -6   57.29    8.40
  -2  12   6   47.20    8.10
  -2  12   6   63.69   11.90
   1 -12  -6   28.40    6.70
  -1  12   6   20.30    5.10
  -1  12   6   11.80    5.90
   0 -12  -6  587.54   31.10
   0  12   6  556.94   38.90
   0  12   6  574.84   31.60
  -1 -12  -6   25.20    6.30
   1  12   6   29.60    7.40
   1  12   6   31.80    5.80
  -2 -12  -6   35.20    6.90
   2  12   6   42.90    6.60
  -3 -12  -6   13.90    5.00
   3  12   6   17.10    4.80
  -4 -12  -6    6.70    4.30
   4  12   6   14.00    4.50
  -5 -12  -6   73.79    9.70
   5  12   6   61.59    8.60
  -6 -12  -6   49.70    8.10
   6  12   6   62.99    8.70
   1 -13  -6   45.40    8.60
  -1  13   6   42.60    7.60
  -1  13   6   41.50    9.70
   0 -13  -6  218.88   17.10
   0  13   6  239.58   16.80
   0  13   6  249.97   21.20
  -1 -13  -6  300.97   21.00
   1  13   6  352.36   20.90
  -2 -13  -6   96.99   11.30
   2  13   6  109.99    9.90
  -3 -13  -6  136.09   14.00
   3  13   6  142.49   11.90
  -4 -13  -6  356.56   22.60
   4  13   6  361.96   22.50
  -5 -13  -6   25.40    6.40
   5  13   6   26.20    5.70
  -3  -8   7   79.99   10.20
  -2  -8   7  112.99   11.80
  -1  -8   7    6.40    4.80
   1  -8   7  189.48   20.20
   4   7  -7    2.20    2.60
  -4  -7   7   -1.90    4.00
   3   7  -7    6.10    3.00
  -3  -7   7    3.20    4.30
   2   7  -7  152.58   11.70
  -2  -7   7  171.28   12.80
   1   7  -7   18.80    4.70
  -1  -7   7   10.80    4.60
   0   7  -7  128.19   10.50
   0  -7   7  114.49   14.40
  -1   7  -7  620.64   31.40
   1  -7   7  477.25   38.80
  -2   7  -7  496.35   26.20
   2  -7   7  344.57   32.50
  -3   7  -7   16.50    5.30
   3  -7   7    9.30    7.30
   5   6  -7  131.79   10.20
  -5  -6   7  119.99   11.10
   4   6  -7   33.90    5.50
  -4  -6   7   27.80    6.30
   3   6  -7    7.70    3.30
  -3  -6   7   16.10    5.00
   2   6  -7   53.99    7.10
  -2  -6   7   46.20    6.90
   1   6  -7    9.80    3.60
  -1  -6   7    8.30    4.00
   0   6  -7   58.29    6.90
   0   6  -7   49.30    7.00
   0  -6   7   38.50    6.00
   0  -6   7   26.50    8.30
  -1   6  -7  103.99    9.10
  -1   6  -7   73.99    9.00
   1  -6   7  125.09   14.10
  -2   6  -7  696.33   34.90
   2  -6   7  565.14   44.10
  -3   6  -7  143.39   12.30
  -4   6  -7   34.50    7.00
   4  -6   7    4.50    8.10
   6   5  -7    4.90    3.20
  -6  -5   7    5.60    4.40
   5   5  -7  175.88   12.20
  -5  -5   7  184.48   13.70
   4   5  -7  346.47   19.90
  -4  -5   7  387.06   21.40
   3   5  -7  152.88   10.50
  -3  -5   7  140.69   11.40
   2   5  -7   30.80    5.00
  -2  -5   7   35.00    6.10
   1   5  -7   18.90    4.60
  -1  -5   7   17.00    4.60
  -1  -5   7   16.10    5.30
   0   5  -7   -0.20    2.50
   0   5  -7    2.80    2.80
   0  -5   7    1.10    5.10
   0  -5   7   -2.10    2.70
  -1   5  -7  430.56   23.40
  -1   5  -7  398.96   23.00
  -2   5  -7   57.99    7.50
   2  -5   7   66.19   12.10
  -3   5  -7   20.00    4.80
   3  -5   7   18.70    7.70
  -4   5  -7  228.98   15.40
   4  -5   7  160.28   20.20
  -5   5  -7   50.69    8.10
   5  -5   7   19.30   10.20
   6   4  -7    6.10    3.10
  -6  -4   7   10.50    4.60
   5   4  -7   19.30    4.20
  -5  -4   7   21.10    5.00
   4   4  -7  336.17   19.10
  -4  -4   7  370.26   20.20
   3   4  -7  370.26   20.20
  -3  -4   7  383.36   20.80
   2   4  -7   22.60    4.20
  -2  -4   7   16.00    4.40
   1   4  -7   47.10    6.30
  -1  -4   7   46.10    6.30
  -1  -4   7   50.99    7.50
   0   4  -7   91.29    8.40
   0   4  -7   75.89    6.80
   0  -4   7   82.59    7.60
   0  -4   7   77.49   11.40
  -1   4  -7   44.50    6.80
  -1   4  -7   62.89    6.30
   1  -4   7   45.90    9.10
  -2   4  -7    1.80    3.20
  -2   4  -7    4.30    2.80
   2  -4   7    1.30    4.40
  -3   4  -7    6.30    3.40
  -3   4  -7    2.60    3.30
   3  -4   7    3.10    5.30
  -4   4  -7  107.89    9.70
  -4   4  -7  154.58   11.70
   4  -4   7  161.18   18.30
  -5   4  -7  758.72   37.80
   5  -4   7  579.14   48.00
  -6   4  -7   60.39    9.00
   6  -4   7   32.00   11.80
  -6  -3   7   12.60    4.50
   5   3  -7  126.49    9.60
  -5  -3   7  147.09   11.20
   4   3  -7   -1.40    2.30
  -4  -3   7    2.40    3.40
   3   3  -7  694.63   32.90
  -3  -3   7  650.13   32.60
   2   3  -7   46.40    5.70
  -2  -3   7   26.90    5.50
  -2  -3   7   33.70    5.20
   1   3  -7  418.36   22.20
  -1  -3   7  418.86   21.30
   0   3  -7    1.10    1.80
   0   3  -7   -2.20    2.30
   0  -3   7    0.20    2.50
   0  -3   7    3.10    4.30
  -1   3  -7    0.70    2.10
  -1   3  -7   -0.70    2.50
   1  -3   7    1.20    2.30
   1  -3   7    0.10    4.00
  -2   3  -7  103.99    8.90
  -2   3  -7  110.69    8.10
   2  -3   7   65.59   11.20
  -3   3  -7   17.40    4.40
  -3   3  -7   23.70    5.30
   3  -3   7   18.90    7.10
  -4   3  -7   49.30    6.90
  -4   3  -7   54.79    7.20
   4  -3   7   60.09   11.50
  -5   3  -7  391.66   22.40
  -5   3  -7  406.46   24.10
   5  -3   7  398.86   32.90
  -6   3  -7  403.16   23.30
  -6   3  -7  407.36   25.00
  -7  -2   7   65.29    9.00
  -7  -2   7   51.69    7.70
  -6  -2   7   91.19   10.10
  -6  -2   7   90.09    9.80
   5   2  -7    5.50    3.00
  -5  -2   7    2.00    3.10
   4   2  -7  173.18   11.20
  -4  -2   7  178.18   12.00
   3   2  -7   -2.20    1.80
  -3  -2   7    1.50    2.70
   2   2  -7   17.80    3.50
  -2  -2   7   12.60    3.50
  -2  -2   7   15.70    4.30
   1   2  -7  677.03   32.00
  -1  -2   7  627.84   39.80
  -1  -2   7  651.03   30.70
   0   2  -7  547.15   27.90
   0   2  -7  537.15   28.40
   0  -2   7  606.54   35.80
   0  -2   7  571.74   26.70
  -1   2  -7   58.99    7.50
  -1   2  -7   79.29    6.10
   1  -2   7   83.19    6.10
   1  -2   7   48.30    9.40
  -2   2  -7  328.27   18.40
  -2   2  -7  304.77   19.00
   2  -2   7  372.16   25.60
  -3   2  -7  240.28   14.20
  -3   2  -7  208.78   13.00
   3  -2   7  148.59   17.00
  -4   2  -7  101.29    8.90
  -4   2  -7   90.99    8.60
   4  -2   7   79.09   13.30
  -5   2  -7   17.70    4.70
  -5   2  -7   16.10    4.40
   5  -2   7   23.50    8.10
  -6   2  -7  351.36   20.10
  -6   2  -7  305.07   20.40
   6  -2   7  333.17   28.90
  -7   2  -7   19.00    5.50
  -7   2  -7   18.00    5.20
   7  -2   7   16.40    9.60
  -7  -1   7   25.00    5.60
  -7  -1   7   31.20    6.10
  -6  -1   7   27.40    6.00
  -6  -1   7   13.80    4.40
  -5  -1   7   43.80    6.20
   4   1  -7   53.19    6.00
  -4  -1   7   38.50    5.50
   3   1  -7   22.50    3.90
  -3  -1   7   18.70    4.70
  -3  -1   7   11.20    3.40
   2   1  -7   77.19    6.20
  -2  -1   7   81.79    6.80
  -2  -1   7   70.39    8.10
   1   1  -7  157.08   10.00
  -1  -1   7  148.79   12.10
  -1  -1   7  142.39    9.40
   0   1  -7 1789.12   84.49
   0   1  -7 1792.72   82.09
   0  -1   7 1873.01  103.69
   0  -1   7 1814.22   78.29
  -1   1  -7  370.56   18.30
  -1   1  -7  315.27   19.20
   1  -1   7  381.66   17.00
   1  -1   7  307.37   23.70
  -2   1  -7  262.27   16.60
  -2   1  -7  276.37   15.70
   2  -1   7  320.87   22.50
  -3   1  -7 2102.59   99.29
  -3   1  -7 2143.89   95.29
   3  -1   7 2044.50  121.69
  -4   1  -7  305.17   17.90
  -4   1  -7  282.07   17.60
   4  -1   7  308.87   24.30
  -5   1  -7    2.90    3.50
  -5   1  -7    7.80    3.70
   5  -1   7   -1.80    4.70
  -6   1  -7  168.28   13.00
  -6   1  -7  155.98   12.30
   6  -1   7  172.78   19.10
  -7   1  -7  118.79   10.60
  -7   1  -7  107.59   10.90
   7  -1   7  115.69   17.50
  -7   0   7    9.30    4.30
  -7   0   7   13.20    4.50
  -6   0   7  437.76   23.20
  -6   0   7  380.76   22.20
  -5   0   7  145.69   10.60
   4   0  -7  173.98   10.80
  -4   0   7  170.98   11.50
  -4   0   7  182.08   14.50
   3   0  -7 1219.18   54.79
  -3   0   7 1170.38   53.89
  -3   0   7 1212.68   70.39
   2   0  -7   11.30    2.90
  -2   0   7    5.90    3.10
  -2   0   7    2.60    2.80
   1   0  -7   94.59    7.00
  -1   0   7   87.89    8.80
  -1   0   7   86.49    6.90
   0   0  -7  897.91   42.80
   0   0  -7  942.61   43.10
   0   0   7  896.51   40.40
   0   0   7  908.91   53.89
  -1   0  -7  211.88   11.30
  -1   0  -7  187.38   12.80
   1   0   7  204.68   15.30
   1   0   7  196.28   10.50
  -2   0  -7  108.69    7.70
  -2   0  -7  102.89    9.20
   2   0   7  114.29    6.20
   2   0   7  111.89   11.80
  -3   0  -7    6.60    3.30
  -3   0  -7    6.90    3.00
   3   0   7   25.90    7.00
  -4   0  -7   13.50    3.70
  -4   0  -7   18.30    4.30
   4   0   7   41.10    8.10
  -5   0  -7    0.10    2.70
  -5   0  -7   -0.20    2.70
   5   0   7   -0.50    4.00
  -6   0  -7    3.20    3.50
  -6   0  -7    1.50    2.90
   6   0   7    9.00    6.20
  -7   0  -7  505.05   26.20
  -7   0  -7  486.65   27.40
   7   0   7  360.06   33.40
  -8   0  -7   17.60    5.20
  -8   0  -7   15.80    5.50
   8   0   7   28.10    8.60
  -7   1   7   91.19   10.10
  -7   1   7   78.39    9.30
  -6   1   7  164.58   11.60
  -6   1   7  146.99   11.40
  -5   1   7   90.89    8.20
   4  -1  -7  125.49    8.50
  -4   1   7  113.69    8.80
  -4   1   7  123.29   11.90
   3  -1  -7 1097.19   49.40
  -3   1   7 1061.79   48.80
   2  -1  -7 1020.80   46.80
  -2   1   7 1015.70   46.00
  -2   1   7 1035.80   60.29
  -1   1   7  267.17   18.50
  -1   1   7  262.07   14.00
   0  -1  -7   39.50    5.20
   0  -1  -7   47.80    3.20
   0   1   7   52.59    7.10
   0   1   7   48.20    4.80
  -1  -1  -7 1337.67   61.89
   1   1   7 1380.16   77.79
   1   1   7 1319.77   57.79
  -2  -1  -7  405.26   22.50
  -2  -1  -7  429.56   21.80
   2   1   7  426.56   19.10
   2   1   7  424.86   27.50
  -3  -1  -7   33.30    4.40
  -3  -1  -7   27.30    4.90
   3   1   7   13.70    5.50
  -4  -1  -7    6.80    3.50
  -4  -1  -7   14.00    3.50
   4   1   7    7.10    4.80
  -5  -1  -7  603.84   31.70
  -5  -1  -7  617.94   30.80
   5   1   7  543.45   39.20
  -6  -1  -7  495.55   25.50
  -6  -1  -7  496.55   26.40
   6   1   7  357.36   31.40
  -7  -1  -7    1.80    3.20
  -7  -1  -7    0.30    3.10
   7   1   7    4.90    5.10
  -8  -1  -7   36.40    7.30
  -8  -1  -7   44.70    7.50
  -7   2   7  104.99   10.10
  -7   2   7  116.69   10.20
  -6   2   7    6.00    3.90
  -6   2   7    4.90    3.30
  -5   2   7   92.79    8.40
  -5   2   7  104.09   11.40
   4  -2  -7    8.00    2.70
  -4   2   7    8.50    4.00
  -4   2   7    9.20    3.40
   3  -2  -7   35.70    4.40
  -3   2   7   45.20    7.30
  -3   2   7   35.40    4.80
   2  -2  -7  395.26   20.00
  -2   2   7  404.86   26.80
  -2   2   7  414.26   20.20
   1  -2  -7   66.59    5.80
  -1   2   7   61.09    5.70
  -1   2   7   62.09    7.50
   0  -2  -7   97.79    7.80
   0   2   7   97.69    9.20
   0   2   7   92.79    6.60
  -1  -2  -7    1.70    1.60
  -1  -2  -7    5.50    3.10
   1   2   7   -1.40    1.70
   1   2   7    5.30    3.40
  -2  -2  -7 1659.63   77.59
  -2  -2  -7 1724.03   80.29
   2   2   7 1708.13   72.89
   2   2   7 1750.92   97.79
  -3  -2  -7  172.18   10.60
  -3  -2  -7  165.28   11.30
   3   2   7  152.38   12.90
  -4  -2  -7  139.39   10.00
  -4  -2  -7  135.89   10.50
  -5  -2  -7   -1.00    2.70
  -5  -2  -7    0.70    2.70
   5   2   7    2.10    4.70
  -6  -2  -7  673.03   34.50
  -6  -2  -7  662.23   35.90
  -7  -2  -7  362.86   21.90
  -7  -2  -7  366.06   23.00
  -8  -2  -7   -0.40    3.30
  -8  -2  -7   -0.60    3.50
  -7   3   7   66.09    8.30
  -6   3   7    2.50    3.10
  -6   3   7   -0.60    3.10
  -5   3   7  207.08   13.50
  -5   3   7  217.08   18.20
   4  -3  -7  165.78    9.90
  -4   3   7  151.08   14.20
  -4   3   7  169.88   11.10
   3  -3  -7   14.50    3.00
  -3   3   7   13.50    4.70
  -3   3   7   14.20    3.40
   2  -3  -7   61.79    5.10
  -2   3   7   59.79    7.40
  -2   3   7   52.49    5.60
   1  -3  -7   18.50    3.30
  -1   3   7   26.00    5.50
  -1   3   7   19.20    3.50
   0  -3  -7 2542.75  105.09
   0   3   7 2353.86  133.79
   0   3   7 2439.86  101.29
   0   3   7 2178.28  108.69
  -1  -3  -7  875.31   40.40
   1   3   7  827.52   50.49
   1   3   7  841.82   37.70
   1   3   7  863.71   40.10
  -2  -3  -7  106.49    9.00
   2   3   7  114.59   10.40
  -3  -3  -7  495.55   26.00
  -3  -3  -7  529.85   23.00
  -3  -3  -7  510.85   26.20
   3   3   7  486.75   31.70
  -4  -3  -7 1103.59   52.39
  -4  -3  -7 1059.59   50.29
   4   3   7 1019.90   62.19
  -5  -3  -7   -0.30    2.60
  -5  -3  -7    0.20    2.90
   5   3   7    2.80    3.60
  -6  -3  -7    4.60    3.60
  -6  -3  -7    2.00    3.50
   6   3   7    1.60    4.40
  -7  -3  -7  145.69   12.60
  -7  -3  -7  157.98   12.50
  -8  -3  -7   33.80    6.50
  -8  -3  -7   24.60    6.10
  -7   4   7  141.89   11.40
  -6   4   7   37.80    6.20
  -6   4   7   34.00    8.00
   5  -4  -7   -2.00    2.00
  -5   4   7    4.60    3.30
  -5   4   7    5.80    4.70
   4  -4  -7  644.74   31.50
  -4   4   7  765.12   44.00
  -4   4   7  619.64   32.10
   3  -4  -7   76.69    5.80
  -3   4   7   82.19    7.10
  -3   4   7   76.79   10.50
   2  -4  -7    5.80    2.10
  -2   4   7    4.90    3.40
  -2   4   7    0.90    2.40
   1  -4  -7  164.48    9.80
  -1   4   7  163.98   10.10
  -1   4   7  171.18   13.90
   0  -4  -7   52.99    5.50
   0   4   7   47.40    3.40
   0   4   7   50.89    7.10
   0   4   7   44.70    4.90
  -1  -4  -7 2689.33  113.99
   1   4   7 2537.85  144.79
   1   4   7 2523.55  118.79
   1   4   7 2557.74  109.59
  -2  -4  -7  101.79    8.60
  -2  -4  -7  115.29    7.30
   2   4   7  118.79    7.20
   2   4   7  106.19   10.10
  -3  -4  -7  172.78   11.70
  -3  -4  -7  206.98   10.10
   3   4   7  160.78   10.70
   3   4   7  189.38   14.20
  -4  -4  -7 1701.53   80.09
   4   4   7 1819.72  100.69
  -5  -4  -7 1036.70   48.70
  -5  -4  -7 1006.70   50.69
   5   4   7  986.20   59.49
  -6  -4  -7   56.79    7.60
  -6  -4  -7   67.39    8.30
   6   4   7   69.99    9.10
  -7  -4  -7   40.70    7.20
  -7  -4  -7   38.50    6.80
  -8  -4  -7  107.89   10.60
  -8  -4  -7  117.59   11.70
  -6   5   7   38.30    6.20
  -6   5   7   37.30    9.00
  -5   5   7  499.45   37.40
  -5   5   7  601.24   28.40
   4  -5  -7   17.40    3.10
  -4   5   7   14.70    5.70
  -4   5   7   13.40    3.90
   3  -5  -7  165.58    9.80
  -3   5   7  181.88   15.50
  -3   5   7  183.58   11.60
   2  -5  -7  268.77   13.40
  -2   5   7  248.38   19.60
  -2   5   7  253.17   14.50
   1  -5  -7   21.40    3.40
  -1   5   7   17.00    3.50
  -1   5   7   25.10    2.90
  -1   5   7   24.30    5.40
   0  -5  -7  495.95   24.80
   0   5   7  487.65   32.60
   0   5   7  529.55   24.70
   0   5   7  535.45   25.00
  -1  -5  -7  957.00   44.00
  -1  -5  -7  909.11   42.50
   1   5   7  979.70   56.29
   1   5   7  956.10   45.00
  -2  -5  -7   44.60    5.60
   2   5   7   36.90    3.80
   2   5   7   33.90    6.00
  -3  -5  -7   27.00    4.60
  -3  -5  -7   29.10    3.80
   3   5   7   34.90    5.80
   3   5   7   16.60    3.00
  -4  -5  -7   12.50    4.10
  -4  -5  -7   12.90    2.70
   4   5   7   12.80    3.20
   4   5   7   12.60    4.20
  -5  -5  -7  678.13   35.20
   5   5   7  731.53   42.80
   5   5   7  686.63   36.00
  -6  -5  -7  194.88   13.70
   6   5   7  192.98   13.50
  -7  -5  -7   79.89   10.00
   7   5   7   78.59    8.30
  -8  -5  -7  184.68   14.60
   8   5   7  201.38   15.10
  -6   6   7   44.60    7.00
  -6   6   7   25.60    8.00
  -5   6   7  223.48   19.90
  -5   6   7  210.18   14.30
  -4   6   7  473.45   24.70
  -4   6   7  469.25   33.40
  -3   6   7    4.80    3.40
  -3   6   7    1.30    4.10
   2  -6  -7  477.55   22.90
  -2   6   7  488.85   32.30
  -2   6   7  480.95   24.10
   1  -6  -7  787.02   36.80
  -1   6   7  808.82   37.30
  -1   6   7  801.72   49.50
  -1   6   7  825.32   39.20
   0  -6  -7  288.57   14.80
   0  -6  -7  268.57   15.20
   0   6   7  306.07   14.90
   0   6   7  245.78   19.50
  -1  -6  -7   61.49    5.90
  -1  -6  -7   63.29    6.00
   1   6   7   69.79    7.90
   1   6   7   57.39    4.90
  -2  -6  -7 1466.95   66.29
  -2  -6  -7 1529.25   68.39
   2   6   7 1516.45   71.39
   2   6   7 1540.85   86.99
  -3  -6  -7   28.20    4.10
  -3  -6  -7   20.30    4.00
   3   6   7   18.50    3.30
   3   6   7   20.60    4.80
  -4  -6  -7 1159.88   56.29
  -4  -6  -7 1166.18   53.39
   4   6   7 1278.27   58.89
   4   6   7 1234.78   70.39
  -5  -6  -7   14.00    4.20
   5   6   7   10.40    4.00
   5   6   7    5.70    2.90
  -6  -6  -7  105.89    9.60
   6   6   7  107.29    9.20
  -7  -6  -7   41.10    7.30
   7   6   7   41.70    6.90
  -8  -6  -7   -2.70    3.60
   8   6   7    1.90    3.20
  -6   7   7   -1.60    4.00
  -6   7   7    0.30    3.20
  -5   7   7    2.80    4.80
  -5   7   7    3.90    3.50
  -4   7   7  299.07   25.20
  -4   7   7  342.57   18.60
  -3   7   7   12.40    5.90
  -3   7   7   30.00    5.50
  -2   7   7   70.49   10.70
   1  -7  -7  339.77   18.30
  -1   7   7  344.57   24.20
  -1   7   7  334.67   18.40
   0  -7  -7  844.72   38.70
   0  -7  -7  823.52   39.20
   0   7   7  779.62   51.19
   0   7   7  921.51   41.30
  -1  -7  -7    3.10    2.70
  -1  -7  -7   10.40    3.00
   1   7   7    6.90    2.30
   1   7   7    7.00    3.80
  -2  -7  -7  749.92   34.90
  -2  -7  -7  756.32   35.20
   2   7   7  739.33   36.60
   2   7   7  721.63   45.00
  -3  -7  -7  834.42   40.20
  -3  -7  -7  813.02   39.10
   3   7   7  861.01   50.79
   3   7   7  889.11   42.10
  -4  -7  -7  173.18   11.70
  -4  -7  -7  163.38   10.60
   4   7   7  169.48   11.20
   4   7   7  173.88   13.50
  -5  -7  -7  442.46   24.10
   5   7   7  447.46   24.50
  -6  -7  -7  103.09    9.50
   6   7   7   97.29    8.90
  -7  -7  -7   -5.00    3.20
   7   7   7   -3.20    2.60
  -8  -7  -7  111.69   12.50
   8   7   7  126.39   11.30
   5  -8  -7    4.60    3.90
  -5   8   7   -0.40    5.00
   4  -8  -7  428.76   23.10
  -4   8   7  392.06   30.90
   3  -8  -7  375.46   20.20
  -3   8   7  332.17   26.60
   2  -8  -7  187.58   12.50
  -2   8   7  183.88   16.60
   1  -8  -7   24.50    4.60
  -1   8   7   17.80    5.60
  -1   8   7   28.00    4.40
   0  -8  -7  144.19   10.70
   0   8   7  160.68   10.30
   0   8   7  166.38   14.10
  -1  -8  -7  132.89   10.20
   1   8   7  144.29   13.00
   1   8   7  154.68    9.80
  -2  -8  -7   60.99    7.00
  -2  -8  -7   61.89    5.70
   2   8   7   48.70    5.20
   2   8   7   53.49    7.80
  -3  -8  -7  138.39    9.50
  -3  -8  -7  114.69    9.30
   3   8   7  129.99    9.30
   3   8   7  132.69   11.40
  -4  -8  -7   44.00    5.90
  -4  -8  -7   47.10    6.30
   4   8   7   47.30    7.10
   4   8   7   46.30    5.70
  -5  -8  -7  489.95   25.00
  -5  -8  -7  485.55   26.40
   5   8   7  519.35   27.20
  -6  -8  -7    8.20    4.20
   6   8   7   10.20    3.70
  -7  -8  -7  178.68   13.70
   7   8   7  184.88   13.50
  -8  -8  -7   53.79    8.50
   8   8   7   67.09    9.20
   5  -9  -7   18.30    5.30
  -5   9   7   19.40    7.60
   4  -9  -7   33.30    6.10
  -4   9   7   23.60    8.20
   3  -9  -7  769.92   37.50
  -3   9   7  747.43   49.99
   2  -9  -7  119.29   10.60
  -2   9   7  156.98   15.40
   1  -9  -7  850.51   44.00
  -1   9   7  991.50   58.89
  -1   9   7  983.70   47.40
   0  -9  -7   33.30    5.70
   0   9   7   34.20    4.90
   0   9   7   26.20    6.60
  -1  -9  -7    3.60    3.20
   1   9   7    7.40    4.30
   1   9   7    0.10    1.30
  -2  -9  -7  134.99   10.60
   2   9   7  136.89   12.60
   2   9   7  144.59   10.00
  -3  -9  -7  118.29    9.80
  -3  -9  -7  107.49    8.70
   3   9   7  122.09   11.50
   3   9   7  137.79    9.60
  -4  -9  -7   54.99    7.10
  -4  -9  -7   57.49    6.80
   4   9   7   66.59    6.70
  -5  -9  -7  288.17   16.80
  -5  -9  -7  315.27   17.70
   5   9   7  267.77   17.50
  -6  -9  -7  374.96   22.50
   6   9   7  407.96   23.20
  -7  -9  -7   16.30    5.40
   7   9   7   11.70    4.10
   4 -10  -7   16.40    5.10
  -4  10   7   13.90    7.10
   3 -10  -7   26.90    6.10
  -3  10   7   28.00    8.40
   2 -10  -7  219.28   14.40
  -2  10   7  205.58   19.20
   1 -10  -7    2.10    3.60
  -1  10   7    3.00    4.70
  -1  10   7    0.40    2.00
   0 -10  -7  304.67   19.20
   0  10   7  331.77   19.10
   0  10   7  356.16   25.30
  -1 -10  -7   13.00    4.40
   1  10   7    3.20    4.40
   1  10   7    8.80    2.80
  -2 -10  -7    6.00    3.60
   2  10   7    5.70    3.10
   2  10   7    3.70    4.00
  -3 -10  -7  608.84   31.90
   3  10   7  628.14   33.20
   3  10   7  641.44   39.60
  -4 -10  -7    9.30    4.00
   4  10   7    2.90    2.70
  -5 -10  -7  160.48   11.60
  -5 -10  -7  141.09   11.30
   5  10   7  152.78   11.40
  -6 -10  -7  809.82   40.30
   6  10   7  791.52   42.00
  -7 -10  -7  267.27   17.60
   7  10   7  258.17   17.70
   3 -11  -7   80.99    9.90
  -3  11   7   72.29   12.70
   2 -11  -7   -1.80    3.50
  -2  11   7   -0.20    4.90
   1 -11  -7   49.70    7.60
  -1  11   7   51.19    9.70
  -1  11   7   49.20    7.10
   0 -11  -7  520.05   29.40
   0  11   7  552.64   38.20
   0  11   7  608.84   30.70
  -1 -11  -7  140.99   12.00
   1  11   7  169.48   15.50
   1  11   7  162.18   11.40
  -2 -11  -7   21.10    5.60
   2  11   7   13.10    4.00
   2  11   7   15.00    5.40
  -3 -11  -7   60.29    8.40
   3  11   7   84.49    8.10
  -4 -11  -7   37.10    6.80
   4  11   7   44.40    6.80
  -5 -11  -7   95.69   10.30
   5  11   7  104.99    9.60
  -6 -11  -7   10.20    4.40
   6  11   7    8.40    3.70
   2 -12  -7   22.70    6.20
  -2  12   7   27.50    8.70
   1 -12  -7   11.30    5.40
  -1  12   7   12.90    4.40
  -1  12   7    6.10    5.40
   0 -12  -7  311.27   20.80
   0  12   7  348.97   26.80
   0  12   7  359.06   20.80
  -1 -12  -7  609.64   33.20
   1  12   7  639.44   33.70
   1  12   7  626.04   41.60
  -2 -12  -7   20.00    5.70
   2  12   7   53.59    7.30
  -3 -12  -7    1.40    3.20
   3  12   7    2.10    3.10
  -4 -12  -7   31.40    6.50
   4  12   7   24.40    5.40
  -5 -12  -7    9.40    4.60
   5  12   7   11.60    4.30
  -6 -12  -7   13.90    5.40
   6  12   7   13.90    4.60
   1 -13  -7   27.10    6.80
  -1  13   7   29.60    8.70
  -1  13   7   31.90    6.40
   0 -13  -7    4.80    4.70
   0  13   7   12.00    4.50
   0  13   7    8.10    5.80
  -1 -13  -7  257.07   18.20
   1  13   7  217.28   20.60
   1  13   7  271.37   16.90
  -2 -13  -7  106.49   12.10
   2  13   7  130.09   10.70
  -3 -13  -7   -0.20    4.20
   3  13   7   -1.80    2.70
  -4 -13  -7   -1.50    4.00
   4  13   7    8.50    3.90
   3   7  -8    4.80    3.40
  -3  -7   8   -1.60    3.90
   2   7  -8    5.40    3.70
  -2  -7   8   10.90    5.00
  -1  -7   8   23.70    6.70
   1  -7   8   84.89   14.70
   2  -7   8  231.28   23.10
   4   6  -8  381.16   22.00
  -4  -6   8  396.16   23.00
   3   6  -8   84.79    8.20
  -3  -6   8   72.39    9.00
   2   6  -8   22.40    5.20
  -2  -6   8   37.80    6.50
   1   6  -8    1.30    3.20
  -1  -6   8   10.00    4.50
   0   6  -8  108.19    9.90
   0  -6   8   62.99   12.10
   1  -6   8   40.00    9.90
  -2   6  -8    5.30    3.50
   2  -6   8   12.40    6.70
  -3   6  -8   58.69    8.20
   3  -6   8   35.50   10.40
   5   5  -8  102.39    9.00
  -5  -5   8  121.79   12.30
   4   5  -8  140.29   10.60
  -4  -5   8  123.39   10.90
   3   5  -8  185.88   12.60
  -3  -5   8  181.38   13.30
   2   5  -8    7.20    3.40
  -2  -5   8    3.20    3.50
   1   5  -8   32.50    5.80
  -1  -5   8   44.70    6.60
   0   5  -8    4.10    3.20
   0  -5   8    5.40    5.30
  -1   5  -8  265.47   16.70
   1  -5   8  225.78   21.80
  -2   5  -8  140.29   10.80
  -2   5  -8  126.99   10.90
   2  -5   8   90.09   14.90
  -3   5  -8   -2.50    2.60
   3  -5   8    4.30    5.90
  -4   5  -8  100.59   10.00
   4  -5   8   83.99   16.00
   5   4  -8  373.56   21.00
  -5  -4   8  367.56   21.80
   4   4  -8   81.69    7.60
  -4  -4   8   61.79    8.10
   3   4  -8   12.00    3.50
  -3  -4   8   11.80    4.30
   2   4  -8    5.10    3.00
  -2  -4   8    4.20    3.70
   1   4  -8  366.16   20.70
  -1  -4   8  353.56   19.70
   0   4  -8   20.90    5.40
   0  -4   8   25.20    4.80
  -1   4  -8    2.00    3.30
   1  -4   8   16.40    7.00
  -2   4  -8  307.97   17.80
  -2   4  -8  271.57   18.00
   2  -4   8  279.77   24.20
  -3   4  -8   88.99    8.80
  -3   4  -8   91.39   10.00
   3  -4   8   73.59   13.10
  -4   4  -8   25.30    5.60
  -4   4  -8   24.40    5.40
  -5   4  -8  122.69   11.70
   5  -4   8  123.79   18.60
   6   3  -8    5.20    2.80
  -6  -3   8    1.80    4.10
   5   3  -8  151.38   11.00
  -5  -3   8  154.98   12.00
   4   3  -8  378.16   20.70
  -4  -3   8  377.36   21.30
   3   3  -8   94.69    7.60
  -3  -3   8   66.09    7.90
   2   3  -8  121.09    9.40
  -2  -3   8  122.49    9.80
  -2  -3   8  120.09   11.20
   1   3  -8  687.43   34.10
  -1  -3   8  671.73   32.70
   0   3  -8 1097.59   55.09
   0  -3   8 1227.88   52.49
   0  -3   8 1161.78   69.29
  -1   3  -8   52.49    5.90
  -1   3  -8   41.60    6.80
   1  -3   8   48.10    9.70
  -2   3  -8  210.18   14.80
  -2   3  -8  228.38   13.80
   2  -3   8  189.28   19.20
  -3   3  -8   94.09    8.60
  -3   3  -8   97.09   10.50
   3  -3   8   80.09   13.20
  -4   3  -8   83.29    9.70
  -4   3  -8   89.49    8.60
   4  -3   8   54.49   12.30
  -5   3  -8   51.19    7.60
  -5   3  -8   63.79    8.30
   5  -3   8   29.00    9.70
  -6   3  -8   76.69    9.80
   6  -3   8   58.09   13.40
   6   2  -8    9.90    3.70
  -6  -2   8   11.60    4.60
   5   2  -8   12.80    3.60
  -5  -2   8   11.20    4.50
   4   2  -8  159.08   10.90
  -4  -2   8  173.98   12.00
   3   2  -8  425.66   22.60
  -3  -2   8  439.36   22.80
   2   2  -8  166.68   10.90
  -2  -2   8  164.68   13.60
  -2  -2   8  160.28   11.00
   1   2  -8   16.90    4.10
  -1  -2   8   14.70    4.50
  -1  -2   8   15.60    3.90
   0   2  -8  838.72   42.10
   0  -2   8  915.71   39.70
   0  -2   8  832.42   52.19
  -1   2  -8  367.16   20.00
  -1   2  -8  351.16   21.50
   1  -2   8  402.36   18.90
  -2   2  -8  105.89    8.40
  -2   2  -8   95.59    9.70
   2  -2   8  136.89   14.40
  -3   2  -8  252.27   15.30
  -3   2  -8  238.08   16.30
   3  -2   8  239.88   21.40
  -4   2  -8    1.90    3.50
  -4   2  -8   -0.10    2.70
   4  -2   8    1.30    5.20
  -5   2  -8  255.57   16.10
  -5   2  -8  231.38   15.60
   5  -2   8  180.28   21.00
  -6   2  -8    6.70    3.90
  -6   2  -8    5.00    3.50
   6  -2   8    2.00    5.70
   6   1  -8  231.78   14.70
  -6  -1   8  235.98   15.50
   5   1  -8   51.89    6.50
  -5  -1   8   78.39    8.50
   4   1  -8   16.50    3.70
  -4  -1   8   15.60    4.50
   3   1  -8  686.23   34.60
  -3  -1   8  690.23   34.40
  -3  -1   8  785.02   44.80
   2   1  -8   38.40    5.20
  -2  -1   8   40.30    5.50
   1   1  -8  218.58   13.90
  -1  -1   8  241.78   13.40
  -1  -1   8  233.18   17.30
   0   1  -8   86.39    8.10
   0  -1   8   80.19    9.10
   0  -1   8   84.29    6.70
  -1   1  -8  223.98   15.20
  -1   1  -8  239.38   13.30
   1  -1   8  235.98   18.00
   1  -1   8  234.88   12.50
  -2   1  -8   45.20    7.20
  -2   1  -8   60.29    5.50
   2  -1   8   31.20    8.10
  -3   1  -8   17.50    4.10
  -3   1  -8   21.70    5.50
   3  -1   8   39.30    8.50
  -4   1  -8   79.89    9.10
   4  -1   8   53.59   10.60
  -5   1  -8   96.29   10.60
  -5   1  -8  100.99    9.00
   5  -1   8   74.29   12.90
  -6   1  -8  111.09   10.00
  -6   1  -8   87.49    9.30
   6  -1   8   68.19   13.50
  -7   1  -8   71.29    9.90
  -7   1  -8   85.69   10.50
  -7   0   8   12.10    4.60
   6   0  -8  287.87   17.00
  -6   0   8  285.07   17.60
   5   0  -8  377.56   20.50
  -5   0   8  386.06   21.20
   4   0  -8   37.80    5.10
  -4   0   8   48.80    6.50
   3   0  -8  258.37   15.20
  -3   0   8  298.17   16.10
  -3   0   8  280.07   20.30
   2   0  -8   81.59    6.90
  -2   0   8   83.29    8.90
  -2   0   8   74.69    7.10
   1   0  -8  243.98   14.20
  -1   0   8  247.88   17.80
  -1   0   8  223.28   13.20
   0   0  -8  210.58   13.40
   0   0   8  207.68   16.10
   0   0   8  221.88   12.00
  -1   0  -8  141.89   11.00
  -1   0  -8  140.49    8.90
   1   0   8  157.88   13.00
   1   0   8  152.08    8.70
  -2   0  -8   88.49    9.10
  -2   0  -8  113.99    8.10
   2   0   8  142.29   12.50
  -3   0  -8 1224.88   56.09
  -3   0  -8 1189.98   56.79
   3   0   8 1081.69   70.39
  -4   0  -8   88.79    7.70
  -4   0  -8   79.69    9.10
   4   0   8   47.40   10.20
  -5   0  -8   70.59    8.40
  -5   0  -8   98.09   10.50
   5   0   8   74.79   13.20
  -6   0  -8  244.28   15.40
  -6   0  -8  194.58   14.60
   6   0   8  162.88   18.70
  -7   0  -8    0.60    3.40
  -7   0  -8    2.80    3.60
   7   0   8   15.40    6.80
  -7   1   8   92.39   10.20
   6  -1  -8   62.69    7.60
  -6   1   8   65.19    8.40
   5  -1  -8  133.99    9.60
  -5   1   8  125.79   10.30
   4  -1  -8    7.00    3.00
  -4   1   8    2.60    3.90
  -4   1   8    1.30    2.80
   3  -1  -8   11.90    3.10
  -3   1   8   11.80    3.50
  -3   1   8    7.30    3.90
   2  -1  -8  477.05   25.00
  -2   1   8  529.65   25.10
  -2   1   8  521.65   32.80
   1  -1  -8   22.00    4.10
  -1   1   8   21.00    5.30
  -1   1   8   17.30    3.60
   0  -1  -8  276.97   15.90
   0   1   8  276.37   14.20
   0   1   8  261.17   19.30
  -1  -1  -8   38.80    6.00
  -1  -1  -8   43.30    4.00
   1   1   8   46.80    4.40
   1   1   8   46.90    7.30
  -2  -1  -8  397.56   22.60
  -2  -1  -8  405.36   21.30
   2   1   8  429.66   27.50
   2   1   8  412.36   19.00
  -3  -1  -8  191.98   11.80
  -3  -1  -8  179.48   13.10
   3   1   8  176.68   15.60
  -4  -1  -8 1817.52   79.19
  -4  -1  -8 1863.31   82.09
   4   1   8 1423.46   99.09
  -5  -1  -8   63.49    7.90
  -5  -1  -8   82.19    9.70
   5   1   8   87.29   13.20
  -6  -1  -8  297.37   18.10
  -6  -1  -8  284.27   18.10
   6   1   8  230.28   23.10
  -7  -1  -8  436.76   26.30
  -7  -1  -8  433.66   25.40
  -7   2   8    2.50    3.60
   6  -2  -8  141.49   10.40
  -6   2   8  139.79   11.40
   5  -2  -8   30.70    4.70
  -5   2   8   40.60    6.10
  -5   2   8   42.30    8.60
   4  -2  -8    5.30    2.70
  -4   2   8   -0.80    3.20
  -4   2   8    1.30    2.70
   3  -2  -8  281.87   15.30
  -3   2   8  290.77   20.90
  -3   2   8  269.97   15.60
   2  -2  -8  321.47   17.30
  -2   2   8  346.47   23.30
  -2   2   8  321.77   17.40
   1  -2  -8    3.00    2.50
  -1   2   8    4.00    3.60
  -1   2   8    4.00    2.50
   0  -2  -8 1660.93   76.09
   0   2   8 1649.63   72.79
   0   2   8 1743.63   96.89
  -1  -2  -8 1414.16   64.39
  -1  -2  -8 1464.15   65.09
   1   2   8 1330.27   80.69
   1   2   8 1362.16   60.29
  -2  -2  -8  184.68   10.70
  -2  -2  -8  190.58   12.80
   2   2   8  178.88   14.60
   2   2   8  174.48    9.60
  -3  -2  -8  171.58   10.80
  -3  -2  -8  166.68   12.00
   3   2   8  161.08   13.60
  -4  -2  -8   81.39    7.50
  -4  -2  -8   89.19    9.80
   4   2   8   81.19    9.90
  -5  -2  -8   58.99    8.10
  -5  -2  -8   50.39    6.80
  -6  -2  -8    3.70    3.50
  -6  -2  -8    4.30    3.70
   6   2   8    7.60    6.50
  -7  -2  -8  141.29   12.40
  -7  -2  -8  134.59   11.80
  -8  -2  -8   79.99   10.70
  -8  -2  -8   78.89   10.70
   6  -3  -8  101.79    8.50
  -6   3   8  107.39    9.80
   5  -3  -8  263.47   14.70
  -5   3   8  241.68   20.50
  -5   3   8  246.18   15.60
   4  -3  -8   86.69    7.10
  -4   3   8  104.59   11.30
  -4   3   8   86.19    8.70
   3  -3  -8    4.30    2.30
  -3   3   8    5.40    3.90
  -3   3   8    8.90    3.40
   2  -3  -8  964.10   44.80
  -2   3   8 1002.50   58.79
  -2   3   8  958.80   44.40
   1  -3  -8   40.30    4.90
  -1   3   8   50.29    5.40
  -1   3   8   47.30    7.40
   0  -3  -8  499.95   24.80
   0   3   8  494.65   23.40
   0   3   8  477.55   31.40
  -1  -3  -8 3131.69  138.89
   1   3   8 3128.69  176.18
   1   3   8 3296.67  144.49
   1   3   8 2994.10  132.89
  -2  -3  -8 1278.17   60.99
   2   3   8 1326.37   56.89
   2   3   8 1330.97   76.49
  -3  -3  -8   24.50    5.20
  -3  -3  -8   16.90    3.50
   3   3   8   12.60    4.30
  -4  -3  -8  104.69    9.60
  -4  -3  -8  104.49    8.50
   4   3   8   97.99   10.20
  -5  -3  -8   58.69    7.80
  -5  -3  -8   66.69    8.10
   5   3   8   78.79   10.10
  -6  -3  -8   73.19    9.10
  -6  -3  -8   77.39    9.60
   6   3   8   74.69   10.40
  -7  -3  -8    2.20    3.60
  -7  -3  -8   -2.90    3.10
   7   3   8   -4.00    3.90
  -8  -3  -8   12.90    5.30
  -8  -3  -8   19.90    6.00
  -6   4   8   54.79   10.50
  -6   4   8   61.39    8.20
   5  -4  -8  913.31   43.40
  -5   4   8  948.31   44.10
  -5   4   8  921.11   58.49
   4  -4  -8   99.79    7.40
  -4   4   8  109.69    9.00
  -4   4   8   93.89   12.80
   3  -4  -8   26.20    3.90
  -3   4   8   21.30    4.40
  -3   4   8   28.40    6.70
   2  -4  -8   40.20    4.80
  -2   4   8   46.90    7.90
  -2   4   8   37.50    5.00
   1  -4  -8  617.24   29.90
  -1   4   8  633.44   39.50
  -1   4   8  626.64   29.60
   0  -4  -8   11.90    3.60
   0   4   8   22.50    3.80
   0   4   8   36.20    6.40
  -1  -4  -8  389.66   19.90
   1   4   8  360.66   18.00
   1   4   8  362.86   24.70
   1   4   8  360.56   18.10
  -2  -4  -8 1971.00   90.89
  -2  -4  -8 1861.21   86.39
   2   4   8 1937.01  114.59
   2   4   8 2278.57   94.09
  -3  -4  -8   14.60    4.30
  -3  -4  -8   16.80    3.00
   3   4   8   16.90    5.00
   3   4   8   12.80    2.80
  -4  -4  -8   19.70    4.70
   4   4   8   12.40    4.50
  -5  -4  -8  301.67   18.30
  -5  -4  -8  295.97   18.30
   5   4   8  290.77   21.20
  -6  -4  -8  145.79   11.90
  -6  -4  -8  142.99   12.00
   6   4   8  132.79   12.70
  -7  -4  -8    5.40    3.60
  -7  -4  -8    3.90    3.50
  -8  -4  -8    3.90    4.30
  -8  -4  -8   -1.60    3.20
  -6   5   8   -3.40    4.20
  -6   5   8    1.10    3.40
  -5   5   8  576.14   40.20
  -5   5   8  589.44   29.90
   4  -5  -8  837.62   39.00
  -4   5   8  848.62   53.39
  -4   5   8  824.72   39.80
   3  -5  -8  137.49    9.10
  -3   5   8  163.88   14.40
  -3   5   8  152.58   10.70
   2  -5  -8   12.40    2.90
  -2   5   8   14.90    3.80
  -2   5   8   12.30    5.00
   1  -5  -8  789.92   37.20
  -1   5   8  816.42   37.10
  -1   5   8  788.82   49.00
   0  -5  -8    4.00    2.80
   0   5   8    4.50    2.60
   0   5   8    0.80    3.50
  -1  -5  -8   12.50    3.60
   1   5   8    4.60    3.50
   1   5   8    5.90    1.60
  -2  -5  -8  105.79    7.40
  -2  -5  -8  101.49    8.60
   2   5   8  106.59    6.90
   2   5   8  100.49   10.20
  -3  -5  -8   -1.80    1.70
  -3  -5  -8    1.10    2.90
   3   5   8   -0.80    3.20
   3   5   8   -0.50    1.60
  -4  -5  -8 1277.27   56.39
   4   5   8 1067.69   57.19
   4   5   8 1228.58   69.69
  -5  -5  -8  208.68   14.50
   5   5   8  215.08   16.90
   5   5   8  240.38   14.40
  -6  -5  -8  462.25   26.40
   6   5   8  472.85   26.40
   6   5   8  469.85   30.80
  -7  -5  -8    4.10    3.60
   7   5   8    2.30    3.20
  -8  -5  -8   31.20    6.60
   8   5   8   24.20    6.20
  -6   6   8    0.10    3.70
  -6   6   8    0.20    4.90
  -5   6   8   19.60    5.00
  -5   6   8   15.80    6.60
  -4   6   8  334.37   18.70
  -4   6   8  306.57   25.00
  -3   6   8  356.86   19.70
  -3   6   8  353.16   26.30
   2  -6  -8   74.79    6.00
  -2   6   8   78.39    7.50
  -2   6   8   77.59   11.00
   1  -6  -8   37.90    4.50
  -1   6   8   33.00    7.10
  -1   6   8   28.60    4.50
   0  -6  -8  950.90   43.80
   0   6   8  943.81   57.09
  -1  -6  -8  108.59    8.30
  -1  -6  -8  108.99    8.00
   1   6   8  100.49    6.80
   1   6   8  106.49   10.70
  -2  -6  -8    0.20    2.00
  -2  -6  -8    2.10    2.90
   2   6   8    2.70    1.80
   2   6   8   -0.60    3.00
  -3  -6  -8  116.99    8.20
  -3  -6  -8  137.69    9.50
   3   6   8  130.59   11.30
   3   6   8   93.59    7.70
  -4  -6  -8  491.85   26.00
  -4  -6  -8  484.45   23.70
   4   6   8  459.05   31.40
   4   6   8  525.75   26.10
  -5  -6  -8  828.52   40.20
   5   6   8  766.22   40.50
   5   6   8  809.02   48.50
  -6  -6  -8   45.80    7.20
   6   6   8   49.50    7.00
  -7  -6  -8    0.90    3.30
   7   6   8    3.80    3.10
  -8  -6  -8  200.58   15.80
   8   6   8  221.08   16.10
  -5   7   8  100.19   10.20
  -5   7   8   79.09   13.20
  -4   7   8   62.29    7.70
  -4   7   8   59.19   11.20
  -3   7   8  244.28   14.90
  -3   7   8  224.98   20.10
  -2   7   8  304.27   17.30
  -2   7   8  311.27   23.40
  -1   7   8  460.05   31.40
   0  -7  -8    6.70    3.20
   0  -7  -8    9.20    3.10
   0   7   8   11.00    4.50
  -1  -7  -8   45.50    5.70
  -1  -7  -8   64.49    6.00
   1   7   8   57.09    5.00
   1   7   8   51.29    7.90
  -2  -7  -8   83.29    7.60
  -2  -7  -8   81.19    7.50
   2   7   8  102.59   10.20
   2   7   8   98.29    6.80
  -3  -7  -8   14.50    4.20
   3   7   8   18.70    5.00
   3   7   8   16.60    3.20
  -4  -7  -8   11.30    4.10
  -4  -7  -8   14.30    3.60
   4   7   8   12.20    4.60
   4   7   8   14.00    3.30
  -5  -7  -8  290.77   18.20
   5   7   8  303.57   17.80
   5   7   8  291.77   20.80
  -6  -7  -8  108.69   10.30
   6   7   8  100.19    9.20
  -7  -7  -8   44.80    7.90
   7   7   8   40.00    6.70
  -8  -7  -8   56.49    8.80
   8   7   8   69.39    9.30
  -5   8   8   20.80    8.00
  -4   8   8   30.20    8.90
   3  -8  -8  144.59   11.20
  -3   8   8  160.68   16.30
   2  -8  -8    4.80    3.50
  -2   8   8   -8.20    3.50
   1  -8  -8  667.63   32.60
  -1   8   8  659.23   42.70
   0  -8  -8 1116.59   49.40
   0   8   8 1021.80   64.49
  -1  -8  -8   14.00    3.70
   1   8   8   14.70    3.10
   1   8   8   10.50    4.60
  -2  -8  -8  780.92   37.00
  -2  -8  -8  753.22   36.90
   2   8   8  748.53   47.50
   2   8   8  822.62   38.80
  -3  -8  -8  458.65   24.60
  -3  -8  -8  485.65   24.90
   3   8   8  504.75   31.70
  -4  -8  -8   25.40    5.10
  -4  -8  -8    8.10    3.20
   4   8   8   20.60    5.40
   4   8   8   22.60    4.10
  -5  -8  -8   44.90    6.70
   5   8   8   39.80    5.90
  -6  -8  -8  311.57   19.50
   6   8   8  304.67   18.90
  -7  -8  -8    0.00    3.90
   7   8   8   -1.00    2.70
  -8  -8  -8   76.09   10.60
   8   8   8   64.79    9.00
   4  -9  -8   54.89    8.10
  -4   9   8   69.59   12.60
   3  -9  -8   10.60    4.20
  -3   9   8    1.40    5.00
   2  -9  -8   17.30    4.80
  -2   9   8   16.10    6.90
   1  -9  -8  111.89    9.60
  -1   9   8  103.79   12.80
   0  -9  -8  573.34   28.60
   0   9   8  572.44   29.20
   0   9   8  541.15   37.00
  -1  -9  -8   94.39    8.80
   1   9   8  100.69    7.60
   1   9   8   89.89   10.90
  -2  -9  -8  105.19    8.90
   2   9   8   67.19    6.60
   2   9   8  104.79   10.60
  -3  -9  -8  206.58   13.10
  -3  -9  -8  215.68   14.00
   3   9   8  219.28   17.00
   3   9   8  222.28   13.70
  -4  -9  -8  168.08   12.10
  -4  -9  -8  188.28   12.50
   4   9   8  180.18   12.30
  -5  -9  -8    7.80    4.20
  -5  -9  -8    7.50    3.50
   5   9   8    7.30    3.30
  -6  -9  -8  465.55   26.30
   6   9   8  477.75   26.70
  -7  -9  -8  184.18   14.20
   7   9   8  171.38   13.40
   4 -10  -8   73.29    9.10
  -4  10   8   57.79   12.20
   3 -10  -8  212.18   15.10
  -3  10   8  219.08   20.70
   2 -10  -8    2.40    3.40
  -2  10   8    5.40    5.10
   1 -10  -8   17.90    4.90
  -1  10   8    9.10    5.90
   0 -10  -8  684.73   34.70
   0  10   8  722.23   45.30
   0  10   8  671.43   35.40
  -1 -10  -8  390.26   21.70
   1  10   8  356.26   20.60
   1  10   8  396.76   27.20
  -2 -10  -8   45.60    6.90
   2  10   8   58.49    8.90
   2  10   8   58.79    6.80
  -3 -10  -8   54.49    7.60
   3  10   8   44.10    6.10
   3  10   8   36.70    7.30
  -4 -10  -8    3.80    3.50
   4  10   8    4.30    2.90
  -5 -10  -8   28.00    5.70
  -5 -10  -8   25.60    5.30
   5  10   8   37.70    5.80
  -6 -10  -8   20.70    5.40
   6  10   8   33.30    6.10
  -7 -10  -8  198.88   15.30
   7  10   8  213.88   15.30
   3 -11  -8   86.59   10.00
  -3  11   8   79.39   13.80
   2 -11  -8  333.67   20.40
  -2  11   8  319.77   26.70
   1 -11  -8   -0.50    3.60
  -1  11   8    4.60    4.90
   0 -11  -8  126.29   11.40
   0  11   8  118.89   14.00
  -1 -11  -8  458.75   25.50
   1  11   8  443.46   31.90
   1  11   8  471.15   25.20
  -2 -11  -8   39.80    6.90
   2  11   8   55.09    6.80
   2  11   8   45.00    8.50
  -3 -11  -8   78.69    9.50
   3  11   8   88.99    8.30
  -4 -11  -8    9.00    4.60
   4  11   8   11.50    3.80
  -5 -11  -8  139.69   12.10
   5  11   8  148.29   11.50
   6  11   8   10.00    3.90
   2 -12  -8   10.00    5.00
  -2  12   8    3.50    5.10
   1 -12  -8   -1.90    3.50
  -1  12   8    6.00    5.10
   0 -12  -8    6.80    4.80
   0  12   8    4.40    5.60
   0  12   8    5.30    3.30
  -1 -12  -8  142.29   12.70
   1  12   8  148.09   11.10
   1  12   8  128.59   14.60
  -2 -12  -8  147.39   13.00
   2  12   8  174.38   12.20
   2  12   8  144.79   14.90
  -3 -12  -8    6.00    4.60
   3  12   8   11.20    4.10
  -4 -12  -8   -0.70    3.90
   4  12   8    1.00    3.10
  -5 -12  -8    5.00    4.30
   5  12   8    1.70    3.00
   0 -13  -8  247.48   17.40
   0  13   8  204.48   20.10
  -1 -13  -8   44.40    8.30
   1  13   8   53.89    7.50
   1  13   8   64.89   11.00
  -2 -13  -8    6.40    5.30
   2  13   8    0.80    2.90
  -3 -13  -8    6.90    4.80
   3  13   8    8.40    3.70
  -4 -13  -8  250.97   18.10
   4  13   8  258.27   17.60
   3   6  -9  107.79   10.10
  -3  -6   9  111.09   11.60
   2   6  -9  118.79   10.90
  -2  -6   9  135.89   11.60
   1   6  -9  221.98   15.60
   0   6  -9  210.78   15.20
   0  -6   9  185.48   20.00
   1  -6   9  215.48   22.20
   2  -6   9  132.69   19.20
   4   5  -9  113.49   10.00
  -4  -5   9  108.19   11.60
   3   5  -9  108.29    9.90
  -3  -5   9  112.09   10.70
   2   5  -9   11.60    4.30
  -2  -5   9   12.80    4.80
   1   5  -9   82.59    9.80
  -1  -5   9  116.59    9.80
   0   5  -9   30.70    6.10
   0  -5   9   33.30    7.90
  -1   5  -9    0.20    3.70
   1  -5   9   -0.40    5.20
  -2   5  -9   80.49   10.00
   2  -5   9   90.49   15.00
   3  -5   9   24.00    8.00
   5   4  -9   58.39    7.50
  -5  -4   9   35.00    6.70
   4   4  -9  359.46   21.40
  -4  -4   9  412.66   22.70
   3   4  -9   57.29    7.40
  -3  -4   9   73.79    8.90
   2   4  -9   11.90    4.20
  -2  -4   9    5.20    3.80
   1   4  -9   35.50    6.60
  -1  -4   9   30.00    5.80
   0   4  -9  160.98   12.70
   0  -4   9  157.28   14.90
  -1   4  -9   15.60    5.40
   1  -4   9    6.90    5.70
  -2   4  -9   24.20    5.60
   2  -4   9   15.40    7.80
  -3   4  -9    0.30    3.60
   3  -4   9    2.60    5.60
  -4   4  -9  317.27   19.20
  -4   4  -9  292.77   19.10
   4  -4   9  232.08   25.20
   5   3  -9    4.00    2.80
  -5  -3   9   -1.60    3.80
   4   3  -9  105.69    8.90
  -4  -3   9  104.69    9.90
   3   3  -9  127.49    9.60
  -3  -3   9  102.29    9.80
   2   3  -9    2.10    2.80
  -2  -3   9    5.70    3.60
   1   3  -9   90.19    8.70
  -1  -3   9   92.69   10.50
  -1  -3   9  102.79    8.80
   0   3  -9  345.17   20.60
   0  -3   9  333.47   24.60
   0  -3   9  349.17   18.80
  -1   3  -9    8.30    4.30
   1  -3   9   -1.90    4.30
  -2   3  -9  114.99   10.30
   2  -3   9   80.29   14.20
  -3   3  -9    1.10    3.30
  -3   3  -9    5.90    3.90
   3  -3   9    6.20    6.10
  -4   3  -9   57.49    8.60
  -4   3  -9   49.10    7.40
   4  -3   9   58.09   11.70
  -5   3  -9  425.46   25.30
  -5   3  -9  468.05   25.40
   5  -3   9  354.06   33.20
   5   2  -9   15.60    4.20
  -5  -2   9   12.60    4.50
   4   2  -9   28.70    5.10
  -4  -2   9   21.60    5.30
   3   2  -9   34.60    5.50
  -3  -2   9   21.20    5.10
   2   2  -9    1.70    2.50
  -2  -2   9    2.80    3.10
  -2  -2   9   -0.10    3.20
   1   2  -9  930.81   46.70
  -1  -2   9  952.60   44.80
  -1  -2   9 1028.60   59.09
   0   2  -9   55.09    7.80
   0  -2   9   51.39    8.50
   0  -2   9   61.89    6.60
  -1   2  -9   73.99    9.40
   1  -2   9  101.99   11.10
  -2   2  -9   87.99   10.30
   2  -2   9  113.39   13.80
  -3   2  -9  121.09   11.10
  -3   2  -9  112.49    9.40
   3  -2   9  110.19   16.20
  -4   2  -9    5.60    4.30
  -4   2  -9    2.60    3.20
   4  -2   9   10.50    7.60
  -5   2  -9   57.09    8.50
  -5   2  -9   43.70    7.10
   5  -2   9   56.29   11.50
  -6   2  -9   88.69   10.70
  -6   2  -9   98.29   11.30
   6  -2   9   82.89   15.10
   6   1  -9   17.40    4.50
  -6  -1   9   27.00    5.60
   5   1  -9  102.79    8.80
  -5  -1   9  112.19   10.10
   4   1  -9   33.40    5.30
  -4  -1   9   31.50    6.00
   3   1  -9   90.59    7.80
  -3  -1   9  101.49    9.00
   2   1  -9   46.00    6.30
  -2  -1   9   60.99    7.00
   1   1  -9  543.75   28.00
  -1  -1   9  540.85   34.80
  -1  -1   9  527.85   26.50
   0   1  -9 1388.26   65.29
   0  -1   9 1435.86   61.89
   0  -1   9 1361.36   81.89
  -1   1  -9  182.48   13.40
   1  -1   9  168.98   14.70
  -2   1  -9    8.60    4.50
   2  -1   9   36.40    7.60
  -3   1  -9  579.54   32.10
  -3   1  -9  703.13   31.70
   3  -1   9  479.55   39.40
  -4   1  -9  170.28   13.60
  -4   1  -9  167.98   12.20
   4  -1   9  156.88   17.50
  -5   1  -9    1.10    3.50
  -5   1  -9    2.80    3.00
   5  -1   9    1.20    5.80
  -6   1  -9  169.48   13.30
  -6   1  -9  179.98   13.90
   6  -1   9  120.29   19.00
   6   0  -9  104.99    9.10
  -6   0   9  112.59   10.30
   5   0  -9   -2.80    2.10
  -5   0   9   -1.20    3.10
   4   0  -9    0.10    2.10
  -4   0   9    1.10    2.90
   3   0  -9  474.15   24.70
  -3   0   9  452.05   24.50
  -3   0   9  511.75   32.30
   2   0  -9   26.40    4.60
  -2   0   9   30.90    5.10
  -2   0   9   28.40    6.40
   1   0  -9    2.30    2.80
  -1   0   9   -0.20    3.10
  -1   0   9   -2.00    2.30
   0   0  -9  935.21   44.90
   0   0   9  887.11   41.90
   0   0   9  965.40   56.39
  -1   0  -9  341.27   20.60
   1   0   9  342.27   24.50
   1   0   9  363.46   17.50
  -2   0  -9   31.20    6.30
   2   0   9   46.30    7.60
  -3   0  -9  146.89   10.20
  -3   0  -9  115.59   11.70
   3   0   9  154.08   15.00
  -4   0  -9  369.86   20.40
  -4   0  -9  353.46   21.60
   4   0   9  302.87   26.80
  -5   0  -9  133.59   11.10
  -5   0  -9  160.88   12.40
   5   0   9  118.39   16.90
  -6   0  -9   12.30    5.10
  -6   0  -9   15.50    4.50
   6   0   9   12.00    8.10
  -7   0  -9  345.47   22.40
  -7   0  -9  349.67   22.20
   6  -1  -9  337.57   19.40
  -6   1   9  332.77   20.00
   5  -1  -9  186.78   12.30
  -5   1   9  180.08   13.10
   4  -1  -9   20.00    4.20
  -4   1   9   22.60    4.90
  -4   1   9   19.00    5.90
   3  -1  -9   90.69    7.40
  -3   1   9   82.89    8.60
  -3   1   9   87.29   10.30
   2  -1  -9  722.43   36.70
  -2   1   9  812.62   47.80
  -2   1   9  765.72   36.10
   1  -1  -9  105.49    8.00
  -1   1   9   84.59    7.20
  -1   1   9   79.19    9.60
   0  -1  -9  353.26   19.60
   0   1   9  351.26   17.80
   0   1   9  345.17   24.20
  -1  -1  -9  831.92   41.40
   1   1   9  839.72   51.29
   1   1   9  846.02   37.70
  -2  -1  -9   91.99    9.40
   2   1   9  118.69   11.30
  -3  -1  -9  103.39    8.30
  -3  -1  -9  114.89   11.90
   3   1   9  105.79   11.10
  -4  -1  -9  157.48   11.20
  -4  -1  -9  153.18   12.40
   4   1   9  138.99   14.90
  -5  -1  -9   52.09    7.10
  -5  -1  -9   49.90    8.40
  -6  -1  -9    3.30    3.80
  -6  -1  -9   -1.20    2.90
   6   1   9   -0.70    5.90
  -7  -1  -9   63.49    9.00
  -7  -1  -9   69.09    9.10
   7   1   9   30.50   10.40
   6  -2  -9   94.69    8.60
  -6   2   9  103.19   10.60
   5  -2  -9  537.85   27.20
  -5   2   9  518.45   27.60
   4  -2  -9   21.00    4.10
  -4   2   9   18.90    4.80
  -4   2   9   12.00    5.40
   3  -2  -9    6.40    2.70
  -3   2   9   10.20    3.90
  -3   2   9   14.60    5.30
   2  -2  -9  712.93   35.30
  -2   2   9  778.62   35.10
  -2   2   9  720.23   46.00
   1  -2  -9  188.88   12.10
  -1   2   9  190.38   11.60
  -1   2   9  192.18   15.70
   0  -2  -9  120.99    9.20
   0   2   9  117.99    8.10
   0   2   9  116.59   11.70
  -1  -2  -9  590.94   30.60
   1   2   9  660.23   38.40
   1   2   9  550.84   27.30
  -2  -2  -9   39.30    6.60
   2   2   9   52.19    8.00
   2   2   9   44.70    4.30
  -3  -2  -9 1269.67   59.49
  -3  -2  -9 1155.38   58.59
   3   2   9 1255.97   72.89
  -4  -2  -9  243.08   15.50
  -4  -2  -9  259.97   17.10
   4   2   9  254.17   19.40
  -5  -2  -9   49.99    7.60
  -5  -2  -9   44.80    6.60
   5   2   9   41.50    8.30
  -6  -2  -9   -3.20    2.80
  -6  -2  -9   -1.20    3.10
   6   2   9    0.10    5.30
  -7  -2  -9  108.49   12.70
  -7  -2  -9  115.69   11.30
   6  -3  -9    3.90    3.10
  -6   3   9   -0.20    3.60
   5  -3  -9  294.17   17.10
  -5   3   9  315.77   18.40
  -5   3   9  298.67   24.10
   4  -3  -9   16.20    3.60
  -4   3   9   24.60    6.90
  -4   3   9   14.20    4.10
   3  -3  -9  264.47   14.90
  -3   3   9  283.07   20.90
  -3   3   9  250.47   15.50
   2  -3  -9   -0.20    2.00
  -2   3   9    5.10    3.00
  -2   3   9   -0.30    3.70
   1  -3  -9   14.00    3.60
  -1   3   9   13.00    5.00
  -1   3   9   14.40    3.50
   0  -3  -9   18.90    4.20
   0   3   9    7.10    3.80
   0   3   9    5.60    2.60
  -1  -3  -9    4.30    3.50
   1   3   9   -0.70    2.00
   1   3   9   -1.20    3.00
  -2  -3  -9  392.96   21.80
   2   3   9  365.96   26.20
   2   3   9  396.36   18.70
  -3  -3  -9  103.79    7.80
  -3  -3  -9   83.89    9.60
   3   3   9  106.49   10.90
  -4  -3  -9 1297.17   62.79
  -4  -3  -9 1303.07   61.59
   4   3   9 1263.47   75.89
  -5  -3  -9   -0.60    3.00
  -5  -3  -9    1.80    3.20
   5   3   9    2.10    3.80
  -6  -3  -9   -0.30    3.20
  -6  -3  -9   -0.50    3.60
   6   3   9   -0.30    3.60
  -7  -3  -9  133.39   12.30
  -7  -3  -9  135.09   12.20
   7   3   9  144.99   14.50
  -6   4   9   18.50    5.40
   5  -4  -9  154.98   10.60
  -5   4   9  149.79   11.80
  -5   4   9  159.18   16.40
   4  -4  -9  419.06   21.30
  -4   4   9  409.06   22.10
  -4   4   9  395.66   29.30
   3  -4  -9    3.90    2.60
  -3   4   9    2.40    3.20
  -3   4   9   -0.30    3.60
   2  -4  -9  343.47   18.70
  -2   4   9  383.76   25.90
  -2   4   9  354.06   19.20
   1  -4  -9   39.70    5.20
  -1   4   9   35.30    6.90
  -1   4   9   32.10    5.00
   0  -4  -9  216.08   12.80
   0   4   9  193.98   11.70
   0   4   9  194.08   16.10
  -1  -4  -9 1811.22   81.59
   1   4   9 1829.32  103.79
   1   4   9 1755.02   77.79
  -2  -4  -9  168.68   11.70
   2   4   9  146.09   13.50
  -3  -4  -9   33.00    6.20
   3   4   9   28.60    6.30
   3   4   9   26.50    3.90
  -4  -4  -9  620.74   33.10
   4   4   9  644.94   40.20
  -5  -4  -9  201.28   14.00
  -5  -4  -9  208.18   14.70
   5   4   9  201.08   16.70
  -6  -4  -9   14.60    5.10
  -6  -4  -9    2.40    3.40
   6   4   9   -2.40    3.60
  -7  -4  -9    3.00    3.50
  -7  -4  -9   10.70    4.80
   7   4   9   14.30    5.50
  -8  -4  -9  136.39   12.70
  -8  -4  -9  103.89   12.60
  -6   5   9   -0.90    4.40
  -6   5   9   -0.10    3.50
  -5   5   9   10.00    4.20
  -5   5   9    1.40    4.70
   4  -5  -9  183.48   11.70
  -4   5   9  192.88   13.30
  -4   5   9  215.68   18.50
   3  -5  -9  392.96   20.90
  -3   5   9  437.36   30.00
  -3   5   9  420.56   22.20
   2  -5  -9   45.20    5.40
  -2   5   9   34.70    5.20
  -2   5   9   47.00    8.50
   1  -5  -9  583.34   28.60
  -1   5   9  605.54   28.80
  -1   5   9  577.44   38.10
   0  -5  -9  126.19    9.20
   0   5   9  122.19   12.30
   0   5   9  124.59    8.80
  -1  -5  -9  363.26   20.00
   1   5   9  365.86   18.80
   1   5   9  386.76   25.80
  -2  -5  -9  449.95   24.80
  -2  -5  -9  489.65   23.20
   2   5   9  479.95   31.20
  -3  -5  -9   24.40    3.90
  -3  -5  -9   29.00    5.60
   3   5   9   34.30    4.20
   3   5   9   30.70    6.50
  -4  -5  -9  482.75   25.20
   4   5   9  381.26   23.40
   4   5   9  501.65   30.20
  -5  -5  -9 1257.97   60.99
   5   5   9 1306.27   75.39
   5   5   9 1257.57   62.39
  -6  -5  -9  116.99   11.60
   6   5   9  132.99   10.60
   6   5   9  122.59   12.30
  -7  -5  -9   57.49    9.10
   7   5   9   78.79    9.50
  -8  -5  -9   40.20    7.90
   8   5   9   53.79    8.60
  -5   6   9  150.58   17.00
  -5   6   9  183.98   13.10
  -4   6   9  125.99   10.60
  -4   6   9  121.09   14.20
  -3   6   9   66.79    8.00
  -3   6   9   90.19   12.30
   2  -6  -9   21.10    3.80
  -2   6   9   24.00    6.90
  -2   6   9   21.70    4.70
   1  -6  -9  865.61   41.80
  -1   6   9  950.40   55.89
  -1   6   9  897.11   41.80
   0  -6  -9   64.49    6.40
   0   6   9   70.19    7.10
   0   6   9   62.59    9.50
  -1  -6  -9   -2.00    2.60
  -1  -6  -9    1.90    2.30
   1   6   9    0.60    3.60
  -2  -6  -9    2.70    3.10
  -2  -6  -9    1.70    1.50
   2   6   9    4.00    4.10
  -3  -6  -9   33.70    5.90
  -3  -6  -9   19.90    4.00
   3   6   9   26.00    6.10
   3   6   9   30.00    4.00
  -4  -6  -9    4.30    3.80
   4   6   9    0.80    3.90
   4   6   9    1.40    2.20
  -5  -6  -9  251.37   16.50
   5   6   9  236.18   15.10
   5   6   9  249.88   18.80
  -6  -6  -9  496.15   27.80
   6   6   9  469.25   32.20
   6   6   9  500.65   27.30
  -7  -6  -9   -4.10    2.70
   7   6   9    1.20    2.90
  -8  -6  -9    1.80    3.90
   8   6   9    3.00    3.40
  -5   7   9   40.20    6.90
  -5   7   9   44.90   10.30
  -4   7   9  167.18   17.70
  -4   7   9  186.88   13.20
  -3   7   9   10.30    4.00
  -3   7   9    7.00    4.90
  -2   7   9   17.60    4.20
  -2   7   9   19.10    6.60
  -1   7   9 1096.29   50.29
  -1   7   9 1100.29   66.89
   0  -7  -9  824.02   42.10
   0  -7  -9  953.30   42.60
   0   7   9  956.30   56.29
  -1  -7  -9   51.29    6.20
  -1  -7  -9   59.89    6.60
   1   7   9   57.89    9.10
  -2  -7  -9   -2.10    2.10
  -2  -7  -9    7.20    3.50
   2   7   9    7.30    2.20
   2   7   9    7.10    4.30
  -3  -7  -9   34.70    5.30
  -3  -7  -9   53.99    7.00
   3   7   9   52.39    8.10
   3   7   9   46.00    5.20
  -4  -7  -9   68.29    8.20
   4   7   9   61.09    9.10
  -5  -7  -9  101.99   10.00
   5   7   9   98.39   10.60
   5   7   9   93.79    8.30
  -6  -7  -9  112.69   10.90
   6   7   9  108.49    9.50
  -7  -7  -9   11.20    5.40
   7   7   9   17.50    4.90
  -5   8   9    0.10    5.10
  -5   8   9    1.60    4.00
  -4   8   9   72.89   13.20
  -4   8   9   95.79   10.10
  -3   8   9   22.40    7.10
  -2   8   9   22.00    6.80
   1  -8  -9  117.09    9.70
  -1   8   9  113.39   12.60
   0  -8  -9  412.66   21.50
   0   8   9  389.66   28.40
  -1  -8  -9  185.08   12.30
  -1  -8  -9  207.28   12.40
   1   8   9  187.98   16.40
  -2  -8  -9   18.40    4.20
  -2  -8  -9   10.80    3.70
   2   8   9    9.40    4.90
   2   8   9   16.40    3.20
  -3  -8  -9   99.79    8.60
  -3  -8  -9   91.19    8.20
   3   8   9   98.99   10.70
   3   8   9   95.29    7.60
  -4  -8  -9  127.69   10.40
  -4  -8  -9  116.59    9.30
   4   8   9  131.39   12.50
   4   8   9  127.19    9.30
  -5  -8  -9   -4.40    3.10
   5   8   9    3.20    2.70
  -6  -8  -9   23.70    5.90
   6   8   9   19.70    4.60
  -7  -8  -9   13.40    5.70
   7   8   9    9.40    4.10
   4  -9  -9    6.90    4.20
  -4   9   9   12.10    6.80
   3  -9  -9   81.39    9.30
  -3   9   9   64.79   11.60
   2  -9  -9   14.40    4.80
  -2   9   9    6.00    5.60
   1  -9  -9   73.99    8.50
  -1   9   9   83.19   11.70
   0  -9  -9    0.90    3.00
   0   9   9    7.90    4.70
  -1  -9  -9    2.00    3.00
   1   9   9    4.80    4.40
  -2  -9  -9  397.86   22.50
   2   9   9  412.16   28.70
   2   9   9  438.36   22.70
  -3  -9  -9   19.80    4.70
  -3  -9  -9   23.20    4.80
   3   9   9   34.70    7.00
   3   9   9   23.90    4.30
  -4  -9  -9    2.30    2.80
  -4  -9  -9   -2.30    3.20
   4   9   9    3.20    2.60
   4   9   9    3.60    4.20
  -5  -9  -9   12.00    4.60
   5   9   9   17.60    4.10
  -6  -9  -9    3.70    4.20
   6   9   9    2.90    2.70
  -7  -9  -9   77.89   10.00
   7   9   9   85.49    8.90
   3 -10  -9   65.29    8.50
  -3  10   9   58.29   11.50
   2 -10  -9   49.20    7.40
  -2  10   9   44.90    9.90
   1 -10  -9   10.40    4.30
  -1  10   9    6.30    5.30
   0 -10  -9    0.60    3.30
   0  10   9    1.40    3.60
  -1 -10  -9   59.19    7.70
   1  10   9   54.49    9.50
  -2 -10  -9   73.09    8.90
   2  10   9   76.09    7.10
   2  10   9   70.39   10.30
  -3 -10  -9  538.55   28.10
   3  10   9  498.75   28.20
   3  10   9  554.74   35.10
  -4 -10  -9  269.47   17.90
   4  10   9  318.87   18.20
  -5 -10  -9  151.68   12.10
   5  10   9  159.48   11.80
  -6 -10  -9  231.58   15.70
   6  10   9  203.48   14.70
  -7 -10  -9    5.20    4.50
   7  10   9    9.20    4.00
   3 -11  -9   22.00    5.90
  -3  11   9   10.20    6.80
   2 -11  -9    9.50    4.80
  -2  11   9   10.60    6.20
   1 -11  -9  199.98   14.50
  -1  11   9  180.78   18.40
   0 -11  -9  146.99   12.60
   0  11   9  151.98   15.80
  -1 -11  -9   10.80    4.40
   1  11   9    8.30    5.20
  -2 -11  -9  222.18   15.60
   2  11   9  220.68   18.50
  -3 -11  -9   65.19    8.60
   3  11   9   65.39    9.90
   3  11   9   71.99    7.40
  -4 -11  -9  188.18   14.60
   4  11   9  206.18   13.90
  -5 -11  -9   88.19   10.30
   5  11   9   87.89    8.60
   6  11   9  144.39   11.80
   2 -12  -9   46.30    7.90
  -2  12   9   43.70   10.40
   1 -12  -9   76.09   10.10
  -1  12   9   73.39   12.90
   0 -12  -9  432.26   24.70
   0  12   9  409.06   31.30
  -1 -12  -9  126.39   11.50
   1  12   9  131.89   14.50
  -2 -12  -9    7.80    4.60
   2  12   9   14.70    4.20
   2  12   9   17.10    6.10
  -3 -12  -9    1.10    4.10
   3  12   9    0.20    2.90
  -4 -12  -9  173.78   14.60
   4  12   9  201.58   14.20
  -5 -12  -9   44.10    7.90
   5  12   9   62.39    8.10
   0 -13  -9   53.59    8.60
   0  13   9   59.29   11.30
  -1 -13  -9  226.88   16.90
   1  13   9  223.28   20.50
  -2 -13  -9    6.20    4.50
   2  13   9    0.30    3.00
  -3 -13  -9    3.30    4.60
   3  13   9    3.10    3.40
  -4 -13  -9  174.38   15.00
   4  13   9  177.18   14.00
   2   5 -10   97.19    9.50
  -2  -5  10   89.09   10.50
   1   5 -10   65.59    9.10
   0   5 -10    5.20    4.20
   0  -5  10    0.70    4.30
  -1   5 -10   44.80    7.90
   1  -5  10   36.50    9.60
   2  -5  10   68.69   13.90
   3   4 -10  175.18   13.10
  -3  -4  10  177.28   13.50
   2   4 -10   21.70    5.50
  -2  -4  10   25.90    5.70
   1   4 -10  126.19   10.90
  -1  -4  10  124.59   10.80
   0   4 -10    3.70    3.60
   0  -4  10    4.30    4.40
  -1   4 -10    1.20    3.60
   1  -4  10   12.80    5.80
  -2   4 -10   74.59   10.10
   2  -4  10   57.89   12.20
  -3   4 -10   61.39    9.50
   3  -4  10   39.80   12.20
   4   3 -10  222.48   14.70
  -4  -3  10  216.78   15.40
   3   3 -10   10.90    3.90
  -3  -3  10   25.40    5.60
   2   3 -10   47.80    7.00
  -2  -3  10   37.10    6.30
   1   3 -10  605.84   32.20
  -1  -3  10  573.24   39.30
  -1  -3  10  639.94   30.80
   0   3 -10  467.55   26.50
   0  -3  10  461.45   32.10
  -1   3 -10  132.09   11.70
   1  -3  10  129.89   13.80
  -2   3 -10   13.00    5.00
   2  -3  10    2.70    6.30
  -3   3 -10   35.50    7.50
   3  -3  10   22.60    9.10
  -4   3 -10    1.70    3.80
   4  -3  10   -3.90    5.90
   5   2 -10    8.70    3.70
  -5  -2  10    9.90    4.50
   4   2 -10   59.69    7.60
  -4  -2  10   45.80    6.90
   3   2 -10  101.49    9.10
  -3  -2  10  106.69    9.80
   2   2 -10   59.39    7.60
  -2  -2  10   45.80    8.40
  -2  -2  10   55.79    7.40
   1   2 -10  593.94   32.20
  -1  -2  10  613.84   30.60
  -1  -2  10  640.84   40.10
   0   2 -10 1243.88   61.99
   0  -2  10 1389.86   59.99
   0  -2  10 1275.17   77.79
  -1   2 -10  146.09   12.60
   1  -2  10  143.69   14.30
  -2   2 -10   -1.70    3.60
   2  -2  10    2.20    4.70
  -3   2 -10   34.40    7.50
   3  -2  10   34.50   10.00
  -4   2 -10   45.70    8.00
   4  -2  10   25.80   10.10
  -5   2 -10   36.70    7.20
   5  -2  10   19.50   10.10
   5   1 -10   42.90    6.40
  -5  -1  10   58.29    8.00
   4   1 -10    7.20    3.20
  -4  -1  10    0.00    3.40
   3   1 -10   47.60    6.60
  -3  -1  10   57.59    7.50
   2   1 -10   83.39    8.30
  -2  -1  10   88.79    8.40
  -2  -1  10   76.49   10.80
   1   1 -10    2.50    3.00
  -1  -1  10    3.90    3.80
  -1  -1  10    7.30    3.50
   0   1 -10  574.44   31.10
   0  -1  10  596.34   38.60
   0  -1  10  593.44   28.70
  -1   1 -10  307.87   20.10
   1  -1  10  333.87   24.10
  -2   1 -10  124.39   12.10
   2  -1  10  157.38   14.40
  -3   1 -10    1.70    3.80
   3  -1  10    4.70    5.40
  -4   1 -10  203.48   16.00
  -5   1 -10    7.40    5.30
  -5   1 -10    9.10    3.80
   5  -1  10    0.40    7.40
  -6   1 -10    3.60    4.10
  -6   1 -10    0.70    3.20
   6  -1  10   -3.20    6.90
   5   0 -10  505.95   27.10
  -5   0  10  513.55   27.40
   4   0 -10    3.40    2.70
  -4   0  10    9.50    4.30
   3   0 -10   14.30    3.80
  -3   0  10   17.80    4.70
  -3   0  10    5.40    3.80
   2   0 -10   83.99    7.90
  -2   0  10   90.59   10.50
  -2   0  10   90.79    8.40
   1   0 -10   40.60    6.20
  -1   0  10   57.29    8.90
  -1   0  10   53.79    6.40
   0   0 -10  105.39   10.00
   0   0  10  111.89   12.00
   0   0  10  132.19    8.90
  -1   0 -10  105.69   11.10
   1   0  10   89.99   10.90
  -2   0 -10   69.39    9.70
   2   0  10   80.89   10.20
  -3   0 -10  240.38   18.40
   3   0  10  309.57   22.50
  -4   0 -10    3.30    3.80
   4   0  10    2.70    5.40
  -5   0 -10   17.40    6.00
  -5   0 -10   26.60    5.40
   5   0  10   19.50    8.20
  -6   0 -10   11.30    4.70
  -6   0 -10    5.80    4.10
   6   0  10   -1.60    6.90
   5  -1 -10  318.27   18.70
  -5   1  10  331.47   19.60
   4  -1 -10   17.00    4.00
  -4   1  10   15.20    4.40
   3  -1 -10    1.00    2.40
  -3   1  10    5.00    3.60
  -3   1  10    3.00    4.10
   2  -1 -10  411.06   22.30
  -2   1  10  408.76   28.70
  -2   1  10  421.76   22.00
   1  -1 -10   59.89    7.30
  -1   1  10   62.49    6.80
  -1   1  10   66.79    9.80
   0  -1 -10  147.59   11.20
   0   1  10  132.09    9.30
   0   1  10  145.29   13.50
  -1  -1 -10   28.20    5.90
   1   1  10   20.70    5.90
   1   1  10   30.50    4.20
  -2  -1 -10    3.30    3.80
   2   1  10   -1.70    3.40
  -3  -1 -10  382.06   24.30
   3   1  10  430.96   29.00
  -4  -1 -10  554.04   32.60
   4   1  10  620.44   39.50
  -5  -1 -10   30.30    6.70
  -5  -1 -10   28.60    5.50
   5   1  10   13.30    6.80
  -6  -1 -10   65.49    9.60
  -6  -1 -10   65.99    8.50
   6   1  10   33.40    9.80
   5  -2 -10   75.99    8.50
  -5   2  10   81.39    9.30
   4  -2 -10   39.90    6.00
  -4   2  10   41.60    6.50
  -4   2  10   37.90    8.20
   3  -2 -10  381.16   20.70
  -3   2  10  391.86   21.10
  -3   2  10  372.26   27.30
   2  -2 -10  125.79    9.70
  -2   2  10  136.39   13.40
  -2   2  10  139.89   10.30
   1  -2 -10   -0.20    2.70
  -1   2  10   -0.60    3.60
  -1   2  10   -0.80    2.40
   0  -2 -10   19.80    4.60
   0   2  10   17.00    5.20
   0   2  10   15.40    3.50
  -1  -2 -10   48.10    7.10
   1   2  10   59.79    5.30
   1   2  10   49.00    8.10
  -2  -2 -10   26.30    5.80
   2   2  10   17.40    5.60
  -3  -2 -10    7.10    4.40
   3   2  10    3.80    4.40
  -4  -2 -10  269.77   19.10
   4   2  10  303.97   22.30
  -5  -2 -10  237.48   15.60
  -5  -2 -10  220.88   16.50
   5   2  10  230.78   19.50
  -6  -2 -10   21.40    6.40
  -6  -2 -10   26.70    5.90
   6   2  10   18.30    6.50
  -7  -2 -10  215.88   16.80
  -7  -2 -10  218.28   17.00
   7   2  10  236.48   21.20
   5  -3 -10    4.70    2.90
  -5   3  10   11.60    4.70
   4  -3 -10    8.40    3.20
  -4   3  10   14.90    6.00
  -4   3  10    6.60    3.60
   3  -3 -10   10.90    3.40
  -3   3  10    7.20    3.90
  -3   3  10    4.20    4.30
   2  -3 -10  963.50   45.50
  -2   3  10  959.30   59.29
  -2   3  10  958.50   44.70
   1  -3 -10  387.56   20.80
  -1   3  10  385.96   20.10
  -1   3  10  371.96   27.00
   0  -3 -10  172.18   11.60
   0   3  10  167.28   14.80
   0   3  10  155.48   10.20
  -1  -3 -10  114.99    9.60
   1   3  10  114.49    7.70
   1   3  10   96.29   11.20
  -2  -3 -10    6.60    4.20
   2   3  10   -2.60    3.00
  -3  -3 -10   44.40    7.40
   3   3  10   43.20    7.70
  -4  -3 -10  586.34   33.30
   4   3  10  648.04   40.40
  -5  -3 -10  198.98   15.50
  -5  -3 -10  212.48   14.30
   5   3  10  193.28   17.20
  -6  -3 -10   25.50    5.70
  -6  -3 -10   21.90    6.30
   6   3  10   25.00    7.20
  -7  -3 -10   45.50    7.60
  -7  -3 -10   36.90    7.50
   7   3  10   43.30    9.20
   5  -4 -10   87.39    7.80
  -5   4  10   82.39    9.20
  -5   4  10   63.09   11.50
   4  -4 -10    1.40    2.50
  -4   4  10    1.30    3.10
  -4   4  10   -1.10    4.10
   3  -4 -10    3.90    2.90
  -3   4  10   -1.30    2.90
  -3   4  10   -0.30    3.90
   2  -4 -10  337.97   18.80
  -2   4  10  356.56   19.30
  -2   4  10  345.77   25.50
   1  -4 -10  968.20   46.70
  -1   4  10 1020.40   45.80
  -1   4  10  997.10   60.99
   0  -4 -10  447.06   23.00
   0   4  10  411.26   21.30
   0   4  10  418.46   29.30
  -1  -4 -10   78.39    8.70
   1   4  10   61.29    5.90
   1   4  10   59.09    8.90
  -2  -4 -10  451.15   25.50
   2   4  10  466.45   22.40
   2   4  10  474.75   31.30
  -3  -4 -10   93.59   10.60
   3   4  10   84.19   10.30
  -4  -4 -10   46.70    8.10
   4   4  10   52.99    8.70
  -5  -4 -10  551.64   29.00
  -5  -4 -10  479.05   29.00
   5   4  10  529.25   35.00
  -6  -4 -10   17.20    5.30
  -6  -4 -10   16.90    4.80
   6   4  10   13.60    5.70
  -7  -4 -10  142.29   13.20
  -7  -4 -10  124.99   12.00
   7   4  10  129.89   14.10
  -5   5  10  202.08   19.70
  -5   5  10  211.78   14.60
   4  -5 -10  117.29    9.00
  -4   5  10  127.49   10.70
  -4   5  10  126.49   14.10
   3  -5 -10    2.80    2.70
  -3   5  10    4.00    3.40
  -3   5  10    5.50    5.00
   2  -5 -10   41.80    5.70
  -2   5  10   52.39    6.70
  -2   5  10   56.89    9.70
   1  -5 -10  649.74   33.00
  -1   5  10  712.33   33.10
  -1   5  10  689.03   44.00
   0  -5 -10    8.30    3.50
   0   5  10   -2.40    3.00
   0   5  10    4.00    3.00
  -1  -5 -10   -0.20    3.10
   1   5  10    5.30    4.50
   1   5  10   -0.30    2.20
  -2  -5 -10    1.50    3.80
  -2  -5 -10    0.90    1.90
   2   5  10    1.00    3.90
  -3  -5 -10  111.09   10.00
   3   5  10  106.49   11.50
  -4  -5 -10   44.10    7.70
   4   5  10   39.00    7.30
   4   5  10   47.30    6.10
  -5  -5 -10  156.88   13.30
   5   5  10  159.48   14.70
  -6  -5 -10  205.28   15.50
   6   5  10  202.68   17.50
   6   5  10  201.48   14.30
  -7  -5 -10   -1.80    3.70
   7   5  10   -0.40    2.80
  -5   6  10  185.48   13.60
  -5   6  10  157.78   17.70
  -4   6  10  323.27   20.00
  -4   6  10  359.96   27.50
  -3   6  10   22.60    5.00
  -3   6  10   15.70    6.40
   2  -6 -10   55.59    6.10
  -2   6  10   57.29    9.60
  -2   6  10   47.30    6.50
   1  -6 -10  374.16   20.10
  -1   6  10  384.76   20.80
  -1   6  10  396.96   28.00
   0  -6 -10  625.24   30.40
   0   6  10  581.44   39.80
   0   6  10  625.64   29.80
  -1  -6 -10  117.39    9.40
   1   6  10  106.39   12.10
  -2  -6 -10   55.29    6.50
  -2  -6 -10   87.79    8.50
   2   6  10   88.39   11.30
  -3  -6 -10   38.30    6.80
  -3  -6 -10   46.70    6.20
   3   6  10   46.00    8.00
  -4  -6 -10  146.39   12.50
   4   6  10  158.78   10.90
   4   6  10  178.38   15.20
  -5  -6 -10  131.39   11.40
   5   6  10  118.29   12.70
  -6  -6 -10    6.50    4.50
   6   6  10    1.20    2.90
   6   6  10   -2.60    3.30
  -7  -6 -10   11.80    5.20
   7   6  10    7.20    4.00
  -5   7  10    9.00    4.60
  -5   7  10   17.70    7.40
  -4   7  10    7.10    5.80
  -4   7  10    2.40    3.90
  -3   7  10   40.50    6.80
  -3   7  10   41.60    9.00
  -2   7  10   46.40    6.40
  -2   7  10   52.89    9.50
  -1   7  10   44.20    6.50
  -1   7  10   43.50    8.90
   0  -7 -10  402.66   21.30
   0   7  10  412.26   29.00
  -1  -7 -10   25.10    5.00
  -1  -7 -10   32.10    4.90
   1   7  10   33.30    7.40
  -2  -7 -10    1.90    3.60
  -2  -7 -10    4.10    2.60
   2   7  10    2.90    4.20
  -3  -7 -10    3.30    3.90
  -3  -7 -10   -0.60    2.20
   3   7  10   -1.90    3.70
  -4  -7 -10   19.60    5.70
   4   7  10   19.70    3.80
   4   7  10   28.00    6.80
  -5  -7 -10  358.46   21.70
   5   7  10  331.17   20.00
   5   7  10  368.46   25.50
  -6  -7 -10   30.50    6.90
   6   7  10   23.90    5.00
  -7  -7 -10   24.90    6.60
   7   7  10   36.60    6.30
  -4   8  10   14.90    4.80
  -4   8  10    0.80    5.50
  -3   8  10    0.00    4.80
  -3   8  10    3.10    3.90
  -2   8  10  231.58   20.30
   1  -8 -10  505.55   26.50
  -1   8  10  506.15   35.40
   0  -8 -10  151.58   11.10
   0   8  10  136.59   14.40
  -1  -8 -10    2.40    2.90
  -1  -8 -10    5.60    3.50
   1   8  10    3.90    4.70
  -2  -8 -10  125.29    9.60
  -2  -8 -10  111.49    9.10
   2   8  10  110.29   12.10
  -3  -8 -10    3.00    3.60
  -3  -8 -10    3.70    2.30
   3   8  10    7.00    4.80
  -4  -8 -10    7.10    4.00
   4   8  10    0.80    4.00
   4   8  10    3.40    2.40
  -5  -8 -10  118.19   10.90
   5   8  10  102.59   11.90
   5   8  10  109.79    9.20
  -6  -8 -10   73.49   10.00
   6   8  10   68.09    8.40
  -7  -8 -10   57.89    9.30
   7   8  10   65.09    8.40
   4  -9 -10   20.70    5.60
  -4   9  10   13.00    6.80
   3  -9 -10    6.70    4.00
  -3   9  10    4.90    5.30
   2  -9 -10    7.30    3.90
  -2   9  10   -3.50    3.50
   1  -9 -10  418.46   23.30
  -1   9  10  436.36   31.30
   0  -9 -10  276.07   16.90
   0   9  10  275.37   22.40
  -1  -9 -10   -0.70    2.90
   1   9  10    3.20    4.60
  -2  -9 -10  162.78   12.20
   2   9  10  178.98   15.90
  -3  -9 -10  559.44   28.30
  -3  -9 -10  515.25   28.00
   3   9  10  547.35   36.10
  -4  -9 -10  302.27   17.50
  -4  -9 -10  261.37   16.70
   4   9  10  251.57   16.10
  -5  -9 -10   59.69    8.20
   5   9  10   55.99    7.00
  -6  -9 -10   50.59    8.10
   6   9  10   46.80    6.60
  -7  -9 -10    7.60    4.50
   7   9  10    0.10    2.90
   3 -10 -10   47.60    7.50
  -3  10  10   73.49   13.00
   2 -10 -10   -1.80    3.20
  -2  10  10   -2.10    4.60
   1 -10 -10   63.79    8.30
  -1  10  10   45.00    9.30
   0 -10 -10   65.99    8.20
   0  10  10   49.20    9.60
  -1 -10 -10    4.20    3.50
   1  10  10    5.00    4.90
  -2 -10 -10  102.19    9.70
   2  10  10  107.99   12.30
  -3 -10 -10  176.98   13.30
   3  10  10  187.18   16.30
  -4 -10 -10  439.56   24.10
   4  10  10  481.25   30.30
   4  10  10  361.16   23.00
  -5 -10 -10   49.99    7.50
   5  10  10   61.59    7.60
  -6 -10 -10   56.09    8.60
   6  10  10   53.29    7.20
   2 -11 -10  262.47   17.40
  -2  11  10  255.07   23.20
   1 -11 -10   62.09    8.20
  -1  11  10   46.40   10.30
   0 -11 -10  175.08   13.90
   0  11  10  192.88   17.90
  -1 -11 -10   25.10    5.70
   1  11  10   13.40    5.80
  -2 -11 -10  256.97   17.20
   2  11  10  266.07   21.50
  -3 -11 -10   29.60    6.30
   3  11  10   32.10    7.50
  -4 -11 -10  126.89   12.10
   4  11  10  168.18   11.80
   5  11  10    0.30    2.60
   6  11  10   48.30    7.30
   1 -12 -10  107.89   11.70
  -1  12  10  109.69   15.90
   0 -12 -10   67.59    9.20
   0  12  10   85.59   12.80
  -1 -12 -10  332.67   21.10
   1  12  10  336.27   26.60
  -2 -12 -10   36.80    7.30
   2  12  10   38.10    8.40
  -3 -12 -10  110.69   12.20
  -4 -12 -10   31.20    7.00
   4  12  10   35.30    6.30
   5  12  10   24.20    5.50
  -1 -13 -10    0.60    4.10
   1  13  10    3.90    5.70
  -2 -13 -10   33.50    7.20
   2  13  10   44.90    9.20
  -3 -13 -10   29.60    7.00
   1   4 -11  112.09   11.10
   0   4 -11   46.00    8.00
   0  -4  11   38.40    8.50
  -1   4 -11   69.29   10.00
   1  -4  11   90.29   13.10
   3   3 -11   74.89    9.50
  -3  -3  11   58.79    8.20
   2   3 -11   57.09    8.20
  -2  -3  11   67.99    8.70
   1   3 -11   39.40    7.10
  -1  -3  11   33.90    7.50
   0   3 -11  140.69   12.50
   0  -3  11  131.19   14.20
  -1   3 -11   -2.30    3.40
   1  -3  11   13.20    5.90
  -2   3 -11  231.78   18.00
   2  -3  11  261.27   22.10
  -3   3 -11   57.59    9.70
   4   2 -11   18.40    4.60
  -4  -2  11   21.70    5.40
   3   2 -11   16.50    4.80
  -3  -2  11    6.50    4.20
   2   2 -11    4.70    3.60
  -2  -2  11   13.50    4.50
   1   2 -11   13.30    4.60
  -1  -2  11   15.50    4.50
  -1  -2  11   16.40    5.60
   0   2 -11   41.50    7.30
   0  -2  11   39.60    8.40
  -1   2 -11  165.38   14.20
   1  -2  11  184.48   16.90
  -2   2 -11   70.29   10.40
   2  -2  11   88.39   12.70
  -3   2 -11   81.39   11.70
   3  -2  11   92.79   14.20
  -4   2 -11    5.30    4.90
   4  -2  11   10.10    8.20
   4   1 -11   18.20    4.80
  -4  -1  11   22.20    5.70
   3   1 -11  147.79   11.70
  -3  -1  11  177.88   12.60
   2   1 -11   32.50    5.90
  -2  -1  11   48.40    6.80
  -2  -1  11   39.80    8.00
   1   1 -11  198.78   14.60
  -1  -1  11  216.58   13.70
  -1  -1  11  214.28   18.00
   0   1 -11  348.27   20.90
   0  -1  11  332.57   25.30
  -1   1 -11    0.40    3.80
   1  -1  11    0.40    4.00
  -2   1 -11   11.60    5.60
   2  -1  11   15.30    6.30
  -3   1 -11  119.29   14.00
   3  -1  11  157.68   15.40
  -4   1 -11   73.49   10.80
   4  -1  11   51.89   10.90
  -5   1 -11   -4.00    4.00
   5  -1  11   -1.80    6.30
   4   0 -11   39.30    6.40
  -4   0  11   53.09    7.60
   3   0 -11  109.29    9.40
  -3   0  11  109.99    9.90
   2   0 -11    5.90    3.50
  -2   0  11   11.60    4.20
  -2   0  11    8.40    4.90
   1   0 -11   64.29    8.20
  -1   0  11   82.29   11.50
  -1   0  11   86.79    7.90
   0   0 -11  250.97   16.60
   0   0  11  246.98   14.50
   0   0  11  242.18   20.00
  -1   0 -11   33.40    6.60
   1   0  11   40.40    8.10
  -2   0 -11    5.00    4.40
   2   0  11    9.70    4.90
  -3   0 -11  328.47   23.80
   3   0  11  462.45   29.80
  -4   0 -11  436.76   29.00
   4   0  11  557.14   36.00
  -5   0 -11  127.89   15.00
   5   0  11  130.09   16.20
   5  -1 -11   24.80    5.10
  -5   1  11   34.40    6.80
   4  -1 -11    4.50    3.30
  -4   1  11    4.70    4.00
   3  -1 -11  151.68   11.00
  -3   1  11  137.29   14.50
  -3   1  11  131.59   11.00
   2  -1 -11  177.88   12.90
  -2   1  11  185.28   16.60
  -2   1  11  191.08   12.90
   1  -1 -11   57.19    7.60
  -1   1  11   52.49    9.10
  -1   1  11   62.19    7.20
   0  -1 -11   95.69    8.90
   0   1  11   84.89    7.50
   0   1  11   81.09   10.30
  -1  -1 -11   49.50    7.60
   1   1  11   42.50    8.40
  -2  -1 -11   28.00    6.60
   2   1  11   26.00    7.10
  -3  -1 -11    9.30    4.80
   3   1  11    4.60    4.50
  -4  -1 -11  338.77   23.80
   4   1  11  409.06   28.50
  -5  -1 -11  252.37   19.40
   5   1  11  269.57   22.40
  -6  -1 -11    0.70    4.50
   6   1  11    3.30    5.50
   5  -2 -11  117.29   10.20
  -5   2  11  142.79   11.90
   4  -2 -11   54.79    7.10
  -4   2  11   53.49    7.90
  -4   2  11   61.19   10.70
   3  -2 -11  166.48   12.00
  -3   2  11  176.88   16.30
  -3   2  11  164.28   12.40
   2  -2 -11  379.76   21.70
  -2   2  11  414.56   21.90
  -2   2  11  392.46   28.60
   1  -2 -11  328.37   19.70
  -1   2  11  347.57   25.60
  -1   2  11  355.76   19.20
   0  -2 -11    2.10    3.50
   0   2  11    3.80    4.30
   0   2  11    1.30    2.60
  -1  -2 -11  108.49   11.10
   1   2  11   87.99    7.70
   1   2  11  102.09   11.70
  -2  -2 -11    0.00    3.30
   2   2  11    1.50    4.20
  -3  -2 -11   34.50    7.50
   3   2  11   53.99    9.30
  -4  -2 -11  135.79   12.90
   4   2  11  145.59   14.50
  -5  -2 -11   18.90    6.20
   5   2  11   28.20    7.30
  -6  -2 -11   38.70    8.00
   6   2  11   37.00    9.00
   5  -3 -11   81.19    7.90
  -5   3  11   72.39    9.00
   4  -3 -11    2.70    2.90
  -4   3  11    1.90    3.80
  -4   3  11   -1.50    3.40
   3  -3 -11   82.69    8.00
  -3   3  11   64.99    8.10
  -3   3  11   85.19   12.40
   2  -3 -11  378.46   21.60
  -2   3  11  417.46   22.00
  -2   3  11  407.46   29.30
   1  -3 -11  288.87   17.50
  -1   3  11  293.07   16.80
  -1   3  11  306.17   23.20
   0  -3 -11   29.80    5.50
   0   3  11   26.10    6.50
   0   3  11   42.70    5.60
  -1  -3 -11    6.90    3.80
   1   3  11   10.70    3.00
   1   3  11    7.20    4.80
  -2  -3 -11   35.70    6.70
   2   3  11   26.30    6.70
  -3  -3 -11   78.49   10.30
   3   3  11   70.89   10.90
  -4  -3 -11   28.80    7.10
   4   3  11   29.00    6.90
  -5  -3 -11   59.19    9.60
   5   3  11   49.90    9.40
  -6  -3 -11   99.19   12.60
   6   3  11  104.39   13.90
   5  -4 -11  137.49   10.80
  -5   4  11  164.78   16.80
  -5   4  11  136.29   12.00
   4  -4 -11   75.29    7.60
  -4   4  11   86.49    9.60
  -4   4  11   88.69   13.30
   3  -4 -11  170.28   11.50
  -3   4  11  158.08   16.00
  -3   4  11  170.88   12.40
   2  -4 -11  114.19    9.40
  -2   4  11  130.59   13.80
  -2   4  11  140.39   10.60
   1  -4 -11   33.10    5.30
  -1   4  11   29.30    5.10
  -1   4  11   36.40    8.10
   0  -4 -11   33.80    6.00
   0   4  11   21.10    4.20
   0   4  11   35.20    7.90
  -1  -4 -11  179.08   13.20
   1   4  11  179.38   11.30
   1   4  11  193.48   16.80
  -2  -4 -11   58.39    8.60
   2   4  11   46.50    8.80
  -3  -4 -11   87.49   10.40
   3   4  11   79.89   10.20
  -4  -4 -11   27.50    6.80
   4   4  11   40.60    7.90
  -5  -4 -11   12.80    5.50
   5   4  11   14.50    6.00
  -6  -4 -11    4.50    4.50
   6   4  11   18.80    6.60
  -7  -4 -11   35.20    8.20
  -5   5  11   26.10    8.30
  -5   5  11   35.00    6.50
   4  -5 -11   67.99    7.60
  -4   5  11   64.89    8.30
  -4   5  11   76.29   12.40
   3  -5 -11    7.00    3.20
  -3   5  11    9.10    5.30
  -3   5  11    2.70    3.40
   2  -5 -11  152.68   10.60
  -2   5  11  141.69   14.90
  -2   5  11  143.29   11.30
   1  -5 -11   -0.50    2.80
  -1   5  11    2.50    2.90
  -1   5  11    1.50    4.20
   0  -5 -11   -0.40    3.00
   0   5  11    2.40    3.00
   0   5  11    9.20    5.50
  -1  -5 -11  145.09   11.60
   1   5  11  150.98   14.60
   1   5  11  158.28   10.20
  -2  -5 -11  318.47   19.40
  -2  -5 -11  298.97   16.60
   2   5  11  325.87   24.00
  -3  -5 -11   49.99    7.60
   3   5  11   45.40    8.40
  -4  -5 -11  784.02   41.10
   4   5  11  793.22   49.70
  -5  -5 -11  470.05   28.10
   5   5  11  490.15   33.20
  -6  -5 -11   21.10    6.70
   6   5  11   17.00    6.60
  -7  -5 -11    4.60    4.90
   7   5  11   -0.50    4.50
   7   5  11   -2.80    2.80
  -4   6  11    4.50    5.00
  -4   6  11    7.20    4.20
  -3   6  11   21.70    5.20
  -3   6  11   22.50    7.50
   2  -6 -11   41.00    5.70
  -2   6  11   50.79    7.30
  -2   6  11   52.09    9.90
   1  -6 -11  122.39    9.50
  -1   6  11  130.39   10.40
  -1   6  11  122.69   13.70
   0  -6 -11  113.89    9.30
   0   6  11  110.59    9.10
   0   6  11  113.49   13.20
  -1  -6 -11    3.10    3.00
   1   6  11   -1.10    4.20
  -2  -6 -11  678.13   33.50
  -2  -6 -11  715.33   36.10
   2   6  11  735.83   45.80
  -3  -6 -11  134.19   12.10
   3   6  11  160.68   14.60
  -4  -6 -11  273.97   18.70
   4   6  11  291.37   22.30
  -5  -6 -11  658.73   38.20
   5   6  11  798.82   47.30
  -6  -6 -11   79.19   11.10
   6   6  11   82.89   11.60
  -7  -6 -11   -1.40    4.40
   7   6  11    0.80    3.20
  -4   7  11  119.19   15.10
  -4   7  11  113.59   12.00
  -3   7  11   50.99   10.40
  -3   7  11   37.40    6.50
  -2   7  11  182.98   17.40
  -2   7  11  171.68   12.60
  -1   7  11  735.83   35.80
  -1   7  11  734.23   47.90
   0  -7 -11   34.70    5.60
   0   7  11   36.80    8.10
  -1  -7 -11  239.08   14.50
  -1  -7 -11  240.08   15.10
   1   7  11  244.88   20.50
  -2  -7 -11    5.20    3.60
  -2  -7 -11    4.30    2.70
   2   7  11    6.70    4.60
  -3  -7 -11  118.79   10.50
   3   7  11  109.49   12.60
  -4  -7 -11   49.50    7.70
   4   7  11   57.49    9.60
  -5  -7 -11   39.10    7.40
   5   7  11   55.19    9.60
  -6  -7 -11   90.89   11.60
   6   7  11   95.79   12.80
  -7  -7 -11   15.60    6.10
   7   7  11   14.90    4.70
  -4   8  11   91.09   10.50
  -4   8  11   89.49   14.20
  -3   8  11   76.99   12.70
  -3   8  11   67.69    8.60
  -2   8  11    7.20    5.40
  -2   8  11    3.50    3.40
  -1   8  11  515.25   36.30
   0  -8 -11  797.52   38.70
   0   8  11  813.12   51.69
  -1  -8 -11   35.30    5.80
  -1  -8 -11   31.70    5.40
   1   8  11   39.60    8.50
  -2  -8 -11    9.50    4.10
  -2  -8 -11   11.80    3.90
   2   8  11    9.30    5.60
  -3  -8 -11  166.88   12.40
  -3  -8 -11  149.59   11.20
   3   8  11  155.28   15.20
  -4  -8 -11   43.80    7.30
   4   8  11   62.29    9.70
  -5  -8 -11   42.70    7.60
   5   8  11   30.70    7.50
  -6  -8 -11   29.00    7.00
   3  -9 -11   39.30    7.00
  -3   9  11   37.20    9.50
   2  -9 -11   33.30    6.60
  -2   9  11   32.20    8.30
   1  -9 -11    4.00    3.60
  -1   9  11    1.60    5.10
   0  -9 -11  123.29   10.30
   0   9  11  110.09   13.70
  -1  -9 -11   61.39    7.80
   1   9  11   71.49   11.40
  -2  -9 -11   26.00    5.40
   2   9  11   40.90    8.70
  -3  -9 -11   86.39    9.20
  -3  -9 -11   89.29    9.40
   3   9  11   80.09   11.40
  -4  -9 -11  285.47   18.20
   4   9  11  282.97   22.40
  -5  -9 -11    3.40    3.70
  -6  -9 -11   17.40    5.50
   2 -10 -11   23.20    5.50
  -2  10  11   26.90    8.10
   1 -10 -11   22.20    5.40
  -1  10  11   25.50    7.60
   0 -10 -11    9.50    4.20
   0  10  11   13.30    6.20
  -1 -10 -11   24.40    5.40
   1  10  11   33.90    8.40
  -2 -10 -11  328.07   19.70
   2  10  11  324.07   25.10
  -3 -10 -11  233.58   15.80
   3  10  11  236.28   19.90
   4  10  11   22.10    6.70
  -5 -10 -11    0.20    3.70
  -6 -10 -11  205.98   15.60
   1 -11 -11   20.20    5.30
  -1  11  11   23.40    7.80
   0 -11 -11   -3.20    3.00
   0  11  11   -1.40    4.50
  -1 -11 -11   10.60    4.90
   1  11  11   13.90    6.40
  -2 -11 -11    4.40    3.60
   2  11  11   -2.00    4.20
  -3 -11 -11  546.25   30.80
   3  11  11  600.24   39.20
  -4 -11 -11  151.88   12.90
   0 -12 -11   36.90    7.50
   0  12  11   25.90    8.20
  -1 -12 -11    4.70    4.30
   1  12  11    5.60    5.20
  -2 -12 -11    0.10    3.90
   2  12  11    2.30    5.00
  -3 -12 -11   73.39   10.20
   3  12  11   76.39   11.60
  -4 -12 -11  193.38   15.60
   2   2 -12   86.89   10.30
  -2  -2  12   88.49    9.70
   1   2 -12   49.60    7.80
  -1  -2  12   46.90    9.00
   0   2 -12   78.59   10.10
   0  -2  12   75.89   11.70
  -1   2 -12   23.00    6.60
   1  -2  12   41.60    8.70
  -2   2 -12    1.50    4.20
   2  -2  12    4.20    5.20
   3   1 -12  195.78   14.50
  -3  -1  12  190.18   14.30
   2   1 -12  231.48   16.40
  -2  -1  12  270.87   16.60
   1   1 -12  173.28   13.30
  -1  -1  12  154.48   11.80
  -1  -1  12  154.08   15.70
   0   1 -12  262.27   18.00
   0  -1  12  269.57   21.90
  -1   1 -12   44.40    8.00
   1  -1  12   55.69    9.90
  -2   1 -12    9.80    5.00
   2  -1  12    9.40    6.10
  -3   1 -12  154.48   16.70
   3  -1  12  169.18   17.30
   3   0 -12    8.50    4.10
  -3   0  12    9.00    4.50
   2   0 -12   51.99    7.60
  -2   0  12   64.39    8.00
  -2   0  12   68.59   10.70
   1   0 -12   -0.70    3.00
  -1   0  12    1.70    4.10
  -1   0  12    1.30    3.20
   0   0 -12    5.10    4.20
   0   0  12    6.30    4.90
  -1   0 -12   70.69    9.80
   1   0  12   85.39   12.20
  -2   0 -12   15.80    5.70
   2   0  12   29.80    8.20
  -3   0 -12   11.40    5.80
   3   0  12   20.90    6.70
  -4   0 -12  156.18   15.20
   4   0  12  212.38   19.10
   4  -1 -12    7.80    4.10
  -4   1  12   14.50    5.40
   3  -1 -12    1.30    3.40
  -3   1  12   -1.30    4.40
  -3   1  12    2.00    3.90
   2  -1 -12  104.59    9.80
  -2   1  12  117.89   13.30
  -2   1  12  123.99   10.40
   1  -1 -12   27.50    5.70
  -1   1  12   23.70    6.80
  -1   1  12   33.40    5.90
   0  -1 -12   18.00    5.40
   0   1  12    5.50    3.60
   0   1  12    9.50    5.40
  -1  -1 -12   46.50    7.70
   1   1  12   44.00    8.90
  -2  -1 -12   88.09   11.50
   2   1  12   99.89   13.40
  -3  -1 -12  299.47   21.80
   3   1  12  357.86   26.40
  -4  -1 -12   18.10    6.60
   4   1  12   28.00    7.60
  -5  -1 -12    1.00    4.90
   5   1  12   -0.60    4.80
   4  -2 -12   13.80    4.60
  -4   2  12   24.90    5.80
   3  -2 -12  180.98   13.30
  -3   2  12  200.38   13.90
  -3   2  12  172.08   17.30
   2  -2 -12   39.10    6.30
  -2   2  12   42.70    9.00
  -2   2  12   38.90    6.70
   1  -2 -12  166.08   12.20
  -1   2  12  167.28   11.80
  -1   2  12  149.99   15.30
   0  -2 -12   -4.50    2.50
   0   2  12   -4.00    4.10
   0   2  12    1.30    2.80
  -1  -2 -12   24.70    6.10
   1   2  12   15.60    6.40
  -2  -2 -12   26.60    6.40
   2   2  12   20.10    6.70
  -3  -2 -12  223.68   18.10
   3   2  12  268.77   21.10
  -4  -2 -12  179.88   16.10
   4   2  12  201.58   18.30
  -5  -2 -12  125.39   15.10
   5   2  12  152.58   15.80
   4  -3 -12    1.60    3.10
  -4   3  12   -5.30    3.50
  -4   3  12   -1.70    4.20
   3  -3 -12  222.88   14.60
  -3   3  12  201.68   14.60
  -3   3  12  211.38   19.20
   2  -3 -12  186.18   13.50
  -2   3  12  223.28   14.10
  -2   3  12  184.38   18.00
   1  -3 -12   37.20    6.10
  -1   3  12   52.49    6.50
  -1   3  12   50.59    9.70
   0  -3 -12   10.50    4.20
   0   3  12    7.60    3.30
   0   3  12    8.10    5.40
  -1  -3 -12  116.29   11.00
   1   3  12  123.39   13.80
  -2  -3 -12   19.50    5.60
   2   3  12   17.40    6.20
  -3  -3 -12   -5.10    3.70
   3   3  12   -1.40    4.20
  -4  -3 -12  163.48   14.50
   4   3  12  172.08   16.50
  -5  -3 -12    8.10    5.60
   5   3  12   20.50    6.70
  -6  -3 -12   14.50    6.50
   6   3  12   14.20    6.50
   4  -4 -12   -1.00    2.90
  -4   4  12   -0.30    3.60
  -4   4  12    0.50    4.80
   3  -4 -12  179.48   12.70
  -3   4  12  175.78   17.40
  -3   4  12  172.28   13.10
   2  -4 -12  460.05   24.80
  -2   4  12  465.95   24.70
  -2   4  12  450.85   33.00
   1  -4 -12   45.10    6.30
  -1   4  12   28.40    7.40
  -1   4  12   30.00    5.60
   0  -4 -12    6.00    3.70
   0   4  12    4.50    3.10
   0   4  12   -2.40    3.30
  -1  -4 -12  213.48   14.70
   1   4  12  215.28   18.50
   1   4  12  203.18   12.70
  -2  -4 -12  557.64   31.10
   2   4  12  576.94   38.60
  -3  -4 -12   15.70    5.60
   3   4  12   15.00    6.30
  -4  -4 -12   64.59    9.60
   4   4  12   80.49   11.60
  -5  -4 -12   55.09    9.70
   5   4  12   61.39   10.60
  -6  -4 -12  114.19   14.40
   6   4  12  131.39   14.60
  -4   5  12   33.40    6.60
  -4   5  12   30.30    8.60
   3  -5 -12   11.90    4.10
  -3   5  12   11.60    6.20
  -3   5  12   16.50    5.00
   2  -5 -12  115.29    9.70
  -2   5  12  126.69   14.30
  -2   5  12  121.19   10.40
   1  -5 -12  217.68   14.40
  -1   5  12  215.68   19.80
  -1   5  12  240.28   14.70
   0  -5 -12    7.30    3.70
   0   5  12   13.50    4.30
   0   5  12    8.90    5.30
  -1  -5 -12    8.80    3.90
   1   5  12    9.60    3.40
   1   5  12    4.10    4.90
  -2  -5 -12  397.66   24.20
   2   5  12  437.96   30.50
  -3  -5 -12  651.53   34.70
   3   5  12  624.84   42.20
  -4  -5 -12   20.80    6.30
   4   5  12   17.50    6.20
  -5  -5 -12  223.58   17.30
   5   5  12  236.18   19.90
  -6  -5 -12   10.20    5.60
   6   5  12   27.10    7.50
  -4   6  12  439.16   33.90
  -4   6  12  468.35   26.00
  -3   6  12  101.69   10.90
  -3   6  12   98.89   14.60
   2  -6 -12    5.20    3.40
  -2   6  12    7.30    5.60
  -2   6  12    5.90    4.00
   1  -6 -12  393.96   22.00
  -1   6  12  418.86   22.50
  -1   6  12  392.06   29.80
   0  -6 -12   57.19    7.30
   0   6  12   63.29    7.40
   0   6  12   36.10    8.30
  -1  -6 -12  196.88   13.90
   1   6  12  200.38   17.90
   1   6  12  194.48   12.50
  -2  -6 -12   12.10    5.20
   2   6  12   22.10    7.40
  -3  -6 -12   17.20    5.80
   3   6  12   12.20    6.20
  -4  -6 -12    4.60    4.80
   4   6  12    7.70    5.00
  -5  -6 -12    3.70    4.70
   5   6  12    3.40    4.90
  -6  -6 -12   11.70    5.60
   6   6  12    5.10    4.90
  -3   7  12  132.19   11.30
  -3   7  12  104.99   15.20
  -2   7  12   12.30    5.80
  -2   7  12   24.30    5.70
  -1   7  12  109.69   13.20
  -1   7  12  113.89   10.00
   0  -7 -12  529.25   28.50
   0   7  12  562.64   28.30
   0   7  12  580.84   38.90
  -1  -7 -12   43.80    6.80
  -1  -7 -12   59.39    7.10
   1   7  12   54.49   10.30
  -2  -7 -12  148.29   11.80
   2   7  12  138.29   14.60
  -3  -7 -12  111.39   10.70
   3   7  12  112.19   12.80
  -4  -7 -12    2.10    3.40
   4   7  12   -2.20    4.20
  -5  -7 -12  270.97   18.70
   5   7  12  247.38   21.20
  -6  -7 -12   39.70    8.20
   6   7  12   63.19   10.90
  -3   8  12   -2.70    4.60
  -3   8  12    3.40    4.10
  -2   8  12   -3.30    4.00
  -2   8  12    0.80    3.70
  -1   8  12    2.30    4.20
   0  -8 -12  242.68   15.20
   0   8  12  224.88   20.50
  -1  -8 -12   39.40    5.90
  -1  -8 -12   23.70    5.40
   1   8  12   22.90    7.20
  -2  -8 -12  289.37   18.20
  -2  -8 -12  280.97   17.10
   2   8  12  308.57   24.10
  -3  -8 -12  194.48   14.60
   3   8  12  206.48   18.10
  -4  -8 -12   90.99   10.70
   4   8  12  116.69   13.20
  -5  -8 -12   25.70    6.40
   5   8  12   24.10    7.50
  -6  -8 -12  224.78   17.40
   2  -9 -12   -3.40    2.90
  -2   9  12    0.70    4.70
   1  -9 -12  145.19   11.60
  -1   9  12  132.39   15.70
   0  -9 -12   68.09    8.30
   0   9  12   55.89   10.80
  -1  -9 -12   34.30    6.10
   1   9  12   29.30    7.80
  -2  -9 -12  187.98   13.40
   2   9  12  206.78   18.70
  -3  -9 -12  487.05   26.70
   3   9  12  479.05   34.30
  -4  -9 -12    1.60    3.80
   4   9  12    2.60    4.80
  -5  -9 -12   66.79    9.50
   5   9  12   50.19    9.60
   1 -10 -12   -3.40    2.90
  -1  10  12   -2.00    4.70
   0 -10 -12  172.28   13.00
   0  10  12  162.88   17.50
  -1 -10 -12   67.39    8.50
   1  10  12   88.99   12.90
  -2 -10 -12   52.09    7.80
   2  10  12   57.69   10.30
  -3 -10 -12  452.35   26.20
   3  10  12  510.35   34.60
   4  10  12  449.76   32.30
  -5 -10 -12   -0.80    3.70
   0 -11 -12   -0.80    3.00
   0  11  12   -2.40    4.60
  -1 -11 -12   73.59    9.30
   1  11  12   75.89   12.70
  -2 -11 -12   17.10    5.30
   2  11  12   23.00    7.40
  -3 -11 -12   32.20    6.90
   3  11  12   38.70    8.90
   4  11  12  187.98   18.00
  -2 -12 -12   21.80    6.20
   2  12  12   18.40    7.20
   0   1 -13    9.90    4.80
   0  -1  13    5.90    5.30
  -1   1 -13   12.90    6.10
   1  -1  13   12.20    6.50
   2   0 -13    0.60    3.00
  -2   0  13    0.50    3.70
  -2   0  13    0.80    4.60
   1   0 -13    6.40    3.80
  -1   0  13   -0.20    4.30
   0   0 -13  201.08   15.70
   0   0  13  189.78   18.30
  -1   0 -13   89.19   11.00
   1   0  13   76.19   12.10
  -2   0 -13  175.48   15.70
   2   0  13  189.68   18.40
  -3   0 -13  223.98   19.10
   3   0  13  263.07   22.30
   2  -1 -13    5.60    4.10
  -2   1  13    2.80    3.90
  -2   1  13    5.00    5.10
   1  -1 -13  117.79   11.10
  -1   1  13  140.49   11.30
  -1   1  13  131.89   14.60
   0  -1 -13   66.59    9.70
   0   1  13   69.29   11.50
  -1  -1 -13  226.78   16.40
   1   1  13  202.18   19.00
  -2  -1 -13   87.29   11.30
   2   1  13   95.49   13.70
  -3  -1 -13  411.66   27.00
   3   1  13  416.06   31.00
   3  -2 -13  236.08   16.40
  -3   2  13  248.58   16.70
  -3   2  13  242.58   21.60
   2  -2 -13  209.38   15.10
  -2   2  13  210.08   19.80
  -2   2  13  229.68   15.40
   1  -2 -13   14.40    4.80
  -1   2  13    9.10    4.10
  -1   2  13   14.70    6.70
   0  -2 -13   87.99   10.30
   0   2  13   65.59   11.20
  -1  -2 -13   98.29   11.40
   1   2  13  111.69   13.50
  -2  -2 -13   15.30    5.50
   2   2  13   19.60    7.10
  -3  -2 -13   -0.30    4.40
   3   2  13    1.70    5.20
  -4  -2 -13   59.69   10.50
   4   2  13   84.69   12.70
   3  -3 -13   23.50    5.50
  -3   3  13   24.90    6.10
  -3   3  13   20.70    7.20
   2  -3 -13  560.74   30.30
  -2   3  13  538.65   39.40
  -2   3  13  603.84   30.00
   1  -3 -13  263.07   17.00
  -1   3  13  237.58   21.70
  -1   3  13  265.97   16.10
   0  -3 -13   23.50    5.50
   0   3  13   20.10    4.70
   0   3  13   33.90    8.30
  -1  -3 -13   61.19    9.00
   1   3  13   69.89   11.20
  -2  -3 -13  146.49   12.80
   2   3  13  136.99   15.20
  -3  -3 -13   43.00    8.70
   3   3  13   20.40    7.30
  -4  -3 -13   34.10    7.80
   4   3  13   29.90    8.60
  -5  -3 -13   -0.20    4.80
   3  -4 -13   60.39    7.70
  -3   4  13   61.39    8.50
  -3   4  13   56.59   10.90
   2  -4 -13    0.00    3.00
  -2   4  13    2.10    3.90
  -2   4  13    6.00    5.50
   1  -4 -13  234.68   15.40
  -1   4  13  232.58   14.80
  -1   4  13  204.98   20.00
   0  -4 -13   -1.20    3.40
   0   4  13   -1.00    2.80
   0   4  13    0.10    4.00
  -1  -4 -13   20.10    6.00
   1   4  13   22.30    6.90
  -2  -4 -13  224.48   16.70
   2   4  13  223.48   20.20
  -3  -4 -13   67.49   10.20
   3   4  13   91.69   12.90
  -4  -4 -13   20.60    7.00
   4   4  13    8.50    5.60
  -5  -4 -13    3.50    5.30
   5   4  13    1.90    5.30
   3  -5 -13    5.40    3.50
  -3   5  13   -1.30    3.60
  -3   5  13    2.00    4.90
   2  -5 -13  114.49   10.20
  -2   5  13  128.19   14.90
  -2   5  13  139.19   11.50
   1  -5 -13   96.99    9.30
  -1   5  13   88.59    9.60
  -1   5  13   85.59   13.10
   0  -5 -13    3.10    3.60
   0   5  13   -2.20    3.00
   0   5  13   -1.30    3.80
  -1  -5 -13  457.85   26.10
   1   5  13  478.75   34.00
  -2  -5 -13  323.17   20.50
   2   5  13  302.27   24.90
  -3  -5 -13   11.80    5.60
   3   5  13   17.90    6.80
  -4  -5 -13   45.40    8.80
   4   5  13   42.20    9.20
  -5  -5 -13   51.79    9.50
   5   5  13   37.10    8.60
  -3   6  13   18.00    7.60
  -3   6  13    5.90    4.40
   2  -6 -13   15.60    4.40
  -2   6  13   10.30    4.80
  -2   6  13    9.80    5.90
   1  -6 -13   -0.50    3.00
  -1   6  13   -1.50    3.50
  -1   6  13   -0.30    4.10
   0  -6 -13   30.40    5.70
   0   6  13   27.60    5.50
   0   6  13   35.30    9.20
  -1  -6 -13  125.99   11.10
   1   6  13  131.39   14.80
   1   6  13  119.49    9.60
  -2  -6 -13 1364.16   67.09
   2   6  13 1447.96   85.59
  -3  -6 -13  148.99   12.90
   3   6  13  157.08   16.20
  -4  -6 -13    3.20    4.10
   4   6  13   -0.10    4.60
  -5  -6 -13  252.47   19.10
   5   6  13  247.98   21.60
  -2   7  13   27.10    6.00
  -2   7  13   23.80    7.90
  -1   7  13   43.00    6.90
  -1   7  13   49.10   10.10
   0  -7 -13    0.50    3.10
   0   7  13   -0.20    3.20
   0   7  13    7.80    5.90
  -1  -7 -13    0.90    3.40
  -1  -7 -13   -1.90    2.50
   1   7  13    0.30    4.50
  -2  -7 -13  187.78   14.40
   2   7  13  204.18   19.00
  -3  -7 -13  362.86   22.40
   3   7  13  354.96   27.70
  -4  -7 -13    2.50    4.20
   4   7  13    6.40    5.50
  -5  -7 -13   11.90    5.30
   5   7  13   20.30    7.20
  -2   8  13   -0.10    3.90
  -2   8  13    3.30    5.80
  -1   8  13    8.40    6.20
  -1   8  13    4.00    4.20
   0  -8 -13  325.47   19.20
   0   8  13  313.17   25.80
  -1  -8 -13    3.90    3.10
  -1  -8 -13    1.40    4.00
   1   8  13    3.40    5.30
  -2  -8 -13  161.38   12.80
   2   8  13  172.48   17.50
  -3  -8 -13  188.48   14.40
   3   8  13  195.38   18.60
  -4  -8 -13   10.90    4.90
   4   8  13   10.10    5.90
  -5  -8 -13  152.48   13.70
   5   8  13  144.69   15.80
   1  -9 -13    2.60    3.60
  -1   9  13    6.10    5.40
   0   9  13   91.89   13.60
  -1  -9 -13   33.90    5.80
   1   9  13   21.30    7.60
  -2  -9 -13   -1.10    2.90
   2   9  13    3.40    5.40
  -3  -9 -13  228.28   16.00
   3   9  13  218.08   20.50
  -4  -9 -13  170.38   13.90
   4   9  13  172.68   17.40
   0 -10 -13    2.20    3.50
   0  10  13    1.30    5.30
  -1 -10 -13   12.60    4.60
   1  10  13    7.00    6.20
  -2 -10 -13   17.00    5.10
   2  10  13   14.70    6.90
   3  10  13   30.20    8.20
   4  10  13  135.79   15.40
  -2 -11 -13   54.39    8.30
   2  11  13   62.59   11.70
   1  -2 -14  171.88   14.20
  -1   2  14  193.08   13.70
   0  -2 -14  110.29   11.00
   0   2  14  108.79   15.00
  -1  -2 -14  189.28   15.40
   1   2  14  183.88   18.30
  -2  -2 -14   18.80    6.20
   2   2  14   18.50    6.90
   1  -3 -14  308.87   19.60
  -1   3  14  321.37   18.80
  -1   3  14  277.17   24.90
   0  -3 -14   11.50    5.20
   0   3  14   18.90    7.30
  -1  -3 -14  235.68   16.90
   1   3  14  241.08   21.80
  -2  -3 -14   24.30    6.80
   2   3  14   33.00    8.60
  -3  -3 -14   -2.00    4.00
   3   3  14   -0.30    4.80
   1  -4 -14   15.50    5.20
  -1   4  14   24.10    7.80
  -1   4  14   13.30    4.60
   0  -4 -14   21.90    5.80
   0   4  14   20.80    7.60
  -1  -4 -14  224.78   16.60
   1   4  14  228.18   21.00
  -2  -4 -14  194.28   15.50
   2   4  14  175.98   18.00
  -3  -4 -14   14.60    6.00
   3   4  14   15.20    6.50
   1  -5 -14   68.59    8.80
  -1   5  14   75.79   12.80
  -1   5  14   67.99    8.70
   0  -5 -14   77.29    9.70
   0   5  14   85.49    9.20
   0   5  14   82.29   13.10
  -1  -5 -14  222.08   15.80
   1   5  14  204.78   20.10
  -2  -5 -14  565.54   30.60
   2   5  14  491.65   37.20
  -3  -5 -14  188.38   15.70
   3   5  14  175.58   18.30
  -4  -5 -14   60.99   10.50
   4   5  14   60.99   11.30
   1  -6 -14   30.70    6.00
  -1   6  14   38.60    9.80
  -1   6  14   31.00    6.60
   0  -6 -14   10.40    4.40
   0   6  14    2.10    5.60
   0   6  14    7.30    4.10
  -1  -6 -14    8.60    4.40
   1   6  14   10.60    6.60
  -2  -6 -14   75.79   10.10
   2   6  14   69.69   12.20
  -3  -6 -14  163.08   13.80
   3   6  14  156.38   17.10
  -4  -6 -14    1.70    4.80
   4   6  14   12.50    7.20
  -1   7  14   35.10    6.50
  -1   7  14   31.10    9.00
   0  -7 -14  128.49   11.00
   0   7  14  118.09   10.60
   0   7  14  145.39   16.50
  -1  -7 -14    6.70    4.20
   1   7  14    8.40    6.40
  -2  -7 -14   57.79    8.70
   2   7  14   51.39   10.90
  -3  -7 -14   77.49   10.30
   3   7  14   88.99   13.20
  -4  -7 -14    8.80    5.60
   4   7  14   16.00    7.00
   0  -8 -14   82.89    9.40
   0   8  14   88.99   13.90
  -1  -8 -14   30.20    5.80
   1   8  14   34.90    9.30
  -2  -8 -14   32.00    6.50
   2   8  14   37.60    9.60
  -3  -8 -14    6.30    4.70
   3   8  14    4.20    5.40
  -1  -9 -14   20.60    5.20
   1   9  14   17.90    7.60
   2   9  14    1.90    4.90
   3   9  14   11.30    6.90
   0   0   0    0.00    0.00

_computing_structure_solution     'SHELXT 2014/5 (Sheldrick, 2014)'
;
_shelx_hkl_checksum              92231
loop_
_space_group_symop_operation_xyz
'x, y, z'
'-x, -y, -z'
loop_
_atom_site_label
_atom_site_type_symbol
_atom_site_fract_x
_atom_site_fract_y
_atom_site_fract_z
_atom_site_U_iso_or_equiv
_atom_site_adp_type
_atom_site_occupancy
_atom_site_site_symmetry_order
_atom_site_calc_flag
_atom_site_refinement_flags_posn
_atom_site_refinement_flags_adp
Fe1 Fe 0.79587(4) 0.82642(3) -0.23170(3) 0.02317(10) Uani 1 1 d . .
Fe2 Fe 0.46941(4) 0.92063(3) -0.22123(3) 0.02155(9) Uani 1 1 d . .
S1 S 0.57638(7) 0.70685(5) -0.15228(5) 0.02282(13) Uani 1 1 d . .
S2 S 0.67333(7) 0.92465(5) -0.10561(5) 0.02243(13) Uani 1 1 d . .
O1 O 0.4730(3) 1.19919(17) -0.35354(16) 0.0487(5) Uani 1 1 d . .
O2 O 0.1330(2) 0.92743(18) -0.07228(16) 0.0423(4) Uani 1 1 d . .
O3 O 0.3357(2) 0.89753(18) -0.42544(16) 0.0455(5) Uani 1 1 d . .
O4 O 0.7908(2) 0.77076(19) -0.44604(16) 0.0454(5) Uani 1 1 d . .
O5 O 1.1155(2) 0.64760(19) -0.11526(18) 0.0475(5) Uani 1 1 d . .
O6 O 0.9551(3) 1.05903(18) -0.37341(17) 0.0510(5) Uani 1 1 d . .
N1 N 0.6902(2) 0.67396(16) 0.06701(15) 0.0216(4) Uani 1 1 d . .
C1 C 0.4698(3) 1.0919(2) -0.3036(2) 0.0296(5) Uani 1 1 d . .
C2 C 0.6440(3) 0.8097(2) 0.04921(18) 0.0253(5) Uani 1 1 d . .
H2A H 0.7171 0.8259 0.0991 0.030 Uiso 1 1 calc R U
H2B H 0.5197 0.8263 0.0770 0.030 Uiso 1 1 calc R U
C3 C 0.7135(3) 0.5904(2) 0.19229(19) 0.0252(5) Uani 1 1 d . .
C4 C 0.5779(3) 0.5240(2) 0.2623(2) 0.0351(6) Uani 1 1 d . .
H4 H 0.4691 0.5370 0.2293 0.042 Uiso 1 1 calc R U
C5 C 0.6021(4) 0.4392(3) 0.3801(2) 0.0500(7) Uani 1 1 d . .
H5 H 0.5112 0.3943 0.4258 0.060 Uiso 1 1 calc R U
C6 C 0.7623(5) 0.4218(3) 0.4290(3) 0.0583(8) Uani 1 1 d . .
H6 H 0.7808 0.3641 0.5080 0.070 Uiso 1 1 calc R U
C7 C 0.8949(4) 0.4895(3) 0.3612(2) 0.0470(7) Uani 1 1 d . .
H7 H 1.0010 0.4781 0.3967 0.056 Uiso 1 1 calc R U
C8 C 0.8770(3) 0.5747(2) 0.2413(2) 0.0316(5) Uani 1 1 d . .
C9 C 1.0299(3) 0.6435(3) 0.1714(2) 0.0405(6) Uani 1 1 d . .
H9A H 0.9979 0.6940 0.0889 0.049 Uiso 1 1 calc R U
H9B H 1.1347 0.5793 0.1703 0.049 Uiso 1 1 calc R U
C10 C 1.0781(4) 0.7331(3) 0.2233(3) 0.0567(8) Uani 1 1 d . .
H10A H 0.9766 0.7991 0.2216 0.085 Uiso 1 1 calc R U
H10B H 1.1773 0.7727 0.1761 0.085 Uiso 1 1 calc R U
H10C H 1.1106 0.6837 0.3049 0.085 Uiso 1 1 calc R U
C11 C 0.5677(3) 0.6358(2) 0.01197(19) 0.0252(5) Uani 1 1 d . .
H11A H 0.4465 0.6589 0.0415 0.030 Uiso 1 1 calc R U
H11B H 0.5926 0.5421 0.0383 0.030 Uiso 1 1 calc R U
C12 C 0.2628(3) 0.9258(2) -0.1307(2) 0.0268(5) Uani 1 1 d . .
C13 C 0.3859(3) 0.9066(2) -0.3459(2) 0.0302(5) Uani 1 1 d . .
C14 C 0.7985(3) 0.7902(2) -0.3623(2) 0.0312(5) Uani 1 1 d . .
C15 C 0.9919(3) 0.7160(2) -0.1603(2) 0.0316(5) Uani 1 1 d . .
C16 C 0.8958(3) 0.9678(2) -0.3185(2) 0.0331(5) Uani 1 1 d . .
loop_
_atom_site_aniso_label
_atom_site_aniso_U_11
_atom_site_aniso_U_22
_atom_site_aniso_U_33
_atom_site_aniso_U_23
_atom_site_aniso_U_13
_atom_site_aniso_U_12
Fe1 0.02135(17) 0.02481(18) 0.02391(18) -0.01027(14) -0.00111(13) -0.00354(13)
Fe2 0.02235(17) 0.02162(17) 0.01900(17) -0.00618(13) -0.00358(12) -0.00219(12)
S1 0.0267(3) 0.0215(3) 0.0225(3) -0.0089(2) -0.0051(2) -0.0056(2)
S2 0.0266(3) 0.0187(3) 0.0224(3) -0.0073(2) -0.0041(2) -0.0043(2)
O1 0.0742(14) 0.0274(10) 0.0354(10) -0.0027(8) -0.0038(10) -0.0085(9)
O2 0.0305(9) 0.0546(12) 0.0444(10) -0.0244(9) 0.0089(8) -0.0087(8)
O3 0.0535(11) 0.0539(12) 0.0341(10) -0.0212(9) -0.0183(9) -0.0007(9)
O4 0.0518(11) 0.0600(12) 0.0330(10) -0.0278(10) 0.0001(8) -0.0091(9)
O5 0.0366(10) 0.0531(12) 0.0575(12) -0.0325(10) -0.0173(9) 0.0148(9)
O6 0.0511(11) 0.0453(12) 0.0517(12) -0.0102(10) 0.0098(10) -0.0245(10)
N1 0.0288(9) 0.0166(9) 0.0197(9) -0.0052(7) -0.0076(7) -0.0039(7)
C1 0.0339(13) 0.0309(14) 0.0214(11) -0.0086(11) -0.0036(10) -0.0015(10)
C2 0.0333(12) 0.0235(11) 0.0197(11) -0.0082(9) -0.0039(9) -0.0048(9)
C3 0.0360(12) 0.0201(11) 0.0202(11) -0.0091(9) -0.0042(9) -0.0018(9)
C4 0.0462(15) 0.0333(13) 0.0260(12) -0.0088(11) -0.0039(11) -0.0118(11)
C5 0.077(2) 0.0440(16) 0.0273(14) -0.0042(12) -0.0026(14) -0.0262(15)
C6 0.102(3) 0.0393(16) 0.0270(14) 0.0009(13) -0.0204(16) -0.0155(17)
C7 0.0661(19) 0.0370(15) 0.0377(15) -0.0118(13) -0.0286(14) 0.0025(13)
C8 0.0432(14) 0.0261(12) 0.0264(12) -0.0124(10) -0.0122(11) 0.0034(10)
C9 0.0329(13) 0.0553(17) 0.0406(15) -0.0242(14) -0.0125(11) -0.0044(12)
C10 0.067(2) 0.064(2) 0.0450(17) -0.0160(16) -0.0157(15) -0.0259(16)
C11 0.0284(11) 0.0235(11) 0.0235(11) -0.0062(9) -0.0051(9) -0.0080(9)
C12 0.0316(13) 0.0231(12) 0.0246(12) -0.0070(10) -0.0089(10) -0.0028(9)
C13 0.0290(12) 0.0294(13) 0.0289(13) -0.0099(11) -0.0021(10) -0.0008(10)
C14 0.0271(12) 0.0316(13) 0.0318(13) -0.0111(11) -0.0009(10) -0.0018(10)
C15 0.0292(13) 0.0346(13) 0.0367(14) -0.0207(12) -0.0032(11) -0.0020(11)
C16 0.0263(12) 0.0406(14) 0.0334(13) -0.0161(12) 0.0020(10) -0.0069(11)
loop_
_atom_type_symbol
_atom_type_description
_atom_type_scat_dispersion_real
_atom_type_scat_dispersion_imag
_atom_type_scat_source
C C 0.0033 0.0016 'International Tables Vol C Tables 4.2.6.8 and 6.1.1.4'
H H 0.0000 0.0000 'International Tables Vol C Tables 4.2.6.8 and 6.1.1.4'
N N 0.0061 0.0033 'International Tables Vol C Tables 4.2.6.8 and 6.1.1.4'
O O 0.0106 0.0060 'International Tables Vol C Tables 4.2.6.8 and 6.1.1.4'
S S 0.1246 0.1234 'International Tables Vol C Tables 4.2.6.8 and 6.1.1.4'
Fe Fe 0.3463 0.8444 'International Tables Vol C Tables 4.2.6.8 and 6.1.1.4'
loop_
_geom_angle_atom_site_label_1
_geom_angle_atom_site_label_2
_geom_angle_atom_site_label_3
_geom_angle
C16 Fe1 C14 91.19(11)
C16 Fe1 C15 99.49(11)
C14 Fe1 C15 100.90(10)
C16 Fe1 S1 157.59(8)
C14 Fe1 S1 86.90(7)
C15 Fe1 S1 102.80(8)
C16 Fe1 S2 87.62(8)
C14 Fe1 S2 153.51(8)
C15 Fe1 S2 105.40(7)
S1 Fe1 S2 84.29(2)
C16 Fe1 Fe2 102.28(8)
C14 Fe1 Fe2 98.42(7)
C15 Fe1 Fe2 150.43(8)
S1 Fe1 Fe2 56.086(19)
S2 Fe1 Fe2 56.213(16)
C13 Fe2 C12 99.06(10)
C13 Fe2 C1 91.87(10)
C12 Fe2 C1 100.00(10)
C13 Fe2 S1 88.57(8)
C12 Fe2 S1 101.83(7)
C1 Fe2 S1 157.82(7)
C13 Fe2 S2 157.82(7)
C12 Fe2 S2 102.93(7)
C1 Fe2 S2 87.18(8)
S1 Fe2 S2 84.17(2)
C13 Fe2 Fe1 102.72(7)
C12 Fe2 Fe1 147.98(7)
C1 Fe2 Fe1 102.43(7)
S1 Fe2 Fe1 56.007(16)
S2 Fe2 Fe1 56.099(18)
C11 S1 Fe1 112.43(7)
C11 S1 Fe2 110.93(7)
Fe1 S1 Fe2 67.91(2)
C2 S2 Fe1 112.63(7)
C2 S2 Fe2 110.83(7)
Fe1 S2 Fe2 67.687(19)
C11 N1 C3 113.16(16)
C11 N1 C2 112.33(17)
C3 N1 C2 111.99(15)
O1 C1 Fe2 178.4(2)
N1 C2 S2 115.25(14)
N1 C2 H2A 108.5
S2 C2 H2A 108.5
N1 C2 H2B 108.5
S2 C2 H2B 108.5
H2A C2 H2B 107.5
C4 C3 C8 120.4(2)
C4 C3 N1 120.6(2)
C8 C3 N1 118.94(19)
C5 C4 C3 121.1(2)
C5 C4 H4 119.5
C3 C4 H4 119.5
C6 C5 C4 119.2(3)
C6 C5 H5 120.4
C4 C5 H5 120.4
C7 C6 C5 120.0(3)
C7 C6 H6 120.0
C5 C6 H6 120.0
C6 C7 C8 122.7(3)
C6 C7 H7 118.7
C8 C7 H7 118.7
C7 C8 C3 116.6(2)
C7 C8 C9 119.8(2)
C3 C8 C9 123.6(2)
C8 C9 C10 113.3(2)
C8 C9 H9A 108.9
C10 C9 H9A 108.9
C8 C9 H9B 108.9
C10 C9 H9B 108.9
H9A C9 H9B 107.7
C9 C10 H10A 109.5
C9 C10 H10B 109.5
H10A C10 H10B 109.5
C9 C10 H10C 109.5
H10A C10 H10C 109.5
H10B C10 H10C 109.5
N1 C11 S1 115.65(14)
N1 C11 H11A 108.4
S1 C11 H11A 108.4
N1 C11 H11B 108.4
S1 C11 H11B 108.4
H11A C11 H11B 107.4
O2 C12 Fe2 179.1(2)
O3 C13 Fe2 178.9(2)
O4 C14 Fe1 176.2(2)
O5 C15 Fe1 179.3(2)
O6 C16 Fe1 178.4(2)
loop_
_geom_bond_atom_site_label_1
_geom_bond_atom_site_label_2
_geom_bond_distance
Fe1 C16 1.794(2)
Fe1 C14 1.796(3)
Fe1 C15 1.809(3)
Fe1 S1 2.2459(6)
Fe1 S2 2.2518(6)
Fe1 Fe2 2.5099(5)
Fe2 C13 1.799(2)
Fe2 C12 1.801(2)
Fe2 C1 1.804(2)
Fe2 S1 2.2480(7)
Fe2 S2 2.2548(6)
S1 C11 1.826(2)
S2 C2 1.825(2)
O1 C1 1.132(3)
O2 C12 1.140(3)
O3 C13 1.138(3)
O4 C14 1.139(3)
O5 C15 1.136(3)
O6 C16 1.136(3)
N1 C11 1.446(3)
N1 C3 1.447(3)
N1 C2 1.452(3)
C2 H2A 0.9700
C2 H2B 0.9700
C3 C4 1.391(3)
C3 C8 1.403(3)
C4 C5 1.379(4)
C4 H4 0.9300
C5 C6 1.375(4)
C5 H5 0.9300
C6 C7 1.372(4)
C6 H6 0.9300
C7 C8 1.395(3)
C7 H7 0.9300
C8 C9 1.506(3)
C9 C10 1.526(4)
C9 H9A 0.9700
C9 H9B 0.9700
C10 H10A 0.9600
C10 H10B 0.9600
C10 H10C 0.9600
C11 H11A 0.9700
C11 H11B 0.9700
loop_
_geom_torsion_atom_site_label_1
_geom_torsion_atom_site_label_2
_geom_torsion_atom_site_label_3
_geom_torsion_atom_site_label_4
_geom_torsion
C11 N1 C2 S2 -67.9(2)
C3 N1 C2 S2 163.45(15)
Fe1 S2 C2 N1 -4.40(18)
Fe2 S2 C2 N1 69.25(16)
C11 N1 C3 C4 -27.5(3)
C2 N1 C3 C4 100.7(2)
C11 N1 C3 C8 150.91(19)
C2 N1 C3 C8 -80.9(2)
C8 C3 C4 C5 -1.6(4)
N1 C3 C4 C5 176.8(2)
C3 C4 C5 C6 0.9(4)
C4 C5 C6 C7 0.7(5)
C5 C6 C7 C8 -1.7(5)
C6 C7 C8 C3 1.0(4)
C6 C7 C8 C9 -178.5(3)
C4 C3 C8 C7 0.7(3)
N1 C3 C8 C7 -177.8(2)
C4 C3 C8 C9 -179.8(2)
N1 C3 C8 C9 1.8(3)
C7 C8 C9 C10 -62.3(3)
C3 C8 C9 C10 118.2(3)
C3 N1 C11 S1 -164.17(14)
C2 N1 C11 S1 67.8(2)
Fe1 S1 C11 N1 4.85(18)
Fe2 S1 C11 N1 -69.02(17)
