#------------------------------------------------------------------------------
#$Date: 2019-11-26 02:24:39 +0200 (Tue, 26 Nov 2019) $
#$Revision: 242394 $
#$URL: file:///home/coder/svn-repositories/cod/cif/4/13/24/4132406.cif $
#------------------------------------------------------------------------------
#
# This file is available in the Crystallography Open Database (COD),
# http://www.crystallography.net/
#
# All data on this site have been placed in the public domain by the
# contributors.
#
data_4132406
loop_
_publ_author_name
'Le Gal, Yann'
'Roisnel, Thierry'
'Auban-Senzier, Pascale'
'Bellec, Nathalie'
'\'I\~niguez, Jorge'
'Canadell, Enric'
'Lorcy, Dominique'
_publ_section_title
;
 Stable Metallic State of a Neutral-Radical Single-Component Conductor at
 Ambient Pressure.
;
_journal_issue                   22
_journal_name_full               'Journal of the American Chemical Society'
_journal_page_first              6998
_journal_page_last               7004
_journal_paper_doi               10.1021/jacs.8b03714
_journal_volume                  140
_journal_year                    2018
_chemical_compound_source        'synthesis as described'
_chemical_formula_moiety         'C8 H6 Au N2 S8'
_chemical_formula_sum            'C8 H6 Au N2 S8'
_chemical_formula_weight         583.59
_space_group_crystal_system      monoclinic
_space_group_IT_number           14
_space_group_name_Hall           '-P 2ybc'
_space_group_name_H-M_alt        'P 1 21/c 1'
_atom_sites_solution_hydrogens   geom
_cell_angle_alpha                90
_cell_angle_beta                 103.628(3)
_cell_angle_gamma                90
_cell_formula_units_Z            2
_cell_length_a                   13.8261(12)
_cell_length_b                   3.7274(3)
_cell_length_c                   14.4026(10)
_cell_measurement_reflns_used    7669
_cell_measurement_temperature    150
_cell_measurement_theta_max      27.49
_cell_measurement_theta_min      2.91
_cell_measurement_wavelength     0.71073
_cell_volume                     721.35(10)
_computing_cell_refinement       'APEX3 (Bruker, 2015); SAINT (Bruker, 2014)'
_computing_data_collection       'SAINT (Bruker, 2014)'
_computing_data_reduction        'SAINT (Bruker, 2014)'
_computing_molecular_graphics
'SXGRAPH (Farrugia, 1999), Mercury (CSD, 2016)'
_computing_publication_material  'CRYSCALC (T. Roisnel, local program, 2018)'
_computing_structure_refinement  'SHELXL-2017_1 (Sheldrick, 2017)'
_computing_structure_solution    'SIR97 (Altomare et al., 1999)'
_diffrn_ambient_temperature      150
_diffrn_detector                 '(CMOS) PHOTON 100'
_diffrn_measured_fraction_theta_full 0.998
_diffrn_measured_fraction_theta_max 0.992
_diffrn_measurement_device_type  'D8 VENTURE Bruker AXS'
_diffrn_measurement_method       'rotation images'
_diffrn_radiation_monochromator  'multilayer monochromator'
_diffrn_radiation_probe          x-ray
_diffrn_radiation_source         'Incoatec microfocus sealed tube'
_diffrn_radiation_type           MoK\a
_diffrn_radiation_wavelength     0.71073
_diffrn_reflns_av_R_equivalents  0.0757
_diffrn_reflns_av_unetI/netI     0.0467
_diffrn_reflns_limit_h_max       17
_diffrn_reflns_limit_h_min       -17
_diffrn_reflns_limit_k_max       4
_diffrn_reflns_limit_k_min       -4
_diffrn_reflns_limit_l_max       17
_diffrn_reflns_limit_l_min       -18
_diffrn_reflns_number            10781
_diffrn_reflns_theta_full        25.242
_diffrn_reflns_theta_max         27.540
_diffrn_reflns_theta_min         2.911
_exptl_absorpt_coefficient_mu    11.337
_exptl_absorpt_correction_T_max  0.893
_exptl_absorpt_correction_T_min  0.664
_exptl_absorpt_correction_type   multi-scan
_exptl_absorpt_process_details
;
  [Sheldrick, G.M. (2014). SADABS Bruker AXS Inc., Madison, Wisconsin, USA]
;
_exptl_crystal_colour            black
_exptl_crystal_density_diffrn    2.687
_exptl_crystal_description       stick
_exptl_crystal_F_000             550
_exptl_crystal_size_max          0.110
_exptl_crystal_size_mid          0.020
_exptl_crystal_size_min          0.010
_refine_diff_density_max         2.789
_refine_diff_density_min         -2.853
_refine_diff_density_rms         0.338
_refine_ls_extinction_method     none
_refine_ls_goodness_of_fit_ref   1.383
_refine_ls_hydrogen_treatment    constr
_refine_ls_matrix_type           full
_refine_ls_number_parameters     71
_refine_ls_number_reflns         1652
_refine_ls_number_restraints     0
_refine_ls_restrained_S_all      1.383
_refine_ls_R_factor_all          0.0732
_refine_ls_R_factor_gt           0.0624
_refine_ls_shift/su_max          0.001
_refine_ls_shift/su_mean         0.000
_refine_ls_structure_factor_coef Fsqd
_refine_ls_weighting_details
'w=1/[\s^2^(Fo^2^)+29.1875P] where P=(Fo^2^+2Fc^2^)/3'
_refine_ls_weighting_scheme      calc
_refine_ls_wR_factor_gt          0.1228
_refine_ls_wR_factor_ref         0.1261
_reflns_Friedel_coverage         0.000
_reflns_number_gt                1455
_reflns_number_total             1652
_reflns_threshold_expression     >2sigma(I)
_cod_data_source_file            ja8b03714_si_002.cif
_cod_data_source_block           Au(Methiazdt)2
_cod_original_sg_symbol_H-M      'P 21/c'
_cod_database_code               4132406
_shelx_res_file
;
TITL import in P 21/c
    job.res
    created by SHELXL-2017/1 at 15:33:43 on 28-Feb-2018
CELL  0.71073  13.8261   3.7274  14.4026   90.000  103.628   90.000
ZERR     2.00   0.0012   0.0003   0.0010    0.000    0.003    0.000
LATT   1
SYMM  - X, 1/2 + Y, 1/2 - Z
SFAC  C    H    N    S    AU
UNIT  16   12   4    16   2
MERG   2
EADP C1 C2 C4 C5
FMAP   2
PLAN   20
ACTA
BOND   $H
CONF
LIST   4
WPDB  -2
L.S.   4
TEMP  -123.00
WGHT    0.000000   29.187500
FVAR       0.32876
AU1   5    0.000000    0.000000    0.000000    10.50000    0.00999    0.01118 =
         0.00709    0.00049    0.00098   -0.00113
S1    4   -0.168665    0.139097   -0.033484    11.00000    0.01212    0.01968 =
         0.00998   -0.00062    0.00287    0.00008
S2    4   -0.009309   -0.162679   -0.157745    11.00000    0.00714    0.01925 =
         0.00899   -0.00080    0.00117    0.00023
S3    4   -0.193528   -0.145042   -0.323918    11.00000    0.00779    0.02436 =
         0.00940   -0.00077    0.00047   -0.00125
S4    4   -0.408899    0.059943   -0.390732    11.00000    0.01426    0.00519 =
         0.02781    0.00117   -0.00056   -0.00374
C1    1   -0.132276   -0.084196   -0.204492    11.00000    0.01208    0.01226 =
         0.01436    0.00079    0.00455    0.00034
C2    1   -0.198003    0.053400   -0.154861    11.00000    0.01208    0.01226 =
         0.01436    0.00079    0.00455    0.00034
N3    3   -0.292505    0.105861   -0.211481    11.00000    0.00482    0.01950 =
         0.01985    0.00341    0.00702    0.00001
C4    1   -0.374387    0.248701   -0.172610    11.00000    0.01208    0.01226 =
         0.01436    0.00079    0.00455    0.00034
AFIX 137
H4A   2   -0.420342    0.385098   -0.222320    11.00000   -1.50000
H4B   2   -0.347077    0.406404   -0.118319    11.00000   -1.50000
H4C   2   -0.410126    0.049469   -0.151374    11.00000   -1.50000
AFIX   0
C5    1   -0.305794    0.024760   -0.305079    11.00000    0.01208    0.01226 =
         0.01436    0.00079    0.00455    0.00034
HKLF    4




REM  import in P 21/c
REM R1 =  0.0624 for    1455 Fo > 4sig(Fo)  and  0.0732 for all    1652 data
REM     71 parameters refined using      0 restraints

END

WGHT      0.0000     28.3357

REM Highest difference peak  2.789,  deepest hole -2.853,  1-sigma level  0.338
Q1    1  -0.4042 -0.1983 -0.3878  11.00000  0.05    2.79
Q2    1   0.0010  0.2393  0.0024  11.00000  0.05    1.76
Q3    1   0.0291  0.1494  0.0757  11.00000  0.05    1.49
Q4    1  -0.4226  0.0791 -0.4622  11.00000  0.05    1.41
Q5    1  -0.0205  0.2624 -0.2006  11.00000  0.05    1.24
Q6    1  -0.1193 -0.1058 -0.0317  11.00000  0.05    1.21
Q7    1  -0.4117  0.3007 -0.3890  11.00000  0.05    1.20
Q8    1  -0.3839  0.0759 -0.3221  11.00000  0.05    1.19
Q9    1  -0.1387  0.1409 -0.3195  11.00000  0.05    1.14
Q10   1   0.0580 -0.0128  0.0163  11.00000  0.05    1.14
Q11   1  -0.0669  0.1485 -0.1609  11.00000  0.05    1.12
Q12   1   0.0534 -0.2951  0.0870  11.00000  0.05    1.02
Q13   1  -0.1579 -0.0824 -0.2573  11.00000  0.05    0.95
Q14   1   0.0432  0.1457 -0.1577  11.00000  0.05    0.95
Q15   1  -0.3740 -0.1078 -0.2140  11.00000  0.05    0.95
Q16   1  -0.2191 -0.4318 -0.3710  11.00000  0.05    0.93
Q17   1  -0.0340 -0.4415 -0.1983  11.00000  0.05    0.93
Q18   1  -0.1991  0.2583 -0.3686  11.00000  0.05    0.90
Q19   1  -0.0118  0.3039 -0.1417  11.00000  0.05    0.89
Q20   1  -0.1911 -0.0838 -0.4017  11.00000  0.05    0.85
;
_shelx_res_checksum              43875
_shelx_hkl_file
;
  -2   0   0 1142.15   64.60   3
  -2   0   0 1084.99   65.72   3
   2   0   0 1231.82   62.93   1
   2   0   0 1193.16   64.66   3
   2   0   0 1062.63   65.30   3
  -2   0   0 1208.53   62.79   1
   3   0   0 1859.32   95.80   1
   3   0   0 1797.29   98.36   3
   3   0   0 1648.11   99.57   3
  -3   0   0 1685.22  100.20   3
  -3   0   0 1672.33   98.26   3
  -3   0   0 1860.50   95.59   1
  -4   0   0 1474.91   88.69   3
  -4   0   0 1446.25   85.79   3
  -4   0   0 1618.49   82.19   1
   4   0   0 1580.04   86.07   3
   4   0   0 1385.08   87.17   3
   5   0   0 8619.09  444.39   3
   5   0   0 8045.84  445.07   3
  -5   0   0 8087.66  445.89   3
  -5   0   0 8017.13  444.21   3
   6   0   0 4535.38  243.91   3
  -6   0   0 4388.90  243.92   3
   6   0   0 4306.06  244.65   3
  -6   0   0 4457.52  239.27   1
  -6   0   0 4459.10  246.46   3
  -7   0   0 3566.19  204.82   3
  -7   0   0 3565.09  201.93   3
  -7   0   0 3648.55  196.47   1
   7   0   0 3689.17  203.13   3
   7   0   0 3663.17  202.02   3
   8   0   0  596.71   46.54   3
  -8   0   0  630.53   37.14   1
  -8   0   0  650.10   53.96   3
   8   0   0  668.25   47.65   3
  -8   0   0  622.12   44.96   3
   9   0   0  628.68   48.14   3
   9   0   0  635.44   46.68   3
  -9   0   0  640.30   37.25   1
  -9   0   0  601.60   45.64   3
  -9   0   0  625.06   53.92   3
 -10   0   0 3480.80  206.82   3
 -10   0   0 3583.23  202.72   3
  10   0   0 3678.46  205.42   3
  10   0   0 3657.12  203.67   3
 -11   0   0 1543.99   95.33   3
  11   0   0 1560.73   98.33   3
 -11   0   0 1619.94  104.46   3
  11   0   0 1539.39   97.72   3
 -12   0   0 1442.15  100.56   3
 -12   0   0 1412.56   90.01   3
  12   0   0 1426.54   91.91   3
  12   0   0 1451.86   94.46   3
  13   0   0  706.66   58.76   3
  13   0   0  638.51   61.23   3
 -13   0   0  695.33   53.69   3
 -13   0   0  652.59   69.17   3
 -14   0   0  605.94   68.93   3
 -14   0   0  728.83   56.22   3
  14   0   0  599.79   61.39   3
  14   0   0  571.76   61.70   3
  15   0   0 1004.14   81.55   3
  15   0   0  855.99   74.60   3
 -15   0   0  856.89   85.31   3
 -15   0   0  836.04   70.64   3
 -16   0   0  682.08   83.46   3
  16   0   0  644.69   77.38   3
  16   0   0  595.67   76.94   3
 -16   0   0  752.07   69.72   3
  17   0   0  925.59   88.95   3
 -17   0   0  977.33   89.62   3
  17   0   0  771.87   88.46   3
 -17   0   0  973.75  101.17   3
   0  -1   0  -12.65    8.36   3
   0  -1   0   -6.97   10.56   3
   0   1   0  -11.99    9.66   3
   0   1   0    1.16    7.59   3
  -1  -1   0  108.60   14.52   3
   1  -1   0  124.14   15.11   3
   1  -1   0  117.40   14.28   3
  -1  -1   0   85.64   13.50   3
   1   1   0   71.75   13.99   3
  -1   1   0  120.00   13.49   3
  -1   1   0   93.92   14.86   3
   2  -1   0  242.72   19.05   3
  -2  -1   0  209.23   17.74   3
  -2  -1   0  211.36   21.99   3
   2  -1   0  224.77   19.29   3
  -2   1   0  222.74   19.98   3
   2   1   0  198.68   19.71   3
   2   1   0  226.26   19.66   3
  -2   1   0  243.61   18.44   3
   3  -1   0   59.49   11.44   3
  -3  -1   0   65.84   11.85   3
  -3  -1   0   62.99   15.90   3
   3  -1   0   68.49   11.49   3
  -3   1   0   75.98   12.41   3
   3   1   0   60.21   13.54   3
   3   1   0   56.81   13.08   3
  -3   1   0   76.63   14.55   3
   4  -1   0   17.72   11.02   3
   4  -1   0    6.01   10.96   3
  -4  -1   0    0.65    9.02   3
  -4  -1   0    6.45   15.14   3
   4   1   0   -0.93   11.64   3
  -4   1   0    8.14   13.36   3
  -4   1   0   19.00   10.38   3
   4   1   0    0.39   12.53   3
   5  -1   0  118.74   21.40   3
  -5  -1   0  122.51   20.49   3
   5  -1   0   98.34   16.82   3
  -5  -1   0   83.25   16.75   3
   5   1   0   95.60   17.89   3
  -5   1   0  119.44   18.24   3
   5   1   0   79.41   15.41   1
  -5   1   0  119.09   20.19   3
   5   1   0  112.12   17.89   3
  -6  -1   0   60.06   20.76   3
   6  -1   0   67.27   17.84   3
   6  -1   0   70.45   17.77   3
  -6  -1   0   53.90   13.22   3
   6   1   0   54.02   16.62   3
   6   1   0   41.68   16.08   3
  -6   1   0   85.99   16.36   3
  -6   1   0   61.87   19.34   3
   6   1   0   50.15   11.64   1
   7  -1   0   68.87   19.02   3
  -7  -1   0   41.26   20.83   3
   7  -1   0   52.74   19.69   3
  -7  -1   0   20.45   12.00   3
  -7   1   0   33.71   23.08   3
   7   1   0   44.33   11.17   1
   7   1   0   31.44   17.94   3
   7   1   0   35.52   16.20   3
  -7   1   0   56.24   14.28   3
  -8  -1   0   89.70   17.79   3
   8  -1   0   83.30   20.35   3
   8  -1   0  143.31   27.37   3
  -8  -1   0   75.82   25.45   3
  -8  -1   0   80.09   14.85   2
   8   1   0   85.01   14.11   1
  -8   1   0  105.74   24.38   3
   8   1   0  105.74   24.72   3
  -8   1   0  126.81   21.34   3
   8   1   0  105.40   20.23   3
  -9  -1   0    4.07   12.06   3
  -9  -1   0    3.05   11.58   2
  -9  -1   0  -18.20   25.74   3
   9  -1   0   48.90   20.26   3
   9  -1   0    2.43   17.93   3
  -9   1   0   27.09   14.67   3
   9   1   0  -11.40   16.25   3
   9   1   0    6.34   21.59   3
   9   1   0   22.92   10.97   1
  -9   1   0   18.65   23.49   3
 -10  -1   0  141.18   34.45   3
  10  -1   0  102.88   27.11   3
 -10  -1   0  109.81   17.53   2
 -10  -1   0  160.24   21.98   3
  10  -1   0  141.32   32.05   3
  10   1   0  126.04   28.48   3
 -10   1   0   86.51   21.22   3
  10   1   0  125.12   26.69   3
 -10   1   0  131.23   36.05   3
  10   1   0  127.76   20.51   1
 -11  -1   0  220.11   28.52   3
 -11  -1   0  157.88   40.39   3
  11  -1   0  176.18   33.89   3
  11  -1   0  191.47   37.19   3
  11   1   0  156.50   31.87   3
  11   1   0  128.02   23.33   1
  11   1   0  146.25   34.30   3
 -11   1   0  159.62   38.84   3
 -11   1   0  215.18   30.66   3
  12  -1   0  172.75   34.15   3
  12  -1   0  205.93   40.41   3
 -12  -1   0  116.46   23.45   3
 -12  -1   0  106.24   39.56   3
  12   1   0  116.77   22.22   1
  12   1   0  155.84   36.67   3
 -12   1   0  117.93   40.42   3
  12   1   0  149.26   35.33   3
  13  -1   0   29.38   30.92   3
 -13  -1   0   37.66   22.21   3
 -13  -1   0   12.65   35.44   3
  13  -1   0    1.91   31.04   3
  13   1   0   11.90   13.89   1
 -13   1   0  -17.31   36.62   3
  13   1   0    6.19   30.93   3
  13   1   0   -3.90   38.30   3
 -13   1   0    4.35   23.69   3
 -14  -1   0   14.57   25.79   3
  14  -1   0   23.44   38.43   3
 -14  -1   0   24.52   41.65   3
 -14   1   0   15.22   41.91   3
 -14   1   0   10.99   32.71   3
  14   1   0   42.62   32.87   3
  15  -1   0    8.53   36.66   3
  15  -1   0   64.23   51.96   3
 -15  -1   0  -18.15   46.05   3
 -15  -1   0   13.06   30.96   3
 -15   1   0   36.23   33.12   3
  15   1   0    1.63   37.07   3
  15   1   0   85.68   52.52   3
  16  -1   0  286.69   58.41   3
 -16  -1   0  106.42   54.85   3
 -16  -1   0  162.68   51.00   3
  16  -1   0  165.24   48.30   3
 -16   1   0  202.74   61.15   3
  16   1   0  180.43   48.25   3
 -17  -1   0  236.89   51.87   3
  17  -1   0  179.56   68.09   3
  17  -1   0   85.10   54.24   3
 -17  -1   0   90.29   62.59   3
 -17   1   0  162.74   70.67   3
  17   1   0  101.11   57.30   3
 -17   1   0  134.61   48.65   3
   0  -2   0 1709.79   98.64   3
   0   2   0 1732.54   99.02   3
   0   2   0 1733.17   99.96   3
  -1  -2   0  700.29   43.82   3
  -1  -2   0  635.63   46.79   3
   1  -2   0  694.55   46.68   3
   1  -2   0  724.28   44.30   3
   1   2   0  647.74   46.10   3
  -1   2   0  675.48   44.10   3
   1   2   0  664.65   44.28   3
  -1   2   0  689.48   46.87   3
  -2  -2   0  989.89   64.15   3
  -2  -2   0 1049.93   61.58   3
   2  -2   0 1104.20   62.19   3
   2  -2   0 1001.59   63.07   3
  -2   2   0  984.30   62.99   3
  -2   2   0 1013.32   61.55   3
   2   2   0  993.99   63.24   3
   2   2   0  988.96   62.42   3
   3  -2   0 1147.36   67.58   3
  -3  -2   0 1089.34   70.01   3
  -3  -2   0 1121.69   67.42   3
   3  -2   0 1129.45   68.72   3
  -3   2   0 1128.81   68.95   3
   3   2   0 1110.27   68.85   3
  -3   2   0 1125.81   67.25   3
   4  -2   0  784.64   52.33   3
  -4  -2   0  790.09   49.89   3
   4  -2   0  829.09   51.01   3
  -4  -2   0  774.20   54.14   3
  -4   2   0  757.92   52.46   3
   4   2   0  788.46   52.84   3
   4   2   0  829.26   50.72   3
  -4   2   0  754.07   49.83   3
  -5  -2   0  854.41   51.01   3
   5  -2   0  789.14   53.97   3
   5  -2   0  819.28   52.62   3
  -5  -2   0  804.48   57.19   3
   5   2   0  815.70   55.45   3
   5   2   0  770.95   52.37   3
  -5   2   0  833.38   51.48   3
  -5   2   0  801.49   54.82   3
   6  -2   0  392.13   36.12   3
  -6  -2   0  386.87   42.12   3
  -6  -2   0  462.23   32.27   3
   6  -2   0  419.69   34.69   3
   6   2   0  455.48   35.53   3
  -6   2   0  433.68   39.26   3
  -6   2   0  433.32   33.88   3
   6   2   0  413.75   38.77   3
  -7  -2   0 1091.78   77.38   3
   7  -2   0 1218.84   73.66   3
  -7  -2   0 1205.12   71.65   3
   7  -2   0 1172.58   74.77   3
   7   2   0 1117.24   74.16   3
  -7   2   0 1138.66   72.63   3
  -7   2   0 1142.34   76.43   3
   7   2   0 1212.11   76.80   3
   7   2   0 1258.99   70.38   1
  -8  -2   0  442.75   51.11   3
   8  -2   0  544.52   43.91   3
   8  -2   0  523.74   47.57   3
  -8  -2   0  543.29   40.33   3
  -8   2   0  574.78   42.18   3
  -8   2   0  543.51   49.96   3
   8   2   0  531.48   38.01   1
   8   2   0  567.68   46.18   3
   8   2   0  501.06   49.20   3
   9  -2   0  597.28   50.88   3
  -9  -2   0  550.63   56.84   3
  -9  -2   0  665.76   43.63   3
   9  -2   0  542.24   52.82   3
   9   2   0  580.75   41.48   1
  -9   2   0  603.55   46.80   3
   9   2   0  577.49   53.45   3
   9   2   0  545.78   52.70   3
  -9   2   0  569.69   56.11   3
  10  -2   0 1000.44   70.18   3
 -10  -2   0  968.51   63.22   3
 -10  -2   0  894.06   75.12   3
  10  -2   0  821.96   69.70   3
  10   2   0  927.71   71.13   3
  10   2   0  938.42   58.83   1
 -10   2   0  866.78   64.92   3
  10   2   0  864.11   70.27   3
 -10   2   0 1000.84   75.69   3
 -11  -2   0  126.28   42.11   3
 -11  -2   0  173.89   30.45   2
 -11  -2   0  192.17   31.57   3
  11  -2   0  152.56   42.05   3
 -11   2   0  174.31   43.74   3
  11   2   0  215.90   41.36   3
  11   2   0  135.19   26.35   1
  11   2   0  214.70   41.68   3
 -12  -2   0  534.15   43.86   2
 -12  -2   0  476.06   46.82   3
  12  -2   0  454.98   59.83   3
 -12  -2   0  467.20   63.83   3
  12  -2   0  643.70   71.00   3
 -12   2   0  507.23   69.32   3
  12   2   0  403.55   39.22   1
  12   2   0  494.10   61.79   3
  12   2   0  587.97   68.98   3
 -12   2   0  638.43   57.00   3
  13  -2   0  474.43   83.22   3
  13  -2   0  317.60   60.27   3
 -13  -2   0  351.67   46.16   3
 -13  -2   0  318.69   39.32   2
 -13  -2   0  345.48   66.20   3
  13   2   0  442.47   63.70   3
  13   2   0  318.48   60.57   3
  13   2   0  372.09   35.73   1
 -13   2   0  471.75   68.09   3
 -13   2   0  298.50   56.98   3
  14  -2   0  575.39   89.12   3
 -14  -2   0  381.59   77.28   3
 -14  -2   0  359.67   43.28   2
  14  -2   0  417.38   62.19   3
 -14  -2   0  483.63   56.01   3
  14   2   0  350.34   41.23   1
 -14   2   0  452.14   69.96   3
  14   2   0  411.87   72.34   3
 -14   2   0  405.06   67.13   3
  14   2   0  331.10   58.02   3
  15  -2   0  586.52   95.53   3
 -15  -2   0  483.85   71.44   3
 -15  -2   0  449.54   75.67   3
  15  -2   0  440.01   83.43   3
 -15   2   0  491.65   77.69   3
  15   2   0  673.06   87.10   3
  15   2   0  422.86   46.76   1
  15   2   0  425.34   81.47   3
 -15   2   0  498.58   77.36   3
   0  -3   0   40.16   17.84   3
   0  -3   0   -0.39   22.90   3
   0   3   0   19.48   20.92   3
   0   3   0   15.68   23.92   3
  -1  -3   0   55.83   26.00   3
   1   3   0   67.27   19.54   3
  -1   3   0   59.92   20.77   3
  -1   3   0   80.71   27.76   3
   1   3   0  130.76   28.38   3
  -2  -3   0   82.09   27.47   3
   2   3   0  145.62   26.43   3
   2   3   0  124.42   28.96   3
   3  -3   0   45.96   24.36   3
  -3  -3   0   36.60   27.98   3
  -3   3   0   95.47   21.88   3
  -3   3   0   88.09   28.03   3
   3   3   0   39.49   26.44   3
  -4  -3   0   28.15   27.10   3
   4  -3   0   87.74   25.73   3
   4   3   0   56.13   27.42   3
  -4   3   0  103.34   27.92   3
   4   3   0   49.76   20.79   3
  -5  -3   0   55.46   17.53   3
  -5  -3   0   11.26   26.86   3
   5  -3   0   41.81   24.66   3
   5  -3   0   76.87   21.49   3
   5   3   0  -11.59   23.10   3
   5   3   0   42.52   26.69   3
  -5   3   0   28.78   19.32   3
  -5   3   0   23.07   26.68   3
  -6  -3   0    3.07   29.91   3
   6  -3   0   43.33   26.17   3
  -6  -3   0   62.76   23.42   3
   6  -3   0   60.22   22.71   3
  -6   3   0   15.71   27.45   3
   6   3   0   50.80   29.95   3
  -6   3   0   81.46   20.98   3
  -7  -3   0   30.01   34.96   3
   7  -3   0   47.43   31.82   3
   7  -3   0   65.09   27.66   3
  -7   3   0   26.15   27.88   3
   7   3   0   86.99   31.40   3
   8  -3   0  168.54   31.99   3
  -8  -3   0  112.10   36.96   3
   8  -3   0  157.29   33.68   3
   8   3   0   94.58   21.99   1
  -8   3   0  161.30   39.27   3
   8   3   0  142.34   35.11   3
   8   3   0   97.67   34.95   3
  -8   3   0   74.20   24.68   3
  -9  -3   0  101.87   38.61   3
   9  -3   0  120.73   36.07   3
   9  -3   0   59.45   35.38   3
  -9   3   0  144.37   31.62   3
   9   3   0  124.64   37.48   3
  -9   3   0  102.89   39.12   3
   9   3   0   73.63   21.31   1
   9   3   0  127.30   39.61   3
 -10  -3   0  -12.64   41.45   3
  10  -3   0   39.78   39.94   3
  10  -3   0   86.35   38.89   3
  10   3   0   15.18   20.45   1
 -10   3   0   56.01   41.75   3
 -10   3   0  -16.25   34.83   3
  10   3   0   -9.78   41.75   3
  10   3   0    1.85   35.08   3
  11  -3   0  -37.90   37.73   3
  11  -3   0  112.11   47.09   3
 -11  -3   0   38.92   46.66   3
 -11   3   0    0.44   43.76   3
  11   3   0   92.12   46.66   3
 -11   3   0   51.60   42.56   3
  11   3   0   53.53   40.37   3
  11   3   0    8.02   20.14   1
  12  -3   0   -9.22   48.85   3
 -12  -3   0   31.00   31.83   2
 -12  -3   0   17.16   54.12   3
  12  -3   0   92.43   60.64   3
 -12  -3   0   97.73   41.21   3
  12   3   0    9.12   48.28   3
  12   3   0    4.02   23.18   1
 -12   3   0   23.77   50.73   3
 -12   3   0   29.14   56.66   3
 -13  -3   0   82.58   36.72   2
  13  -3   0   47.69   72.87   3
  13  -3   0   16.37   54.28   3
 -13  -3   0  140.97   44.17   3
 -13  -3   0   58.37   57.89   3
 -13   3   0  127.89   72.19   3
  13   3   0  232.16   78.63   3
  13   3   0   67.75   28.53   1
  13   3   0   -6.17   51.95   3
 -13   3   0   -4.56   51.94   3
   0  -4   0  150.17   39.95   3
   0   4   0  162.26   45.38   3
   0   4   0  129.83   41.71   3
  -1  -4   0  166.50   44.85   3
   1  -4   0  162.22   40.90   3
   1   4   0  277.78   50.45   3
  -1   4   0  215.23   50.60   3
  -1   4   0  257.50   45.62   3
   1   4   0  211.29   44.59   3
  -2  -4   0  569.54   67.05   3
  -2   4   0  656.45   67.38   3
   2   4   0  631.40   71.00   3
  -2   4   0  548.67   67.42   3
   2   4   0  710.74   69.09   3
  -3  -4   0  793.97   77.06   3
   3  -4   0  964.79   72.53   3
   3   4   0  916.23   80.08   3
  -3   4   0  795.62   76.05   3
   3   4   0  881.20   77.93   3
  -3   4   0  832.54   78.23   3
   4  -4   0  360.14   54.89   3
  -4  -4   0  345.27   59.90   3
  -4   4   0  311.50   56.93   3
   4   4   0  472.93   60.87   3
  -4   4   0  358.52   59.89   3
   4   4   0  369.30   59.68   3
   5  -4   0  221.09   47.69   3
  -5  -4   0  181.27   49.17   3
  -5   4   0  242.80   43.14   3
  -5   4   0  181.27   45.50   3
   5   4   0  245.71   48.35   3
   6  -4   0  133.34   47.90   3
  -6  -4   0   73.90   47.88   3
  -6   4   0  136.55   47.55   3
  -6   4   0   96.32   41.85   3
   6   4   0  153.18   51.38   3
  -7  -4   0  341.78   61.28   3
   7  -4   0  282.00   55.65   3
   7  -4   0  454.68   76.30   3
  -7   4   0  334.64   59.10   3
   7   4   0  364.75   56.87   3
   7   4   0  260.57   44.61   1
   7   4   0  304.95   59.11   3
  -7   4   0  329.27   58.60   3
   8  -4   0  447.22   72.34   3
  -8  -4   0  667.89   85.11   3
   8  -4   0  584.64   96.03   3
   8   4   0  493.95   81.93   3
  -8   4   0  437.49   79.21   3
   8   4   0  547.28   75.26   3
  -8   4   0  469.19   73.51   3
   8   4   0  526.73   54.66   1
   9  -4   0  536.78   96.00   3
  -9  -4   0  354.22   71.37   3
   9  -4   0  363.38   65.26   3
  -9   4   0  547.34   75.54   3
  -9   4   0  392.17   68.87   3
   9   4   0  441.50   68.80   3
   9   4   0  370.48   51.27   1
   9   4   0  458.58   87.55   3
  17   0  -1  -46.23   51.82   3
 -17   0   1   52.62   44.66   3
 -17   0   1    6.75   61.89   3
  17   0  -1   87.40   43.97   3
  16   0  -1  -45.13   39.92   3
 -16   0   1    9.16   49.89   3
  16   0  -1  -25.11   37.03   3
 -16   0   1   36.46   33.35   3
  15   0  -1   14.49   30.03   3
  15   0  -1    5.56   36.61   3
 -15   0   1   -0.71   30.29   3
 -15   0   1    7.83   39.98   3
  14   0  -1   38.81   29.25   3
 -14   0   1   19.01   37.54   3
 -14   0   1   25.72   30.11   3
  14   0  -1    8.30   31.93   3
  13   0  -1   -7.42   29.00   3
 -13   0   1   58.59   22.40   3
 -13   0   1   -1.52   37.52   3
  13   0  -1   67.09   27.34   3
  12   0  -1   -0.36   23.03   3
 -12   0   1   11.67   32.09   3
  12   0  -1   19.81   20.03   3
 -12   0   1    8.59   19.36   3
  11   0  -1   18.17   24.03   3
 -11   0   1    4.06   13.05   3
 -11   0   1   21.80   31.01   3
  11   0  -1  -29.97   20.11   3
 -10   0   1    1.31   25.52   3
  10   0  -1   -4.54   16.75   3
  10   0  -1   21.09   21.12   3
 -10   0   1    1.33   15.13   3
   9   0  -1   -6.95   15.75   3
  -9   0   1   14.79   12.94   3
  -9   0   1    5.41   22.65   3
   9   0  -1   10.27   18.17   3
   8   0  -1   -9.77   15.58   3
   8   0  -1   14.26   17.99   3
  -8   0   1   16.84   26.86   3
   8   0  -1   -9.17    6.57   2
  -8   0   1   -6.56   15.10   3
   7   0  -1   21.75   18.57   3
  -7   0   1   -6.65   14.37   3
   7   0  -1    4.77    6.93   2
  -7   0   1   19.00   23.65   3
   7   0  -1    7.55   15.97   3
   6   0  -1  -20.38   14.20   3
   6   0  -1   -2.13   14.71   3
  -6   0   1   11.49   21.20   3
  -6   0   1    3.60   13.39   3
   6   0  -1   -6.05    7.05   2
  -5   0   1    2.78   17.91   3
   5   0  -1    6.02   12.74   3
  -5   0   1   -2.31    9.11   2
   5   0  -1   -4.44    6.59   2
  -5   0   1    1.18   11.19   3
   5   0  -1   -0.80   12.77   3
  -4   0   1   -9.55   15.56   3
  -4   0   1  -10.70    9.73   2
  -4   0   1   -8.10   11.21   3
   4   0  -1  -15.17   11.54   3
   4   0  -1   -4.73   11.49   3
   4   0  -1   -1.33    6.94   2
   3   0  -1   -1.32    6.92   2
  -3   0   1  -14.75    9.39   3
   3   0  -1   -8.56   11.16   3
  -3   0   1   -7.77   13.57   3
   3   0  -1    4.26    9.72   3
  -3   0   1    0.68    9.64   2
  -2   0   1   -6.99    7.04   3
   2   0  -1   -5.22    5.39   2
   2   0  -1   -6.98    6.85   3
  -2   0   1   -6.11    6.13   3
  -2   0   1   -3.04    6.96   2
   2   0  -1   -5.44    8.38   3
   2   0   1    6.66    7.56   3
  -2   0  -1   -1.49    5.01   1
  -2   0  -1   -2.24    7.05   3
   2   0   1   -7.98    9.73   3
  -2   0  -1    1.39   10.84   3
   4   0   1   -3.94   13.78   3
   4   0   1    2.35   12.59   3
  -4   0  -1    5.08    6.44   1
  -4   0  -1   16.30   17.17   3
  -4   0  -1    0.65   11.14   3
  -5   0  -1    9.78   19.34   3
  -5   0  -1    0.09   12.24   3
   5   0   1  -10.48   14.64   3
  -5   0  -1    1.13    6.48   1
   5   0   1    7.84   15.66   3
  -6   0  -1   18.07   23.12   3
   6   0   1    9.09   17.21   3
  -6   0  -1    9.56    7.49   1
  -6   0  -1   -3.59   14.32   3
   6   0   1  -25.34   17.41   3
  -7   0  -1    6.18    7.47   1
  -7   0  -1   22.69   22.97   3
   7   0   1  -11.73   19.23   3
  -7   0  -1   -6.26   13.51   3
   7   0   1   15.71   16.84   3
   8   0   1   -5.74   14.19   3
   8   0   1   12.89   17.12   3
  -8   0  -1  -11.82   12.59   3
  -8   0  -1   -1.92   22.28   3
  -8   0  -1   -3.89    6.87   1
   9   0   1   16.09   20.71   3
  -9   0  -1   34.12   16.15   3
  -9   0  -1  -10.94   24.38   3
   9   0   1   35.30   17.69   3
  -9   0  -1    3.10    8.24   1
  10   0   1  -32.23   20.36   3
 -10   0  -1   17.20   14.88   3
 -10   0  -1   15.57   26.48   3
  10   0   1   16.22   20.46   3
 -11   0  -1   -6.03    9.62   1
  11   0   1    1.99   26.13   3
  11   0   1  -17.66   20.35   3
 -11   0  -1  -18.10   29.94   3
  12   0   1   39.27   22.77   3
 -12   0  -1   14.38   19.95   3
 -12   0  -1    0.11   32.06   3
  12   0   1    3.83   26.64   3
 -13   0  -1   41.12   37.20   3
  13   0   1   15.64   26.88   3
 -13   0  -1   -3.26   22.29   3
  13   0   1   -0.73   32.04   3
 -14   0  -1    2.88   39.29   3
 -14   0  -1   60.24   27.96   3
  14   0   1  -12.85   29.83   3
  14   0   1   52.75   32.08   3
  15   0   1   72.75   42.90   3
  15   0   1   -6.26   39.71   3
 -15   0  -1   59.26   30.39   3
 -15   0  -1   11.25   40.67   3
  16   0   1  -19.31   41.30   3
  16   0   1  -50.45   40.68   3
 -16   0  -1   67.71   40.60   3
 -16   0  -1  -30.74   52.59   3
  17   0   1  -38.31   46.65   3
  17   0   1   44.41   47.09   3
 -17   0  -1  -16.39   57.28   3
 -17   0  -1   54.39   45.80   3
  17  -1  -1  741.99   89.80   3
  17  -1  -1  623.25   78.97   3
 -17  -1   1  519.92   89.15   3
  17   1  -1  462.34   79.16   3
 -17   1   1  535.04   99.25   3
 -17   1   1  546.80   71.14   3
 -16  -1   1  696.90   71.92   3
 -16  -1   1  488.01   80.77   3
  16  -1  -1  644.30   74.44   3
  16   1  -1  537.59   75.31   3
  16   1  -1  842.52   95.89   3
 -16   1   1  717.62   68.65   3
 -16   1   1  644.52   87.97   3
 -15  -1   1  332.61   55.11   3
  15  -1  -1  397.36   74.20   3
  15  -1  -1  320.97   56.70   3
 -15  -1   1  314.15   51.60   3
  15   1  -1  272.84   56.06   3
 -15   1   1  352.23   56.35   3
 -14  -1   1  347.97   58.80   3
  14  -1  -1  386.54   55.00   3
 -14  -1   1  414.07   47.33   3
  14   1  -1  367.37   56.34   3
 -14   1   1  327.21   63.70   3
  14   1  -1  499.70   70.21   3
 -14   1   1  456.91   54.97   3
  13  -1  -1 1119.20   81.94   3
 -13  -1   1 1003.83   74.36   3
  13  -1  -1 1284.11   82.41   3
 -13  -1   1 1029.33   89.57   3
  13   1  -1 1044.01   82.24   3
 -13   1   1 1111.02   88.75   3
  13   1  -1 1044.25   86.06   3
  13   1  -1 1101.05   66.65   1
 -13   1   1 1229.83   79.62   3
  12  -1  -1  910.05   70.13   3
 -12  -1   1  826.25   62.19   3
  12  -1  -1  940.06   69.64   3
 -12  -1   1  851.55   78.35   3
 -12  -1   1  867.47   57.98   2
  12   1  -1  820.63   70.51   3
  12   1  -1  975.55   55.64   1
  12   1  -1  847.21   69.90   3
 -12   1   1  878.47   75.32   3
 -12   1   1  917.13   65.36   3
 -11  -1   1 2267.91  133.39   3
 -11  -1   1 2290.53  128.96   2
 -11  -1   1 2166.61  141.85   3
  11  -1  -1 2294.68  136.45   3
  11  -1  -1 2416.64  137.76   3
  11   1  -1 2233.92  136.18   3
  11   1  -1 2065.88  136.64   3
  11   1  -1 2461.57  127.45   1
 -11   1   1 2126.36  139.35   3
 -11   1   1 2373.18  134.80   3
 -10  -1   1  697.07   46.09   2
  10  -1  -1  703.17   53.99   3
 -10  -1   1  629.03   60.60   3
 -10  -1   1  633.22   48.35   3
  10  -1  -1  756.91   53.54   3
  10  -1  -1  683.37   43.07   2
 -10   1   1  647.65   59.10   3
 -10   1   1  742.42   51.00   3
  10   1  -1  720.35   43.71   1
  10   1  -1  656.59   55.49   3
  10   1  -1  620.62   52.40   3
  -9  -1   1  374.89   29.81   2
  -9  -1   1  322.77   30.41   3
   9  -1  -1  333.11   37.33   3
  -9  -1   1  346.06   43.45   3
   9  -1  -1  379.40   38.46   3
   9   1  -1  314.55   35.91   3
   9   1  -1  337.52   37.91   3
  -9   1   1  389.22   33.48   3
  -9   1   1  308.24   41.94   3
   9   1  -1  419.69   27.35   1
  -8  -1   1 2286.68  126.36   3
  -8  -1   1 2176.29  129.97   3
  -8  -1   1 2338.48  124.39   2
   8  -1  -1 2111.97  127.51   3
   8  -1  -1 2181.38  128.67   3
  -8   1   1 2217.77  129.88   3
   8   1  -1 2312.42  122.23   1
   8   1  -1 2137.27  127.53   3
   8   1  -1 2086.36  127.53   3
  -8   1   1 2214.88  126.38   3
   7  -1  -1 2109.02  122.44   3
  -7  -1   1 2083.13  124.03   3
  -7  -1   1 2098.08  120.82   3
  -7  -1   1 2225.71  119.85   2
   7  -1  -1 2074.30  122.23   3
  -7   1   1 2204.87  124.16   3
   7   1  -1 2238.34  117.69   1
   7   1  -1 2076.99  122.54   3
  -7   1   1 2066.20  121.08   3
   7   1  -1 2077.68  121.85   3
   6  -1  -1 3556.94  193.80   3
  -6  -1   1 3504.16  193.18   3
   6  -1  -1 3457.51  194.11   3
  -6  -1   1 3449.87  194.91   3
   6   1  -1 3391.32  194.27   3
  -6   1   1 3516.94  194.64   3
  -6   1   1 3547.74  193.34   3
   6   1  -1 3536.50  193.92   3
  -5  -1   1 1254.13   80.50   3
  -5  -1   1 1402.32   78.50   3
   5  -1  -1 1326.98   79.25   3
   5  -1  -1 1386.06   79.25   3
   5   1  -1 1420.87   79.96   3
  -5   1   1 1394.06   78.75   3
  -5   1   1 1332.26   79.88   3
   5   1  -1 1325.95   79.35   3
  -4  -1   1 1484.69   85.10   3
   4  -1  -1 1487.24   83.46   3
   4  -1  -1 1407.35   83.25   3
  -4  -1   1 1447.48   82.89   3
  -4   1   1 1438.13   83.73   3
   4   1  -1 1446.94   83.98   3
   4   1  -1 1492.52   83.76   3
  -4   1   1 1473.95   82.79   3
  -3  -1   1 1365.92   76.22   3
   3  -1  -1 1269.35   76.05   3
  -3  -1   1 1342.37   77.71   3
   3  -1  -1 1315.38   76.21   3
  -3   1   1 1365.57   75.94   3
  -3   1   1 1304.41   76.47   3
   3   1  -1 1405.67   76.95   3
   3   1  -1 1378.71   77.17   3
   2  -1  -1 1825.79  102.74   3
  -2  -1   1 1853.86  102.82   3
  -2  -1   1 1840.24  103.89   3
   2  -1  -1 1840.97  102.84   3
  -2   1   1 1923.92  102.76   3
   2   1  -1 1856.08  103.41   3
  -2   1   1 1844.12  102.96   3
   2   1  -1 1827.26  103.00   3
  -1  -1   1 9899.78  530.01   3
  -1  -1   1 9610.63  530.17   3
   1   1  -1 9999.99  530.36   3
  -1   1   1 9784.04  529.84   3
  -1   1   1 9881.02  529.89   3
   0  -1   1 2466.00  135.44   3
   0  -1  -1 2371.68  135.38   3
   0  -1   1 2511.95  135.93   3
   0  -1  -1 2484.35  135.10   3
   0   1   1 2495.82  135.24   3
   0   1   1 2460.12  135.19   3
   0   1  -1 2477.13  135.62   3
   0   1  -1 2461.65  135.47   3
  -1  -1  -1 1084.52   60.39   3
   1  -1   1 1109.14   61.22   3
  -1  -1  -1 1028.74   61.13   3
   1  -1   1 1068.57   61.28   3
   1   1   1  992.11   60.41   3
  -1   1  -1 1082.72   61.35   3
   2  -1   1 1567.47   88.67   3
  -2  -1  -1 1547.54   88.09   3
  -2  -1  -1 1523.80   89.08   3
   2  -1   1 1522.53   88.60   3
  -2   1  -1 1647.73   88.61   3
   2   1   1 1614.18   88.68   3
   2   1   1 1618.57   88.93   3
  -2   1  -1 1589.11   88.94   3
   3  -1   1 1168.43   71.44   3
  -3  -1  -1 1228.72   71.08   3
  -3  -1  -1 1263.70   73.02   3
   3  -1   1 1251.35   72.01   3
   3   1   1 1301.95   70.41   1
   3   1   1 1252.30   72.09   3
   3   1   1 1309.47   72.17   3
  -3   1  -1 1247.58   71.33   3
  -3   1  -1 1225.13   72.11   3
   4  -1   1 3123.46  180.24   3
  -4  -1  -1 3258.83  181.16   3
   4  -1   1 3267.00  180.51   3
  -4  -1  -1 3310.07  180.03   3
   4   1   1 3339.40  178.59   1
  -4   1  -1 3281.83  180.82   3
   4   1   1 3215.44  180.64   3
  -4   1  -1 3222.41  179.90   3
   4   1   1 3455.89  180.88   3
   5  -1   1 1557.10   90.28   3
   5  -1   1 1514.68   90.21   3
  -5  -1  -1 1547.19   89.07   3
  -5  -1  -1 1483.59   91.21   3
  -5   1  -1 1541.09   90.89   3
   5   1   1 1531.62   90.42   3
  -5   1  -1 1585.88   89.55   3
   5   1   1 1627.36   90.82   3
   5   1   1 1600.48   87.25   1
  -6  -1  -1 2658.29  147.25   3
   6  -1   1 2598.84  148.06   3
  -6  -1  -1 2595.13  149.18   3
   6  -1   1 2673.12  148.11   3
  -6   1  -1 2641.71  147.24   3
  -6   1  -1 2659.03  149.00   3
   6   1   1 2516.83  148.08   3
   6   1   1 2545.08  147.93   3
   6   1   1 2760.26  144.77   1
  -7  -1  -1  938.71   64.24   3
  -7  -1  -1  957.42   59.95   3
   7  -1   1  900.12   61.52   3
   7  -1   1  969.32   62.11   3
  -7   1  -1  975.16   64.26   3
   7   1   1 1029.11   56.98   1
   7   1   1  932.22   61.59   3
   7   1   1  954.24   62.17   3
  -7   1  -1  956.87   59.90   3
  -8  -1  -1  560.20   41.64   3
  -8  -1  -1  608.07   51.23   3
   8  -1   1  659.76   47.22   3
   8  -1   1  618.18   47.16   3
  -8  -1  -1  644.28   40.28   2
   8   1   1  648.23   39.81   1
  -8   1  -1  636.73   44.12   3
   8   1   1  614.33   48.76   3
  -8   1  -1  602.05   49.87   3
   8   1   1  563.04   46.69   3
   9  -1   1 1858.85  109.52   3
  -9  -1  -1 1810.26  107.29   3
   9  -1   1 1759.78  111.07   3
  -9  -1  -1 1800.17  112.82   3
  -9   1  -1 1848.03  111.94   3
   9   1   1 1827.62  109.72   3
   9   1   1 1607.31  109.12   3
   9   1   1 1962.81  103.07   1
  -9   1  -1 1834.89  107.17   3
 -10  -1  -1  386.26   34.22   3
  10  -1   1  441.45   44.30   3
 -10  -1  -1  389.71   51.74   3
  10  -1   1  371.09   44.77   3
  10   1   1  419.86   32.28   1
 -10   1  -1  482.71   36.50   3
  10   1   1  316.98   43.47   3
 -10   1  -1  406.48   48.42   3
 -10   1  -1  364.78   26.93   1
  10   1   1  387.27   46.15   3
  11  -1   1  778.31   63.68   3
 -11  -1  -1  749.13   68.87   3
 -11  -1  -1  720.52   53.75   3
  11  -1   1  788.82   62.66   3
  11   1   1  762.16   50.21   1
 -11   1  -1  785.78   45.94   1
  11   1   1  751.71   63.40   3
 -11   1  -1  787.78   58.48   3
 -11   1  -1  737.05   66.60   3
  12  -1   1  667.56   59.59   3
 -12  -1  -1  567.77   49.57   3
  12  -1   1  634.78   61.11   3
 -12  -1  -1  667.91   67.11   3
  12   1   1  631.63   61.50   3
  12   1   1  653.61   43.51   1
  12   1   1  477.68   63.65   3
 -12   1  -1  745.14   54.57   3
 -12   1  -1  621.21   66.03   3
  13  -1   1  709.40   68.00   3
 -13  -1  -1  656.65   71.67   3
  13  -1   1  694.41   65.68   3
 -13  -1  -1  634.78   56.77   3
  13   1   1  675.28   74.55   3
 -13   1  -1  756.05   58.34   3
  13   1   1  656.66   64.96   3
 -13   1  -1  648.01   70.02   3
  14  -1   1  821.86   81.94   3
 -14  -1  -1  664.80   75.90   3
  14  -1   1  793.70   71.34   3
 -14  -1  -1  735.72   60.57   3
  14   1   1  663.43   71.83   3
 -14   1  -1  892.56   67.89   3
 -14   1  -1  689.01   77.43   3
  14   1   1  812.38   86.68   3
  15  -1   1  303.84   62.43   3
 -15  -1  -1  179.13   56.67   3
 -15  -1  -1  232.49   46.71   3
  15  -1   1  174.26   46.71   3
  15   1   1  243.98   59.36   3
 -15   1  -1  174.14   52.89   3
  15   1   1  188.24   47.66   3
 -15   1  -1  186.78   49.90   3
  16  -1   1  365.85   68.68   3
 -16  -1  -1  406.23   65.69   3
  16  -1   1  604.11   93.57   3
 -16   1  -1  431.91   80.07   3
 -16   1  -1  369.34   68.45   3
  16   1   1  302.85   60.11   3
  16  -2  -1  193.54   66.93   3
 -16   2   1  155.80   66.42   3
  16   2  -1  249.38   89.72   3
  16   2  -1   38.24   62.49   3
  15  -2  -1  -22.52   50.17   3
 -15  -2   1  -38.79   58.94   3
  15  -2  -1   -6.17   61.55   3
 -15  -2   1   58.65   41.02   3
 -15  -2   1  -14.63   28.01   2
  15   2  -1   -5.59   48.47   3
  15   2  -1    4.97   23.59   1
 -15   2   1  -35.86   63.59   3
  15   2  -1   35.65   74.17   3
 -14  -2   1   33.93   50.81   3
 -14  -2   1   47.19   25.96   2
  14  -2  -1   17.45   44.32   3
 -14  -2   1   94.85   35.55   3
  14  -2  -1   25.91   57.68   3
  14   2  -1   20.58   44.62   3
 -14   2   1    5.03   51.48   3
  14   2  -1   41.19   20.94   1
 -14   2   1  -32.20   51.42   3
  14   2  -1   -5.08   55.35   3
 -13  -2   1   34.99   45.79   3
 -13  -2   1    1.73   22.14   2
 -13  -2   1   85.75   28.36   3
  13  -2  -1   14.11   42.44   3
  13  -2  -1  111.17   46.88   3
 -13   2   1  -23.35   42.91   3
  13   2  -1   15.86   17.56   1
 -13   2   1  -28.37   36.69   3
  13   2  -1  -50.59   44.70   3
  13   2  -1   29.87   36.61   3
  12  -2  -1   53.42   41.67   3
 -12  -2   1    3.26   38.61   3
  12  -2  -1   48.56   34.76   3
 -12  -2   1   -7.20   20.09   2
 -12  -2   1   36.27   22.16   3
  12   2  -1    3.38   16.25   1
 -12   2   1  -11.73   42.92   3
  12   2  -1    6.14   34.14   3
  12   2  -1   16.64   37.66   3
 -12   2   1   48.21   30.41   3
 -11  -2   1   60.83   19.28   3
 -11  -2   1   41.59   36.41   3
  11  -2  -1   49.67   31.72   3
 -11  -2   1   17.07   19.83   2
  11  -2  -1  112.30   30.48   3
  11   2  -1   35.13   16.31   1
 -11   2   1   80.69   30.85   3
  11   2  -1   20.45   31.08   3
  11   2  -1   69.77   33.38   3
 -11   2   1   42.68   39.91   3
 -10  -2   1   89.93   21.96   2
 -10  -2   1   69.33   35.56   3
  10  -2  -1  106.95   23.69   3
  10  -2  -1   64.97   30.03   3
 -10  -2   1   84.95   20.11   3
  10   2  -1   48.89   26.47   3
  10   2  -1   73.73   17.00   1
 -10   2   1   49.18   34.36   3
 -10   2   1  106.52   25.63   3
   9  -2  -1   33.42   24.83   3
  -9  -2   1   35.41   31.16   3
   9   2  -1   33.14   14.95   1
   9   2  -1   38.68   25.21   3
   9   2  -1   85.21   24.03   3
  -9   2   1   52.58   22.55   3
  -9   2   1   47.02   31.38   3
  -8  -2   1   34.55   27.62   3
  -8  -2   1   52.40   13.58   3
   8  -2  -1   37.81   21.68   3
  -8   2   1   38.16   26.63   3
   8   2  -1   76.17   22.10   3
  -8   2   1   62.90   19.71   3
   8   2  -1   43.39   14.07   1
   8   2  -1   58.89   23.50   3
   7  -2  -1  147.00   27.52   3
  -7  -2   1  181.21   32.11   3
   7  -2  -1  214.70   25.46   3
  -7  -2   1  129.45   20.33   3
   7   2  -1  164.52   32.17   3
  -7   2   1  166.32   23.52   3
   7   2  -1  147.56   27.53   3
  -7   2   1  176.48   30.73   3
  -6  -2   1  213.31   21.41   3
   6  -2  -1  239.02   26.28   3
   6  -2  -1  236.48   28.14   3
  -6  -2   1  203.35   35.83   3
  -6   2   1  225.63   31.03   3
   6   2  -1  239.32   31.13   3
   6   2  -1  216.03   25.51   3
  -6   2   1  263.63   24.98   3
  -5  -2   1  -16.89   19.92   3
  -5  -2   1   10.00   11.94   3
   5  -2  -1   27.21   16.34   3
   5   2  -1    9.41   11.36   3
  -5   2   1   23.94   12.27   3
   5   2  -1   24.76   17.10   3
  -5   2   1    5.94   17.52   3
   4  -2  -1   52.02   17.67   3
   4  -2  -1   24.54   13.26   3
  -4  -2   1   24.54   19.73   3
  -4  -2   1   17.00   13.61   3
   4   2  -1   31.82   17.90   3
  -4   2   1   57.00   13.35   3
  -4   2   1   25.67   18.16   3
   3  -2  -1  124.73   20.17   3
  -3  -2   1  153.52   24.48   3
  -3  -2   1  147.64   18.44   3
   3  -2  -1  147.57   22.55   3
   3   2  -1  151.63   24.97   3
  -3   2   1  145.23   22.59   3
  -3   2   1  157.65   18.71   3
  -2  -2   1  451.80   32.66   3
   2  -2  -1  465.30   32.97   3
   2  -2  -1  483.66   35.36   3
  -2  -2   1  430.88   37.92   3
   2   2  -1  448.58   36.18   3
  -2   2   1  478.23   32.54   3
  -2   2   1  457.71   35.86   3
   2   2  -1  431.63   33.07   3
   1  -2  -1  886.89   54.72   3
   1  -2  -1  855.77   52.33   3
  -1  -2   1  795.64   54.63   3
  -1  -2   1  864.34   52.43   3
  -1   2   1  840.91   52.11   3
  -1   2   1  820.56   54.04   3
   1   2  -1  804.16   54.13   3
   1   2  -1  862.06   52.55   3
   0  -2   1  118.99   17.43   3
   0  -2  -1   91.44   16.44   3
   0   2  -1   98.63   19.02   3
   0   2   1   89.11   19.36   3
   0   2   1   81.25   16.36   3
   0   2  -1  125.80   17.28   3
   1  -2   1   24.53   17.21   3
  -1  -2  -1    7.12   16.56   3
  -1  -2  -1   27.44   11.32   3
   1  -2   1   28.89   13.05   3
   1   2   1   30.03   11.87   3
   1   2   1    6.03   13.61   3
  -1   2  -1   -5.12   16.24   3
  -1   2  -1   24.28   12.91   3
  -2  -2  -1   84.05   16.23   3
   2  -2   1  112.28   19.27   3
   2  -2   1  111.40   19.17   3
  -2  -2  -1  114.13   21.77   3
   2   2   1  109.68   19.56   3
  -2   2  -1  112.39   17.21   3
   2   2   1  111.76   17.62   3
  -2   2  -1   98.37   19.20   3
   3  -2   1   55.39   18.74   3
  -3  -2  -1   63.80   20.01   3
   3  -2   1   74.06   15.98   3
  -3  -2  -1  106.16   16.38   3
  -3   2  -1   74.28   18.95   3
  -3   2  -1  100.18   16.27   3
   3   2   1   66.42   18.46   3
   4  -2   1  411.20   29.47   3
  -4  -2  -1  378.84   28.28   3
   4  -2   1  348.72   32.60   3
  -4  -2  -1  327.46   34.95   3
  -4   2  -1  348.24   32.95   3
  -4   2  -1  395.61   28.65   3
   4   2   1  371.46   34.13   3
   4   2   1  325.00   28.79   3
   5  -2   1  519.65   37.50   3
   5  -2   1  529.24   40.67   3
  -5  -2  -1  521.27   35.34   3
  -5  -2  -1  482.91   43.72   3
  -5   2  -1  514.67   41.35   3
  -5   2  -1  547.06   36.88   3
   5   2   1  524.51   42.03   3
   5   2   1  502.08   38.57   3
  -6  -2  -1  119.53   17.23   3
   6  -2   1   83.47   22.09   3
   6  -2   1  115.29   22.98   3
  -6  -2  -1   86.54   25.45   3
   6   2   1  104.27   16.93   1
   6   2   1  117.45   22.33   3
   6   2   1   94.63   23.00   3
  -6   2  -1   77.83   22.65   3
  -6   2  -1  109.78   20.61   3
   7  -2   1  229.90   32.55   3
  -7  -2  -1  236.72   23.29   3
   7  -2   1  221.43   30.30   3
  -7  -2  -1  195.62   36.18   3
  -7   2  -1  226.58   34.79   3
   7   2   1  213.63   24.86   1
   7   2   1  204.10   30.38   3
  -7   2  -1  267.37   27.21   3
   7   2   1  198.67   35.05   3
   8  -2   1    3.42   21.76   3
  -8  -2  -1   17.92   28.80   3
  -8   2  -1    4.29   23.42   3
   8   2   1   25.83   19.78   3
   8   2   1   29.93   15.37   1
   8   2   1    5.31   23.23   3
  -9  -2  -1  295.48   28.72   3
  -9  -2  -1  220.04   39.60   3
   9  -2   1  208.59   37.22   3
   9  -2   1  210.02   34.71   3
   9   2   1  214.06   27.17   1
  -9   2  -1  193.97   36.59   3
   9   2   1  216.79   38.10   3
  -9   2  -1  293.79   32.52   3
   9   2   1  230.95   42.38   3
  10  -2   1  294.80   48.74   3
  10  -2   1  446.96   48.37   3
 -10  -2  -1  367.75   50.32   3
 -10  -2  -1  427.27   34.94   3
 -10   2  -1  427.58   41.52   3
 -10   2  -1  339.94   53.11   3
  10   2   1  336.95   51.75   3
  10   2   1  276.43   51.03   3
  10   2   1  344.35   33.82   1
  11  -2   1  187.27   43.11   3
 -11  -2  -1  192.80   41.09   3
  11  -2   1  236.73   40.03   3
 -11  -2  -1  198.87   34.31   3
 -11  -2  -1  214.46   31.46   2
  11   2   1  180.93   28.16   1
 -11   2  -1  165.90   42.84   3
  11   2   1  129.49   45.88   3
 -11   2  -1  240.76   38.54   3
  11   2   1  230.56   44.93   3
 -12  -2  -1   86.20   25.30   3
  12  -2   1   37.10   41.52   3
  12  -2   1   85.35   46.84   3
 -12  -2  -1   23.63   20.68   2
 -12  -2  -1   -5.64   40.21   3
  12   2   1   -2.12   42.11   3
  12   2   1   36.34   35.49   3
  12   2   1   22.51   16.77   1
 -12   2  -1  -31.89   40.28   3
 -13  -2  -1   49.97   44.42   3
 -13  -2  -1   45.57   31.73   3
 -13  -2  -1   17.53   21.64   2
  13  -2   1  -40.66   38.29   3
  13  -2   1  123.92   57.78   3
  13   2   1  118.54   55.53   3
  13   2   1   38.56   42.85   3
  13   2   1   -9.34   20.00   1
 -13   2  -1    5.21   43.24   3
 -13   2  -1    5.42   34.12   3
 -14  -2  -1   94.41   36.91   3
  14  -2   1  149.76   68.03   3
 -14  -2  -1   11.97   48.46   3
  14  -2   1  -36.31   48.26   3
  14   2   1   16.74   22.47   1
 -14   2  -1    7.59   43.96   3
  14   2   1   86.52   58.58   3
 -14   2  -1  -63.80   54.56   3
  14   2   1  -54.92   45.83   3
  15  -2   1  249.76   78.46   3
 -15  -2  -1  203.23   49.98   3
 -15  -2  -1  168.17   70.72   3
  15  -2   1  173.35   65.24   3
  15   2   1  385.30   77.88   3
  15   2   1  212.33   40.04   1
  15   2   1  239.56   62.60   3
 -15   2  -1  297.28   62.94   3
 -15   2  -1  237.86   74.75   3
 -13  -3   1  194.13   46.86   3
  13  -3  -1   69.20   55.15   3
  13  -3  -1   71.01   76.42   3
 -13  -3   1  182.00   61.13   3
 -13  -3   1  123.10   38.22   2
  13   3  -1   84.00   54.55   3
  13   3  -1  112.63   29.16   1
 -13   3   1   89.54   68.87   3
 -13   3   1  152.48   57.60   3
 -12  -3   1  115.27   40.23   3
 -12  -3   1  187.59   56.50   3
  12  -3  -1  -13.54   52.86   3
  12  -3  -1   34.79   46.49   3
  12   3  -1   69.48   46.60   3
 -12   3   1  111.27   58.16   3
 -12   3   1   14.49   49.82   3
  11  -3  -1  377.11   65.10   3
 -11  -3   1  297.55   53.71   3
  11  -3  -1  298.33   51.48   3
 -11   3   1  237.49   48.97   3
 -11   3   1  186.98   55.05   3
  11   3  -1  356.80   59.64   3
  11   3  -1  183.84   33.94   1
  11   3  -1  243.68   50.56   3
 -10  -3   1  424.11   65.86   3
  10  -3  -1  377.25   60.24   3
  10  -3  -1  472.33   58.72   3
 -10   3   1  495.34   67.56   3
  10   3  -1  438.01   58.00   3
  10   3  -1  648.55   73.44   3
 -10   3   1  489.22   62.51   3
  10   3  -1  529.20   42.81   1
   9  -3  -1  599.85   61.79   3
   9  -3  -1  671.66   64.84   3
  -9  -3   1  598.82   66.75   3
  -9  -3   1  786.30   61.11   3
  -9   3   1  712.30   60.91   3
  -9   3   1  621.02   68.19   3
   9   3  -1  664.92   49.46   1
   9   3  -1  755.91   69.97   3
   9   3  -1  620.96   63.73   3
  -8  -3   1  404.32   58.30   3
   8  -3  -1  384.41   48.63   3
   8  -3  -1  550.14   52.27   3
  -8   3   1  436.46   55.16   3
   8   3  -1  389.27   51.96   3
  -8   3   1  437.78   47.83   3
  -7  -3   1   70.14   38.84   3
   7  -3  -1  105.84   26.45   3
   7  -3  -1   68.85   29.26   3
   7   3  -1  108.60   33.02   3
  -7   3   1   76.73   33.58   3
  -7   3   1   72.08   30.03   3
   6  -3  -1  205.36   33.08   3
  -6  -3   1  253.56   33.84   3
  -6  -3   1  240.79   41.98   3
   6   3  -1  233.80   37.24   3
  -6   3   1  149.71   31.08   3
  -6   3   1  222.12   41.15   3
   5  -3  -1  431.89   43.95   3
  -5  -3   1  415.24   50.59   3
  -5  -3   1  519.09   44.54   3
   5  -3  -1  529.63   41.41   3
  -5   3   1  473.61   44.68   3
  -5   3   1  412.62   46.98   3
   5   3  -1  470.61   44.97   3
   5   3  -1  475.48   48.93   3
  -4  -3   1 1229.20   71.11   3
   4  -3  -1  939.24   71.10   3
  -4  -3   1  965.80   75.79   3
   4  -3  -1 1181.72   68.88   3
   4   3  -1 1013.44   74.02   3
  -4   3   1 1131.41   70.21   3
   4   3  -1 1045.74   70.57   3
  -4   3   1 1001.35   73.47   3
   3  -3  -1  822.89   62.38   3
  -3  -3   1 1001.36   59.73   3
   3  -3  -1 1019.01   58.99   3
  -3  -3   1  766.42   64.53   3
  -3   3   1  788.64   64.30   3
   3   3  -1  826.25   59.16   3
   3   3  -1  827.74   63.87   3
  -3   3   1  867.63   58.67   3
  -2  -3   1  264.26   40.33   3
  -2  -3   1  343.95   32.21   3
   2  -3  -1  261.74   37.88   3
  -2   3   1  293.52   40.66   3
   2   3  -1  276.57   31.28   3
   2   3  -1  243.79   39.37   3
  -2   3   1  322.93   31.53   3
  -1  -3   1  371.74   43.94   3
  -1   3   1  415.78   36.47   3
  -1   3   1  386.24   45.46   3
   1   3  -1  418.29   42.92   3
   1   3  -1  429.07   36.16   3
   0  -3   1  302.41   40.40   3
   0  -3  -1  297.74   39.56   3
   0   3   1  345.00   33.25   3
   0   3   1  327.29   41.47   3
   0   3  -1  333.17   41.00   3
   0   3  -1  374.96   33.49   3
   1  -3   1  962.68   59.15   3
  -1  -3  -1  833.48   63.24   3
  -1   3  -1  823.69   62.13   3
   1   3   1  826.51   63.05   3
  -1   3  -1  860.29   57.95   3
   1   3   1  844.09   58.37   3
   2  -3   1 1176.08   70.73   3
   2  -3   1 1065.22   73.87   3
  -2  -3  -1  981.85   73.84   3
  -2  -3  -1 1261.56   69.49   3
  -2   3  -1 1003.22   72.78   3
  -2   3  -1 1005.69   69.20   3
   2   3   1 1077.24   69.78   3
   2   3   1 1059.83   74.98   3
  -3  -3  -1  444.94   49.54   3
   3  -3   1  504.40   48.72   3
   3  -3   1  597.67   43.79   3
  -3   3  -1  429.40   47.68   3
   3   3   1  566.18   43.94   3
  -3   3  -1  574.65   42.52   3
   3   3   1  487.67   49.88   3
  -4  -3  -1  560.72   53.79   3
   4  -3   1  546.15   51.76   3
   4  -3   1  626.36   47.70   3
  -4  -3  -1  704.84   46.32   3
   4   3   1  588.00   54.75   3
   4   3   1  564.24   49.43   3
  -4   3  -1  651.17   46.82   3
  -4   3  -1  564.59   51.35   3
   5  -3   1  456.51   42.49   3
  -5  -3  -1  402.69   48.86   3
   5  -3   1  410.46   45.93   3
  -5   3  -1  379.11   44.86   3
   5   3   1  347.49   46.26   3
   5   3   1  404.65   48.88   3
  -5   3  -1  466.11   40.11   3
   6  -3   1  589.65   56.04   3
   6  -3   1  800.84   56.11   3
  -6  -3  -1  641.02   59.61   3
  -6   3  -1  601.76   57.42   3
   6   3   1  651.97   58.31   3
   6   3   1  675.57   48.58   1
  -6   3  -1  659.65   53.28   3
   7  -3   1  474.91   53.35   3
  -7  -3  -1  440.26   55.29   3
   7  -3   1  570.03   53.39   3
  -7   3  -1  613.90   50.99   3
   7   3   1  484.64   53.21   3
   7   3   1  522.19   42.29   1
  -7   3  -1  471.69   54.20   3
   8  -3   1  612.74   55.29   3
   8  -3   1  430.46   54.65   3
  -8  -3  -1  499.23   50.86   3
  -8  -3  -1  383.76   55.89   3
  -8   3  -1  560.39   50.71   3
   8   3   1  523.08   62.77   3
  -8   3  -1  434.64   55.81   3
   8   3   1  499.09   56.65   3
   8   3   1  481.93   41.12   1
   9  -3   1  705.21   68.40   3
   9  -3   1  856.91   72.79   3
  -9  -3  -1  669.46   68.62   3
  -9  -3  -1  874.82   65.50   3
  -9   3  -1  786.33   62.95   3
   9   3   1  782.73   71.02   3
   9   3   1  646.66   68.17   3
  -9   3  -1  660.49   69.18   3
   9   3   1  669.53   52.87   1
  10  -3   1  320.17   59.83   3
 -10  -3  -1  410.83   62.83   3
  10  -3   1  343.54   66.28   3
  10   3   1  473.13   68.96   3
  10   3   1  337.35   38.03   1
  10   3   1  390.01   59.46   3
 -10   3  -1  345.46   60.71   3
 -10   3  -1  343.60   61.46   3
  11  -3   1  493.10   70.26   3
 -11  -3  -1  420.84   70.29   3
  11  -3   1  506.08   80.22   3
  11   3   1  737.01   81.56   3
 -11   3  -1  598.68   69.79   3
 -11   3  -1  485.09   70.80   3
  11   3   1  618.65   73.82   3
  11   3   1  535.73   47.85   1
  12  -3   1  380.18   76.98   3
 -12  -3  -1  379.45   73.53   3
  12  -3   1  474.95   89.69   3
 -12   3  -1  491.21   65.39   3
 -12   3  -1  397.35   77.76   3
  12   3   1  363.80   45.12   1
  12   3   1  329.71   66.22   3
  12   3   1  438.29   69.32   3
  13  -3   1  349.57   80.79   3
 -13  -3  -1  213.76   40.54   2
 -13  -3  -1  240.49   71.31   3
  13  -3   1  205.21   68.14   3
  13   3   1  300.12   86.58   3
  13   3   1  160.69   57.66   3
 -13   3  -1  171.81   62.54   3
 -13   3  -1  143.80   70.97   3
  13   3   1  261.35   37.04   1
 -10  -4   1  109.79   66.08   3
  10  -4  -1   97.12   59.88   3
 -10   4   1   83.89   64.33   3
 -10   4   1  156.44   69.60   3
  10   4  -1   61.63   33.23   1
  10   4  -1  120.26   77.80   3
   9  -4  -1   -2.92   50.58   3
  -9  -4   1  129.73   59.07   3
  -9   4   1   66.12   65.33   3
  -9   4   1   90.99   53.01   3
   9   4  -1   62.98   69.82   3
   9   4  -1   48.66   54.39   3
   9   4  -1   69.75   32.32   1
   8  -4  -1   33.04   53.02   3
  -8  -4   1  226.82   59.85   3
   8  -4  -1  -25.28   45.49   3
   8   4  -1   80.69   58.53   3
  -8   4   1   76.74   49.58   3
  -8   4   1   54.45   56.54   3
   8   4  -1  103.51   47.53   3
  -7  -4   1   22.16   53.64   3
   7  -4  -1   75.08   50.61   3
  -7   4   1  143.21   46.00   3
   7   4  -1   61.10   45.07   3
   7   4  -1   65.71   44.93   3
  -7   4   1   48.59   45.91   3
   6  -4  -1   90.38   40.13   3
  -6  -4   1   87.46   47.09   3
   6  -4  -1  119.08   38.92   3
  -6   4   1   68.33   43.78   3
   6   4  -1   28.07   44.17   3
   6   4  -1   65.98   44.01   3
   5  -4  -1   84.35   38.47   3
   5  -4  -1  134.65   35.40   3
   5   4  -1   88.36   46.29   3
  -5   4   1   86.01   43.61   3
   5   4  -1   94.56   45.19   3
   4  -4  -1   59.24   35.08   3
  -4  -4   1   47.34   41.76   3
  -4   4   1  131.64   35.16   3
  -4   4   1   91.21   41.90   3
   4   4  -1   18.99   38.37   3
   4   4  -1  111.62   35.86   3
  -3  -4   1  180.40   45.98   3
   3  -4  -1  308.61   51.36   3
   3   4  -1  349.49   57.24   3
   3   4  -1  247.42   49.67   3
  -3   4   1  320.01   53.69   3
  -2  -4   1  101.03   41.32   3
  -2   4   1  148.88   41.00   3
   2   4  -1  162.48   37.64   3
  -2   4   1   96.27   40.46   3
   2   4  -1  151.92   42.13   3
  -1  -4   1   40.71   40.15   3
   1  -4  -1   85.98   38.94   3
   1   4  -1  142.47   41.15   3
   1   4  -1  101.11   38.69   3
  -1   4   1  100.24   38.79   3
   0  -4  -1  160.63   41.70   3
   0  -4   1   95.66   40.56   3
   0   4   1  185.39   39.79   3
   0   4   1  200.66   42.60   3
   0   4  -1  187.89   45.12   3
   0   4  -1  172.11   39.30   3
   1  -4   1  101.64   36.41   3
  -1  -4  -1   62.96   38.56   3
   1  -4   1   58.77   38.10   3
   1   4   1   38.94   36.94   3
  -1   4  -1   86.03   37.62   3
  -1   4  -1   51.76   35.08   3
   1   4   1  105.26   41.98   3
   2   4   1  105.32   42.09   3
   2   4   1  100.30   39.49   3
  -2   4  -1  136.82   36.45   3
  -2   4  -1  148.54   39.10   3
  -3  -4  -1   94.66   42.05   3
   3   4   1   46.71   33.97   3
   3   4   1  106.32   40.35   3
  -3   4  -1  170.82   39.95   3
  -3   4  -1  110.35   41.18   3
   4  -4   1  153.94   43.21   3
   4  -4   1  261.73   42.36   3
  -4  -4  -1  191.52   47.15   3
  -4   4  -1  173.48   45.25   3
  -4   4  -1  154.29   38.76   3
   4   4   1  322.03   62.42   3
   5  -4   1  102.91   41.07   3
  -5  -4  -1  191.74   47.34   3
   5  -4   1  216.65   43.61   3
  -5   4  -1  184.21   41.36   3
   5   4   1  229.93   49.46   3
  -5   4  -1  207.39   43.47   3
   5   4   1  194.63   47.76   3
   6  -4   1   29.21   43.21   3
  -6  -4  -1   70.16   45.85   3
   6  -4   1  119.77   44.59   3
   6   4   1   82.29   48.80   3
   6   4   1   23.80   25.55   1
   6   4   1   50.78   46.91   3
  -6   4  -1   25.70   44.44   3
  -6   4  -1   21.00   39.69   3
   7  -4   1   97.74   51.97   3
   7  -4   1   40.43   46.08   3
  -7  -4  -1  108.83   53.73   3
   7   4   1   54.92   50.98   3
  -7   4  -1   12.98   44.73   3
   7   4   1  196.11   48.28   3
   7   4   1   47.73   29.26   1
  -7   4  -1  111.07   49.30   3
  -8  -4  -1   98.26   54.67   3
   8  -4   1   83.40   67.30   3
   8  -4   1  -16.36   49.64   3
  -8   4  -1   91.20   51.14   3
   8   4   1    1.23   56.58   3
   8   4   1   79.21   50.09   3
  -8   4  -1   40.50   49.37   3
   8   4   1   82.20   30.23   1
  -9  -4  -1   69.63   58.62   3
   9  -4   1   98.98   72.58   3
   9  -4   1   94.21   60.67   3
   9   4   1   52.26   62.33   3
   9   4   1   40.66   31.37   1
  -9   4  -1   57.37   62.45   3
   9   4   1   74.62   57.08   3
  -9   4  -1  121.01   60.30   3
 -17   0   2  594.67   93.24   3
  17   0  -2  800.30   84.04   3
  17   0  -2  547.36   79.26   3
 -17   0   2  904.71   77.81   3
 -16   0   2  249.32   57.38   3
 -16   0   2  287.85   54.68   3
  16   0  -2  253.91   46.16   3
  16   0  -2  205.20   47.70   3
  15   0  -2  260.32   51.07   3
 -15   0   2  347.62   66.53   3
 -15   0   2  259.66   47.41   3
  15   0  -2  291.41   53.75   3
  14   0  -2 1278.50   88.78   3
  14   0  -2 1375.64   88.28   3
 -14   0   2 1133.83   85.67   3
 -14   0   2 1269.21   98.12   3
 -13   0   2  719.66   71.35   3
  13   0  -2  700.20   60.46   3
 -13   0   2  694.08   54.63   3
  13   0  -2  683.71   56.57   3
  12   0  -2 2414.04  140.18   3
 -12   0   2 2294.95  137.54   3
  12   0  -2 2399.53  140.54   3
 -12   0   2 2268.13  145.65   3
 -11   0   2  803.61   57.05   3
  11   0  -2  846.06   57.94   3
  11   0  -2  843.69   60.64   3
 -11   0   2  767.85   67.76   3
  10   0  -2  242.83   34.84   3
 -10   0   2  256.08   27.37   3
 -10   0   2  218.21   42.09   3
  10   0  -2  215.15   19.76   2
  10   0  -2  249.71   30.49   3
   9   0  -2 2185.79  125.16   3
   9   0  -2 2140.43  125.47   3
  -9   0   2 2070.81  123.10   3
   9   0  -2 2164.70  119.02   2
  -9   0   2 2137.78  128.82   3
   8   0  -2 1148.12   74.90   3
  -8   0   2 1152.73   80.11   3
  -8   0   2 1123.32   72.64   3
   8   0  -2 1247.70   68.69   2
   8   0  -2 1309.18   75.55   3
   7   0  -2 2471.30  128.69   2
   7   0  -2 2255.50  133.12   3
  -7   0   2 2246.10  136.21   3
   7   0  -2 2358.30  132.59   3
  -7   0   2 2282.05  131.57   3
  -6   0   2 1370.90   79.42   3
   6   0  -2 1346.89   80.31   3
   6   0  -2 1449.60   76.79   2
  -6   0   2 1299.63   84.85   3
   6   0  -2 1272.14   80.44   3
  -5   0   2 1602.43   90.22   3
   5   0  -2 1534.09   91.26   3
  -5   0   2 1496.94   89.44   2
   5   0  -2 1746.53   88.76   2
   5   0  -2 1629.97   90.90   3
  -5   0   2 1480.39   93.75   3
   4   0  -2 2386.36  136.97   3
  -4   0   2 2596.87  136.39   3
   4   0  -2 2626.28  135.75   2
   4   0  -2 2513.16  136.79   3
  -4   0   2 2371.01  136.21   2
  -4   0   2 2315.89  138.33   3
   3   0  -2  607.14   39.35   3
  -3   0   2  659.04   38.17   3
   3   0  -2  634.28   38.62   2
   3   0  -2  667.30   39.16   3
  -3   0   2  574.33   39.32   2
   2   0  -2 5148.83  269.63   3
  -2   0   2 4349.58  270.11   2
   2   0  -2 5528.58  269.97   3
   2   0  -2 4968.72  270.23   2
   1   0  -2 1842.57   99.67   3
  -1   0   2 1904.73   99.48   3
  -1   0   2 1783.12   99.75   3
   1   0  -2 1820.83   99.55   3
  -1   0   2 1825.44  101.12   2
   1   0  -2 1873.81  101.11   2
   0   0  -2  553.16   32.24   2
  -1   0  -2 2047.31  103.67   3
  -1   0  -2 1811.72  103.21   3
   1   0   2 1832.61  103.76   3
  -2   0  -2 1087.34   67.67   3
  -2   0  -2 1261.97   67.44   1
   2   0   2 1145.22   69.03   3
  -2   0  -2 1311.59   69.60   3
   3   0   2 1068.43   66.35   3
  -3   0  -2 1120.97   63.12   1
   3   0   2 1107.84   64.27   3
  -3   0  -2 1154.44   67.43   3
   4   0   2  260.38   27.58   3
  -4   0  -2  266.52   24.43   3
   4   0   2  275.18   24.23   3
  -4   0  -2  269.14   20.34   1
  -4   0  -2  292.57   30.59   3
  -5   0  -2 2576.45  139.10   1
  -5   0  -2 2476.97  142.29   3
   5   0   2 2576.33  142.06   3
   5   0   2 2531.90  143.58   3
  -5   0  -2 2520.73  144.74   3
  -6   0  -2 1578.66   93.51   3
  -6   0  -2 1589.19   88.95   1
   6   0   2 1601.39   94.77   3
  -6   0  -2 1585.38   96.79   3
   6   0   2 1602.10   93.29   3
   7   0   2  799.22   55.62   3
  -7   0  -2  782.29   53.68   3
   7   0   2  840.69   54.92   3
  -7   0  -2  817.48   48.22   1
  -7   0  -2  844.46   59.71   3
  -8   0  -2 1043.58   60.71   1
   8   0   2 1078.66   67.83   3
  -8   0  -2 1062.06   72.82   3
   8   0   2 1006.27   68.19   3
  -8   0  -2 1061.81   66.67   3
  -9   0  -2   42.16   26.32   3
   9   0   2   27.86   19.58   3
   9   0   2   37.65   21.63   3
  -9   0  -2   36.06    7.63   1
 -10   0  -2  377.56   28.14   1
 -10   0  -2  435.02   34.85   3
  10   0   2  450.42   45.71   3
  10   0   2  417.72   44.46   3
 -10   0  -2  390.42   49.43   3
  11   0   2  747.78   59.93   3
 -11   0  -2  724.82   44.62   1
  11   0   2  675.32   57.74   3
 -11   0  -2  723.60   64.01   3
 -11   0  -2  769.41   51.67   3
 -12   0  -2 1196.18   75.39   3
 -12   0  -2 1117.32   85.29   3
 -12   0  -2 1181.99   67.45   1
  12   0   2 1167.72   81.37   3
  12   0   2 1054.78   79.91   3
  13   0   2  806.77   69.07   3
 -13   0  -2  795.95   74.66   3
  13   0   2  834.41   68.99   3
 -13   0  -2  862.42   52.49   1
 -13   0  -2  929.74   63.57   3
  14   0   2   34.38   32.96   3
  14   0   2   26.48   36.30   3
 -14   0  -2  108.19   29.85   3
 -14   0  -2   49.50   42.64   3
  15   0   2   99.65   40.56   3
  15   0   2  129.88   41.78   3
 -15   0  -2  113.75   49.74   3
  16   0   2   54.74   43.82   3
 -16   0  -2   42.63   53.36   3
 -16   0  -2   26.72   40.85   3
  16   0   2  114.27   52.55   3
  17  -1  -2  -24.19   49.97   3
  17  -1  -2  -27.28   56.47   3
 -17  -1   2  116.89   48.71   3
 -17  -1   2    0.79   56.09   3
 -17   1   2   61.78   72.21   3
  17   1  -2   78.43   48.35   3
 -17   1   2    3.54   50.10   3
  17   1  -2  150.61   65.66   3
 -16  -1   2   53.28   41.51   3
  16  -1  -2   31.57   41.35   3
 -16  -1   2  -41.50   46.09   3
  16  -1  -2   -9.68   54.00   3
  16   1  -2   35.45   54.46   3
  16   1  -2  -19.41   39.18   3
 -16   1   2   19.79   38.64   3
 -16   1   2   50.91   59.69   3
 -15  -1   2   48.06   33.53   3
  15  -1  -2   -2.19   38.68   3
 -15  -1   2  -29.23   42.40   3
  15  -1  -2   91.63   43.97   3
  15   1  -2   35.45   34.82   3
  15   1  -2   20.74   47.56   3
 -15   1   2  -31.56   46.08   3
 -15   1   2   -1.85   30.86   3
 -14  -1   2   78.13   25.83   3
 -14  -1   2   48.83   44.96   3
  14  -1  -2   63.97   37.99   3
  14  -1  -2   45.37   33.71   3
 -14   1   2   75.78   43.98   3
  14   1  -2   36.14   32.39   3
  14   1  -2  151.55   39.64   3
 -14   1   2   65.41   37.75   3
 -13  -1   2  218.74   30.40   2
  13  -1  -2  230.08   43.74   3
 -13  -1   2  267.06   50.14   3
 -13  -1   2  217.15   35.52   3
 -13   1   2  283.29   41.90   3
 -13   1   2  295.00   51.61   3
  13   1  -2  196.69   24.96   1
  13   1  -2  261.91   48.75   3
  12  -1  -2  231.64   40.76   3
 -12  -1   2  219.16   31.20   2
 -12  -1   2  217.64   32.64   3
 -12  -1   2  264.31   48.87   3
  12   1  -2  312.97   46.09   3
  12   1  -2  250.38   44.75   3
 -12   1   2  269.43   36.85   3
 -12   1   2  332.63   51.14   3
  12   1  -2  241.24   25.00   1
  11  -1  -2   82.11   15.13   2
 -11  -1   2   87.03   18.69   3
 -11  -1   2   80.26   37.63   3
 -11  -1   2   51.08   18.36   2
  11  -1  -2   74.29   29.01   3
  11   1  -2   39.06   24.46   3
 -11   1   2   82.57   25.14   3
  11   1  -2   65.96   13.43   1
 -11   1   2   71.89   32.98   3
  11   1  -2   71.14   26.13   3
  10  -1  -2   18.03   11.44   2
 -10  -1   2    8.46   13.83   3
 -10  -1   2    1.26   28.85   3
  10  -1  -2   48.44   22.76   3
 -10  -1   2   -4.32   14.32   2
  10  -1  -2   14.88   22.04   3
  10   1  -2    5.27   11.24   1
  10   1  -2   -6.78   23.78   3
 -10   1   2  -16.02   29.08   3
  10   1  -2   11.06   17.04   3
 -10   1   2    5.10   20.40   3
  -9  -1   2  101.10   18.58   2
  -9  -1   2  120.01   19.79   3
   9  -1  -2  153.59   29.07   3
   9  -1  -2  107.95   24.64   3
  -9  -1   2  143.30   32.37   3
  -9   1   2  122.89   23.29   3
   9   1  -2  124.28   26.15   3
  -9   1   2  107.04   27.53   3
   9   1  -2  117.31   14.54   1
   9   1  -2  112.15   21.78   3
  -8  -1   2  401.32   32.98   3
   8  -1  -2  470.55   37.89   3
   8  -1  -2  474.95   38.16   3
  -8  -1   2  440.65   43.18   3
  -8  -1   2  429.41   33.56   2
   8   1  -2  424.32   37.07   3
   8   1  -2  422.74   37.67   3
   8   1  -2  427.49   29.67   1
  -8   1   2  456.41   35.60   3
  -8   1   2  447.83   41.95   3
   7  -1  -2  825.21   56.91   3
  -7  -1   2  914.10   54.37   2
   7  -1  -2  843.89   55.75   3
  -7  -1   2  841.44   58.95   3
  -7  -1   2  853.85   53.54   3
   7   1  -2  814.83   54.92   3
  -7   1   2  853.69   54.41   3
   7   1  -2  860.33   55.88   3
  -7   1   2  878.26   58.57   3
  -6  -1   2   16.46   19.62   3
   6  -1  -2   47.38   15.90   3
  -6  -1   2   20.70   13.09   2
  -6  -1   2   15.60   11.74   3
   6  -1  -2   34.97   15.71   3
  -6   1   2   45.20   13.16   3
  -6   1   2   34.39   18.82   3
   6   1  -2   19.20   15.56   3
   6   1  -2   13.94   13.98   3
  -5  -1   2   73.31   13.18   3
  -5  -1   2   80.52   19.37   3
   5  -1  -2   75.64   15.03   3
   5  -1  -2   96.15   17.03   3
  -5   1   2  110.65   19.26   3
   5   1  -2   92.78   18.30   3
   5   1  -2   77.56   17.48   3
  -5   1   2   76.29   13.95   3
   4  -1  -2   73.61   14.62   3
  -4  -1   2   71.89   17.72   3
  -4  -1   2   40.35   11.38   3
   4  -1  -2   73.52   13.88   3
   4   1  -2   58.45   14.24   3
  -4   1   2   72.09   14.22   3
   4   1  -2   59.11   14.95   3
  -4   1   2   69.55   15.34   3
  -3  -1   2  412.17   27.63   3
  -3  -1   2  408.83   30.77   3
   3  -1  -2  386.39   27.39   3
   3  -1  -2  419.64   27.92   3
   3   1  -2  413.23   29.45   3
  -3   1   2  416.41   27.47   3
   3   1  -2  411.95   28.98   3
  -3   1   2  406.77   28.59   3
  -2  -1   2 2499.03  137.68   3
   2  -1  -2 2505.46  136.54   3
  -2  -1   2 2591.78  136.97   3
   2  -1  -2 2448.19  136.46   3
  -2   1   2 2395.63  136.40   3
   2   1  -2 2435.20  136.91   3
  -2   1   2 2523.70  136.46   3
   1  -1  -2  454.05   28.07   3
  -1  -1   2  430.53   28.52   3
   1  -1  -2  428.56   28.48   3
  -1  -1   2  419.12   29.66   3
   1   1  -2  422.48   29.30   3
   1   1  -2  454.08   29.15   3
  -1   1   2  457.70   27.86   3
   0  -1  -2   34.50    8.93   3
   0  -1   2   43.36   12.01   3
   0  -1   2   26.70    9.37   3
   0   1   2   39.65    8.73   3
   0   1  -2   34.43    9.90   3
   0   1  -2   26.73   10.87   3
   1  -1   2   33.69   11.02   3
   1  -1   2   27.27    9.78   3
  -1  -1  -2   24.19   11.20   3
  -1  -1  -2   27.45    9.09   3
  -1   1  -2   46.28   12.75   3
  -1   1  -2   27.36    8.65   3
   1   1   2   25.91    8.56   1
  -2  -1  -2   21.76   12.53   3
   2  -1   2   38.99   13.17   3
  -2  -1  -2   21.55    8.22   3
   2  -1   2   38.30   10.16   3
   2   1   2   23.54   10.21   3
  -2   1  -2   25.85   10.89   3
   2   1   2   20.47    8.16   1
   2   1   2   24.78   11.08   3
  -2   1  -2   37.37   12.18   3
  -3  -1  -2  390.73   26.64   3
  -3  -1  -2  404.93   31.25   3
   3  -1   2  399.97   29.11   3
   3  -1   2  380.17   28.08   3
   3   1   2  419.76   29.33   3
   3   1   2  412.75   29.07   3
  -3   1  -2  378.56   27.17   3
  -3   1  -2  387.16   29.51   3
   3   1   2  392.49   26.68   1
   4  -1   2  716.39   45.46   3
  -4  -1  -2  678.65   46.13   3
   4  -1   2  675.02   44.31   3
  -4  -1  -2  664.81   42.62   3
   4   1   2  703.61   42.19   1
  -4   1  -2  702.08   43.20   3
   4   1   2  677.04   44.15   3
  -4   1  -2  678.20   45.33   3
   4   1   2  722.54   45.29   3
   5  -1   2  101.64   19.96   3
  -5  -1  -2   54.42   13.68   3
  -5  -1  -2   47.03   18.80   3
   5  -1   2   62.74   16.12   3
   5   1   2   64.40   12.55   1
  -5   1  -2   47.76   17.78   3
   5   1   2   49.35   16.40   3
   5   1   2   37.79   14.53   3
  -5   1  -2   91.50   17.22   3
   6  -1   2  104.57   19.70   3
  -6  -1  -2   71.13   14.57   3
   6  -1   2   87.72   21.56   3
  -6  -1  -2   70.47   22.18   3
  -6   1  -2  102.97   22.87   3
   6   1   2   73.15   17.59   3
   6   1   2   90.14   13.73   1
   6   1   2   88.14   20.13   3
  -6   1  -2   82.13   16.91   3
   7  -1   2   28.56   16.73   3
  -7  -1  -2   -5.47   10.80   3
  -7  -1  -2   24.57   21.65   3
   7  -1   2   12.80   16.72   3
  -7   1  -2   44.46   12.47   3
   7   1   2   19.90   19.12   3
   7   1   2    2.61   14.56   3
  -7   1  -2   11.24   19.56   3
   7   1   2   11.99   10.95   1
   8  -1   2   81.48   22.90   3
  -8  -1  -2   73.97   27.18   3
   8  -1   2  131.05   23.72   3
  -8  -1  -2   56.42   16.74   3
   8   1   2   81.42   25.41   3
  -8   1  -2   92.03   25.34   3
   8   1   2   84.49   14.93   1
  -8   1  -2  119.86   21.28   3
   8   1   2   56.06   20.70   3
   9  -1   2  212.98   34.04   3
  -9  -1  -2  177.71   33.61   3
   9  -1   2  182.65   30.28   3
   9   1   2  193.32   31.53   3
  -9   1  -2  218.96   25.69   3
   9   1   2  222.64   37.19   3
  -9   1  -2  192.96   37.44   3
   9   1   2  188.18   24.28   1
 -10  -1  -2   13.57   31.40   3
 -10  -1  -2   57.57   15.92   3
  10  -1   2   38.18   25.91   3
  10  -1   2    2.72   27.90   3
  10   1   2   48.18   15.29   1
  10   1   2   13.89   23.35   3
  10   1   2   42.66   26.61   3
 -10   1  -2   28.54   29.02   3
 -10   1  -2   49.38   10.12   1
  11  -1   2   19.74   25.03   3
  11  -1   2   -6.76   31.99   3
 -11  -1  -2   21.09   32.39   3
 -11  -1  -2   46.20   17.94   3
 -11   1  -2   26.74   19.79   3
  11   1   2  -33.29   32.49   3
  11   1   2   -3.81   14.61   1
 -11   1  -2  -16.59   29.80   3
 -11   1  -2   30.15    9.43   1
  11   1   2    7.64   28.31   3
 -12  -1  -2  -18.24   32.21   3
  12  -1   2  -27.36   29.59   3
  12  -1   2  -10.73   27.71   3
 -12  -1  -2   31.10   23.61   3
 -12   1  -2   22.85   34.52   3
  12   1   2    6.56   27.83   3
 -12   1  -2   30.39   22.98   3
  12   1   2   14.57   35.10   3
 -13  -1  -2   -5.34   25.02   3
 -13  -1  -2    4.24   37.43   3
  13  -1   2   21.11   39.45   3
  13  -1   2    3.52   35.28   3
  13   1   2   14.78   40.03   3
  13   1   2  -26.98   28.45   3
 -13   1  -2    7.90   25.43   3
 -13   1  -2  -33.13   36.72   3
  14  -1   2    7.65   35.31   3
 -14  -1  -2   65.56   49.41   3
  14  -1   2   67.13   44.37   3
 -14  -1  -2   48.07   30.30   3
  14   1   2  178.13   53.13   3
 -14   1  -2   43.34   41.84   3
  14   1   2   34.97   37.47   3
 -14   1  -2   88.17   37.18   3
 -15  -1  -2   86.59   38.95   3
  15  -1   2   58.26   53.96   3
 -15  -1  -2   37.57   46.91   3
  15  -1   2   34.29   48.66   3
  15   1   2   81.89   53.53   3
  15   1   2   38.51   43.60   3
 -15   1  -2    0.25   49.96   3
  16  -1   2   -9.67   57.93   3
 -16  -1  -2  -17.74   55.61   3
 -16  -1  -2  136.71   45.94   3
  16  -1   2  -37.21   68.52   3
 -16   1  -2   56.40   60.42   3
 -16   1  -2   86.52   50.87   3
  16   1   2   30.76   64.63   3
  16   1   2   -7.52   54.64   3
 -16  -2   2  296.44   51.19   2
  16  -2  -2  428.58   72.96   3
 -16  -2   2  511.88   75.06   3
 -16  -2   2  418.83   81.26   3
  16   2  -2  467.09   75.13   3
 -16   2   2  428.09   71.86   3
  16   2  -2  300.16   43.10   1
  16   2  -2  452.95   90.00   3
 -16   2   2  375.37   94.12   3
 -15  -2   2  247.05   44.32   2
  15  -2  -2  382.99   72.83   3
  15  -2  -2  330.95   61.61   3
 -15  -2   2  325.91   66.11   3
  15   2  -2  296.50   60.36   3
  15   2  -2  289.94   37.88   1
 -15   2   2  191.48   56.19   3
 -15   2   2  312.61   78.65   3
 -14  -2   2  329.05   55.05   3
 -14  -2   2  279.81   42.56   2
  14  -2  -2  262.89   52.05   3
 -14  -2   2  365.41   64.15   3
 -14   2   2  358.75   51.69   3
  14   2  -2  423.59   63.47   3
  14   2  -2  311.40   59.61   3
  14   2  -2  316.20   36.03   1
 -14   2   2  400.19   75.08   3
  13  -2  -2  281.40   48.28   3
 -13  -2   2  236.62   43.95   3
 -13  -2   2  172.44   48.33   3
 -13  -2   2  225.61   32.50   2
 -13   2   2  274.45   47.18   3
  13   2  -2  324.17   54.44   3
 -13   2   2  186.94   51.42   3
  13   2  -2  214.11   30.04   1
  13   2  -2  230.63   45.93   3
  12  -2  -2  938.22   75.71   3
  12  -2  -2  696.29   68.99   3
 -12  -2   2  729.71   74.92   3
 -12  -2   2  837.83   62.36   3
 -12  -2   2  832.79   58.17   2
  12   2  -2  852.52   74.55   3
  12   2  -2  814.96   52.72   1
  12   2  -2  727.72   68.18   3
 -12   2   2  742.48   78.79   3
 -12   2   2  798.39   68.58   3
  11  -2  -2  726.96   62.64   3
 -11  -2   2  674.68   50.94   2
 -11  -2   2  730.16   51.83   3
  11  -2  -2  635.77   60.22   3
 -11  -2   2  650.82   67.07   3
 -11   2   2  670.25   68.53   3
  11   2  -2  629.96   59.70   3
  11   2  -2  717.93   60.68   3
  11   2  -2  651.22   45.28   1
 -11   2   2  528.81   56.16   3
 -10  -2   2  565.33   62.41   3
 -10  -2   2  631.39   49.57   2
  10  -2  -2  624.77   54.31   3
  10  -2  -2  671.21   52.82   3
 -10  -2   2  592.81   46.87   3
  10   2  -2  551.73   54.78   3
 -10   2   2  537.17   52.89   3
  10   2  -2  713.12   54.41   3
  10   2  -2  625.21   42.87   1
 -10   2   2  657.73   61.93   3
  -9  -2   2  727.73   67.49   3
   9  -2  -2  974.62   60.11   3
   9  -2  -2  789.71   61.70   3
  -9  -2   2  846.14   56.31   3
  -9   2   2  891.20   59.80   3
   9   2  -2  763.20   62.14   3
  -9   2   2  818.80   65.86   3
   9   2  -2  866.06   60.86   3
   8  -2  -2  583.91   47.71   3
  -8  -2   2  522.35   52.28   3
   8  -2  -2  652.17   43.99   3
  -8  -2   2  561.02   41.50   3
  -8   2   2  604.77   44.40   3
  -8   2   2  583.37   52.37   3
   8   2  -2  510.22   45.80   3
   8   2  -2  554.30   48.53   3
  -7  -2   2 1106.35   76.08   3
   7  -2  -2 1253.23   71.15   3
  -7  -2   2 1163.86   69.71   3
   7  -2  -2 1108.58   72.04   3
  -7   2   2 1120.16   74.24   3
  -7   2   2 1081.10   70.09   3
   7   2  -2 1109.84   73.15   3
   7   2  -2 1155.22   71.93   3
   6  -2  -2  876.13   52.33   3
  -6  -2   2  753.79   50.73   3
   6  -2  -2  730.21   52.75   3
  -6  -2   2  831.77   58.87   3
   6   2  -2  816.94   52.70   3
  -6   2   2  798.88   55.22   3
  -6   2   2  739.80   51.30   3
   6   2  -2  773.40   54.25   3
   5  -2  -2 1463.07   87.27   3
  -5  -2   2 1474.07   86.24   3
  -5  -2   2 1428.82   90.06   3
   5  -2  -2 1443.69   85.96   3
  -5   2   2 1514.54   86.33   3
   5   2  -2 1476.68   87.41   3
  -5   2   2 1445.88   87.92   3
   5   2  -2 1525.76   88.86   3
  -4  -2   2 1137.33   65.84   3
   4  -2  -2 1089.55   65.41   3
   4  -2  -2 1085.57   66.71   3
  -4  -2   2 1046.00   69.96   3
   4   2  -2 1089.24   67.95   3
  -4   2   2 1062.43   67.20   3
  -4   2   2 1104.12   65.56   3
   3  -2  -2  771.60   50.21   3
  -3  -2   2  759.44   48.89   3
  -3  -2   2  758.76   53.43   3
   3  -2  -2  810.51   48.98   3
   3   2  -2  715.19   50.99   3
  -3   2   2  804.24   49.19   3
   3   2  -2  766.59   49.93   3
  -3   2   2  775.47   51.05   3
   2  -2  -2 2891.73  166.29   3
  -2  -2   2 2948.41  167.77   3
   2  -2  -2 2952.74  165.80   3
  -2  -2   2 3078.15  166.54   3
  -2   2   2 2984.13  165.78   3
  -2   2   2 3038.78  166.66   3
   2   2  -2 2923.12  166.51   3
   2   2  -2 3047.98  166.95   3
  -1  -2   2 1121.06   64.71   3
  -1  -2   2 1057.41   67.03   3
   1  -2  -2 1065.11   65.85   3
   1  -2  -2 1086.66   63.90   3
   1   2  -2 1059.37   66.13   3
   1   2  -2 1043.07   64.51   3
  -1   2   2 1083.03   65.76   3
  -1   2   2 1064.06   64.17   3
   0  -2  -2 1290.28   74.38   3
   0  -2   2 1272.12   74.91   3
   0   2  -2 1240.64   75.03   3
   0   2  -2 1251.54   76.36   3
   0   2   2 1252.94   75.92   3
   0   2   2 1325.26   74.91   3
   1  -2   2 1467.01   88.56   3
  -1  -2  -2 1558.61   85.96   3
  -1  -2  -2 1424.98   87.22   3
   1  -2   2 1542.23   86.90   3
  -1   2  -2 1445.64   86.24   3
   1   2   2 1477.16   86.97   3
  -1   2  -2 1473.44   87.98   3
   1   2   2 1500.75   86.45   3
   2  -2   2  851.08   52.01   3
  -2  -2  -2  863.12   50.44   3
   2  -2   2  801.31   53.95   3
  -2  -2  -2  780.82   53.53   3
  -2   2  -2  787.49   50.82   3
   2   2   2  816.57   53.33   3
  -2   2  -2  811.94   53.59   3
   2   2   2  812.43   51.86   3
   3  -2   2 2228.51  129.42   3
   3  -2   2 2222.75  128.38   3
  -3  -2  -2 2349.54  127.77   3
  -3  -2  -2 2190.56  129.19   3
  -3   2  -2 2299.07  128.46   3
  -3   2  -2 2219.46  129.17   3
   3   2   2 2339.91  129.01   3
  -4  -2  -2 1185.27   72.30   3
   4  -2   2 1207.25   73.81   3
  -4  -2  -2 1177.73   76.18   3
   4  -2   2 1234.01   75.61   3
  -4   2  -2 1173.45   75.24   3
   4   2   2 1275.72   76.23   3
  -4   2  -2 1227.82   73.70   3
   4   2   2 1341.19   72.75   1
   4   2   2 1243.45   74.13   3
  -5  -2  -2 1655.09   94.28   3
   5  -2   2 1596.54   97.25   3
  -5  -2  -2 1601.94   98.36   3
   5  -2   2 1607.76   95.50   3
  -5   2  -2 1578.76   97.13   3
   5   2   2 1649.02   95.99   3
  -5   2  -2 1611.92   94.88   3
   5   2   2 1665.79   93.54   1
   5   2   2 1703.55   97.67   3
   6  -2   2  981.79   65.06   3
  -6  -2  -2  966.43   60.48   3
  -6  -2  -2  966.24   67.00   3
   6  -2   2  967.18   64.47   3
  -6   2  -2  914.92   65.42   3
   6   2   2 1053.69   66.46   3
   6   2   2 1030.48   60.18   1
   6   2   2  961.90   63.72   3
  -6   2  -2  979.43   61.70   3
   7  -2   2  539.02   43.97   3
  -7  -2  -2  531.21   37.06   3
   7  -2   2  454.21   44.02   3
  -7  -2  -2  463.77   48.39   3
  -7   2  -2  484.68   45.88   3
  -7   2  -2  574.63   38.18   3
   7   2   2  500.47   37.31   1
   7   2   2  521.19   47.51   3
   7   2   2  465.88   43.29   3
  -8  -2  -2 1666.19   96.42   3
   8  -2   2 1680.66  101.27   3
   8  -2   2 1526.80  100.74   3
  -8  -2  -2 1512.92  103.51   3
   8   2   2 1668.45  102.84   3
   8   2   2 1524.55  100.56   3
  -8   2  -2 1648.95  103.10   3
  -8   2  -2 1665.30   98.06   3
   8   2   2 1739.38   95.48   1
   9  -2   2  694.87   61.49   3
  -9  -2  -2  779.24   52.76   3
  -9  -2  -2  773.17   65.29   3
   9  -2   2  730.73   60.89   3
   9   2   2  795.53   51.66   1
   9   2   2  798.29   62.93   3
   9   2   2  784.59   66.72   3
  -9   2  -2  668.49   55.71   3
  -9   2  -2  775.10   64.62   3
  10  -2   2  948.20   75.46   3
  10  -2   2  823.04   74.15   3
 -10  -2  -2  944.56   75.28   3
 -10  -2  -2 1038.63   64.98   3
 -10   2  -2 1015.73   67.85   3
 -10   2  -2  832.07   76.34   3
  10   2   2  962.61   77.65   3
  10   2   2  990.54   62.11   1
  10   2   2  974.47   76.88   3
 -11  -2  -2  734.67   55.03   3
  11  -2   2  661.91   67.86   3
 -11  -2  -2  673.16   68.00   3
  11  -2   2  668.91   71.74   3
 -11   2  -2  794.16   70.14   3
  11   2   2  692.20   68.76   3
  11   2   2  596.58   71.74   3
  11   2   2  725.41   50.94   1
 -11   2  -2  707.73   58.58   3
  12  -2   2  480.22   62.72   3
 -12  -2  -2  333.01   39.24   2
 -12  -2  -2  415.36   61.15   3
 -12  -2  -2  429.66   44.57   3
  12  -2   2  403.51   75.70   3
  12   2   2  392.54   69.48   3
  12   2   2  423.44   38.68   1
  12   2   2  419.50   63.33   3
 -12   2  -2  327.19   62.26   3
 -12   2  -2  534.28   56.37   3
 -13  -2  -2  720.66   62.34   3
  13  -2   2  612.59   74.12   3
  13  -2   2  773.71   94.44   3
 -13  -2  -2  715.99   79.87   3
  13   2   2  511.29   91.23   3
 -13   2  -2  695.26   44.07   1
  13   2   2  575.25   75.24   3
  13   2   2  713.91   53.62   1
 -13   2  -2  730.10   69.51   3
 -13   2  -2  708.76   81.93   3
 -14  -2  -2  466.49   58.29   3
  14  -2   2  452.49   75.00   3
 -14  -2  -2  443.46   83.70   3
 -14   2  -2  476.22   82.50   3
  14   2   2  464.67   79.29   3
 -14   2  -2  574.60   69.95   3
  14   2   2  667.54   85.81   3
  14   2   2  521.27   48.68   1
  15  -2   2  807.34  105.68   3
  15  -2   2  567.47   90.78   3
 -15  -2  -2  622.35   72.54   3
 -15  -2  -2  658.93   98.12   3
 -15   2  -2  543.21   98.63   3
  15   2   2  511.76   91.80   3
  15   2   2  703.65  105.93   3
 -15   2  -2  747.10   88.13   3
  15   2   2  564.70   55.90   1
 -14  -3   2   76.67   70.31   3
 -14  -3   2   53.37   39.98   2
  14  -3  -2   32.87   58.35   3
 -14   3   2  -53.86   66.73   3
  14   3  -2  167.42   90.75   3
 -14   3   2   23.70   73.34   3
  14   3  -2    9.14   28.95   1
  14   3  -2  -61.25   51.63   3
 -13  -3   2   24.64   34.88   2
 -13  -3   2   64.40   54.72   3
  13  -3  -2   33.21   65.61   3
 -13  -3   2  108.89   46.33   3
  13  -3  -2    3.14   54.17   3
 -13   3   2  -23.15   63.03   3
  13   3  -2   21.84   48.91   3
  13   3  -2   85.44   63.48   3
  13   3  -2    3.22   23.70   1
 -13   3   2   65.74   68.36   3
 -12  -3   2   73.54   53.87   3
 -12  -3   2   33.94   33.31   2
  12  -3  -2  127.82   51.71   3
  12  -3  -2   53.75   44.43   3
 -12   3   2   40.31   56.37   3
  12   3  -2   11.45   38.31   3
  12   3  -2  152.19   57.27   3
 -12   3   2   56.05   43.06   3
  12   3  -2   10.97   21.87   1
  11  -3  -2  124.58   51.99   3
 -11  -3   2   75.99   30.96   2
 -11  -3   2  139.50   36.65   3
  11  -3  -2  133.80   42.98   3
 -11  -3   2  124.51   47.76   3
 -11   3   2  180.48   48.00   3
  11   3  -2  190.43   51.37   3
  11   3  -2   96.27   42.50   3
 -11   3   2  132.00   47.31   3
  11   3  -2   85.94   23.10   1
  10  -3  -2  109.93   38.05   3
  10  -3  -2   40.19   35.96   3
 -10  -3   2   60.10   41.00   3
 -10   3   2   29.28   43.51   3
  10   3  -2   28.92   45.28   3
  10   3  -2   64.59   20.77   1
  10   3  -2   40.16   36.14   3
 -10   3   2    1.85   36.83   3
   9  -3  -2   69.17   33.76   3
  -9  -3   2  103.73   38.57   3
   9   3  -2   74.43   34.52   3
  -9   3   2   90.37   31.41   3
  -9   3   2   57.57   37.59   3
   9   3  -2  119.32   34.74   3
  -8  -3   2  166.04   45.05   3
   8  -3  -2  211.95   38.23   3
  -8   3   2  181.80   38.65   3
   8   3  -2  139.76   34.46   3
  -8   3   2  232.77   45.23   3
   7  -3  -2  104.92   24.63   3
  -7  -3   2   56.26   37.88   3
  -7  -3   2   86.30   24.94   3
  -7   3   2  124.67   28.32   3
  -7   3   2  144.03   33.56   3
   7   3  -2   58.64   29.38   3
  -6  -3   2   36.67   23.72   3
  -6   3   2   69.94   31.13   3
   6   3  -2   82.93   24.10   3
   6   3  -2   37.50   32.57   3
   5  -3  -2   50.92   23.51   3
  -5  -3   2   68.86   33.26   3
  -5  -3   2   72.69   20.78   3
  -5   3   2   71.55   23.03   3
   5   3  -2   43.25   20.81   3
   5   3  -2   76.94   29.73   3
  -5   3   2   71.33   30.64   3
  -4  -3   2  269.48   46.09   3
   4  -3  -2  335.64   32.18   3
   4  -3  -2  264.85   37.12   3
  -4   3   2  210.70   40.79   3
   4   3  -2  335.74   33.06   3
   4   3  -2  269.38   41.08   3
  -4   3   2  304.48   33.96   3
  -3  -3   2  345.71   34.54   3
   3  -3  -2  420.12   41.57   3
  -3   3   2  363.23   44.03   3
  -2  -3   2  197.07   41.00   3
   2  -3  -2  297.85   37.29   3
  -2  -3   2  335.73   32.83   3
  -2   3   2  299.80   30.92   3
   2   3  -2  204.91   38.23   3
  -2   3   2  287.45   40.89   3
   2   3  -2  255.89   28.26   3
  -1  -3   2   61.25   17.87   3
  -1  -3   2   43.39   26.32   3
   1   3  -2   52.75   25.41   3
  -1   3   2   46.39   26.82   3
  -1   3   2   29.61   18.18   3
   0   3  -2  141.43   24.51   3
  -1  -3  -2  154.46   32.10   3
  -1   3  -2  181.02   34.29   3
   1   3   2  178.54   31.16   3
   1   3   2  157.51   27.83   3
   3  -3   2    9.58   27.04   3
  -3  -3  -2   40.29   27.98   3
   3  -3   2   41.79   20.94   3
  -3   3  -2   13.70   25.50   3
   3   3   2   25.65   20.75   3
   3   3   2   51.83   26.82   3
  -4  -3  -2   -8.08   26.16   3
   4  -3   2   41.71   19.18   3
   4  -3   2   17.42   25.72   3
   4   3   2  -14.77   21.34   3
  -4   3  -2   12.27   26.76   3
   4   3   2   30.52   27.01   3
   5  -3   2   88.43   22.49   3
   5  -3   2   66.96   29.28   3
  -5  -3  -2   15.57   30.52   3
   5   3   2   21.13   30.54   3
  -5   3  -2   36.29   25.79   3
   5   3   2    7.61   25.39   3
   5   3   2   46.55   17.65   1
   6  -3   2  141.75   33.06   3
  -6  -3  -2  134.80   34.08   3
  -6   3  -2  134.50   33.52   3
   6   3   2  116.46   34.64   3
   6   3   2  125.90   23.33   1
   7  -3   2   32.94   30.18   3
  -7  -3  -2   61.03   32.35   3
   7  -3   2   77.23   30.19   3
  -7   3  -2   41.43   30.03   3
   7   3   2   51.47   28.93   3
   7   3   2   16.58   18.35   1
  -8  -3  -2   30.99   33.19   3
   8  -3   2   27.88   34.76   3
   8   3   2   29.64   35.59   3
  -9  -3  -2   29.48   35.20   3
   9  -3   2   97.04   38.23   3
   9  -3   2   17.00   40.89   3
  -9   3  -2    6.31   36.68   3
  -9   3  -2   92.79   35.12   3
   9   3   2   63.85   40.98   3
   9   3   2   54.07   38.85   3
  10  -3   2  -33.61   43.19   3
  10  -3   2  -12.70   40.54   3
 -10  -3  -2   41.77   40.40   3
  10   3   2   54.85   43.20   3
 -10   3  -2    7.59   41.99   3
  10   3   2    4.34   22.33   1
  10   3   2  107.98   45.00   3
 -10   3  -2  -12.69   39.80   3
  11  -3   2  -28.41   49.03   3
  11  -3   2  176.61   62.65   3
 -11  -3  -2   89.78   47.55   3
  11   3   2   83.65   48.94   3
 -11   3  -2   48.64   43.14   3
 -11   3  -2   17.54   45.70   3
  11   3   2   14.91   24.50   1
  11   3   2   35.61   50.63   3
 -12  -3  -2   60.20   54.91   3
  12  -3   2   34.05   54.04   3
  12  -3   2  115.55   68.59   3
 -12   3  -2  -15.84   49.90   3
 -12   3  -2  -22.69   50.82   3
  12   3   2  111.05   58.05   3
  12   3   2   14.54   50.03   3
 -13  -3  -2   -4.73   33.07   2
 -13  -3  -2  -61.17   56.66   3
  13  -3   2   -9.59   89.58   3
  13  -3   2   21.07   62.54   3
  13   3   2   72.79   73.56   3
 -13   3  -2   10.96   60.97   3
  13   3   2  -12.16   64.60   3
 -13   3  -2  118.52   66.89   3
  13   3   2   68.68   31.04   1
  10  -4  -2  397.63   80.83   3
 -10  -4   2  421.72   78.60   3
  10  -4  -2  639.85   97.99   3
  10   4  -2  433.39   54.27   1
 -10   4   2  474.14   77.71   3
  10   4  -2  453.96   77.31   3
 -10   4   2  487.20   84.35   3
   9  -4  -2  393.99   70.55   3
   9  -4  -2  594.98   88.16   3
  -9  -4   2  509.49   77.85   3
  -9   4   2  446.13   69.05   3
  -9   4   2  464.66   72.00   3
   9   4  -2  624.46   92.92   3
   9   4  -2  483.88   76.94   3
  -8  -4   2  282.11   69.21   3
   8  -4  -2  242.71   51.49   3
  -8  -4   2  451.37   83.92   3
  -8   4   2  256.37   57.03   3
  -8   4   2  204.76   50.20   3
   8   4  -2  356.65   68.62   3
  -7  -4   2  407.43   67.07   3
   7  -4  -2  280.22   57.78   3
   7  -4  -2  365.94   65.51   3
  -7   4   2  406.27   66.22   3
   7   4  -2  347.61   56.48   3
  -7   4   2  343.26   56.92   3
  -6  -4   2  391.64   70.61   3
   6  -4  -2  452.44   58.69   3
   6  -4  -2  578.59   61.07   3
  -6   4   2  410.05   63.38   3
  -6   4   2  441.60   67.95   3
   6   4  -2  618.08   72.02   3
   6   4  -2  439.10   62.98   3
   5  -4  -2  422.80   55.29   3
  -5  -4   2  389.29   64.38   3
   5   4  -2  447.28   61.27   3
  -5   4   2  438.89   65.64   3
  -5   4   2  344.39   58.71   3
  -4  -4   2  501.33   69.00   3
   4  -4  -2  415.58   55.48   3
   4  -4  -2  617.09   59.90   3
   4   4  -2  612.14   66.26   3
  -4   4   2  448.03   68.61   3
  -4   4   2  439.02   59.01   3
   4   4  -2  446.70   61.95   3
   3  -4  -2  580.91   60.80   3
  -3  -4   2  484.28   66.50   3
  -3   4   2  576.63   60.44   3
   3   4  -2  655.49   69.48   3
   3   4  -2  499.42   64.69   3
  -3   4   2  487.10   68.18   3
  -2  -4   2  577.73   66.90   3
   2  -4  -2  467.50   57.16   3
  -2   4   2  513.33   60.11   3
   2   4  -2  665.04   69.47   3
  -2   4   2  572.17   67.89   3
   2   4  -2  581.15   64.89   3
   1  -4  -2  482.30   56.20   3
  -1  -4   2  472.05   63.62   3
  -1   4   2  531.97   68.53   3
   1   4  -2  514.24   62.17   3
   1   4  -2  651.00   67.58   3
  -1   4   2  555.57   61.26   3
   0  -4   2  443.62   60.13   3
   0  -4  -2  403.37   55.49   3
   0   4  -2  536.46   64.63   3
   0   4   2  477.45   58.47   3
   0   4  -2  409.69   57.67   3
   0   4   2  459.39   67.39   3
   1  -4   2  462.93   60.51   3
  -1  -4  -2  480.61   58.22   3
  -1   4  -2  451.20   59.50   3
   1   4   2  523.73   68.83   3
   1   4   2  460.47   61.38   3
  -1   4  -2  495.08   63.57   3
  -2  -4  -2  575.59   59.76   3
   2  -4   2  547.54   67.61   3
   2   4   2  513.70   61.62   3
  -2   4  -2  459.33   60.90   3
  -2   4  -2  552.24   63.00   3
   2   4   2  476.48   69.46   3
   3  -4   2  704.41   67.62   3
  -3  -4  -2  673.13   66.81   3
   3   4   2  727.53   73.61   3
  -3   4  -2  726.11   71.53   3
   3   4   2  716.20   69.47   3
  -3   4  -2  684.15   68.26   3
   4  -4   2  783.13   78.08   3
  -4  -4  -2  706.52   70.68   3
   4  -4   2  778.45   76.67   3
   4   4   2  856.91   74.24   3
  -4   4  -2  698.07   69.91   3
  -4   4  -2  838.31   77.96   3
   4   4   2  917.84   63.41   1
   4   4   2  863.02   81.52   3
   5  -4   2  486.10   63.57   3
   5  -4   2  349.14   64.76   3
  -5  -4  -2  433.63   64.02   3
   5   4   2  530.08   74.30   3
   5   4   2  399.70   63.86   3
  -5   4  -2  442.20   57.98   3
  -5   4  -2  612.32   71.61   3
   5   4   2  493.12   49.07   1
   6  -4   2  326.45   59.15   3
   6  -4   2  237.79   53.76   3
  -6  -4  -2  226.88   57.67   3
  -6   4  -2  207.11   47.76   3
   6   4   2  274.03   56.96   3
  -6   4  -2  319.88   59.05   3
   6   4   2  307.27   56.88   3
   6   4   2  269.03   38.39   1
   7  -4   2  444.18   68.85   3
   7  -4   2  328.50   64.73   3
  -7  -4  -2  482.64   72.90   3
  -7   4  -2  442.68   75.48   3
   7   4   2  401.47   68.75   3
  -7   4  -2  364.65   66.44   3
   7   4   2  388.60   49.11   1
   7   4   2  463.40   72.68   3
   8  -4   2  546.99   85.37   3
  -8  -4  -2  715.90   80.25   3
   8   4   2  643.80   86.56   3
  -8   4  -2  577.19   79.54   3
   8   4   2  558.29   57.59   1
   8   4   2  709.85   84.61   3
  -9  -4  -2  580.17   83.64   3
   9  -4   2  465.73   88.15   3
  -9   4  -2  653.35   96.27   3
   9   4   2  419.00   53.77   1
  -9   4  -2  552.31   86.09   3
   9   4   2  695.84   90.80   3
   9   4   2  523.59   92.60   3
 -17   0   3   22.82   54.93   3
  17   0  -3  -49.69   39.93   3
  17   0  -3   28.17   50.05   3
 -17   0   3   64.21   43.87   3
  16   0  -3   53.01   34.05   3
  16   0  -3  -18.42   32.55   3
 -16   0   3    7.76   36.82   3
 -16   0   3   -5.82   52.81   3
 -15   0   3  -43.35   43.75   3
  15   0  -3   32.90   32.19   3
 -15   0   3   18.92   26.53   3
  15   0  -3   36.91   32.67   3
  14   0  -3   -5.27   30.87   3
 -14   0   3   17.19   37.15   3
  14   0  -3   58.02   25.25   3
 -14   0   3   32.62   26.57   3
  13   0  -3   80.91   24.69   3
 -13   0   3   -3.05   36.28   3
  13   0  -3    8.55   26.67   3
 -13   0   3   29.22   22.90   3
  12   0  -3   33.51   20.09   3
 -12   0   3    9.53   23.45   3
 -12   0   3   14.71   31.47   3
  12   0  -3   20.99   23.35   3
 -11   0   3   -8.04   28.07   3
 -11   0   3  -10.12   16.63   3
  11   0  -3   24.50   19.10   3
  11   0  -3   21.46   21.06   3
  11   0  -3    5.02   10.44   2
  10   0  -3    2.87    7.75   2
 -10   0   3    2.80   13.19   3
  10   0  -3   14.84   15.55   3
 -10   0   3   -3.58   25.79   3
  10   0  -3   26.06   20.48   3
  -9   0   3   -1.79   13.75   3
   9   0  -3   -2.71    8.00   2
   9   0  -3   24.01   20.60   3
   9   0  -3  -13.09   14.83   3
  -9   0   3   12.73   26.36   3
  -8   0   3   25.74   23.78   3
   8   0  -3   18.23   18.43   3
   8   0  -3  -15.64   14.50   3
   8   0  -3   -1.92    7.43   2
  -8   0   3   -6.07   11.24   3
   7   0  -3  -13.42   15.44   3
   7   0  -3   -6.75    9.48   2
  -7   0   3  -10.03   12.27   3
   7   0  -3   10.29   17.65   3
  -7   0   3   19.67   23.38   3
   6   0  -3  -14.77   13.12   3
  -6   0   3    7.66   14.28   2
   6   0  -3   -0.30   14.63   3
   6   0  -3    7.94    9.39   2
  -6   0   3   11.23   12.93   3
  -6   0   3    6.84   21.44   3
  -5   0   3    3.10    9.59   3
  -5   0   3  -11.46   11.63   2
   5   0  -3    0.04    8.44   2
  -5   0   3   -3.31   17.48   3
   5   0  -3    2.96   11.44   3
   5   0  -3    5.61   12.27   3
   4   0  -3    1.96   10.97   3
   4   0  -3    5.32    8.60   2
  -4   0   3    1.34   12.59   3
  -4   0   3   -7.10    8.01   3
   4   0  -3    0.71   11.11   3
  -4   0   3   -9.28   10.72   2
  -3   0   3  -10.02    6.83   3
   3   0  -3  -12.64    9.73   2
   3   0  -3    3.27    9.98   3
   3   0  -3  -12.34   10.35   3
  -3   0   3  -11.55   12.09   2
   2   0  -3   -9.51    7.99   3
   2   0  -3    3.12   10.10   2
  -2   0   3    2.23   11.03   2
  -2   0   3   -4.03    8.97   3
   2   0  -3   -5.58    7.07   3
  -2   0   3   -2.45    5.44   3
   1   0  -3    7.78    8.86   2
  -1   0   3    7.68    9.57   2
   0   0  -3    3.17    8.50   2
   0   0   3   -1.57    8.37   2
  -1   0  -3    9.83    8.73   3
   1   0   3   11.48    9.65   3
   1   0   3   10.15    5.58   3
  -1   0  -3   11.28    7.88   3
  -1   0  -3    7.61    7.40   2
   2   0   3   -6.45   11.89   3
  -2   0  -3    0.18   10.42   3
  -2   0  -3   -0.80   12.38   3
  -3   0  -3   -0.34   10.22   3
  -3   0  -3    0.10   14.53   3
   3   0   3  -15.02   12.15   3
  -3   0  -3   -2.50    8.03   1
  -4   0  -3    0.18    8.85   1
  -4   0  -3   19.50   17.21   3
  -4   0  -3    5.04   12.55   3
   4   0   3    4.74   11.93   3
   4   0   3   -2.69   14.71   3
  -5   0  -3   -1.70   12.45   3
  -5   0  -3   12.99    9.82   1
   5   0   3   -5.84   15.27   3
  -5   0  -3   10.99   19.41   3
   5   0   3    4.59   15.91   3
  -6   0  -3   -0.21    9.27   1
   6   0   3   -3.54   15.93   3
  -6   0  -3   20.12   21.57   3
   6   0   3   -0.84   15.32   3
  -6   0  -3   16.31   14.11   3
   7   0   3    4.34   17.78   3
  -7   0  -3    6.34    8.17   1
   7   0   3    2.41   16.42   3
  -7   0  -3   33.40   15.22   3
  -7   0  -3    3.11   21.09   3
  -8   0  -3   -9.28   13.12   3
   8   0   3   -4.99   16.55   3
  -8   0  -3    7.69    8.15   1
  -8   0  -3   35.61   24.89   3
   8   0   3    2.34   19.57   3
   9   0   3   -5.34   21.87   3
  -9   0  -3   22.44   14.75   3
  -9   0  -3    3.23   25.11   3
   9   0   3   -0.65   21.96   3
  -9   0  -3   -3.73    9.36   1
  10   0   3   13.27   25.30   3
  10   0   3  -18.87   20.18   3
 -10   0  -3   34.84   14.22   3
 -10   0  -3   11.82   11.08   1
 -10   0  -3   16.45   28.55   3
 -11   0  -3   -3.16   31.94   3
  11   0   3   -8.49   25.58   3
  11   0   3    4.96   29.89   3
 -11   0  -3   50.73   21.54   3
 -11   0  -3    1.85   11.13   1
  12   0   3   25.38   28.17   3
 -12   0  -3   47.87   29.88   3
  12   0   3   15.15   30.43   3
 -12   0  -3   80.29   19.89   3
 -13   0  -3   59.97   24.40   3
  13   0   3   31.45   31.25   3
 -13   0  -3   48.68   14.19   1
 -13   0  -3   48.34   37.30   3
  13   0   3  -12.24   29.99   3
 -14   0  -3   40.70   15.94   1
 -14   0  -3  -40.64   38.64   3
  14   0   3  -23.82   36.68   3
  14   0   3  -20.32   36.13   3
 -15   0  -3  -10.45   45.41   3
  15   0   3   53.37   41.37   3
 -15   0  -3   10.66   33.53   3
  15   0   3  -37.01   38.31   3
 -16   0  -3    0.23   49.93   3
  16   0   3  -41.27   53.14   3
  16   0   3  -21.49   47.07   3
 -17  -1   3  294.95   72.76   3
  17  -1  -3  347.39   66.16   3
  17  -1  -3  506.35   83.25   3
 -17  -1   3  375.59   68.40   3
  17   1  -3  314.81   55.73   3
  17   1  -3  388.58   79.46   3
 -17   1   3  394.79   80.10   3
 -16  -1   3  293.89   58.58   3
 -16  -1   3  205.83   54.26   3
  16  -1  -3  284.02   56.79   3
 -16   1   3  224.26   43.63   3
  16   1  -3  283.72   49.43   3
 -16   1   3  334.17   69.12   3
 -15  -1   3  381.68   67.39   3
  15  -1  -3  506.31   58.48   3
 -15  -1   3  513.04   55.38   3
  15   1  -3  471.90   73.58   3
 -15   1   3  407.88   72.96   3
  15   1  -3  424.40   59.01   3
 -15   1   3  516.86   59.15   3
 -14  -1   3  141.75   32.90   3
  14  -1  -3  199.44   40.33   3
 -14  -1   3  133.09   23.85   2
  14  -1  -3  130.44   34.24   3
 -14  -1   3  108.63   43.59   3
 -14   1   3  206.22   48.56   3
  14   1  -3   97.03   34.80   3
  13  -1  -3 1056.95   59.86   2
 -13  -1   3  897.65   68.06   3
 -13  -1   3  951.18   64.54   2
  13  -1  -3 1098.55   75.47   3
 -13  -1   3  945.77   85.51   3
  13  -1  -3  918.99   73.24   3
  13   1  -3  862.74   74.14   3
 -13   1   3  882.98   82.27   3
  13   1  -3 1094.66   77.33   3
 -13   1   3  991.37   72.93   3
 -12  -1   3  794.51   75.96   3
  12  -1  -3  930.87   65.12   3
  12  -1  -3  887.06   52.70   2
 -12  -1   3  840.99   58.30   3
  12  -1  -3  733.88   62.99   3
 -12  -1   3  804.20   56.56   2
  12   1  -3  811.11   65.54   3
  12   1  -3  785.46   64.98   3
  12   1  -3  867.05   50.72   1
 -12   1   3  772.96   72.58   3
 -12   1   3  777.51   65.61   3
  11  -1  -3  441.05   47.09   3
 -11  -1   3  463.40   40.50   2
 -11  -1   3  432.35   58.98   3
 -11  -1   3  460.67   40.48   3
  11  -1  -3  562.02   36.53   2
  11   1  -3  440.28   47.53   3
 -11   1   3  428.23   55.56   3
  11   1  -3  547.90   34.03   1
 -11   1   3  539.22   45.52   3
  11   1  -3  535.04   45.80   3
  10  -1  -3  882.50   68.56   3
 -10  -1   3  978.81   75.98   3
 -10  -1   3 1034.39   65.93   3
 -10  -1   3  997.59   64.75   2
  10  -1  -3 1032.28   62.12   2
  10  -1  -3 1098.91   69.27   3
 -10   1   3 1010.90   67.39   3
  10   1  -3 1044.23   59.46   1
  10   1  -3 1038.04   69.90   3
  10   1  -3 1062.08   67.75   3
 -10   1   3  983.79   74.51   3
  -9  -1   3  292.40   28.57   2
   9  -1  -3  280.15   23.39   2
   9  -1  -3  245.70   32.80   3
  -9  -1   3  273.14   42.31   3
   9  -1  -3  264.88   32.97   3
  -9  -1   3  265.82   26.48   3
  -9   1   3  248.50   30.14   3
   9   1  -3  284.33   28.92   3
   9   1  -3  276.18   33.59   3
  -9   1   3  254.64   39.80   3
   9   1  -3  270.21   22.10   1
  -8  -1   3  852.99   61.19   3
  -8  -1   3  820.13   53.26   3
   8  -1  -3  856.08   56.80   3
  -8  -1   3  884.95   54.36   2
   8  -1  -3  787.04   56.53   3
  -8   1   3  842.73   60.05   3
   8   1  -3  856.98   56.76   3
  -8   1   3  845.57   54.59   3
   8   1  -3  857.05   55.45   3
  -7  -1   3  704.93   47.96   3
   7  -1  -3  735.22   50.27   3
   7  -1  -3  819.53   51.63   3
  -7  -1   3  738.39   53.91   3
  -7  -1   3  805.11   49.57   2
   7   1  -3  747.14   50.21   3
  -7   1   3  738.00   49.64   3
  -7   1   3  760.74   53.22   3
   7   1  -3  742.77   50.55   3
   6  -1  -3 2221.83  127.69   3
   6  -1  -3 2256.98  127.00   3
  -6  -1   3 2225.97  126.43   3
  -6  -1   3 2393.57  127.32   2
  -6  -1   3 2188.49  128.98   3
   6   1  -3 2268.46  127.65   3
  -6   1   3 2213.69  127.82   3
  -6   1   3 2258.67  126.77   3
   6   1  -3 2233.35  127.52   3
  -5  -1   3 2555.31  132.70   2
  -5  -1   3 2316.30  133.72   3
   5  -1  -3 2310.49  132.05   3
   5  -1  -3 2357.03  131.68   3
  -5  -1   3 2299.50  131.47   3
   5   1  -3 2307.35  132.30   3
  -5   1   3 2369.84  131.79   3
   5   1  -3 2484.46  132.62   3
  -5   1   3 2247.86  131.85   3
   4  -1  -3  180.46   19.38   3
   4  -1  -3  190.61   19.05   3
  -4  -1   3  176.66   26.21   3
  -4  -1   3  174.56   18.06   3
   4   1  -3  178.32   20.25   3
  -4   1   3  187.35   18.72   3
   4   1  -3  186.18   21.76   3
  -4   1   3  177.24   20.59   3
  -3  -1   3 1942.08  105.00   3
   3  -1  -3 1880.91  104.43   3
   3  -1  -3 1775.80  104.27   3
  -3  -1   3 1944.78  106.42   3
   3   1  -3 1937.94  105.81   3
   3   1  -3 1921.45  105.41   3
  -3   1   3 1778.32  104.05   3
  -2  -1   3  709.44   40.95   3
   2  -1  -3  669.62   40.49   3
  -2  -1   3  691.86   42.97   3
   2  -1  -3  646.64   40.32   3
  -2   1   3  648.89   39.08   1
   2   1  -3  686.67   41.48   3
  -2   1   3  671.48   39.92   3
  -1  -1   3 1399.83   76.97   3
   1  -1  -3 1394.79   76.40   3
  -1  -1   3 1348.92   77.47   3
   1  -1  -3 1251.39   76.14   3
   1   1  -3 1413.79   77.33   3
  -1   1   3 1326.24   75.66   1
  -1   1   3 1394.67   76.14   3
   1   1  -3 1387.61   77.11   3
   0  -1   3 2687.31  151.93   3
   0  -1   3 2870.37  152.63   3
   0  -1  -3 2566.25  151.10   3
   0  -1  -3 2805.99  151.31   3
   0   1  -3 2821.91  152.08   3
   0   1   3 2640.33  150.89   1
   0   1  -3 2866.83  152.30   3
   0   1   3 2921.30  151.38   3
   1  -1   3  892.96   53.46   3
  -1  -1  -3  875.94   52.62   3
   1  -1   3  939.24   53.10   3
  -1   1  -3  890.39   53.15   3
   1   1   3  900.23   51.74   1
   2  -1   3 1243.94   73.61   3
  -2  -1  -3 1323.83   72.81   3
   2  -1   3 1236.17   74.09   3
  -2  -1  -3 1316.88   74.17   3
   2   1   3 1323.44   73.54   3
   2   1   3 1262.87   72.70   1
  -2   1  -3 1317.05   73.59   3
  -2   1  -3 1293.12   74.34   3
  -3  -1  -3  232.87   24.79   3
   3  -1   3  227.56   22.69   3
  -3  -1  -3  209.10   19.04   3
  -3  -1  -3  231.57   19.08   1
   3  -1   3  204.26   21.12   3
   3   1   3  240.59   20.31   1
  -3   1  -3  213.52   23.15   3
   3   1   3  199.41   20.98   3
  -3   1  -3  235.20   19.76   3
   4  -1   3 1832.61  105.96   3
   4  -1   3 1730.79  106.05   3
  -4  -1  -3 1848.00  106.85   3
  -4  -1  -3 2050.02  104.46   1
  -4  -1  -3 1806.65  104.93   3
  -4   1  -3 1888.19  106.72   3
   4   1   3 1999.22  104.63   1
  -4   1  -3 1851.89  105.17   3
   4   1   3 1800.42  105.80   3
   4   1   3 1886.75  105.89   3
  -5  -1  -3 1962.78  103.08   1
  -5  -1  -3 1828.03  104.26   3
   5  -1   3 1835.87  105.58   3
   5  -1   3 1754.92  105.45   3
  -5  -1  -3 1827.83  106.78   3
   5   1   3 1915.91  103.31   1
   5   1   3 1739.06  105.11   3
  -5   1  -3 1872.84  106.26   3
   5   1   3 1720.15  104.81   3
  -5   1  -3 1909.06  104.71   3
  -6  -1  -3  724.19   42.47   1
   6  -1   3  711.69   47.19   3
  -6  -1  -3  642.76   43.70   3
  -6  -1  -3  664.92   50.66   3
   6  -1   3  676.67   47.78   3
  -6   1  -3  703.47   49.27   3
   6   1   3  652.76   48.58   3
   6   1   3  728.46   43.72   1
   6   1   3  636.25   46.84   3
  -6   1  -3  708.82   44.86   3
   7  -1   3 1180.65   74.90   3
   7  -1   3 1172.10   74.39   3
  -7  -1  -3 1158.37   76.24   3
  -7  -1  -3 1218.46   71.22   3
  -7   1  -3 1200.49   75.65   3
   7   1   3 1158.16   75.01   3
   7   1   3 1066.91   73.38   3
   7   1   3 1209.00   69.70   1
  -7   1  -3 1261.43   71.45   3
   8  -1   3  160.04   30.18   3
  -8  -1  -3  130.32   20.59   3
   8  -1   3  156.07   25.91   3
  -8  -1  -3   92.44   28.58   3
   8   1   3  132.39   22.33   3
  -8   1  -3  147.51   28.61   3
   8   1   3  121.99   18.11   1
  -8   1  -3  174.34   22.85   3
   8   1   3  123.35   28.46   3
   9  -1   3  578.66   54.85   3
   9  -1   3  650.00   53.35   3
  -9  -1  -3  563.95   57.64   3
  -9  -1  -3  630.88   44.59   3
   9   1   3  604.37   43.43   1
   9   1   3  634.02   54.04   3
  -9   1  -3  677.37   45.67   3
  -9   1  -3  671.32   55.28   3
 -10  -1  -3  807.35   57.20   3
 -10  -1  -3  803.40   70.93   3
  10  -1   3  863.09   66.50   3
  10  -1   3  886.29   64.13   3
 -10   1  -3  847.78   66.97   3
  10   1   3  828.92   54.29   1
 -10   1  -3  998.30   59.59   3
  10   1   3  840.69   65.31   3
  10   1   3  670.96   66.21   3
 -10   1  -3  800.16   50.53   1
 -11  -1  -3  630.92   65.81   3
  11  -1   3  764.95   62.15   3
  11  -1   3  675.67   66.37   3
 -11  -1  -3  761.49   54.14   3
 -11   1  -3  759.77   64.37   3
  11   1   3  763.82   63.50   3
  11   1   3  628.17   69.28   3
 -11   1  -3  783.75   46.12   1
 -12  -1  -3  884.54   61.11   3
 -12  -1  -3  818.98   74.36   3
  12  -1   3  901.71   70.06   3
  12  -1   3  835.45   75.92   3
 -12   1  -3  856.57   72.41   3
 -12   1  -3  890.32   53.30   1
  12   1   3  776.82   80.43   3
  12   1   3  853.74   71.43   3
  13  -1   3   85.49   44.17   3
 -13  -1  -3   97.57   38.76   3
 -13  -1  -3  105.79   28.10   3
  13  -1   3   80.20   36.03   3
 -13   1  -3  112.74   40.55   3
  13   1   3   60.90   37.73   3
  13   1   3   77.97   46.36   3
  14  -1   3  376.58   58.78   3
 -14  -1  -3  314.56   48.55   3
 -14  -1  -3  295.33   51.83   3
 -14   1  -3  344.29   62.66   3
 -14   1  -3  361.76   55.11   3
  14   1   3  267.53   51.31   3
  14   1   3  349.56   62.06   3
 -15  -1  -3  139.04   59.85   3
  15  -1   3  236.54   52.95   3
 -15  -1  -3  211.09   45.44   3
  15  -1   3  170.68   59.18   3
 -15   1  -3  330.28   56.35   3
  15   1   3  165.03   50.14   3
  15   1   3  336.81   67.19   3
 -15   1  -3  199.11   57.82   3
  16  -1   3  259.89   64.90   3
 -16  -1  -3  368.93   71.41   3
 -16   1  -3  437.66   69.09   3
 -16   1  -3  309.03   70.19   3
  16   1   3  262.73   67.97   3
 -16  -2   3   37.38   46.28   3
 -16  -2   3   11.01   67.70   3
 -16  -2   3   -7.55   34.22   2
  16  -2  -3    5.41   63.32   3
  16   2  -3   60.07   25.23   1
  16   2  -3  -14.53   50.20   3
 -16   2   3  -87.23   73.59   3
  16   2  -3  118.00   72.57   3
 -15  -2   3   36.65   30.26   2
  15  -2  -3  104.67   25.43   2
  15  -2  -3   25.66   57.35   3
 -15  -2   3   38.55   37.54   3
  15  -2  -3   77.74   63.29   3
 -15  -2   3   81.72   58.79   3
  15   2  -3   54.97   45.71   3
 -15   2   3   -1.39   68.21   3
 -15   2   3  -36.54   53.18   3
  14  -2  -3  341.54   64.02   3
  14  -2  -3  268.93   56.37   3
 -14  -2   3  240.46   42.66   2
 -14  -2   3  268.59   59.25   3
 -14   2   3  308.93   69.71   3
 -14   2   3  374.81   64.63   3
  14   2  -3  204.17   32.83   1
  14   2  -3  224.86   43.81   3
  14   2  -3  318.25   59.70   3
 -13  -2   3  297.29   45.47   3
 -13  -2   3  220.55   38.14   2
  13  -2  -3  179.45   43.14   3
  13  -2  -3  304.14   32.83   2
 -13  -2   3  200.54   52.81   3
 -13   2   3  193.90   53.93   3
 -13   2   3  320.24   57.38   3
  13   2  -3  213.11   29.04   1
  13   2  -3  277.90   53.69   3
  13   2  -3  275.93   51.62   3
 -12  -2   3  127.51   27.57   3
 -12  -2   3  108.19   25.03   2
 -12  -2   3  156.26   44.33   3
  12  -2  -3  100.54   38.74   3
 -12   2   3   69.10   35.36   3
 -12   2   3  112.63   44.87   3
  12   2  -3   76.33   32.21   3
  12   2  -3  112.65   18.19   1
  11  -2  -3   68.90   32.96   3
 -11  -2   3   81.25   39.71   3
  11  -2  -3   29.94   30.28   3
 -11  -2   3   87.72   22.93   3
 -11  -2   3   59.31   24.25   2
 -11   2   3   44.77   35.12   3
  11   2  -3   57.29   29.63   3
  11   2  -3   71.26   15.94   1
  11   2  -3   51.38   30.64   3
 -11   2   3   42.53   27.24   3
 -10  -2   3   43.26   16.71   3
 -10  -2   3    3.92   35.14   3
  10  -2  -3   34.65   25.45   3
 -10  -2   3   45.49   21.67   2
 -10   2   3   13.86   22.71   3
 -10   2   3   59.29   33.73   3
  10   2  -3   43.97   24.87   3
  10   2  -3   43.14   27.97   3
   9  -2  -3  376.12   41.46   3
  -9  -2   3  356.27   49.73   3
  -9  -2   3  359.71   39.02   2
   9  -2  -3  413.56   38.66   3
  -9  -2   3  323.36   33.42   3
  -9   2   3  394.11   38.66   3
  -9   2   3  390.47   48.04   3
   9   2  -3  465.87   41.48   3
   9   2  -3  424.34   43.25   3
   8  -2  -3  329.86   37.37   3
  -8  -2   3  335.12   44.36   3
  -8  -2   3  351.33   30.69   3
  -8   2   3  318.18   34.45   3
   8   2  -3  327.51   37.59   3
  -8   2   3  286.51   42.38   3
   8   2  -3  371.33   32.57   3
  -7  -2   3   21.60   25.58   3
  -7  -2   3   21.07   12.92   3
   7  -2  -3   17.31   16.40   3
  -7   2   3   10.42   21.25   3
   7   2  -3   23.20   18.75   3
   7   2  -3   39.78   16.92   3
  -7   2   3   20.18   14.77   3
   6  -2  -3   36.54   15.57   3
  -6  -2   3   63.19   13.78   3
  -6  -2   3   47.09   25.72   3
  -6   2   3   33.94   19.99   3
  -6   2   3   59.00   14.60   3
   6   2  -3   28.70   18.98   3
   6   2  -3   68.31   14.36   3
  -5  -2   3  193.35   32.44   3
   5  -2  -3  212.80   21.44   3
   5  -2  -3  187.56   24.37   3
  -5  -2   3  195.71   20.44   3
  -5   2   3  194.86   28.35   3
   5   2  -3  216.68   28.92   3
   5   2  -3  207.81   22.19   3
  -5   2   3  207.48   22.98   3
  -4  -2   3  194.74   30.43   3
  -4  -2   3  174.70   20.22   3
   4  -2  -3  220.40   24.35   3
   4  -2  -3  228.74   20.39   3
  -4   2   3  166.92   26.35   3
  -4   2   3  232.43   22.08   3
   4   2  -3  150.91   26.97   3
   3  -2  -3  702.53   46.51   3
  -3  -2   3  663.05   50.06   3
  -3  -2   3  692.01   45.23   3
   3  -2  -3  741.90   44.57   3
  -3   2   3  699.30   44.97   3
   3   2  -3  689.42   46.67   3
   3   2  -3  703.16   48.21   3
  -3   2   3  687.79   47.38   3
   2  -2  -3   36.80   10.39   3
   2  -2  -3   27.61   15.93   3
  -2  -2   3   24.69   12.49   3
  -2  -2   3   34.54   19.19   3
   2   2  -3   26.55   14.70   3
  -2   2   3    8.95   16.28   3
  -2   2   3   21.68   11.79   3
   1  -2  -3   -3.16    8.97   3
  -1  -2   3   -3.05   16.82   3
  -1  -2   3   -6.20   11.19   3
   1  -2  -3    5.57   13.70   3
  -1   2   3    3.03    8.61   3
   1   2  -3    4.37   16.51   3
   1   2  -3   14.19   11.44   3
  -1   2   3  -21.24   16.26   3
   0  -2  -3  106.90   20.48   3
   0  -2   3  105.61   20.52   3
   0  -2   3   92.29   18.34   3
   0  -2  -3  117.44   15.32   3
   0   2   3  109.67   16.71   3
   0   2   3  124.50   20.60   3
   0   2  -3  124.50   17.79   3
   0   2  -3  131.03   20.70   3
  -1  -2  -3    7.95    9.72   3
  -1  -2  -3   -8.08   15.51   3
   1  -2   3   -6.37   17.19   3
   1  -2   3   -3.66   11.13   3
   1   2   3  -10.68   14.48   3
  -1   2  -3  -12.58    9.97   3
   1   2   3   -2.36   10.51   3
  -1   2  -3  -13.16   15.43   3
  -2  -2  -3    8.74    9.40   3
   2  -2   3   -3.75   15.42   3
   2  -2   3   21.48   12.29   3
  -2  -2  -3   -3.18   16.83   3
  -2   2  -3  -22.56   14.65   3
   2   2   3  -14.87   16.14   3
   2   2   3   -1.89   10.76   1
  -2   2  -3   -1.41   10.81   3
   2   2   3   -7.08   12.60   3
   3  -2   3   16.98   12.33   3
  -3  -2  -3   -4.54   17.19   3
  -3  -2  -3    6.26   10.71   3
   3  -2   3    2.12   16.11   3
  -3   2  -3    1.17   16.97   3
   3   2   3   -4.86   11.27   1
   3   2   3   -6.00   16.36   3
  -4  -2  -3   85.22   14.75   3
  -4  -2  -3   55.54   21.91   3
   4  -2   3   64.21   15.70   3
   4  -2   3   58.68   20.12   3
   4   2   3   51.73   14.12   1
  -4   2  -3   90.88   17.05   3
  -4   2  -3   58.59   20.16   3
   4   2   3   57.25   14.05   3
   4   2   3   60.64   21.52   3
   5  -2   3   30.85   19.90   3
  -5  -2  -3   38.95   22.51   3
  -5  -2  -3   44.48   11.12   3
   5  -2   3   75.70   17.25   3
   5   2   3   42.36   20.97   3
   5   2   3   42.13   16.71   3
   5   2   3   46.37   14.06   1
  -5   2  -3   55.18   20.22   3
  -6  -2  -3   26.79   22.52   3
   6  -2   3   21.52   18.55   3
   6  -2   3   24.84   20.94   3
  -6  -2  -3   33.75   12.38   3
   6   2   3   20.42   13.63   1
   6   2   3   30.41   23.85   3
   6   2   3   14.69   17.14   3
  -6   2  -3   18.78   21.26   3
   7  -2   3  -11.28   23.55   3
   7  -2   3   17.03   22.39   3
  -7  -2  -3   -2.08   25.05   3
   7   2   3    8.08   14.76   1
  -7   2  -3    8.81   24.50   3
   7   2   3   25.09   26.06   3
   7   2   3   -1.59   19.42   3
   8  -2   3   90.13   24.94   3
  -8  -2  -3   93.81   33.18   3
   8  -2   3  141.18   30.57   3
   8   2   3  105.79   20.07   1
  -8   2  -3   67.74   27.56   3
   8   2   3   99.55   30.68   3
   8   2   3   96.48   25.51   3
  -9  -2  -3   40.49   29.88   3
  -9  -2  -3   58.72   18.91   3
   9  -2   3  115.50   32.39   3
   9  -2   3   22.58   24.51   3
   9   2   3   59.79   32.60   3
  -9   2  -3  116.15   23.82   3
   9   2   3   79.67   28.14   3
   9   2   3   60.33   17.45   1
  -9   2  -3   41.34   29.43   3
 -10  -2  -3   27.61   33.87   3
  10  -2   3   21.77   35.91   3
  10  -2   3   47.54   35.37   3
 -10  -2  -3   35.52   18.96   3
 -10   2  -3   33.86   32.50   3
  10   2   3   59.45   35.53   3
 -10   2  -3   45.21   21.65   3
  10   2   3   39.89   33.83   3
  10   2   3   17.28   17.32   1
 -11  -2  -3  102.38   41.13   3
  11  -2   3  100.95   43.56   3
  11  -2   3  173.46   45.90   3
  11   2   3  114.85   44.08   3
  11   2   3  104.77   39.74   3
  11   2   3   97.45   22.03   1
 -11   2  -3   91.85   29.91   3
 -11   2  -3   97.73   39.04   3
  12  -2   3   39.38   50.32   3
 -12  -2  -3    1.84   36.29   3
 -12  -2  -3   -0.90   27.57   3
  12  -2   3  -13.53   41.71   3
  12   2   3   22.23   19.57   1
 -12   2  -3   17.58   39.28   3
  12   2   3    9.81   37.58   3
 -12   2  -3  -34.64   36.42   3
  12   2   3   46.40   43.64   3
 -13  -2  -3   73.46   49.71   3
  13  -2   3   93.60   58.83   3
  13  -2   3    8.02   47.86   3
  13   2   3   73.83   49.88   3
  13   2   3   51.83   48.21   3
  13   2   3   49.08   24.74   1
 -13   2  -3   99.12   46.81   3
 -13   2  -3   95.71   53.31   3
  14  -2   3  165.70   73.06   3
 -14  -2  -3  170.51   40.52   3
 -14  -2  -3   82.78   56.97   3
  14  -2   3   66.55   54.01   3
  14   2   3  101.89   28.14   1
 -14   2  -3    8.70   53.95   3
  14   2   3  184.66   66.03   3
 -14   2  -3   27.84   53.97   3
  14   2   3   88.38   57.35   3
  14  -3  -3  237.76   67.27   3
 -14  -3   3  252.17   47.67   2
 -14  -3   3  312.41   76.78   3
 -14   3   3  306.55   80.56   3
  14   3  -3  282.96   41.94   1
  14   3  -3  337.30   61.13   3
 -13  -3   3  594.25   62.80   2
  13  -3  -3  724.05   97.57   3
  13  -3  -3  626.86   79.39   3
 -13  -3   3  674.85   91.48   3
  13   3  -3  661.50   52.81   1
 -13   3   3  520.61   85.54   3
 -13   3   3  621.30   99.82   3
  13   3  -3  589.07   77.95   3
  12  -3  -3  504.48   78.82   3
 -12  -3   3  630.80   68.23   3
 -12  -3   3  505.62   56.22   2
  12  -3  -3  486.58   67.66   3
 -12  -3   3  405.05   76.64   3
  12   3  -3  526.53   44.77   1
 -12   3   3  429.83   83.53   3
  12   3  -3  447.88   66.40   3
 -12   3   3  441.47   71.06   3
 -11  -3   3  496.92   67.25   3
  11  -3  -3  525.11   66.94   3
  11  -3  -3  413.17   58.23   3
 -11  -3   3  350.94   68.55   3
 -11  -3   3  380.76   51.00   2
 -11   3   3  400.44   72.53   3
  11   3  -3  425.91   40.00   1
  11   3  -3  466.07   57.72   3
 -11   3   3  314.57   61.41   3
  11   3  -3  584.95   77.84   3
 -10  -3   3  709.10   75.33   3
  10  -3  -3  679.66   65.42   3
  10  -3  -3  669.00   66.78   3
 -10   3   3  714.50   78.24   3
  10   3  -3  911.17   77.37   3
  10   3  -3  801.28   68.06   3
 -10   3   3  676.02   68.38   3
   9  -3  -3  811.84   68.66   3
  -9  -3   3  719.00   74.91   3
   9  -3  -3  781.10   65.20   3
   9   3  -3  809.07   67.58   3
  -9   3   3  815.82   75.08   3
   9   3  -3  907.57   72.86   3
  -9   3   3  764.72   68.10   3
   8  -3  -3 1215.23   85.69   3
  -8  -3   3 1232.52   97.85   3
   8  -3  -3 1474.01   87.60   3
  -8  -3   3 1403.95   88.69   3
   8   3  -3 1307.77   90.61   3
  -8   3   3 1155.73   89.15   3
  -8   3   3 1351.03   93.96   3
  -7  -3   3  980.03   66.64   3
   7  -3  -3  775.71   63.47   3
   7  -3  -3  971.14   64.69   3
  -7  -3   3  913.79   77.42   3
  -7   3   3  871.97   71.43   3
   7   3  -3  904.67   68.74   3
  -7   3   3  808.35   67.22   3
  -6  -3   3  624.34   47.88   3
  -6  -3   3  530.25   61.17   3
   6  -3  -3  499.10   47.77   3
  -6   3   3  571.17   49.43   3
   6   3  -3  539.98   53.46   3
  -6   3   3  559.87   56.14   3
   5  -3  -3  584.46   51.91   3
  -5  -3   3  589.79   60.65   3
  -5  -3   3  748.49   52.65   3
   5  -3  -3  776.51   50.20   3
   5   3  -3  576.21   56.17   3
   5   3  -3  695.97   51.69   3
  -5   3   3  593.91   57.83   3
  -5   3   3  599.12   50.82   3
  -4  -3   3 1149.93   85.32   3
  -4  -3   3 1342.06   78.91   3
   4  -3  -3 1329.80   76.40   3
   4  -3  -3 1114.61   78.49   3
  -4   3   3 1082.14   76.41   3
   4   3  -3 1186.21   80.72   3
  -4   3   3 1127.21   82.39   3
   4   3  -3 1309.65   77.57   3
   3  -3  -3 2559.50  155.37   3
  -3  -3   3 2825.82  155.83   3
  -3  -3   3 2557.39  158.40   3
   3  -3  -3 2806.94  154.08   3
  -3   3   3 2695.44  154.01   3
   3   3  -3 2637.96  156.37   3
  -3   3   3 2621.21  156.86   3
   3   3  -3 2788.91  155.32   3
   2  -3  -3 1642.30   93.21   3
  -2  -3   3 1603.92   94.52   3
  -2  -3   3 1418.05   98.69   3
   2   3  -3 1663.79   94.05   3
   2   3  -3 1494.71   96.31   3
  -2   3   3 1426.17   92.63   3
  -2   3   3 1490.31   97.81   3
  -1  -3   3  702.94   62.96   3
  -1  -3   3  812.73   55.18   3
  -1   3   3  784.36   62.50   3
   1   3  -3  694.72   58.48   3
  -1   3   3  730.78   53.67   3
   1   3  -3  894.41   54.34   3
   0  -3   3  745.05   54.45   3
   0  -3  -3  850.81   51.17   3
   0  -3  -3  718.00   56.56   3
   0   3  -3  770.71   51.81   3
   0   3   3  669.95   59.27   3
   0   3  -3  653.45   56.49   3
   0   3   3  638.80   51.83   3
  -1  -3  -3  788.58   63.03   3
   1  -3   3  923.22   60.76   3
  -1   3  -3  775.42   62.09   3
  -1   3  -3  967.91   59.06   3
   1   3   3  818.48   59.02   3
   1   3   3  875.30   66.00   3
   2  -3   3 2280.11  133.14   3
   2  -3   3 2228.67  135.64   3
  -2  -3  -3 2542.15  131.88   3
  -2  -3  -3 2124.96  133.99   3
   2   3   3 2217.02  132.54   3
  -2   3  -3 2327.65  132.07   3
   2   3   3 2225.78  135.18   3
  -2   3  -3 2149.79  133.87   3
   3  -3   3 2059.36  129.16   3
  -3  -3  -3 1990.40  127.48   3
   3  -3   3 2211.21  126.81   3
  -3  -3  -3 2474.28  125.91   3
  -3   3  -3 2192.69  126.14   3
   3   3   3 2254.50  128.04   3
   3   3   3 1797.33  122.42   1
   3   3   3 2210.43  129.60   3
  -3   3  -3 2063.81  127.96   3
  -4  -3  -3 1029.87   81.41   3
   4  -3   3 1229.30   78.56   3
   4  -3   3 1158.44   82.63   3
  -4  -3  -3 1415.05   77.35   3
  -4   3  -3 1203.01   78.12   3
  -4   3  -3 1110.48   80.00   3
   4   3   3 1173.91   83.29   3
   4   3   3 1174.38   79.88   3
   4   3   3 1314.28   75.75   1
   5  -3   3  326.21   47.98   3
  -5  -3  -3  398.59   48.39   3
   5  -3   3  414.45   40.71   3
  -5   3  -3  343.56   44.01   3
   5   3   3  357.02   35.22   1
   5   3   3  326.09   49.99   3
   5   3   3  315.39   44.18   3
  -5   3  -3  448.80   40.32   3
   6  -3   3  497.65   49.88   3
  -6  -3  -3  396.11   52.24   3
   6  -3   3  353.41   51.65   3
  -6   3  -3  392.18   49.49   3
   6   3   3  408.35   37.75   1
   6   3   3  440.77   51.93   3
  -6   3  -3  511.68   45.39   3
   7  -3   3 1300.66   98.97   3
   7  -3   3 1464.62  101.21   3
  -7  -3  -3 1448.99   97.84   3
  -7   3  -3 1553.90   95.82   3
   7   3   3 1543.71   99.83   3
  -7   3  -3 1448.85   97.15   3
   7   3   3 1460.06   88.87   1
   8  -3   3 1387.53   96.28   3
  -8  -3  -3 1198.30   91.19   3
   8  -3   3 1246.82   94.00   3
   8   3   3 1437.33   95.04   3
  -8   3  -3 1262.71   91.31   3
   8   3   3 1313.98   81.66   1
  -8   3  -3 1279.57   88.05   3
  -9  -3  -3 1302.25   80.59   3
  -9  -3  -3 1065.91   84.11   3
   9  -3   3 1002.97   88.64   3
   9  -3   3 1110.12   90.94   3
  -9   3  -3 1076.14   79.73   3
  -9   3  -3 1042.69   85.34   3
   9   3   3 1026.35   72.11   1
   9   3   3 1191.71   87.91   3
   9   3   3 1063.77   89.46   3
 -10  -3  -3  526.47   64.93   3
  10  -3   3  388.14   71.20   3
  10   3   3  468.70   45.33   1
  10   3   3  378.49   72.51   3
 -10   3  -3  392.87   63.76   3
 -10   3  -3  414.10   63.78   3
  10   3   3  583.48   75.67   3
 -11  -3  -3  272.49   56.27   3
  11  -3   3  212.26   58.52   3
 -11   3  -3  189.33   53.90   3
  11   3   3  184.38   58.04   3
 -11   3  -3  188.04   55.61   3
  11   3   3  289.18   63.43   3
  11   3   3  210.08   33.49   1
  12  -3   3  573.93   89.10   3
 -12  -3  -3  471.17   80.69   3
  12  -3   3  641.00  104.00   3
 -12   3  -3  492.30   83.70   3
  12   3   3  484.48   51.74   1
  12   3   3  525.09   82.79   3
 -12   3  -3  469.24   72.29   3
  12   3   3  546.17   86.61   3
 -10  -4   3  111.92   66.44   3
  10  -4  -3  187.12   72.66   3
  10  -4  -3  137.59   55.33   3
 -10   4   3  208.53   75.13   3
  10   4  -3  103.07   66.64   3
 -10   4   3    4.33   57.66   3
  10   4  -3   47.92   87.59   3
   9  -4  -3  208.19   57.92   3
  -9  -4   3  160.18   69.80   3
   9  -4  -3  112.61   46.82   3
   9   4  -3   20.90   50.11   3
  -9   4   3  150.30   66.25   3
   9   4  -3  154.51   69.46   3
  -9   4   3   78.18   54.94   3
  -8  -4   3  113.38   62.99   3
   8  -4  -3  165.81   54.35   3
   8  -4  -3   77.63   45.46   3
  -8   4   3  145.79   53.60   3
  -8   4   3  211.87   54.48   3
   8   4  -3  127.21   53.39   3
   8   4  -3   82.16   47.02   3
   7  -4  -3  110.11   44.84   3
   7  -4  -3   62.06   38.19   3
  -7  -4   3  166.69   53.10   3
  -7  -4   3  114.94   57.26   3
   7   4  -3   95.27   43.73   3
  -7   4   3   21.25   45.61   3
  -7   4   3   51.25   46.77   3
   7   4  -3  174.97   46.63   3
  -6  -4   3  108.24   51.12   3
  -6  -4   3  197.26   48.47   3
   6   4  -3  138.50   42.60   3
   6   4  -3  144.49   45.07   3
  -6   4   3   42.87   45.29   3
   5  -4  -3   96.63   35.78   3
  -5  -4   3  121.00   48.23   3
  -5   4   3   95.66   43.10   3
  -5   4   3  130.37   46.51   3
   5   4  -3   97.49   47.25   3
   5   4  -3   61.87   39.71   3
  -4  -4   3   79.02   45.66   3
  -4  -4   3  132.11   47.97   3
   4   4  -3  124.32   39.47   3
   4   4  -3   56.13   38.33   3
  -4   4   3  186.37   45.31   3
  -4   4   3  111.81   41.49   3
   3  -4  -3   35.43   37.45   3
  -3  -4   3  119.46   42.65   3
  -3  -4   3   54.76   44.16   3
   3   4  -3   97.48   37.73   3
  -3   4   3   73.01   44.32   3
  -3   4   3   65.65   36.13   3
   3   4  -3  176.43   47.97   3
  -2  -4   3  115.00   44.12   3
  -2  -4   3  132.06   43.40   3
   2   4  -3  116.97   39.17   3
  -2   4   3  119.03   40.86   3
   2   4  -3  167.96   41.17   3
  -1  -4   3  122.39   44.10   3
   1  -4  -3   38.78   32.28   3
  -1  -4   3   91.29   41.59   3
  -1   4   3   92.37   40.26   3
   1   4  -3   83.53   36.76   3
   1   4  -3  119.87   40.79   3
   0  -4  -3  129.99   38.66   3
   0  -4   3  130.02   41.12   3
   0  -4   3   34.01   41.48   3
   0  -4  -3    9.19   35.58   3
   0   4  -3   65.16   35.30   3
   0   4   3   70.55   41.60   3
   0   4  -3  110.91   40.27   3
   0   4   3    4.72   31.80   3
  -1  -4  -3   67.13   37.13   3
   1  -4   3   47.15   39.40   3
   1  -4   3  129.56   41.81   3
  -1   4  -3  125.61   41.19   3
   1   4   3   75.68   32.89   3
   1   4   3   98.32   41.98   3
  -1   4  -3   66.76   35.00   3
   2  -4   3  120.30   43.59   3
  -2  -4  -3   29.68   33.03   3
   2   4   3   29.90   24.56   1
   2   4   3   94.05   33.22   3
   2   4   3   68.65   38.66   3
  -2   4  -3   96.52   40.24   3
  -2   4  -3   99.61   39.37   3
   3  -4   3   36.05   35.38   3
  -3  -4  -3   45.25   37.21   3
   3   4   3   20.75   24.49   1
  -3   4  -3  118.06   40.35   3
  -3   4  -3   64.11   34.76   3
   3   4   3    8.20   37.77   3
   3   4   3   69.66   43.12   3
   4  -4   3   25.81   43.26   3
  -4  -4  -3   34.62   37.91   3
   4  -4   3   76.37   43.54   3
   4   4   3   29.62   40.91   3
  -4   4  -3   89.47   35.06   3
  -4   4  -3  146.34   38.45   3
   4   4   3    7.50   38.33   3
   5  -4   3   93.25   44.13   3
   5  -4   3   19.05   43.86   3
  -5   4  -3   85.29   40.07   3
  -5   4  -3   85.10   38.67   3
   5   4   3   34.53   46.76   3
   6  -4   3   28.42   50.94   3
   6  -4   3   49.89   52.08   3
  -6  -4  -3   93.61   47.41   3
   6   4   3   46.24   45.39   3
  -6   4  -3   96.71   42.58   3
  -6   4  -3   90.45   47.63   3
   6   4   3   26.61   27.24   1
   6   4   3  104.59   51.66   3
   7  -4   3  145.72   65.03   3
   7  -4   3   45.49   49.20   3
  -7  -4  -3   52.12   49.56   3
  -7   4  -3   87.78   53.89   3
   7   4   3   64.79   31.92   1
   7   4   3   14.87   53.73   3
  -7   4  -3   31.27   47.77   3
   7   4   3   47.99   46.58   3
   8  -4   3  203.98   65.32   3
  -8   4  -3   73.22   68.71   3
 -17   0   4  302.74   60.91   3
 -17   0   4  275.27   66.10   3
  17   0  -4  364.55   55.12   3
  17   0  -4  250.24   51.04   3
 -16   0   4  244.69   45.07   3
  16   0  -4  392.83   61.06   3
 -16   0   4  296.15   62.33   3
  16   0  -4  316.35   53.14   3
  15   0  -4   88.05   30.05   3
  15   0  -4   15.83   35.69   3
 -15   0   4   30.89   50.58   3
 -15   0   4   55.93   36.08   3
  14   0  -4  284.99   44.91   3
  14   0  -4  356.09   48.86   3
 -14   0   4  321.72   61.12   3
 -14   0   4  258.14   41.28   3
 -13   0   4 1019.75   75.21   3
  13   0  -4 1220.96   78.47   3
  13   0  -4 1123.74   78.40   3
 -13   0   4 1138.48   90.87   3
 -12   0   4  796.09   59.63   3
 -12   0   4  782.46   72.41   3
  12   0  -4  786.17   62.11   3
  12   0  -4  914.99   60.55   3
  12   0  -4  835.48   52.61   2
  11   0  -4  715.64   49.65   3
 -11   0   4  617.11   62.86   3
  11   0  -4  677.05   43.39   2
 -11   0   4  611.63   49.12   3
  11   0  -4  682.20   53.86   3
 -10   0   4   31.60   16.01   3
  10   0  -4   55.08   15.65   3
 -10   0   4   35.63   28.51   3
  10   0  -4   44.18   11.76   2
  10   0  -4   44.87   23.74   3
   9   0  -4  131.68   22.99   3
  -9   0   4  135.80   21.21   3
   9   0  -4  171.51   16.93   2
   9   0  -4  188.56   28.73   3
  -9   0   4  215.75   38.21   3
  -8   0   4  495.67   48.38   3
   8   0  -4  481.14   38.36   3
   8   0  -4  541.26   34.13   2
  -8   0   4  445.26   35.72   3
   8   0  -4  498.38   39.51   3
   7   0  -4 3352.47  188.27   3
   7   0  -4 3611.46  186.74   2
  -7   0   4 3360.80  187.09   3
   7   0  -4 3304.29  188.45   3
  -7   0   4 3256.12  191.46   3
  -6   0   4 2908.85  159.97   3
  -6   0   4 2684.75  163.82   3
  -6   0   4 2900.49  161.35   2
   6   0  -4 3115.31  160.37   2
   6   0  -4 2876.47  161.18   3
   6   0  -4 2834.33  161.20   3
   5   0  -4   50.10   12.08   2
  -5   0   4   42.01   11.69   3
   5   0  -4   39.12   13.20   3
   5   0  -4   59.85   15.45   3
  -5   0   4   41.94   15.18   2
   4   0  -4  485.39   31.64   3
   4   0  -4  468.99   32.30   2
  -4   0   4  462.27   34.48   2
  -4   0   4  443.37   29.40   3
   4   0  -4  447.19   31.94   3
  -3   0   4   74.26   14.85   2
  -3   0   4   98.02   14.08   3
   3   0  -4   77.42   14.16   3
   3   0  -4   97.50   14.08   2
   3   0  -4   99.79   13.45   3
  -3   0   4   80.16   10.47   3
   2   0  -4 2098.98  117.68   3
  -2   0   4 2269.82  121.04   2
  -2   0   4 2282.16  117.48   3
  -2   0   4 1905.61  118.15   3
   2   0  -4 2292.28  117.96   3
   2   0  -4 2158.67  120.56   2
  -1   0   4 3685.81  193.75   2
   1   0  -4 3396.46  193.40   2
   0   0  -4  648.28   40.00   2
  -1   0  -4 1604.63   83.99   2
   1   0   4 1471.76   83.85   3
  -1   0  -4 1503.07   82.96   3
   1   0   4 1485.22   82.37   3
  -1   0  -4 1467.68   83.13   3
  -2   0  -4   60.81   13.21   3
   2   0   4   49.98   13.68   3
  -2   0  -4   41.12   12.13   3
   2   0   4   48.99    8.88   3
  -2   0  -4   51.00   10.78   1
   3   0   4 1775.98  109.04   3
  -3   0  -4 2047.76  107.90   1
  -3   0  -4 1984.68  109.25   3
  -4   0  -4 2752.55  142.98   1
  -4   0  -4 2582.45  145.29   3
   4   0   4 2512.35  145.06   3
  -4   0  -4 2494.02  144.13   3
  -5   0  -4  519.66   37.13   3
  -5   0  -4  494.18   41.12   3
   5   0   4  438.50   37.64   3
  -5   0  -4  544.53   34.33   1
   5   0   4  520.23   38.97   3
  -6   0  -4 1634.05   97.70   3
  -6   0  -4 1585.79   94.49   3
   6   0   4 1601.41   95.83   3
   6   0   4 1651.32   95.45   3
  -6   0  -4 1636.41   92.03   1
   7   0   4  223.41   29.07   3
  -7   0  -4  240.16   21.12   1
   7   0   4  243.70   31.90   3
  -7   0  -4  229.25   34.46   3
  -7   0  -4  255.86   25.46   3
  -8   0  -4 1027.10   70.93   3
  -8   0  -4 1016.65   60.85   1
  -8   0  -4 1107.65   65.53   3
   8   0   4 1078.13   68.84   3
   8   0   4  937.44   68.01   3
   9   0   4 1150.40   77.51   3
  -9   0  -4 1119.41   80.19   3
  -9   0  -4 1159.77   69.05   1
  -9   0  -4 1250.81   74.67   3
   9   0   4 1158.54   76.54   3
  10   0   4  623.44   54.99   3
 -10   0  -4  712.88   48.26   3
 -10   0  -4  593.66   58.75   3
  10   0   4  600.15   52.50   3
 -10   0  -4  622.21   42.12   1
  11   0   4 1139.18   81.46   3
 -11   0  -4 1043.80   84.91   3
 -11   0  -4 1300.60   77.92   3
  11   0   4 1322.46   84.31   3
 -11   0  -4 1203.03   71.67   1
 -12   0  -4  294.64   44.26   3
 -12   0  -4  305.15   26.79   1
  12   0   4  294.65   39.90   3
  12   0   4  235.59   38.74   3
 -12   0  -4  303.31   34.35   3
 -13   0  -4  545.42   63.10   3
 -13   0  -4  662.65   52.91   3
  13   0   4  573.54   61.81   3
 -13   0  -4  692.85   43.76   1
  13   0   4  621.16   64.51   3
 -14   0  -4  580.07   52.45   3
 -14   0  -4  417.82   62.44   3
  14   0   4  377.21   59.07   3
  14   0   4  427.35   64.61   3
 -14   0  -4  464.91   37.73   1
  15   0   4  355.74   54.01   3
  15   0   4  360.94   64.83   3
 -15   0  -4  437.81   56.88   3
 -15   0  -4  383.04   57.85   3
  16   0   4  610.38   76.95   3
 -16   0  -4  445.45   81.94   3
  16   0   4  539.86   84.46   3
 -17  -1   4   21.20   40.92   3
 -17  -1   4   45.81   52.21   3
  17  -1  -4   22.10   48.52   3
  17  -1  -4   65.74   61.54   3
  17   1  -4  159.77   65.95   3
 -17   1   4   68.65   36.66   3
 -17   1   4  -45.81   58.59   3
  17   1  -4  -54.48   44.71   3
  16  -1  -4   50.16   55.17   3
 -16  -1   4  111.03   37.66   3
 -16  -1   4   37.93   49.92   3
  16  -1  -4   20.24   41.21   3
  16   1  -4   63.25   53.63   3
  16   1  -4   90.17   38.14   3
 -16   1   4   52.54   36.42   3
 -16   1   4  -35.46   52.91   3
 -15  -1   4   74.29   31.74   3
  15  -1  -4   85.46   44.62   3
  15  -1  -4   39.96   39.09   3
 -15  -1   4   15.82   41.13   3
  15   1  -4  131.88   43.25   3
 -15   1   4  111.59   38.42   3
 -15   1   4  -50.81   50.72   3
  15   1  -4   35.86   33.62   3
 -14  -1   4   39.77   20.62   2
  14  -1  -4    8.03   30.45   3
 -14  -1   4   44.25   27.85   3
  14  -1  -4  104.67   35.68   3
 -14  -1   4   69.82   46.99   3
 -14   1   4  101.62   33.67   3
  14   1  -4   74.49   35.74   3
  14   1  -4   26.54   32.42   3
 -14   1   4   21.21   41.94   3
  13  -1  -4   23.36   26.08   3
 -13  -1   4   39.08   42.09   3
 -13  -1   4   43.08   25.11   3
 -13  -1   4   12.42   19.66   2
  13  -1  -4   84.46   30.28   3
  13   1  -4   35.16   28.38   3
 -13   1   4   45.04   27.89   3
  13   1  -4   42.61   28.09   3
 -13   1   4   26.46   39.01   3
 -12  -1   4   62.01   37.98   3
  12  -1  -4   32.18   25.62   3
 -12  -1   4   59.16   23.91   3
 -12  -1   4   70.10   22.55   2
 -12   1   4   81.99   39.35   3
 -12   1   4   47.05   28.03   3
  12   1  -4   43.49   25.48   3
 -11  -1   4   -1.89   17.61   2
 -11  -1   4  -16.65   32.58   3
  11  -1  -4    5.41   22.11   3
 -11  -1   4   29.19   15.47   3
  11  -1  -4  -12.21   23.88   3
  11  -1  -4    3.84   15.30   2
 -11   1   4   -6.87   30.80   3
 -11   1   4   18.13   19.79   3
  11   1  -4   13.97   22.96   3
 -10  -1   4   13.04   17.34   2
 -10  -1   4   -6.80   14.79   3
 -10  -1   4   22.38   30.64   3
  10  -1  -4   24.43   21.14   3
  10  -1  -4   47.98   14.42   2
  10   1  -4   35.36   22.47   3
  10   1  -4  -11.78   17.07   3
 -10   1   4   15.44   30.26   3
  10   1  -4    6.63   10.79   1
 -10   1   4   28.09   20.97   3
   9  -1  -4    4.28   21.55   3
  -9  -1   4   22.99   26.23   3
  -9  -1   4    5.16   11.89   3
   9  -1  -4   12.81   11.57   2
  -9  -1   4    5.17   13.79   2
   9  -1  -4   42.80   16.27   3
  -9   1   4   53.56   16.75   3
  -9   1   4   18.16   28.75   3
   9   1  -4   20.60   19.11   3
  -8  -1   4   34.17   23.45   3
  -8  -1   4   28.56   15.33   2
   8  -1  -4   39.59   18.01   3
   8  -1  -4   52.49   16.84   3
  -8  -1   4   24.88   13.55   3
   8   1  -4   28.93   16.37   3
  -8   1   4   24.08   21.53   3
   8   1  -4   51.31   16.58   3
  -8   1   4   22.86   14.28   3
   7  -1  -4   15.69   15.28   3
  -7  -1   4    7.79   14.49   2
   7  -1  -4    7.53   16.86   3
  -7  -1   4   10.81    9.19   3
  -7  -1   4   -4.77   20.27   3
  -7   1   4    6.11   17.31   3
   7   1  -4   12.05   14.43   3
  -7   1   4   17.00   14.90   3
   7   1  -4   23.91   11.18   3
  -6  -1   4  102.14   17.36   3
   6  -1  -4  126.77   21.05   3
   6  -1  -4  125.21   19.38   3
  -6  -1   4  119.39   19.65   2
  -6  -1   4   91.43   22.07   3
   6   1  -4  114.29   17.49   3
  -6   1   4  119.38   19.10   3
   6   1  -4   98.66   18.10   3
  -6   1   4  135.87   21.31   3
  -5  -1   4   -5.96    8.98   3
  -5  -1   4   -9.22   17.63   3
   5  -1  -4    7.45   12.02   3
  -5  -1   4   -3.07   12.80   2
   5  -1  -4   12.09   13.35   3
  -5   1   4    7.64   11.65   3
   5   1  -4   -2.81   12.60   3
  -5   1   4   15.76   12.24   3
   5   1  -4   -6.34   11.35   3
  -4  -1   4   45.82   11.51   3
   4  -1  -4   60.61   13.02   3
   4  -1  -4   49.07   12.30   3
  -4  -1   4   44.61   14.44   2
  -4  -1   4   31.33   17.63   3
  -4   1   4   80.80   15.53   3
   4   1  -4   56.99   14.34   3
   4   1  -4   41.74   13.94   3
  -3  -1   4   96.60   14.29   3
  -3  -1   4  105.51   19.19   2
   3  -1  -4   99.33   14.05   3
   3  -1  -4   99.79   16.64   3
  -3  -1   4  107.30   20.50   3
   3   1  -4   88.00   17.38   3
   3   1  -4   86.94   15.26   3
  -3   1   4  101.58   12.66   1
   2  -1  -4    4.00    8.52   3
   2  -1  -4    3.63   10.12   3
  -2  -1   4   10.94   13.31   3
  -2  -1   4    2.95    8.56   3
  -2   1   4   -3.21    7.05   3
  -2   1   4    9.37    7.78   1
  -2   1   4   12.60    7.29   3
   2   1  -4    7.69    9.70   3
  -1  -1   4   76.67   12.90   3
   1  -1  -4   93.17   13.10   3
  -1  -1   4   80.19   13.93   3
   1  -1  -4   93.78   13.90   3
  -1   1   4   70.13   10.47   3
   1   1  -4   71.20   12.37   3
  -1   1   4   97.62   13.28   1
   1   1  -4   82.03   15.51   3
  -1   1   4   84.72   10.88   3
   0  -1  -4    0.36    9.30   3
   0  -1  -4   -1.21    6.95   1
   0  -1  -4   -0.71    9.50   3
   0  -1   4   -8.54   10.95   3
   0  -1   4    2.04    8.51   3
   0   1   4    0.00    8.64   1
   0   1   4   -9.24    6.20   3
   0   1  -4   -4.42   10.52   3
   0   1  -4    2.64    7.86   3
   0   1   4   -9.07    6.66   3
   1  -1   4  480.44   30.77   3
   1  -1   4  422.99   31.64   3
  -1  -1  -4  468.80   29.54   1
  -1  -1  -4  420.30   30.30   3
  -1  -1  -4  441.76   29.71   3
  -1   1  -4  449.03   31.23   3
  -1   1  -4  495.82   30.05   3
   1   1   4  475.51   28.88   3
   1   1   4  454.90   30.12   1
  -2  -1  -4  618.10   39.54   3
  -2  -1  -4  678.10   39.61   1
  -2  -1  -4  666.64   41.45   3
   2  -1   4  581.78   40.11   3
   2  -1   4  624.32   41.34   3
   2   1   4  613.28   40.06   3
   2   1   4  679.03   40.21   1
  -2   1  -4  633.71   41.28   3
  -2   1  -4  649.08   39.62   3
   2   1   4  670.54   39.88   3
  -3  -1  -4    9.24    9.03   1
  -3  -1  -4   -1.75    9.30   3
  -3  -1  -4   -1.14   14.06   3
   3  -1   4    5.67   14.37   3
   3  -1   4   12.78   10.62   3
   3   1   4   -0.27   10.56   3
  -3   1  -4    6.77   13.03   3
   3   1   4    9.80    9.79   1
  -3   1  -4   17.83   10.52   3
   4  -1   4   19.22   14.99   3
  -4  -1  -4    4.40    9.21   3
  -4  -1  -4   -0.61    9.11   1
   4  -1   4   10.57   11.68   3
  -4  -1  -4    8.72   15.45   3
  -4   1  -4   11.63   10.24   3
   4   1   4    2.36   10.66   1
   4   1   4    5.12   14.01   3
   4   1   4    4.54    9.45   3
  -4   1  -4    0.77   13.89   3
  -5  -1  -4    4.35   16.70   3
   5  -1   4   16.34   15.87   3
  -5  -1  -4   28.17    8.49   3
  -5  -1  -4   22.56    8.50   1
   5  -1   4   19.94   13.48   3
   5   1   4   18.38   17.58   3
   5   1   4   -3.78   11.21   3
  -5   1  -4    9.07   16.03   3
   5   1   4    0.55   11.06   1
  -5   1  -4   41.21   10.35   3
   6  -1   4  160.11   25.52   3
   6  -1   4  125.11   23.40   3
  -6  -1  -4  135.49   16.90   3
  -6  -1  -4  148.64   25.48   3
  -6  -1  -4  113.84   17.83   1
  -6   1  -4  151.23   24.63   3
   6   1   4  131.80   24.58   3
   6   1   4  126.70   20.44   1
  -6   1  -4  141.60   18.60   3
   6   1   4  116.51   20.41   3
   7  -1   4  687.99   47.36   3
   7  -1   4  602.15   48.25   3
  -7  -1  -4  570.36   51.10   3
  -7  -1  -4  587.08   40.87   1
  -7  -1  -4  609.92   42.76   3
  -7   1  -4  652.81   42.57   3
   7   1   4  662.37   42.68   1
  -7   1  -4  666.53   49.37   3
   7   1   4  628.95   49.32   3
   7   1   4  572.36   45.83   3
  -8  -1  -4  175.27   22.66   3
   8  -1   4  283.11   37.38   3
  -8  -1  -4  155.27   21.30   1
  -8  -1  -4  246.26   37.47   3
   8  -1   4  190.66   37.58   3
  -8   1  -4  214.34   35.52   3
   8   1   4  197.53   35.43   3
   8   1   4  213.15   25.15   1
   8   1   4  191.11   31.11   3
  -9  -1  -4    3.11   14.92   3
   9  -1   4   37.15   28.46   3
  -9  -1  -4   30.65   30.64   3
  -9  -1  -4    6.98   12.99   1
   9  -1   4   11.59   26.74   3
  -9   1  -4   15.43   27.78   3
   9   1   4   39.12   26.41   3
   9   1   4   30.99   15.62   1
   9   1   4   24.07   23.64   3
  10  -1   4   62.92   31.56   3
 -10  -1  -4  117.30   35.95   3
  10  -1   4  115.62   31.45   3
 -10  -1  -4  102.72   21.97   3
  10   1   4  109.84   33.22   3
 -10   1  -4   78.68   15.12   1
  10   1   4   77.70   34.03   3
 -10   1  -4   89.41   31.54   3
 -10   1  -4  158.87   29.60   3
  11  -1   4  -27.63   37.21   3
 -11  -1  -4    7.42   34.96   3
 -11  -1  -4   23.02   22.73   3
  11  -1   4   26.09   33.82   3
  11   1   4   20.46   28.98   3
 -11   1  -4   25.18   31.20   3
  11   1   4    4.73   34.72   3
 -11   1  -4   56.74   20.45   3
  12  -1   4  430.84   52.72   3
 -12  -1  -4  310.97   50.17   3
 -12  -1  -4  319.29   38.91   3
  12  -1   4  305.16   52.79   3
  12   1   4  292.17   49.78   3
 -12   1  -4  319.70   28.56   1
 -12   1  -4  301.45   51.81   3
  12   1   4  326.17   49.96   3
 -12   1  -4  339.81   45.11   3
 -13  -1  -4  183.65   45.34   3
  13  -1   4  233.34   48.38   3
 -13  -1  -4  192.45   35.58   3
  13   1   4  211.71   43.53   3
 -13   1  -4  306.00   27.03   1
 -13   1  -4  247.30   45.34   3
  13   1   4  246.81   58.23   3
 -13   1  -4  284.74   47.18   3
 -14  -1  -4   57.47   43.81   3
  14  -1   4  122.24   51.53   3
 -14  -1  -4   87.08   34.33   3
  14  -1   4   81.68   43.96   3
 -14   1  -4  126.06   39.44   3
  14   1   4   34.75   43.98   3
 -14   1  -4   50.22   46.13   3
  14   1   4   84.45   47.11   3
  15  -1   4   -6.81   51.96   3
 -15  -1  -4   -0.58   49.16   3
 -15  -1  -4   88.69   41.23   3
  15  -1   4   42.15   68.33   3
 -15   1  -4   34.48   39.72   3
  15   1   4  -44.85   48.07   3
  15   1   4  -66.80   54.05   3
 -15   1  -4  -30.64   46.03   3
 -16  -2   4  498.16   90.64   3
 -16  -2   4  483.37   62.57   2
 -16  -2   4  631.49   79.80   3
  16  -2  -4  477.28   81.81   3
  16   2  -4  532.11   46.17   1
 -16   2   4  484.94   72.56   3
 -16   2   4  545.63  107.70   3
  16   2  -4  498.62   79.91   3
 -15  -2   4  350.69   71.79   3
 -15  -2   4  431.18   64.81   3
  15  -2  -4  460.85   81.04   3
 -15  -2   4  305.95   50.32   2
  15  -2  -4  278.47   62.14   3
  15   2  -4  361.87   59.00   3
  15   2  -4  309.20   37.30   1
 -15   2   4  363.95   82.70   3
 -15   2   4  343.18   63.17   3
 -14  -2   4  930.76   71.31   2
  14  -2  -4  981.49   67.77   2
 -14  -2   4 1039.85   79.79   3
  14  -2  -4 1164.16   95.57   3
  14  -2  -4  811.69   81.99   3
 -14  -2   4  923.55   95.07   3
  14   2  -4  834.66   80.45   3
 -14   2   4  860.04   85.67   3
  14   2  -4 1011.21   95.75   3
  14   2  -4  988.79   62.69   1
 -14   2   4  894.23   98.62   3
  13  -2  -4  562.35   62.68   3
 -13  -2   4  622.93   53.78   2
  13  -2  -4  579.75   48.71   2
  13  -2  -4  732.70   74.99   3
 -13  -2   4  649.62   58.95   3
 -13  -2   4  606.99   74.92   3
  13   2  -4  578.40   44.33   1
 -13   2   4  645.76   80.33   3
  13   2  -4  575.36   62.08   3
 -13   2   4  647.57   66.46   3
  12  -2  -4  536.73   58.91   3
 -12  -2   4  472.58   43.82   2
 -12  -2   4  477.91   46.64   3
  12  -2  -4  400.43   50.41   3
 -12  -2   4  404.82   64.89   3
 -12   2   4  326.94   54.08   3
  12   2  -4  431.80   34.39   1
  12   2  -4  493.03   54.33   3
  12   2  -4  364.55   51.85   3
 -12   2   4  321.08   65.91   3
 -11  -2   4 1046.42   86.60   3
 -11  -2   4 1073.94   71.23   2
  11  -2  -4 1078.11   77.67   3
  11  -2  -4  999.83   75.42   3
 -11  -2   4 1027.77   71.65   3
  11   2  -4 1203.46   77.66   3
 -11   2   4 1127.04   84.70   3
 -11   2   4  916.49   76.93   3
  11   2  -4  945.92   75.81   3
 -10  -2   4  550.67   46.44   3
 -10  -2   4  640.11   65.50   3
 -10  -2   4  671.99   51.05   2
  10  -2  -4  619.05   54.03   3
 -10   2   4  578.81   52.57   3
  10   2  -4  568.26   53.16   3
  10   2  -4  700.43   53.29   3
 -10   2   4  624.31   62.90   3
   9  -2  -4 1466.15   89.84   3
  -9  -2   4 1397.34   87.94   3
   9  -2  -4 1429.35   91.18   3
  -9  -2   4 1414.02   89.21   2
  -9  -2   4 1334.30   96.40   3
   9   2  -4 1518.38   89.60   3
  -9   2   4 1425.97   89.63   3
   9   2  -4 1410.03   91.09   3
  -9   2   4 1478.43   96.01   3
  -8  -2   4 1121.02   70.82   2
  -8  -2   4 1000.79   66.51   3
   8  -2  -4  992.87   69.06   3
  -8  -2   4 1023.41   75.93   3
   8  -2  -4 1097.74   68.17   3
  -8   2   4 1040.95   68.21   3
  -8   2   4 1000.27   74.26   3
   8   2  -4 1057.31   71.04   3
   8   2  -4 1110.98   69.61   3
   7  -2  -4  958.26   58.74   3
  -7  -2   4  855.82   67.69   3
  -7  -2   4  918.38   57.86   3
   7  -2  -4  862.67   59.33   3
  -7   2   4  874.46   58.54   3
  -7   2   4  863.53   63.51   3
   7   2  -4  909.78   62.09   3
   7   2  -4  964.54   59.36   3
   6  -2  -4 1352.11   84.42   3
  -6  -2   4 1407.99   83.86   3
  -6  -2   4 1413.71   90.43   3
   6  -2  -4 1454.84   84.26   3
   6   2  -4 1411.36   86.61   3
  -6   2   4 1374.98   86.12   3
   6   2  -4 1469.47   85.50   3
  -6   2   4 1430.07   83.88   3
  -5  -2   4  769.70   57.89   3
   5  -2  -4  783.57   51.72   3
   5  -2  -4  765.42   49.83   3
  -5  -2   4  785.73   50.88   3
   5   2  -4  805.99   50.70   3
  -5   2   4  815.25   50.13   3
  -5   2   4  755.07   53.56   3
   5   2  -4  784.07   53.75   3
  -4  -2   4 2623.47  141.20   3
   4  -2  -4 2449.54  140.31   3
   4  -2  -4 2422.03  139.38   3
  -4  -2   4 2437.99  142.96   3
  -4   2   4 2495.65  140.78   3
  -4   2   4 2549.41  139.80   3
   4   2  -4 2463.77  141.17   3
  -3  -2   4 1560.31   94.98   3
  -3  -2   4 1648.37   92.48   3
   3  -2  -4 1578.66   90.57   3
   3  -2  -4 1597.97   92.07   3
  -3   2   4 1616.97   91.21   3
   3   2  -4 1547.89   93.06   3
  -3   2   4 1546.04   92.57   3
   3   2  -4 1566.74   92.83   3
  -2  -2   4  965.79   56.71   3
   2  -2  -4  999.33   55.00   3
   2  -2  -4  870.76   56.66   3
  -2  -2   4  849.57   60.00   3
  -2   2   4  915.95   55.33   3
  -2   2   4  905.47   58.01   3
   2   2  -4  858.10   57.69   3
   2   2  -4  899.27   56.49   3
  -1  -2   4 1556.17   89.59   3
   1  -2  -4 1536.00   87.90   3
  -1  -2   4 1501.06   91.40   3
   1   2  -4 1523.77   90.61   3
   1   2  -4 1465.67   89.24   3
  -1   2   4 1509.59   89.92   3
  -1   2   4 1560.68   88.51   3
  -1   2   4 1669.17   88.15   1
   0  -2  -4 1087.49   61.39   3
   0  -2   4 1078.33   63.26   3
   0  -2  -4  963.46   63.27   3
   0   2  -4  978.13   62.66   3
   0   2  -4 1011.79   64.44   3
   0   2   4 1020.62   63.83   3
   0   2   4 1115.52   61.97   1
   0   2   4 1041.18   62.01   3
   1  -2   4 2141.77  121.21   3
  -1  -2  -4 1972.39  118.72   3
  -1  -2  -4 2211.61  117.71   3
   1  -2   4 1963.16  118.81   3
  -1   2  -4 2055.30  119.99   3
   1   2   4 2212.81  117.67   1
  -1   2  -4 2048.95  118.75   3
   1   2   4 2122.17  118.31   3
   1   2   4 2103.95  119.08   3
   2  -2   4 1671.58   98.07   3
   2  -2   4 1716.18  100.00   3
  -2  -2  -4 1720.60   95.97   3
  -2  -2  -4 1597.72   97.89   3
   2   2   4 1701.68   97.62   3
  -2   2  -4 1716.92   99.13   3
   2   2   4 1704.52   98.46   3
  -2   2  -4 1631.41   97.46   3
   2   2   4 1740.14   96.23   1
  -3  -2  -4 1526.03   84.54   3
  -3  -2  -4 1401.99   87.26   3
   3  -2   4 1512.39   88.95   3
   3  -2   4 1435.78   86.64   3
  -3   2  -4 1335.25   87.19   3
   3   2   4 1515.26   84.87   1
   3   2   4 1486.68   87.97   3
  -3   2  -4 1500.23   85.86   3
   4  -2   4  781.59   54.76   3
   4  -2   4  848.92   57.93   3
  -4  -2  -4  840.09   51.99   3
  -4  -2  -4  823.68   57.99   3
   4   2   4  830.66   54.18   3
   4   2   4  892.32   57.34   3
  -4   2  -4  877.07   53.57   3
  -4   2  -4  801.14   56.58   3
   4   2   4  883.37   53.21   1
   5  -2   4  638.19   51.13   3
  -5  -2  -4  648.02   51.28   3
   5  -2   4  661.18   47.62   3
  -5  -2  -4  679.41   42.76   3
   5   2   4  660.12   47.06   3
   5   2   4  677.69   51.61   3
   5   2   4  663.65   45.09   1
  -5   2  -4  605.64   49.81   3
  -5   2  -4  721.33   45.01   3
   6  -2   4 1437.78   91.95   3
   6  -2   4 1398.57   89.17   3
  -6  -2  -4 1388.88   90.89   3
  -6  -2  -4 1424.70   85.25   3
  -6   2  -4 1476.08   86.67   3
   6   2   4 1567.58   92.32   3
   6   2   4 1491.26   86.06   1
  -6   2  -4 1409.33   90.74   3
   6   2   4 1452.26   88.54   3
  -7  -2  -4  767.75   63.28   3
  -7  -2  -4  852.12   53.36   3
   7  -2   4  762.88   61.44   3
   7  -2   4  837.26   59.63   3
  -7   2  -4  869.69   54.35   3
   7   2   4  832.06   54.50   1
  -7   2  -4  774.18   61.38   3
   7   2   4  758.74   59.76   3
   7   2   4  846.23   65.15   3
   8  -2   4  974.81   73.63   3
  -8  -2  -4  870.32   75.39   3
   8  -2   4 1001.68   76.91   3
  -8  -2  -4 1164.49   67.27   3
   8   2   4 1087.24   67.02   1
   8   2   4 1202.64   81.44   3
  -8   2  -4 1054.02   75.22   3
   8   2   4 1071.63   73.61   3
  -8   2  -4 1102.37   68.60   3
  -9  -2  -4  617.06   60.87   3
  -9  -2  -4  675.45   47.09   3
   9  -2   4  545.87   58.85   3
   9  -2   4  639.86   61.60   3
   9   2   4  656.87   65.15   3
   9   2   4  529.15   60.49   3
  -9   2  -4  758.11   50.60   3
  -9   2  -4  655.81   57.86   3
   9   2   4  634.98   46.99   1
  10  -2   4  405.98   56.19   3
  10  -2   4  373.06   62.91   3
 -10  -2  -4  417.37   56.34   3
 -10  -2  -4  508.60   40.30   3
  10   2   4  339.54   59.03   3
 -10   2  -4  539.56   46.82   3
  10   2   4  426.84   61.96   3
 -10   2  -4  446.82   52.77   3
  10   2   4  413.38   39.83   1
 -11  -2  -4  800.50   56.18   3
 -11  -2  -4  627.07   71.25   3
  11  -2   4  624.51   78.24   3
  11  -2   4  701.62   72.78   3
  11   2   4  640.38   72.77   3
  11   2   4  656.49   75.92   3
 -11   2  -4  751.75   61.47   3
  11   2   4  682.57   52.80   1
 -11   2  -4  713.00   67.91   3
 -12  -2  -4  336.37   60.13   3
  12  -2   4  514.16   82.44   3
 -12  -2  -4  473.25   47.91   3
  12  -2   4  468.58   60.74   3
 -12   2  -4  362.61   61.11   3
  12   2   4  424.15   74.27   3
  12   2   4  353.38   59.83   3
  12   2   4  340.41   41.02   1
 -12   2  -4  362.11   60.23   3
  13  -2   4  665.70   94.34   3
 -13  -2  -4  731.83   61.45   3
  13  -2   4  523.41   83.72   3
 -13  -2  -4  572.64   77.52   3
 -13   2  -4  630.96   44.93   1
  13   2   4  578.63   81.62   3
 -13   2  -4  501.73   76.49   3
  13   2   4  675.20   94.37   3
  13   2   4  583.22   52.16   1
 -13   2  -4  667.82   74.69   3
 -14  -2  -4  197.71   64.23   3
  14  -2   4  228.13   66.53   3
  14  -2   4  287.99   75.71   3
  14   2   4  224.56   36.57   1
  14   2   4  229.10   77.22   3
 -14   2  -4  314.13   64.06   3
  14   2   4  165.14   60.83   3
 -14   2  -4  250.80   65.19   3
 -14  -3   4   57.80   43.62   2
 -14  -3   4  157.54   64.47   3
  14  -3  -4    4.56   54.74   3
  14  -3  -4  190.05   83.47   3
 -14  -3   4  202.35   67.29   3
 -14   3   4   53.65   80.47   3
  14   3  -4   32.68   27.57   1
 -14   3   4  -31.01   62.35   3
  14   3  -4   55.77   57.38   3
 -13  -3   4  142.97   40.13   2
  13  -3  -4   40.93   48.06   3
 -13  -3   4  105.37   58.73   3
  13  -3  -4  136.99   66.69   3
  13   3  -4  194.87   68.33   3
  13   3  -4  117.44   49.18   3
 -13   3   4   -0.21   52.88   3
 -13   3   4   91.42   67.03   3
  13   3  -4  114.03   26.09   1
  12  -3  -4   18.08   42.23   3
 -12  -3   4  140.14   45.47   3
 -12  -3   4   79.61   55.59   3
 -12  -3   4   28.95   34.60   2
  12   3  -4  167.87   55.15   3
  12   3  -4  111.98   43.68   3
 -12   3   4   31.18   49.30   3
 -12   3   4   13.68   58.42   3
  11  -3  -4   90.12   37.08   3
 -11  -3   4   49.25   32.03   2
 -11  -3   4   65.77   48.36   3
 -11  -3   4  145.76   43.65   3
 -11   3   4   -7.10   43.65   3
  11   3  -4   63.22   37.55   3
  11   3  -4   75.17   44.96   3
 -11   3   4   69.85   39.60   3
  10  -3  -4   83.25   33.06   3
 -10  -3   4   74.75   29.96   2
 -10  -3   4   72.11   46.30   3
  10  -3  -4   74.64   36.29   3
 -10  -3   4   88.90   36.14   3
 -10   3   4   35.50   37.10   3
 -10   3   4   36.35   40.28   3
  10   3  -4  120.85   37.99   3
   9  -3  -4   59.21   29.07   3
  -9  -3   4   90.74   42.31   3
  -9  -3   4   84.85   34.02   3
  -9   3   4  123.19   40.15   3
  -9   3   4   37.21   30.66   3
   9   3  -4  119.41   32.88   3
  -8  -3   4  220.32   49.50   3
  -8  -3   4  267.02   43.94   3
   8  -3  -4  321.32   41.08   3
   8   3  -4  257.17   45.10   3
  -7  -3   4  110.23   24.04   3
  -7  -3   4  118.68   41.39   3
  -7   3   4   41.39   34.30   3
   7   3  -4  115.20   31.81   3
  -7   3   4   53.84   31.01   3
  -6  -3   4   65.30   36.08   3
   6  -3  -4   19.88   22.31   3
  -6   3   4   45.63   24.46   3
   6   3  -4   83.11   30.38   3
  -6   3   4   32.39   29.16   3
   5  -3  -4   40.34   19.88   3
  -5  -3   4   -0.19   32.05   3
  -5  -3   4   69.26   19.70   3
   5   3  -4   25.10   26.87   3
   5   3  -4   76.91   24.30   3
  -5   3   4   63.21   31.52   3
   4  -3  -4   83.03   26.05   3
  -4  -3   4  188.00   38.46   3
  -4  -3   4  192.60   32.67   3
  -4   3   4  142.10   26.97   3
  -4   3   4  126.39   33.02   3
   4   3  -4  128.62   30.47   3
   3  -3  -4  304.75   31.33   3
  -3  -3   4  333.92   36.97   3
  -3  -3   4  271.51   47.15   3
   3   3  -4  295.71   41.66   3
  -2  -3   4  182.94   33.28   3
   2  -3  -4  225.30   29.09   3
  -1  -3   4   36.06   30.83   3
  -1  -3   4   33.49   20.96   3
   1  -3  -4   19.62   24.53   3
   1   3  -4   -1.83   23.04   3
  -1   3   4    6.61   28.04   3
  -1   3   4   20.54   17.29   3
   0  -3   4   38.60   21.40   3
   0  -3  -4   -6.85   24.22   3
   0   3   4    0.84   27.57   3
   0   3   4   14.68   18.50   3
   0   3  -4   -0.41   23.27   3
   1  -3   4   75.45   21.59   3
  -1   3  -4   17.43   26.57   3
   1   3   4   61.32   19.09   3
   1   3   4   18.87   26.94   3
   2  -3   4   62.08   28.86   3
  -2  -3  -4   68.85   26.30   3
   2   3   4   48.07   20.07   1
  -2   3  -4   58.02   26.81   3
   2   3   4   79.00   25.37   3
   2   3   4  127.48   31.76   3
   3  -3   4   71.40   34.21   3
  -3  -3  -4   37.51   26.60   3
  -3   3  -4   45.22   26.72   3
   3   3   4   83.27   30.84   3
   3   3   4   17.93   22.80   3
   4  -3   4    8.34   29.95   3
   4  -3   4   40.24   22.07   3
  -4  -3  -4   19.14   27.98   3
   4   3   4   -3.85   30.42   3
   4   3   4  -11.98   24.59   3
   4   3   4   12.72   17.49   1
   5  -3   4   -9.49   28.90   3
   5  -3   4    8.03   24.77   3
  -5  -3  -4   11.02   31.22   3
  -5   3  -4    0.09   29.72   3
   5   3   4   36.74   28.25   3
   5   3   4   42.99   20.08   1
   5   3   4   30.49   32.18   3
  -6  -3  -4   -1.54   31.05   3
   6  -3   4    1.70   30.36   3
   6  -3   4   46.50   28.36   3
  -6   3  -4   16.98   30.41   3
   6   3   4   12.71   16.84   1
   6   3   4    8.04   34.21   3
  -6   3  -4   35.35   23.95   3
   7  -3   4   83.85   41.62   3
  -7  -3  -4   77.50   33.74   3
   7  -3   4  163.32   38.18   3
  -7   3  -4   66.17   33.58   3
   7   3   4   90.09   22.24   1
   7   3   4   84.92   36.56   3
   8  -3   4   48.72   40.93   3
   8  -3   4   30.35   38.62   3
  -8  -3  -4   24.99   37.12   3
   8   3   4   73.51   42.14   3
  -8   3  -4   56.04   33.42   3
   8   3   4    7.44   19.11   1
  -9  -3  -4   11.74   39.81   3
   9  -3   4   -7.34   40.18   3
   9  -3   4   27.55   44.73   3
   9   3   4    7.92   42.27   3
   9   3   4  -11.85   21.94   1
   9   3   4   -3.63   43.99   3
  -9   3  -4   20.26   35.75   3
  10  -3   4   95.63   57.52   3
  10  -3   4  148.74   59.15   3
 -10  -3  -4  153.88   45.78   3
 -10   3  -4  127.45   49.13   3
  10   3   4  141.83   55.42   3
  10   3   4   87.55   45.85   3
 -10   3  -4   84.76   44.60   3
  10   3   4  110.61   29.17   1
  11  -3   4 -106.11   59.91   3
  11  -3   4   -7.80   52.34   3
 -11  -3  -4   19.14   48.10   3
  11   3   4   24.48   27.33   1
  11   3   4   40.93   52.07   3
 -11   3  -4  -59.15   50.45   3
 -11   3  -4  -67.91   52.45   3
  11   3   4  -25.19   48.42   3
  12  -3   4   14.48   62.06   3
 -12  -3  -4    1.25   55.43   3
 -12   3  -4   74.06   57.79   3
  12   3   4   62.83   56.59   3
  12   3   4   92.86   68.45   3
  12   3   4   22.09   30.04   1
 -12   3  -4    7.43   58.41   3
 -10  -4   4  549.15   76.38   2
  10  -4  -4  596.56   77.65   3
 -10   4   4  462.25   91.43   3
  -9  -4   4  872.85  107.23   3
   9  -4  -4  606.01   74.31   3
  -9   4   4  705.36   92.36   3
   9   4  -4  730.03   80.48   3
  -9   4   4  540.98   82.51   3
   8  -4  -4  519.65   72.74   3
   8  -4  -4  325.43   58.56   3
  -8   4   4  338.28   53.28   3
  -8   4   4  400.35   76.82   3
   8   4  -4  418.24   69.47   3
   7  -4  -4  362.93   55.39   3
  -7  -4   4  514.41   83.12   3
  -7  -4   4  319.89   63.68   3
   7  -4  -4  294.21   46.90   3
  -7   4   4  269.15   58.89   3
  -7   4   4  231.69   55.02   3
   7   4  -4  371.05   53.12   3
   7   4  -4  303.18   56.77   3
   6  -4  -4  345.85   56.69   3
   6  -4  -4  227.43   40.13   3
  -6  -4   4  254.49   62.46   3
  -6   4   4  324.83   55.55   3
   6   4  -4  216.47   49.43   3
   6   4  -4  309.86   54.28   3
   5  -4  -4  629.54   62.85   3
  -5  -4   4  633.43   80.39   3
  -5   4   4  661.66   80.28   3
  -5   4   4  725.71   66.94   3
   5   4  -4  888.91   81.10   3
   5   4  -4  661.13   71.59   3
  -4  -4   4 1584.43  108.64   3
  -4  -4   4 1191.63  106.56   3
   4  -4  -4 1638.95   96.96   3
   4   4  -4 1505.95  107.23   3
   4   4  -4 1301.65  100.35   3
  -4   4   4 1251.16   95.70   3
  -4   4   4 1443.72  107.46   3
  -3  -4   4  860.43   74.65   3
  -3  -4   4  699.93   77.82   3
  -3   4   4  610.50   65.06   3
  -3   4   4  703.79   81.00   3
   3   4  -4  883.45   78.78   3
   3   4  -4  681.11   70.28   3
  -2  -4   4  436.86   66.64   3
   2  -4  -4  354.20   49.38   3
  -2   4   4  333.40   67.04   3
   2   4  -4  407.07   57.92   3
  -2   4   4  314.53   48.13   3
  -1  -4   4  327.97   63.68   3
   1  -4  -4  295.67   49.90   3
  -1  -4   4  436.24   54.79   3
  -1   4   4  427.85   53.76   3
  -1   4   4  350.51   41.91   1
   1   4  -4  368.56   51.92   3
  -1   4   4  418.37   56.44   3
   0  -4  -4  396.37   50.82   3
   0  -4   4  343.37   61.06   3
   0  -4   4  352.13   62.84   3
   0   4  -4  341.67   55.98   3
   0   4   4  501.21   68.93   3
   0   4   4  384.05   42.88   1
   0   4   4  267.05   50.45   3
   1  -4   4  814.81   80.15   3
  -1  -4  -4  840.85   72.40   3
   1  -4   4  925.21   82.94   3
   1   4   4  813.35   74.41   3
  -1   4  -4  986.91   79.54   3
   1   4   4 1016.66   67.87   1
  -1   4  -4  871.49   76.06   3
   1   4   4  932.13   83.16   3
   2  -4   4  973.61   82.52   3
  -2  -4  -4  778.21   72.12   3
   2   4   4  876.07   80.80   3
  -2   4  -4 1055.60   79.43   3
   2   4   4  849.88   66.02   1
   2   4   4  963.44   74.56   3
  -2   4  -4  777.05   75.86   3
  -3  -4  -4  624.18   63.58   3
   3  -4   4  485.28   67.53   3
   3   4   4  603.65   63.81   3
  -3   4  -4  675.47   72.57   3
   3   4   4  641.33   52.85   1
   3   4   4  661.22   76.95   3
  -3   4  -4  450.42   62.31   3
   4  -4   4  263.22   60.80   3
  -4  -4  -4  248.84   51.42   3
   4  -4   4  265.05   53.14   3
  -4   4  -4  348.45   55.04   3
   4   4   4  235.33   40.78   1
  -4   4  -4  231.04   43.81   3
   4   4   4  258.51   55.56   3
   4   4   4  370.56   56.41   3
   5  -4   4  230.48   58.82   3
  -5  -4  -4  251.12   49.45   3
   5  -4   4  300.02   51.73   3
   5   4   4  286.61   60.84   3
  -5   4  -4  321.46   49.30   3
  -5   4  -4  404.94   61.44   3
   5   4   4  246.41   41.22   1
   5   4   4  230.26   49.57   3
   6  -4   4  778.23   88.36   3
   6  -4   4  572.80   83.13   3
  -6  -4  -4  715.67   72.46   3
  -6   4  -4  576.66   86.44   3
   6   4   4  660.73   57.98   1
   6   4   4  580.39   73.97   3
   6   4   4  668.93   82.86   3
  -6   4  -4  592.73   70.02   3
  -7  -4  -4  430.05   69.59   3
   7  -4   4  442.08   83.37   3
   7  -4   4  601.02   91.01   3
   7   4   4  426.08   81.17   3
   7   4   4  430.06   50.89   1
  -7   4  -4  530.35   74.63   3
   7   4   4  491.15   72.42   3
  -7   4  -4  398.58   72.04   3
  -8  -4  -4  408.18   75.50   3
   8  -4   4  288.87   77.98   3
   8  -4   4  577.59   95.75   3
   8   4   4  427.45   76.28   3
   8   4   4  470.28   77.07   3
  -8   4  -4  519.54   86.56   3
  -8   4  -4  453.10   70.55   3
 -17   0   5    0.90   60.57   3
 -17   0   5   28.39   44.12   3
  17   0  -5   54.54   47.58   3
  17   0  -5  -21.88   41.92   3
  16   0  -5    6.41   33.54   3
 -16   0   5   26.25   32.64   3
 -16   0   5   -6.11   51.28   3
 -15   0   5   -5.45   44.79   3
 -15   0   5    6.30   27.85   3
  15   0  -5    1.26   29.73   3
  15   0  -5    6.13   27.40   3
  14   0  -5   27.08   26.35   3
  14   0  -5   -9.15   26.27   3
 -14   0   5  -16.73   40.35   3
 -14   0   5   10.88   26.73   3
 -13   0   5    0.64   21.97   3
  13   0  -5   17.27   26.57   3
 -13   0   5    2.94   36.57   3
  13   0  -5    9.79   13.89   2
  13   0  -5   53.87   22.02   3
 -12   0   5   38.47   19.18   3
  12   0  -5   -7.39   10.99   2
  12   0  -5   19.90   20.60   3
 -12   0   5   21.23   36.78   3
  12   0  -5    0.63   24.04   3
 -11   0   5   -5.79   30.24   3
  11   0  -5   -4.98   11.26   2
 -11   0   5   -8.08   16.37   3
  11   0  -5   22.51   21.94   3
  10   0  -5   -6.93   10.37   2
  10   0  -5    9.99   18.87   3
  10   0  -5    8.23   16.40   3
 -10   0   5    9.95   28.04   3
 -10   0   5    4.72   14.37   3
  -9   0   5   -9.57   13.91   3
   9   0  -5    0.86   10.38   2
  -9   0   5    4.78   28.63   3
   9   0  -5   -8.11   12.54   3
   9   0  -5   21.54   17.73   3
   8   0  -5   10.47   15.40   3
   8   0  -5   11.29    9.09   2
  -8   0   5   12.15   24.86   3
  -8   0   5   -5.72   11.76   3
   8   0  -5   25.43   11.60   3
   7   0  -5   11.32   14.26   3
   7   0  -5   -4.01   10.38   2
  -7   0   5    2.42   22.17   3
   7   0  -5   15.76   11.75   3
   6   0  -5    3.13   14.97   3
   6   0  -5    7.79   12.75   3
  -6   0   5    6.03   15.31   2
  -6   0   5   -3.84   16.12   3
   6   0  -5    6.61   10.82   2
  -6   0   5   -3.27    9.94   3
  -5   0   5   12.96   15.30   2
  -5   0   5  -10.62    8.47   3
   5   0  -5    7.20   13.34   3
   5   0  -5   -4.89   11.81   3
   5   0  -5    3.49   10.78   2
   4   0  -5    1.05   11.84   3
   4   0  -5   -2.99   11.19   3
   4   0  -5    0.55    9.82   2
  -4   0   5   -2.54    6.69   3
  -4   0   5  -10.32   13.28   2
  -4   0   5    2.76   12.61   3
  -3   0   5    3.83    9.41   3
   3   0  -5    6.59    9.40   3
  -3   0   5    0.41   13.54   2
   3   0  -5   -6.32    9.09   3
   3   0  -5    7.89    9.64   2
  -3   0   5   -4.34    5.98   3
  -2   0   5    0.12   12.62   2
   2   0  -5   -1.75    9.45   2
   1   0  -5    3.37    9.88   2
   0   0  -5    1.75    9.12   2
  -1   0  -5   12.12    9.03   3
  -1   0  -5   -1.92    7.85   2
   1   0   5    3.32    5.60   3
   1   0   5   -7.43    9.13   3
  -1   0  -5   16.49    7.59   3
  -2   0  -5    8.35   11.23   3
   2   0   5   -7.52   10.86   3
  -2   0  -5    9.84   11.57   3
   2   0   5    9.54    6.77   3
  -2   0  -5   -7.43    8.89   1
   3   0   5  -16.86   12.48   3
  -3   0  -5   -1.78   13.75   3
  -3   0  -5    0.95    9.64   1
   3   0   5   13.39    7.26   3
  -3   0  -5   12.63   13.89   3
  -4   0  -5    0.48   16.72   3
   4   0   5    3.25   12.98   3
  -4   0  -5    0.43   13.16   3
  -4   0  -5   -5.10   10.74   1
   5   0   5   -6.25   14.06   3
  -5   0  -5    5.57   18.07   3
   5   0   5   -1.96   14.12   3
  -5   0  -5    4.50   10.60   1
  -5   0  -5   24.64   12.16   3
   6   0   5   -4.44   17.18   3
  -6   0  -5    4.05   10.02   1
  -6   0  -5   25.04   19.29   3
   7   0   5   10.47   18.68   3
  -7   0  -5   11.81   11.75   1
  -7   0  -5   18.04   14.03   3
   7   0   5   -1.25   16.91   3
  -7   0  -5  -20.22   21.49   3
  -8   0  -5   21.67    9.84   1
   8   0   5   -3.61   20.41   3
   8   0   5   -1.56   21.06   3
  -8   0  -5   11.24   12.86   3
  -8   0  -5   30.94   23.73   3
   9   0   5   -8.58   25.26   3
  -9   0  -5    8.63   13.81   1
   9   0   5  -29.97   21.88   3
  -9   0  -5   23.74   27.37   3
 -10   0  -5   37.78   18.88   3
 -10   0  -5   27.20   27.95   3
  10   0   5   13.54   26.19   3
  10   0   5  -13.72   24.46   3
  11   0   5   -4.70   25.18   3
 -11   0  -5   21.75   31.45   3
  11   0   5   18.50   29.92   3
 -11   0  -5   20.48   14.31   1
 -12   0  -5   37.22   23.54   3
 -12   0  -5   19.83   30.90   3
  12   0   5   24.40   32.01   3
 -12   0  -5    0.50   15.25   1
  12   0   5    0.42   28.95   3
 -13   0  -5   10.55   27.22   3
 -13   0  -5    9.83   33.50   3
  13   0   5   25.86   36.61   3
  13   0   5    8.46   35.21   3
  14   0   5   19.32   39.81   3
 -14   0  -5   41.67   30.03   3
 -14   0  -5   51.45   19.38   1
 -14   0  -5  -26.52   37.57   3
  14   0   5  -30.03   40.00   3
  15   0   5  -13.61   46.16   3
  15   0   5   -6.34   48.96   3
 -15   0  -5  -22.40   46.57   3
  17  -1  -5  371.66   57.26   3
 -17  -1   5  330.57   69.08   3
 -17  -1   5  419.87   68.51   3
 -17   1   5  283.87   52.98   3
 -17   1   5  434.33   77.93   3
  17   1  -5  272.16   55.05   3
  16  -1  -5   75.82   19.46   2
 -16  -1   5   -4.83   52.85   3
  16  -1  -5   78.23   40.11   3
  16  -1  -5  110.38   48.83   3
  16   1  -5   17.56   38.71   3
 -16   1   5   52.26   60.22   3
 -16   1   5   68.87   32.54   3
  16   1  -5  129.40   51.99   3
  15  -1  -5  624.69   42.26   2
  15  -1  -5  447.26   58.64   3
 -15  -1   5  426.91   56.14   3
 -15  -1   5  474.57   70.79   3
 -15   1   5  530.67   60.82   3
 -15   1   5  530.95   76.28   3
  15   1  -5  584.50   74.23   3
  15   1  -5  418.10   60.31   3
  14  -1  -5 1001.11   77.63   3
 -14  -1   5  881.97   85.11   3
  14  -1  -5 1060.74   62.91   2
  14  -1  -5  875.03   72.10   3
 -14  -1   5  934.21   66.09   2
 -14  -1   5  957.34   70.65   3
  14   1  -5  927.56   74.81   3
  14   1  -5 1152.54   81.40   3
 -14   1   5  784.65   73.93   3
 -14   1   5  843.20   87.59   3
 -13  -1   5  597.75   73.88   3
  13  -1  -5  714.08   45.76   2
 -13  -1   5  692.62   52.06   2
 -13  -1   5  659.00   56.03   3
  13  -1  -5  580.92   57.08   3
  13  -1  -5  802.83   60.78   3
 -13   1   5  571.30   70.62   3
  13   1  -5  635.91   63.44   3
 -13   1   5  620.37   61.26   3
  13   1  -5  613.16   58.33   3
 -12  -1   5  834.38   59.68   2
 -12  -1   5  780.22   59.12   3
  12  -1  -5  856.25   54.02   2
 -12  -1   5  812.56   77.87   3
  12  -1  -5  676.49   60.43   3
  12   1  -5  774.81   62.17   3
 -12   1   5  753.91   73.23   3
 -12   1   5  825.15   63.52   3
  11  -1  -5  166.94   24.35   2
 -11  -1   5  140.59   27.44   2
 -11  -1   5  181.12   41.47   3
 -11  -1   5  170.40   25.98   3
  11  -1  -5  226.19   38.40   3
  11  -1  -5  107.20   31.13   3
  11   1  -5  176.47   32.48   3
 -11   1   5  162.86   40.29   3
  11   1  -5  132.58   28.02   3
 -11   1   5  165.84   27.38   3
  10  -1  -5  563.46   48.84   3
  10  -1  -5  647.40   43.69   2
  10  -1  -5  672.75   50.33   3
 -10  -1   5  566.74   61.84   3
 -10  -1   5  542.40   42.86   3
 -10  -1   5  581.91   47.50   2
 -10   1   5  574.44   47.01   3
  10   1  -5  568.83   49.80   3
  10   1  -5  709.83   48.12   3
 -10   1   5  563.13   56.45   3
  -9  -1   5  960.72   63.29   2
   9  -1  -5 1111.18   65.02   3
   9  -1  -5  908.31   63.58   3
   9  -1  -5  982.95   59.89   2
  -9  -1   5  909.39   60.39   3
  -9  -1   5  904.70   71.06   3
   9   1  -5  947.76   64.48   3
   9   1  -5 1029.23   63.01   3
  -9   1   5  879.95   62.56   3
  -9   1   5 1000.22   69.29   3
  -8  -1   5 1711.79   98.89   2
   8  -1  -5 1671.71   98.93   3
   8  -1  -5 1660.04  100.12   3
  -8  -1   5 1692.99  103.83   3
   8  -1  -5 1658.50   97.69   2
  -8  -1   5 1660.20   97.02   3
   8   1  -5 1685.47   98.22   3
  -8   1   5 1596.02   98.06   3
  -8   1   5 1732.77  101.42   3
   8   1  -5 1703.22   99.22   3
   7  -1  -5 2496.60  138.29   3
  -7  -1   5 2447.38  140.24   3
  -7  -1   5 2313.66  136.26   3
  -7  -1   5 2565.67  138.35   2
   7  -1  -5 2425.86  137.15   3
   7   1  -5 2407.07  137.48   3
  -7   1   5 2471.27  138.46   3
   7   1  -5 2434.50  137.79   3
  -7   1   5 2317.10  136.89   3
   6  -1  -5  393.83   29.78   3
   6  -1  -5  449.88   31.82   3
  -6  -1   5  372.87   27.88   3
  -6  -1   5  377.70   32.11   2
  -6  -1   5  345.96   35.22   3
   6   1  -5  366.11   28.78   3
  -6   1   5  314.69   28.83   3
  -6   1   5  385.45   31.98   3
   6   1  -5  379.80   31.54   3
   5  -1  -5 1378.34   79.94   3
   5  -1  -5 1413.89   81.42   3
  -5  -1   5 1487.80   82.73   2
  -5  -1   5 1353.94   83.40   3
  -5  -1   5 1399.22   80.20   3
   5   1  -5 1371.55   81.22   3
   5   1  -5 1422.52   81.49   3
  -5   1   5 1332.62   79.77   3
   4  -1  -5 1057.07   66.11   3
   4  -1  -5 1059.46   63.77   3
  -4  -1   5 1103.65   68.14   3
  -4  -1   5 1220.41   67.55   2
  -4  -1   5 1091.16   64.47   3
  -4   1   5  998.00   63.24   3
   4   1  -5 1132.67   65.69   3
   4   1  -5 1128.12   65.63   3
  -4   1   5 1106.55   64.25   3
  -4   1   5 1203.80   62.65   1
   3  -1  -5 1426.93   87.03   3
   3  -1  -5 1516.68   86.49   3
  -3  -1   5 1610.01   87.72   3
  -3  -1   5 1720.10   90.10   2
  -3   1   5 1393.70   86.16   3
   3   1  -5 1551.21   87.94   3
  -3   1   5 1539.81   86.22   3
  -3   1   5 1609.37   86.23   1
   3   1  -5 1609.46   87.86   3
  -2  -1   5 2695.91  146.33   3
   2  -1  -5 2756.57  145.23   3
   2  -1  -5 2718.26  145.04   1
   2  -1  -5 2407.38  145.06   3
  -2  -1   5 2839.37  147.96   2
   2   1  -5 2641.46  146.33   3
  -2   1   5 2433.30  144.63   3
  -2   1   5 2677.91  144.87   3
  -2   1   5 2648.27  145.31   1
   2   1  -5 2752.95  146.66   3
  -1  -1   5 1154.17   64.27   2
   1  -1  -5 1072.45   60.92   3
   1  -1  -5 1080.64   61.18   1
  -1  -1   5 1080.36   62.11   3
  -1   1   5 1064.69   60.30   3
  -1   1   5  973.32   59.93   3
   1   1  -5 1066.05   61.95   3
  -1   1   5 1072.07   61.77   1
   1   1  -5 1126.23   62.86   3
   0  -1   5 3205.87  175.24   3
   0  -1   5 3237.88  175.69   2
   0  -1  -5 3176.34  173.83   3
   0  -1  -5 3116.20  173.97   3
   0  -1  -5 3308.67  174.74   1
   0   1   5 3137.25  174.73   1
   0   1  -5 3250.35  175.45   3
   0   1   5 3304.08  173.78   3
   0   1   5 3069.51  173.45   3
   0   1  -5 3158.76  175.07   3
  -1  -1  -5 1472.41   85.16   3
  -1  -1  -5 1597.73   86.31   1
  -1  -1  -5 1537.36   86.09   3
   1  -1   5 1511.57   86.49   3
   1   1   5 1495.18   84.85   3
   1   1   5 1574.09   86.50   1
  -1   1  -5 1578.01   86.42   3
  -1   1  -5 1471.04   86.87   3
  -2  -1  -5 1821.27  100.61   3
  -2  -1  -5 1890.40  101.46   1
  -2  -1  -5 1827.27  101.69   3
   2  -1   5 1649.50  101.18   3
   2   1   5 1757.03  100.33   3
   2   1   5 1821.69  101.47   1
  -2   1  -5 1775.36  101.26   3
   2   1   5 1919.61  100.97   3
  -2   1  -5 1802.50  102.23   3
   3  -1   5 1486.06   87.14   3
   3  -1   5 1388.77   85.94   3
  -3  -1  -5 1503.79   85.72   3
  -3  -1  -5 1529.93   87.11   3
  -3  -1  -5 1606.48   85.74   1
   3   1   5 1459.14   84.99   3
   3   1   5 1568.11   85.81   3
   3   1   5 1597.10   86.30   1
  -3   1  -5 1421.39   85.30   3
  -3   1  -5 1501.57   87.04   3
   4  -1   5  578.28   39.38   3
  -4  -1  -5  535.46   41.05   3
  -4  -1  -5  616.24   37.38   1
   4  -1   5  536.02   40.34   3
  -4   1  -5  558.75   40.09   3
   4   1   5  549.31   38.33   1
  -4   1  -5  589.80   36.01   3
   4   1   5  510.01   36.99   3
  -5  -1  -5 2433.68  126.77   1
   5  -1   5 2173.90  128.37   3
  -5  -1  -5 2219.46  126.52   3
  -5  -1  -5 2098.21  129.21   3
   5  -1   5 2168.23  128.54   3
   5   1   5 2404.56  127.15   1
  -5   1  -5 2313.34  127.21   3
   5   1   5 2210.40  127.52   3
  -5   1  -5 2309.62  129.12   3
  -6  -1  -5 1282.21   72.26   1
   6  -1   5 1197.14   75.50   3
  -6  -1  -5 1314.12   73.18   3
   6  -1   5 1239.97   77.03   3
  -6  -1  -5 1225.16   78.62   3
   6   1   5 1188.08   74.88   3
  -6   1  -5 1220.47   76.54   3
   6   1   5 1284.47   73.28   1
   6   1   5 1112.40   76.23   3
  -6   1  -5 1218.37   73.15   3
   7  -1   5 1856.32  109.22   3
   7  -1   5 1712.62  109.33   3
  -7  -1  -5 1685.97  111.05   3
  -7  -1  -5 1835.65  106.24   3
  -7  -1  -5 1970.40  104.86   1
  -7   1  -5 1932.80  106.57   3
   7   1   5 1769.38  109.20   3
  -7   1  -5 1936.34  110.18   3
   7   1   5 1675.55  108.36   3
   7   1   5 1960.59  105.71   1
  -8  -1  -5 1021.36   61.78   1
   8  -1   5 1041.54   69.90   3
  -8  -1  -5  928.05   73.54   3
  -8  -1  -5  968.04   62.98   3
   8  -1   5  894.07   68.98   3
   8   1   5  895.88   67.70   3
   8   1   5 1046.71   70.42   3
   8   1   5 1060.66   63.32   1
  -8   1  -5 1078.53   64.39   3
  -8   1  -5 1029.27   69.86   3
  -9  -1  -5  257.42   26.67   1
   9  -1   5  309.41   44.74   3
  -9  -1  -5  319.98   47.65   3
   9  -1   5  303.24   46.22   3
  -9  -1  -5  273.48   31.34   3
   9   1   5  312.14   44.51   3
  -9   1  -5  347.72   43.30   3
   9   1   5  234.50   36.28   3
  -9   1  -5  276.38   26.32   1
  10  -1   5 1229.28   82.10   3
  10  -1   5 1052.17   83.21   3
 -10  -1  -5 1241.42   74.26   3
 -10  -1  -5 1087.18   84.23   3
 -10  -1  -5 1098.27   71.20   1
 -10   1  -5 1218.62   82.09   3
  10   1   5 1109.65   82.52   3
 -10   1  -5 1070.35   68.77   1
  10   1   5 1144.43   82.02   3
 -10   1  -5 1239.71   76.31   3
  11  -1   5  650.10   63.71   3
 -11  -1  -5  709.97   67.15   3
  11  -1   5  678.77   67.33   3
 -11   1  -5  674.95   61.77   3
 -11   1  -5  810.81   55.09   3
  11   1   5  628.77   64.37   3
  11   1   5  699.59   67.01   3
 -11   1  -5  649.48   45.92   1
  12  -1   5 1211.69   90.63   3
  12  -1   5 1219.44   95.30   3
 -12  -1  -5 1091.39   90.73   3
 -12  -1  -5 1342.82   80.64   3
 -12   1  -5 1037.15   85.29   3
  12   1   5 1205.30   89.38   3
 -12   1  -5 1259.66   82.39   3
 -12   1  -5 1164.30   72.19   1
  12   1   5 1155.81   90.67   3
  13  -1   5  678.66   76.70   3
  13  -1   5  485.23   68.86   3
 -13  -1  -5  496.27   63.21   3
  13   1   5  418.21   65.41   3
 -13   1  -5  406.10   60.25   3
  13   1   5  497.57   72.68   3
 -13   1  -5  507.38   41.22   1
  14  -1   5  287.79   57.24   3
 -14  -1  -5  263.24   49.80   3
 -14  -1  -5  297.37   55.15   3
  14  -1   5  313.98   61.93   3
 -14   1  -5  314.81   53.45   3
  14   1   5  297.24   58.10   3
  14   1   5  348.38   62.94   3
 -14   1  -5  305.42   34.59   1
 -14   1  -5  368.12   61.09   3
 -15  -1  -5  484.35   73.64   3
  15  -1   5  497.56   89.14   3
  15  -1   5  596.09  105.69   3
  15   1   5  407.51   84.70   3
 -15   1  -5  602.57   47.51   1
 -15   1  -5  604.70   79.69   3
  15   1   5  592.54   88.65   3
 -15   1  -5  639.40   71.47   3
 -16  -2   5   80.73   39.72   2
 -16  -2   5  176.52   51.09   3
  16  -2  -5  105.56   62.38   3
 -16  -2   5  133.93   75.66   3
  16   2  -5   13.32   50.71   3
  16   2  -5  242.52   71.83   3
 -16   2   5   50.50   71.83   3
 -16   2   5   45.18   54.19   3
  16   2  -5   76.36   23.72   1
  15  -2  -5  185.90   58.10   3
 -15  -2   5    7.15   42.81   3
  15  -2  -5   63.45   51.57   3
 -15  -2   5   -2.08   32.67   2
 -15  -2   5  108.37   62.27   3
  15  -2  -5   69.28   31.42   2
 -15   2   5   11.47   53.89   3
 -15   2   5    8.40   57.37   3
  15   2  -5   -0.26   41.94   3
  15   2  -5  151.90   62.90   3
  14  -2  -5  106.50   29.42   2
 -14  -2   5   51.10   29.68   2
 -14  -2   5   69.49   34.31   3
 -14  -2   5  -18.84   51.40   3
  14  -2  -5    6.09   42.54   3
 -14   2   5    6.80   48.69   3
  14   2  -5   57.22   40.73   3
  14   2  -5   22.31   18.47   1
 -13  -2   5    1.22   45.48   3
  13  -2  -5   14.82   28.86   3
 -13  -2   5   59.14   31.92   3
  13  -2  -5   19.62   24.11   2
 -13  -2   5    4.18   25.17   2
  13  -2  -5   -5.03   39.71   3
 -13   2   5   31.25   47.01   3
  13   2  -5   -2.74   15.85   1
  13   2  -5   26.94   29.31   3
 -13   2   5  -61.98   38.61   3
  12  -2  -5  -23.65   28.38   3
 -12  -2   5   26.96   37.56   3
 -12  -2   5   71.62   26.38   3
 -12  -2   5   33.52   24.66   2
  12   2  -5   43.77   15.12   1
  12   2  -5   71.07   37.81   3
 -12   2   5   13.38   38.75   3
  12   2  -5   17.13   33.71   3
  11  -2  -5  156.31   34.49   3
 -11  -2   5  190.73   35.10   2
  11  -2  -5  311.16   48.60   3
 -11  -2   5  185.42   29.99   3
 -11  -2   5  265.03   48.88   3
 -11   2   5  218.86   39.35   3
 -11   2   5  200.40   41.29   3
  11   2  -5  211.65   38.08   3
 -10  -2   5  228.21   35.66   2
 -10  -2   5  257.80   49.18   3
  10  -2  -5  198.41   37.12   3
  10  -2  -5  283.26   39.78   3
 -10  -2   5  212.79   35.32   3
  10   2  -5  239.32   39.82   3
 -10   2   5  193.50   34.55   3
  10   2  -5  299.42   37.56   3
 -10   2   5  196.93   39.03   3
  -9  -2   5  179.60   29.72   2
  -9  -2   5  205.49   28.20   3
   9  -2  -5  150.20   29.02   3
  -9  -2   5  214.72   40.99   3
  -9   2   5  160.85   36.16   3
  -9   2   5  237.96   35.00   3
   9   2  -5  187.95   36.25   3
  -8  -2   5  139.52   37.15   3
   8  -2  -5  132.19   26.44   3
  -8  -2   5  117.33   24.26   2
  -8  -2   5  115.60   21.53   3
  -8   2   5   82.95   28.13   3
  -8   2   5  120.24   26.99   3
   8   2  -5  132.60   27.59   3
   7  -2  -5   32.43   14.56   3
  -7  -2   5   18.58   28.67   3
  -7  -2   5    4.04   19.17   2
   7  -2  -5    5.41   16.72   3
  -7   2   5    1.68   14.41   3
  -7   2   5    5.16   23.04   3
   7   2  -5    2.26   18.51   3
  -6  -2   5  184.28   23.00   3
   6  -2  -5  161.86   25.91   3
  -6  -2   5  227.87   40.41   3
  -6   2   5  217.14   24.94   3
  -6   2   5  162.02   31.70   3
   6   2  -5  193.34   31.05   3
  -6   2   5  171.50   19.87   1
   6   2  -5  239.89   25.71   3
   5  -2  -5  243.04   26.91   3
  -5  -2   5  226.90   25.14   3
  -5  -2   5  261.77   38.42   3
  -5   2   5  239.10   24.98   3
  -5   2   5  263.54   31.58   3
  -5   2   5  268.92   22.58   1
   5   2  -5  241.73   30.15   3
  -4  -2   5  398.60   40.28   3
  -4  -2   5  357.11   29.40   3
   4  -2  -5  342.80   30.53   3
   4  -2  -5  453.23   28.05   3
  -4   2   5  380.14   29.28   3
   4   2  -5  372.75   34.26   3
  -4   2   5  330.63   34.69   3
  -4   2   5  350.43   27.79   1
  -3  -2   5   11.12   10.95   3
  -3  -2   5    1.41   21.75   3
   3  -2  -5   -3.66   13.97   3
  -3   2   5   -6.08   11.07   1
  -3   2   5    2.25   18.00   3
  -3   2   5   -0.48   10.22   3
   3   2  -5   -1.73   15.03   3
   3   2  -5    6.34   10.72   3
  -2  -2   5  -11.48   20.58   3
   2  -2  -5   -7.29   13.12   3
  -2  -2   5   -2.23   12.57   3
   2   2  -5   14.19    9.43   3
   2   2  -5  -16.53   13.43   3
  -2   2   5   -4.94   11.23   1
  -2   2   5    0.97    9.30   3
  -1  -2   5    1.89   11.10   3
  -1  -2   5   -1.94   20.37   3
  -1   2   5    0.99   12.20   1
   1   2  -5    5.14   15.24   3
  -1   2   5   -0.15    9.34   3
   1   2  -5    1.73    8.35   3
   0  -2   5  444.43   33.31   3
   0  -2  -5  488.17   30.71   3
   0  -2  -5  414.12   33.74   3
   0   2   5  451.41   32.25   1
   0   2  -5  427.88   35.15   3
   0   2  -5  438.03   31.21   3
   0   2   5  416.77   30.89   3
   1  -2   5  871.18   56.63   3
   1  -2   5  875.22   61.08   3
  -1  -2  -5  985.49   54.45   3
  -1  -2  -5  854.71   56.89   3
  -1   2  -5  887.87   58.54   3
  -1   2  -5  930.47   55.38   3
   1   2   5  929.18   55.24   3
   1   2   5  861.54   54.96   1
  -2  -2  -5  -11.80   16.15   3
   2  -2   5  -19.12   19.42   3
   2  -2   5   20.62   13.34   3
   2   2   5    6.76   12.43   1
  -2   2  -5   -0.13   16.23   3
  -2   2  -5   -7.71   10.91   3
   3  -2   5   47.90   15.95   3
  -3  -2  -5   37.74   20.11   3
  -3  -2  -5   54.75   11.22   3
   3  -2   5   18.43   20.75   3
   3   2   5   14.31   18.36   3
  -3   2  -5   83.22   15.99   3
   3   2   5   41.42   15.06   1
  -3   2  -5   39.09   20.83   3
   4  -2   5   42.46   25.69   3
   4  -2   5   32.71   17.05   3
  -4  -2  -5   39.77   22.84   3
   4   2   5   49.50   16.75   1
   4   2   5   37.44   22.05   3
  -4   2  -5   29.63   20.41   3
   5  -2   5  175.40   31.72   3
   5  -2   5  230.82   29.61   3
  -5  -2  -5  164.84   32.27   3
  -5  -2  -5  186.70   18.95   3
   5   2   5  186.88   26.51   3
   5   2   5  186.37   30.00   3
  -5   2  -5  155.48   28.93   3
   5   2   5  138.62   24.99   1
   6  -2   5  566.46   52.25   3
   6  -2   5  609.70   48.36   3
  -6  -2  -5  497.52   50.73   3
  -6  -2  -5  587.33   40.65   3
   6   2   5  592.30   47.66   3
   6   2   5  595.70   53.91   3
  -6   2  -5  567.33   49.85   3
  -6   2  -5  684.80   42.79   3
   6   2   5  602.58   43.44   1
   7  -2   5  166.07   31.31   3
  -7  -2  -5  190.05   24.15   3
   7  -2   5  220.38   36.38   3
  -7  -2  -5  178.40   37.16   3
   7   2   5  152.85   26.44   1
  -7   2  -5  252.72   37.97   3
   7   2   5  213.49   36.89   3
  -7   2  -5  230.75   27.79   3
   7   2   5  204.36   37.23   3
  -8  -2  -5    9.10   14.72   3
  -8  -2  -5   25.83   30.67   3
   8  -2   5   30.16   31.00   3
   8  -2   5  -13.40   26.67   3
   8   2   5   19.56   25.47   3
  -8   2  -5  -30.58   23.71   3
   8   2   5   35.67   33.60   3
   8   2   5   23.41   17.08   1
   9  -2   5  189.54   44.18   3
   9  -2   5  185.86   36.32   3
  -9  -2  -5  265.43   29.82   3
  -9  -2  -5  197.67   40.80   3
   9   2   5  160.67   37.41   3
   9   2   5  200.28   42.22   3
  -9   2  -5  245.21   38.52   3
   9   2   5  194.50   31.26   1
 -10  -2  -5    8.06   36.11   3
  10  -2   5   -7.02   39.09   3
  10  -2   5  -65.45   37.35   3
  10   2   5  -17.69   38.05   3
  10   2   5   13.07   38.40   3
 -10   2  -5   -6.89   28.07   3
 -10   2  -5   17.77   30.37   3
  10   2   5    8.23   19.26   1
  11  -2   5  299.09   52.12   3
 -11  -2  -5  225.50   46.23   3
  11  -2   5  303.89   53.49   3
  11   2   5  206.96   36.35   1
 -11   2  -5  279.81   50.95   3
  11   2   5  173.39   47.50   3
 -11   2  -5  259.85   52.02   3
  11   2   5  254.80   50.19   3
  12  -2   5   84.38   62.12   3
  12  -2   5  180.57   60.32   3
 -12  -2  -5  144.41   48.77   3
  12   2   5   89.50   26.51   1
  12   2   5  109.13   56.47   3
 -12   2  -5  206.04   46.24   3
  12   2   5  110.77   48.46   3
 -12   2  -5  165.64   43.83   3
  13  -2   5   -4.60   54.00   3
 -13  -2  -5   89.65   31.61   3
  13  -2   5   96.25   67.09   3
 -13  -2  -5   67.68   51.78   3
  13   2   5    6.15   48.84   3
 -13   2  -5   92.25   23.29   1
 -13   2  -5  102.84   43.13   3
  13   2   5   77.62   28.16   1
 -13   2  -5   11.20   47.84   3
  13   2   5  208.33   58.67   3
  14  -2   5  115.81   74.21   3
 -14  -2  -5   44.06   59.19   3
  14  -2   5   19.54   68.96   3
  14   2   5  -63.16   54.40   3
 -14   2  -5   63.29   59.80   3
  14   2   5   34.92   68.49   3
 -14   2  -5   13.41   62.47   3
 -14  -3   5  218.17   49.61   2
  14  -3  -5  282.71   64.13   3
 -14  -3   5  305.14   77.73   3
  14  -3  -5  342.69   87.58   3
 -14   3   5  235.28   84.47   3
 -14   3   5   93.87   63.23   3
  14   3  -5  234.53   41.55   1
  13  -3  -5  221.66   54.57   3
 -13  -3   5  150.05   63.11   3
 -13  -3   5  156.32   43.56   2
  13   3  -5  209.78   74.67   3
  13   3  -5  193.83   35.76   1
 -13   3   5  145.05   65.47   3
  13   3  -5  113.56   48.33   3
 -13   3   5   42.14   55.54   3
 -12  -3   5  544.72   58.17   2
  12  -3  -5  495.67   61.84   3
  12  -3  -5  534.13   77.55   3
 -12  -3   5  503.74   82.03   3
 -12   3   5  352.17   73.06   3
 -12   3   5  477.82   87.33   3
  12   3  -5  566.06   66.75   3
  11  -3  -5  815.52   76.47   3
  11  -3  -5  704.31   66.31   3
 -11  -3   5  716.75   66.31   2
 -11  -3   5  860.54   77.38   3
 -11  -3   5  701.70   85.95   3
 -11   3   5  729.17   74.86   3
 -11   3   5  730.98   85.65   3
  11   3  -5  711.45   69.95   3
 -11   3   5  813.43   50.43   1
  10  -3  -5 1020.50   77.07   3
 -10  -3   5  891.31   74.84   2
 -10  -3   5 1133.21   81.96   3
  10  -3  -5  850.42   72.34   3
 -10  -3   5  924.34   89.09   3
 -10   3   5  917.32   76.70   3
  10   3  -5  877.96   75.11   3
 -10   3   5 1056.58   61.09   1
 -10   3   5  961.15   87.95   3
  -9  -3   5  557.17   73.73   3
  -9  -3   5  697.18   63.81   3
  -9  -3   5  594.83   56.06   2
   9  -3  -5  548.19   53.99   3
   9  -3  -5  670.65   54.96   3
  -9   3   5  504.81   57.14   3
   9   3  -5  529.12   57.40   3
  -9   3   5  604.05   67.70   3
  -8  -3   5  378.16   69.27   3
  -8  -3   5  388.88   46.75   3
   8  -3  -5  312.04   41.77   3
  -8   3   5  300.08   44.65   3
   8   3  -5  371.52   47.60   3
  -8   3   5  399.70   58.30   3
  -7  -3   5  287.15   41.73   3
  -7  -3   5  368.41   62.36   3
   7  -3  -5  329.65   39.54   3
   7   3  -5  379.77   47.09   3
  -7   3   5  329.46   55.44   3
  -7   3   5  381.70   42.61   3
  -6  -3   5  587.62   53.46   3
  -6  -3   5  526.44   65.20   3
   6  -3  -5  583.76   49.50   3
   6   3  -5  548.19   54.74   3
  -6   3   5  571.81   50.91   3
  -6   3   5  594.64   60.61   3
   6   3  -5  706.49   51.06   3
  -5  -3   5 1386.70   98.63   3
   5  -3  -5 1500.01   86.86   3
  -5  -3   5 1412.19   93.09   3
   5  -3  -5 1319.00   88.80   3
   5   3  -5 1356.91   91.62   3
  -5   3   5 1394.76   88.97   3
   5   3  -5 1516.03   91.02   3
  -5   3   5 1469.15   95.49   3
  -4  -3   5  753.98   61.81   3
   4  -3  -5  854.21   55.13   3
   4  -3  -5  761.11   57.98   3
  -4  -3   5  728.41   70.44   3
  -4   3   5  864.79   54.28   1
   4   3  -5  908.63   56.82   3
  -4   3   5  746.95   56.95   3
   4   3  -5  754.02   60.42   3
  -4   3   5  762.39   65.82   3
  -3  -3   5  463.05   48.19   3
   3  -3  -5  395.10   42.98   3
  -3  -3   5  406.03   55.76   3
   3  -3  -5  568.55   40.41   3
   3   3  -5  492.89   47.11   3
  -3   3   5  532.44   39.39   1
  -3   3   5  466.33   42.14   3
  -3   3   5  428.35   53.10   3
   2  -3  -5  768.91   50.53   3
  -2  -3   5  674.33   55.33   3
  -2  -3   5  624.61   62.92   3
  -2   3   5  732.85   49.74   1
  -2   3   5  660.61   51.13   3
   2   3  -5  604.68   54.78   3
   2   3  -5  834.82   51.18   3
  -2   3   5  669.21   61.82   3
  -1  -3   5  486.91   46.57   3
   1  -3  -5  425.37   45.42   3
   1  -3  -5  572.25   40.42   3
  -1  -3   5  424.23   55.15   3
  -1   3   5  504.96   53.44   3
  -1   3   5  504.22   42.08   3
   1   3  -5  440.22   46.06   3
  -1   3   5  523.13   40.88   1
   0  -3   5  717.80   65.01   3
   0  -3   5  733.34   59.20   3
   0  -3  -5  838.34   53.41   3
   0   3   5  775.90   54.01   1
   0   3  -5  898.18   55.54   3
   0   3  -5  676.38   58.66   3
   0   3   5  804.19   56.59   3
   0   3   5  763.56   64.93   3
  -1  -3  -5  815.89   49.66   3
   1  -3   5  662.44   56.45   3
  -1  -3  -5  608.76   53.76   3
  -1   3  -5  745.29   50.27   3
   1   3   5  654.64   48.76   1
   1   3   5  694.41   52.13   3
   1   3   5  670.30   60.78   3
  -1   3  -5  593.57   53.72   3
   2  -3   5  601.18   57.52   3
   2  -3   5  693.17   62.66   3
  -2  -3  -5  681.18   54.75   3
  -2   3  -5  757.31   50.65   3
  -2   3  -5  668.78   54.91   3
   2   3   5  727.23   61.80   3
   2   3   5  698.20   49.58   1
   2   3   5  682.00   53.66   3
  -3  -3  -5  415.53   45.34   3
   3  -3   5  467.98   54.87   3
   3  -3   5  397.67   46.21   3
   3   3   5  474.76   44.98   3
   3   3   5  518.18   54.04   3
  -3   3  -5  483.23   46.73   3
   3   3   5  512.33   40.04   1
  -4  -3  -5  362.99   45.17   3
   4  -3   5  338.35   53.37   3
   4  -3   5  383.39   43.47   3
   4   3   5  383.19   44.25   3
   4   3   5  396.96   35.26   1
  -4   3  -5  347.08   42.77   3
   4   3   5  423.96   53.66   3
  -5  -3  -5  608.77   57.61   3
   5  -3   5  641.93   62.79   3
   5  -3   5  655.14   57.54   3
   5   3   5  656.87   60.47   3
  -5   3  -5  523.16   54.62   3
  -5   3  -5  716.76   54.27   3
   5   3   5  576.50   54.70   3
   5   3   5  621.76   47.52   1
   6  -3   5  314.49   45.97   3
   6  -3   5  284.85   43.62   3
  -6  -3  -5  213.19   38.30   3
   6   3   5  209.58   32.62   1
  -6   3  -5  251.48   39.47   3
   6   3   5  265.36   42.80   3
   6   3   5  257.23   42.47   3
  -7  -3  -5  286.41   46.03   3
   7  -3   5  301.28   46.27   3
   7   3   5  259.13   36.04   1
   7   3   5  309.21   55.61   3
  -7   3  -5  236.72   46.38   3
   8  -3   5  658.32   66.31   3
  -8  -3  -5  457.38   58.44   3
   8  -3   5  458.77   69.25   3
   8   3   5  538.34   71.78   3
   8   3   5  453.09   46.20   1
  -8   3  -5  607.49   57.37   3
  -8   3  -5  455.66   57.48   3
  -9  -3  -5  372.04   61.81   3
   9  -3   5  429.68   70.06   3
   9  -3   5  471.84   65.05   3
   9   3   5  516.69   61.27   3
   9   3   5  369.45   44.80   1
  -9   3  -5  363.54   56.98   3
  -9   3  -5  326.93   56.04   3
   9   3   5  404.93   72.81   3
 -10  -3  -5  489.32   65.38   3
  10  -3   5  455.53   70.52   3
  10  -3   5  340.69   69.86   3
  10   3   5  507.03   68.64   3
  10   3   5  417.39   83.33   3
 -10   3  -5  490.18   65.39   3
  10   3   5  352.08   46.33   1
 -10   3  -5  368.97   67.32   3
  11  -3   5  201.43   70.02   3
  11  -3   5  130.32   64.41   3
 -11  -3  -5  176.12   52.78   3
 -11   3  -5  178.45   57.12   3
  11   3   5  108.51   67.14   3
  11   3   5  177.47   51.96   3
 -11   3  -5   76.92   58.90   3
   9  -4  -5  134.48   54.89   3
   9   4  -5  111.71   56.63   3
  -9   4   5   47.38   48.11   3
   9   4  -5  181.36   57.99   3
  -9   4   5   -8.87   61.32   3
  -9   4   5   48.98   31.59   1
  -8  -4   5  206.18   56.88   3
  -8  -4   5  137.37   68.38   3
   8  -4  -5  167.41   50.34   3
   8  -4  -5   37.32   38.55   3
  -8   4   5   73.24   29.59   1
  -8   4   5   32.30   54.17   3
  -8   4   5  -47.90   43.09   3
   8   4  -5  105.75   49.99   3
   8   4  -5   53.70   63.80   3
  -7  -4   5  183.18   64.58   3
   7  -4  -5    1.93   39.94   3
  -7  -4   5   26.28   56.54   3
   7  -4  -5   60.48   33.87   3
   7   4  -5   71.57   43.89   3
   7   4  -5   86.52   47.77   3
  -7   4   5   19.86   28.46   1
  -7   4   5    5.80   47.98   3
  -6  -4   5  165.45   52.83   3
  -6  -4   5  119.98   57.81   3
   6  -4  -5   32.71   35.96   3
   6   4  -5  110.18   42.04   3
  -6   4   5  154.63   51.98   3
  -6   4   5  120.53   30.34   1
   6   4  -5  104.43   56.11   3
  -5  -4   5  282.37   58.67   3
  -5   4   5  166.23   39.15   3
  -5   4   5  260.43   54.19   3
  -5   4   5  220.16   41.10   1
   5   4  -5  308.81   58.30   3
  -4  -4   5  185.77   54.28   3
   4   4  -5  162.62   43.28   3
  -4   4   5  120.43   50.50   3
  -3  -4   5  148.10   44.19   3
   3  -4  -5   37.23   32.88   3
  -3  -4   5   93.70   56.47   3
  -3   4   5   35.97   29.60   3
  -3   4   5  100.00   46.00   3
   3   4  -5   79.86   36.72   3
  -2  -4   5   44.23   53.71   3
  -2  -4   5  179.77   45.46   3
  -2   4   5   65.87   46.24   3
   1  -4  -5   29.76   36.60   3
  -1  -4   5   95.26   45.10   3
  -1  -4   5  -29.27   47.22   3
  -1   4   5   34.95   44.04   3
   1   4  -5   70.65   34.06   3
  -1   4   5   34.25   24.12   1
   0  -4  -5  116.75   38.34   3
   0  -4   5  103.44   50.94   3
   0  -4   5  196.22   44.63   3
   0   4   5   85.08   35.03   3
   0   4  -5  157.20   43.29   3
   0   4   5   89.70   27.04   1
   0   4   5  230.58   49.99   3
   1  -4   5   65.76   49.14   3
  -1  -4  -5  101.82   37.83   3
   1  -4   5  123.28   45.27   3
   1   4   5   51.19   33.14   3
   1   4   5   90.17   43.81   3
  -1   4  -5  142.84   39.04   3
   1   4   5   78.83   28.15   1
  -2  -4  -5  100.85   39.42   3
   2  -4   5  111.21   45.09   3
  -2   4  -5  129.41   43.47   3
   2   4   5  119.27   39.48   3
   2   4   5   71.88   28.69   1
   2   4   5  147.89   48.93   3
   3   4   5   67.10   42.11   3
   4  -4   5  -10.60   41.24   3
  -4  -4  -5   49.63   42.23   3
   4  -4   5   19.35   52.24   3
  -4   4  -5   -8.03   40.46   3
   4   4   5   29.64   49.59   3
  -4   4  -5  114.16   46.34   3
   4   4   5   20.69   37.96   3
   4   4   5   24.10   26.22   1
  -5  -4  -5   86.43   47.27   3
   5  -4   5   -3.99   47.75   3
   5  -4   5   76.92   55.79   3
   5   4   5   17.84   26.54   1
   5   4   5   35.48   46.51   3
  -5   4  -5   54.20   58.80   3
  -5   4  -5   29.48   43.86   3
   6  -4   5   24.62   60.24   3
  -6  -4  -5   44.73   49.37   3
   6   4   5   55.09   45.42   3
  -6   4  -5  150.74   62.37   3
   6   4   5   20.45   52.36   3
  -6   4  -5   36.09   49.64   3
   7  -4   5   42.48   73.94   3
  -7  -4  -5   36.64   49.64   3
   7  -4   5   89.02   60.66   3
   7   4   5   32.41   52.51   3
  -7   4  -5   10.75   52.83   3
   7   4   5   73.05   60.17   3
   7   4   5   31.91   30.85   1
  -7   4  -5   33.53   64.79   3
 -17   0   6  106.15   66.17   3
 -17   0   6   72.87   41.62   3
  17   0  -6  112.76   47.89   3
 -16   0   6  557.23   87.60   3
  16   0  -6  589.30   63.89   3
 -16   0   6  485.39   60.48   3
 -15   0   6 1019.16   96.72   3
  15   0  -6 1197.90   82.51   3
  15   0  -6  916.04   78.21   3
 -15   0   6 1013.18   77.55   3
 -14   0   6  713.21   62.71   3
  14   0  -6  860.87   63.30   3
  14   0  -6  756.31   54.35   2
 -14   0   6  741.12   79.18   3
  14   0  -6  707.33   61.89   3
  13   0  -6 1090.86   77.27   3
  13   0  -6 1106.33   69.94   2
 -13   0   6 1122.02   90.33   3
  13   0  -6 1123.92   78.26   3
 -13   0   6 1113.13   75.56   3
 -12   0   6  329.58   58.08   3
  12   0  -6  373.04   44.01   3
  12   0  -6  375.59   33.51   2
  12   0  -6  411.43   42.48   3
  11   0  -6 1646.51  102.60   3
  11   0  -6 1822.42  101.42   3
 -11   0   6 1546.64   98.67   3
  11   0  -6 1699.31   97.21   2
 -11   0   6 1527.59  108.60   3
 -10   0   6 1500.63   91.20   3
  10   0  -6 1527.44   94.54   3
  10   0  -6 1570.99   92.36   3
 -10   0   6 1448.53  100.58   3
  10   0  -6 1613.62   89.88   2
   9   0  -6 1309.95   79.39   3
   9   0  -6 1306.58   75.65   2
  -9   0   6 1226.29   75.45   3
   9   0  -6 1220.04   76.98   3
  -9   0   6 1221.78   85.78   3
   8   0  -6 2837.68  155.67   3
  -8   0   6 2662.56  160.78   3
  -8   0   6 2706.74  154.48   3
   8   0  -6 2970.44  156.13   2
   8   0  -6 2660.77  156.36   3
  -7   0   6  770.79   49.88   3
   7   0  -6  936.12   52.94   2
   7   0  -6  847.01   51.48   3
  -7   0   6  757.91   59.89   3
   7   0  -6  779.16   53.25   3
   6   0  -6 3458.56  186.79   2
   6   0  -6 3049.07  185.65   3
  -6   0   6 3347.97  184.37   3
   6   0  -6 3592.39  185.98   3
  -5   0   6 2613.67  154.90   3
   5   0  -6 2801.56  153.84   3
   5   0  -6 2586.98  153.81   3
  -5   0   6 2781.30  152.36   3
   5   0  -6 2836.33  155.55   2
  -5   0   6 3059.06  157.29   2
   4   0  -6 1586.14   85.44   3
   4   0  -6 1520.82   87.97   2
  -4   0   6 1550.46   83.98   3
   4   0  -6 1345.79   85.34   3
  -4   0   6 1691.87   90.18   2
  -4   0   6 1391.44   86.02   3
   3   0  -6 2537.34  146.06   3
  -3   0   6 2459.84  146.53   3
   3   0  -6 2672.71  149.48   2
  -3   0   6 2954.32  150.74   2
   3   0  -6 2774.23  145.94   3
   2   0  -6 1207.00   71.10   2
   1   0  -6 6223.03  338.15   2
   0   0  -6 5350.61  290.95   2
  -1   0  -6 2058.02  118.00   3
  -1   0  -6 2263.70  119.53   2
  -1   0  -6 2128.06  117.28   3
   2   0   6 1076.47   60.02   3
  -2   0  -6 1122.81   61.23   2
  -2   0  -6 1013.19   62.31   3
  -2   0  -6 1100.23   61.59   3
   2   0   6 1015.24   62.44   3
   3   0   6  466.56   29.82   3
  -3   0  -6  498.48   33.47   1
  -3   0  -6  464.19   35.44   3
   3   0   6  423.90   33.09   3
  -3   0  -6  470.90   33.40   3
   4   0   6 3296.05  195.53   3
   4   0   6 3405.04  197.64   3
  -4   0  -6 3619.78  197.67   3
  -4   0  -6 3494.94  198.20   3
  -4   0  -6 4084.57  197.63   1
   5   0   6 3668.01  210.75   3
  -5   0  -6 3598.35  210.63   3
  -5   0  -6 3852.62  210.90   3
  -5   0  -6 4099.57  209.89   1
   6   0   6 3739.81  212.36   3
  -6   0  -6 3982.03  210.48   1
  -6   0  -6 3526.49  212.28   3
  -6   0  -6 4017.62  212.38   3
  -7   0  -6 1238.08   70.87   3
   7   0   6 1118.29   72.79   3
  -7   0  -6 1039.73   73.45   3
   7   0   6 1113.74   73.60   3
  -7   0  -6 1161.30   68.55   1
   8   0   6  154.85   29.16   3
   8   0   6  202.75   30.66   3
  -8   0  -6  166.87   32.26   3
  -8   0  -6  145.02   24.35   3
  -8   0  -6  185.67   22.04   1
  -9   0  -6 1584.17   86.68   3
  -9   0  -6 1251.94   90.26   3
   9   0   6 1464.34   90.01   3
  -9   0  -6 1383.79   82.25   1
   9   0   6 1263.94   88.60   3
  10   0   6 1624.64  103.58   3
 -10   0  -6 1721.65  106.29   3
 -10   0  -6 1618.83   96.50   1
 -10   0  -6 1644.40   98.39   3
  10   0   6 1608.93  104.21   3
 -11   0  -6 2509.99  152.47   3
 -11   0  -6 2532.19  143.46   1
  11   0   6 2345.06  149.55   3
 -11   0  -6 2733.84  146.66   3
  11   0   6 2450.05  149.83   3
  12   0   6  734.03   68.38   3
 -12   0  -6  933.51   60.57   3
  12   0   6  818.76   67.34   3
 -12   0  -6  766.31   70.07   3
 -12   0  -6  711.42   55.28   1
  13   0   6  291.01   48.02   3
 -13   0  -6  370.00   34.32   1
 -13   0  -6  281.82   48.41   3
  13   0   6  334.34   55.88   3
 -14   0  -6  548.60   63.14   3
  14   0   6  567.13   72.13   3
  14   0   6  469.28   74.61   3
 -14   0  -6  577.77   46.66   1
 -14   0  -6  602.46   54.36   3
  15   0   6  502.23   75.26   3
  15   0   6  494.29   72.86   3
 -15   0  -6  416.01   44.70   1
 -15   0  -6  419.15   65.05   3
 -17  -1   6  137.50   65.95   3
 -17  -1   6  220.88   50.87   3
  17  -1  -6  132.31   47.68   3
  17   1  -6  221.66   55.25   3
 -17   1   6  228.26   84.98   3
 -17   1   6  188.58   52.12   3
  16  -1  -6   99.38   38.57   3
 -16  -1   6   64.95   37.97   3
 -16  -1   6   21.75   50.29   3
 -16   1   6   -4.01   39.73   3
 -16   1   6   26.62   61.07   3
  16   1  -6   53.64   38.03   3
 -15  -1   6  -14.45   46.47   3
  15  -1  -6   63.20   21.94   2
 -15  -1   6   32.80   27.32   3
  15  -1  -6   40.51   44.89   3
 -15   1   6  -52.04   44.92   3
  15   1  -6    4.27   31.80   3
 -15   1   6  -22.29   35.24   3
 -14  -1   6   83.58   28.97   3
  14  -1  -6   23.05   33.53   3
 -14  -1   6   55.58   42.83   3
  14  -1  -6   81.58   19.87   2
  14  -1  -6  149.04   40.68   3
 -14  -1   6   26.18   21.41   2
 -14   1   6   33.53   31.85   3
  14   1  -6   49.18   34.70   3
  14   1  -6   70.06   31.86   3
 -14   1   6   43.83   50.66   3
 -13  -1   6   30.57   26.12   3
 -13  -1   6   81.37   44.80   3
  13  -1  -6   19.96   25.53   3
 -13  -1   6   30.81   23.43   2
  13  -1  -6   60.43   17.03   2
 -13   1   6    2.84   38.82   3
 -13   1   6   27.57   30.66   3
  13   1  -6   45.75   26.35   3
  12  -1  -6  204.95   38.51   3
 -12  -1   6  191.54   32.41   3
  12  -1  -6  232.02   32.97   2
 -12  -1   6  234.88   38.36   2
 -12   1   6  280.41   46.52   3
 -12   1   6  223.54   41.43   3
  12   1  -6  241.70   39.53   3
  11  -1  -6  267.31   30.37   2
 -11  -1   6  346.13   51.29   3
 -11  -1   6  233.90   30.07   3
 -11  -1   6  217.90   37.42   2
  11  -1  -6  243.21   37.40   3
 -11   1   6  267.71   37.49   3
 -11   1   6  252.84   50.76   3
  11   1  -6  229.01   38.26   3
 -10  -1   6  186.70   41.73   3
 -10  -1   6  187.90   26.41   3
  10  -1  -6  192.81   31.08   3
  10  -1  -6  191.04   26.96   2
  10  -1  -6  261.30   33.34   3
 -10  -1   6  178.24   28.75   2
  10   1  -6  138.98   26.95   3
 -10   1   6  136.49   33.76   3
 -10   1   6  169.36   29.43   3
  -9  -1   6  188.51   31.33   2
   9  -1  -6  181.74   25.88   2
  -9  -1   6  249.45   39.36   3
  -9  -1   6  150.48   21.16   3
   9  -1  -6  181.69   30.11   3
   9   1  -6  222.36   24.37   3
  -9   1   6  243.96   36.27   3
  -9   1   6  178.02   27.89   3
   9   1  -6  184.65   30.95   3
   8  -1  -6   36.78   18.53   3
  -8  -1   6   39.06   18.85   2
  -8  -1   6   60.09   26.79   3
   8  -1  -6   23.69   15.33   2
  -8  -1   6   32.40   12.31   3
  -8   1   6   41.09   22.40   3
   8   1  -6   33.88   19.17   3
   8   1  -6   20.26   12.43   3
  -8   1   6   14.95   16.63   3
   7  -1  -6  225.26   24.43   3
  -7  -1   6  215.91   28.78   2
  -7  -1   6  207.78   35.29   3
  -7  -1   6  196.41   20.77   3
   7   1  -6  232.50   26.51   3
  -7   1   6  227.06   23.01   3
   7   1  -6  225.08   21.86   3
  -6  -1   6  202.84   20.46   3
   6  -1  -6  229.07   22.69   3
  -6  -1   6  220.55   31.33   3
   6  -1  -6  164.10   31.03   3
  -6  -1   6  213.82   27.60   2
   6   1  -6  229.07   25.05   3
  -6   1   6  216.76   21.99   3
   6   1  -6  265.96   20.93   3
  -5  -1   6  353.70   24.96   3
  -5  -1   6  321.39   34.50   3
  -5  -1   6  346.51   31.12   2
   5  -1  -6  356.28   33.44   3
   5  -1  -6  327.57   25.55   3
  -5   1   6  334.59   23.67   3
   5   1  -6  316.64   28.46   3
   5   1  -6  334.51   25.64   3
  -5   1   6  336.05   25.87   3
  -4  -1   6   22.16   17.00   3
   4  -1  -6   29.53   10.29   3
   4  -1  -6   43.80   15.71   3
  -4  -1   6   27.69   16.05   2
  -4  -1   6   18.19    9.67   3
  -4   1   6   37.27   10.71   3
   4   1  -6   35.36   11.37   3
  -4   1   6    8.10   10.52   1
  -4   1   6   31.93    8.17   3
   4   1  -6   18.18   12.76   3
   3  -1  -6   82.94   16.37   3
  -3  -1   6   55.86   12.32   3
   3  -1  -6   44.21    8.67   1
  -3  -1   6   48.95   15.72   2
   3  -1  -6   59.26   11.22   3
  -3   1   6   63.46    9.23   3
   3   1  -6   52.25   14.05   3
  -3   1   6   47.52   12.09   1
   2  -1  -6    1.61    8.46   3
  -2  -1   6    4.05   13.21   2
   2  -1  -6   24.58    9.43   3
   2  -1  -6    5.13    7.17   1
  -2  -1   6    2.49    8.27   3
   2   1  -6    0.66   10.21   3
   2   1  -6   -4.17   11.83   3
  -2   1   6   -2.40   10.67   1
  -1  -1   6   66.00   14.92   2
  -1  -1   6   79.79   12.17   3
   1  -1  -6   68.15   13.24   3
   1  -1  -6   60.55   11.32   3
   1  -1  -6   83.56   13.43   1
  -1   1   6   69.75   13.39   1
   1   1  -6   58.27   12.95   3
   1   1  -6   75.46   14.52   3
   0  -1  -6  362.90   25.72   3
   0  -1  -6  419.67   27.42   1
   0  -1  -6  376.15   24.94   3
   0  -1   6  377.29   26.58   3
   0  -1   6  394.96   29.79   2
   0   1   6  363.36   23.41   3
   0   1  -6  372.66   28.38   3
   0   1   6  394.48   29.10   1
   0   1  -6  325.91   27.13   3
   1  -1   6    9.49    8.59   3
  -1  -1  -6    4.84    9.57   1
   1  -1   6   -3.33   11.38   2
  -1  -1  -6   -3.40   12.16   3
  -1  -1  -6  -14.61    9.18   3
  -1   1  -6  -14.74   11.74   3
  -1   1  -6   14.65    9.28   3
   1   1   6    4.86   11.36   1
   1   1   6    2.22    6.85   3
   2  -1   6  105.54   15.77   3
   2  -1   6   90.29   14.33   2
  -2  -1  -6  118.68   16.05   1
  -2  -1  -6   83.35   15.92   3
  -2  -1  -6   71.89   15.15   3
   2   1   6  114.32   12.40   3
  -2   1  -6  116.79   14.34   3
   2   1   6   85.43   15.17   1
   2   1   6  108.85   14.57   3
  -2   1  -6  110.51   16.90   3
   3  -1   6    7.35   10.74   2
  -3  -1  -6   -6.13    9.37   1
   3  -1   6    5.62   11.19   3
  -3  -1  -6    2.27   15.02   3
   3  -1   6    7.38   16.56   3
  -3  -1  -6    3.08   10.87   3
   3   1   6  -10.15    9.43   3
  -3   1  -6    8.71   14.22   3
   3   1   6   10.06    8.56   3
   3   1   6   -5.54   11.91   1
  -3   1  -6   15.74    9.01   3
  -4  -1  -6   22.17   17.40   3
  -4  -1  -6   33.00   10.53   1
   4  -1   6   30.65   18.86   3
  -4  -1  -6    9.14   14.27   3
   4  -1   6   40.48   14.73   3
  -4   1  -6   27.74   14.75   3
   4   1   6   38.17   10.21   3
   4   1   6   20.18   13.48   1
  -5  -1  -6   38.93   21.23   3
   5  -1   6   47.78   19.04   3
  -5  -1  -6   35.06   11.53   1
  -5  -1  -6   48.44   18.09   3
   5  -1   6   56.60   17.69   3
   5   1   6   54.31   14.45   3
   5   1   6   35.28   13.60   1
  -5   1  -6   50.26   18.59   3
  -6  -1  -6  -15.62   20.56   3
  -6  -1  -6    8.08   11.82   1
  -6  -1  -6   16.84   11.96   3
   6  -1   6   -7.49   22.24   3
   6  -1   6   18.21   18.20   3
   6   1   6   14.88   14.31   1
   6   1   6   31.16   15.49   3
  -6   1  -6   -1.43   19.59   3
  -7  -1  -6   18.22   25.80   3
  -7  -1  -6   28.42   13.01   3
   7  -1   6   38.82   22.85   3
   7  -1   6    5.50   22.70   3
  -7   1  -6   -9.56   19.42   3
   7   1   6   16.78   16.86   3
   7   1   6   25.62   25.48   3
   7   1   6   -6.05   14.70   1
  -8  -1  -6   32.71   15.77   1
  -8  -1  -6   35.20   14.74   3
   8  -1   6   60.74   27.12   3
  -8  -1  -6   74.73   28.84   3
   8   1   6   50.13   25.51   3
   8   1   6   63.18   25.56   3
  -8   1  -6   50.83   25.73   3
  -9  -1  -6   11.72   16.75   1
   9  -1   6    3.10   27.00   3
  -9  -1  -6   17.51   16.31   3
  -9  -1  -6   11.39   31.77   3
   9  -1   6   12.65   27.46   3
   9   1   6    1.80   28.52   3
  -9   1  -6   -9.67   14.98   1
   9   1   6    6.38   26.36   3
  -9   1  -6  -15.98   25.06   3
 -10  -1  -6   58.48   20.37   3
  10  -1   6   -2.28   27.72   3
 -10  -1  -6   49.38   32.69   3
  10  -1   6   -6.09   34.31   3
  10   1   6   16.28   30.37   3
 -10   1  -6   48.77   21.31   3
 -10   1  -6   -9.69   16.47   1
  10   1   6  -52.89   33.90   3
 -10   1  -6   12.90   29.55   3
  11  -1   6   23.65   36.52   3
 -11  -1  -6   -6.01   24.27   3
  11  -1   6   -9.32   36.33   3
 -11  -1  -6   -6.87   34.75   3
  11   1   6   35.76   31.90   3
 -11   1  -6   17.68   17.51   1
  11   1   6   26.70   34.96   3
 -11   1  -6   -9.67   24.98   3
 -11   1  -6   22.03   31.13   3
 -12  -1  -6    4.14   36.47   3
  12  -1   6  -43.29   43.59   3
  12  -1   6    9.14   39.34   3
 -12  -1  -6   -1.42   24.30   3
  12   1   6   21.74   38.96   3
 -12   1  -6   36.11   31.04   3
 -12   1  -6   75.25   32.39   3
  12   1   6   32.87   37.42   3
 -12   1  -6    2.34   20.21   1
 -13  -1  -6    0.87   39.19   3
  13  -1   6   25.07   53.69   3
  13  -1   6  -65.49   48.44   3
  13   1   6  -52.60   46.46   3
 -13   1  -6   63.10   37.96   3
  13   1   6   -6.67   45.81   3
 -13   1  -6   18.60   37.23   3
 -13   1  -6  -19.33   20.70   1
  14  -1   6   -8.23   53.06   3
  14  -1   6   85.51   58.40   3
 -14  -1  -6  -17.32   44.45   3
 -14   1  -6    2.54   43.05   3
 -14   1  -6   35.93   23.86   1
  14   1   6  -74.25   51.46   3
  14   1   6  -90.86   48.16   3
  16  -2  -6  433.38   74.67   3
 -16  -2   6  330.79   52.29   2
 -16  -2   6  568.09  107.24   3
  16   2  -6  389.89   64.58   3
  16   2  -6  276.43   37.78   1
 -16   2   6  247.61   74.78   3
 -16   2   6  499.33   97.11   3
  15  -2  -6  373.87   63.98   3
 -15  -2   6  443.95   62.49   3
 -15  -2   6  410.75   57.48   2
 -15  -2   6  433.23   77.31   3
  15   2  -6  316.31   64.96   3
  15   2  -6  405.59   39.15   1
 -15   2   6  515.39   69.97   3
  14  -2  -6  226.37   44.16   3
 -14  -2   6  251.72   41.57   2
  14  -2  -6  357.61   46.17   2
 -14  -2   6  265.58   65.02   3
 -14   2   6  153.40   48.38   3
  14   2  -6  229.45   30.71   1
 -14   2   6  268.76   62.06   3
  14   2  -6  260.62   42.94   3
 -13  -2   6  562.32   53.10   3
  13  -2  -6  372.70   50.98   2
  13  -2  -6  517.82   56.78   3
 -13  -2   6  527.51   51.61   2
 -13  -2   6  530.40   77.51   3
  13   2  -6  436.52   56.70   3
 -13   2   6  424.67   63.14   3
 -13   2   6  565.91   79.76   3
  13   2  -6  544.80   39.05   1
  12  -2  -6  313.62   41.48   2
 -12  -2   6  375.17   42.45   3
 -12  -2   6  310.91   43.71   2
 -12  -2   6  403.88   65.01   3
  12  -2  -6  315.81   47.82   3
  12   2  -6  356.41   48.55   3
 -12   2   6  277.33   52.89   3
 -12   2   6  387.03   66.64   3
  11  -2  -6  509.94   50.08   3
 -11  -2   6  505.53   46.75   3
 -11  -2   6  600.80   67.08   3
 -11  -2   6  512.05   49.48   2
 -11   2   6  507.56   54.29   3
  11   2  -6  439.84   49.97   3
 -11   2   6  545.86   63.74   3
 -10  -2   6  593.99   66.87   3
  10  -2  -6  606.84   50.31   3
 -10  -2   6  553.93   46.35   3
 -10  -2   6  507.02   48.96   2
 -10   2   6  601.70   63.19   3
 -10   2   6  554.78   52.14   3
  10   2  -6  524.89   50.54   3
   9  -2  -6  724.68   53.12   3
  -9  -2   6  675.71   54.86   2
  -9  -2   6  661.49   49.24   3
  -9  -2   6  655.07   70.11   3
  -9   2   6  629.08   64.88   3
   9   2  -6  683.28   55.83   3
  -9   2   6  662.63   54.41   3
   9   2  -6  793.59   53.69   3
   8  -2  -6  745.56   52.18   3
  -8  -2   6  708.90   56.92   2
   8  -2  -6  706.06   53.00   3
  -8  -2   6  707.03   50.83   3
  -8  -2   6  750.49   65.22   3
  -8   2   6  840.53   55.01   3
   8   2  -6  756.59   57.28   3
  -8   2   6  764.45   62.66   3
   7  -2  -6  525.02   35.20   3
  -7  -2   6  410.46   53.63   3
  -7  -2   6  348.74   35.15   3
   7  -2  -6  416.39   36.24   3
  -7  -2   6  445.51   41.59   2
  -7   2   6  460.01   38.08   3
   7   2  -6  404.61   40.83   3
  -7   2   6  378.51   45.66   3
  -6  -2   6  860.12   71.10   3
   6  -2  -6  950.60   57.68   3
   6  -2  -6  887.53   58.75   3
  -6  -2   6  945.27   63.19   2
  -6  -2   6  914.57   59.26   3
   6   2  -6  857.99   62.03   3
  -6   2   6  951.78   54.96   1
  -6   2   6  912.40   58.14   3
  -6   2   6  884.59   63.22   3
   6   2  -6  998.82   59.45   3
  -5  -2   6  528.54   51.90   3
  -5  -2   6  560.80   39.93   3
  -5  -2   6  573.35   45.42   2
   5  -2  -6  585.69   41.10   3
   5  -2  -6  587.08   39.60   3
   5   2  -6  543.04   44.29   3
  -5   2   6  603.69   39.60   3
  -5   2   6  583.14   37.66   1
   4  -2  -6  800.26   53.24   3
   4  -2  -6  851.46   54.15   3
  -4  -2   6  853.30   54.42   3
  -4  -2   6  815.55   62.21   3
   4   2  -6  909.52   54.86   3
  -4   2   6  898.43   51.87   1
  -4   2   6  875.41   52.69   3
   4   2  -6  796.08   56.28   3
   3  -2  -6 1202.58   70.57   3
  -3  -2   6 1147.31   71.09   3
  -3  -2   6 1149.18   76.54   3
   3  -2  -6 1111.83   71.27   3
  -3   2   6 1195.98   69.14   3
   3   2  -6 1131.74   72.24   3
  -3   2   6 1212.93   68.73   1
  -3   2   6 1217.16   69.79   3
   3   2  -6 1200.92   70.78   3
   2  -2  -6  565.90   43.56   3
  -2  -2   6  571.99   40.29   3
  -2  -2   6  570.76   48.40   3
   2   2  -6  583.95   39.40   3
  -2   2   6  661.90   38.52   3
  -2   2   6  589.28   38.35   3
  -2   2   6  611.18   39.60   1
   2   2  -6  554.66   42.40   3
   1  -2  -6 1091.11   68.80   3
   1  -2  -6 1093.40   67.60   3
  -1  -2   6 1195.21   68.47   3
  -1  -2   6 1060.70   72.04   3
   1   2  -6 1089.06   69.78   3
   1   2  -6 1123.56   67.44   3
  -1   2   6 1194.96   66.40   3
  -1   2   6 1151.76   65.79   3
  -1   2   6 1147.96   67.04   1
   0  -2   6  567.54   40.07   3
   0  -2  -6  520.74   41.62   3
   0  -2  -6  539.28   39.89   3
   0   2   6  645.47   37.15   3
   0   2  -6  522.97   41.99   3
   0   2  -6  585.34   38.18   3
   0   2   6  603.53   39.76   1
   0   2   6  566.16   37.35   3
  -1  -2  -6  953.74   62.55   3
   1  -2   6 1104.14   69.26   3
   1  -2   6  980.37   62.97   3
  -1  -2  -6  985.19   63.56   3
   1   2   6 1041.57   62.17   1
  -1   2  -6  955.09   64.62   3
   1   2   6 1099.72   60.00   3
  -1   2  -6  968.12   61.40   3
   1   2   6 1054.98   61.11   3
   2  -2   6  872.17   62.16   3
   2  -2   6  872.78   56.39   3
  -2  -2  -6  790.53   56.36   3
  -2  -2  -6  857.46   56.51   3
   2   2   6  900.35   54.86   3
  -2   2  -6  893.77   54.47   3
  -2   2  -6  863.25   57.71   3
   2   2   6  896.87   53.39   3
   2   2   6  911.88   55.69   1
  -3  -2  -6  377.01   33.38   3
   3  -2   6  394.28   34.36   3
  -3  -2  -6  418.82   38.43   3
   3  -2   6  394.46   43.19   3
  -3   2  -6  464.77   31.82   3
   3   2   6  441.12   34.39   1
  -3   2  -6  423.84   37.31   3
  -4  -2  -6 1243.00   73.17   3
  -4  -2  -6 1231.10   77.89   3
   4  -2   6 1216.19   81.06   3
   4  -2   6 1211.53   75.91   3
   4   2   6 1274.21   74.50   1
  -4   2  -6 1186.79   77.35   3
  -4   2  -6 1241.27   74.53   3
   5  -2   6  273.13   43.78   3
  -5  -2  -6  320.04   39.09   3
   5  -2   6  297.32   36.22   3
  -5  -2  -6  411.58   27.45   3
   5   2   6  286.08   33.72   3
  -5   2  -6  303.26   38.70   3
   5   2   6  362.57   32.43   1
  -6  -2  -6  740.48   44.96   3
   6  -2   6  608.78   59.35   3
   6  -2   6  641.39   53.14   3
  -6  -2  -6  553.28   54.13   3
   6   2   6  667.27   51.14   3
  -6   2  -6  736.16   47.42   3
   6   2   6  606.79   47.01   1
  -6   2  -6  645.47   54.10   3
   6   2   6  698.61   60.98   3
   7  -2   6  785.99   62.51   3
  -7  -2  -6  766.69   63.08   3
   7  -2   6  777.07   68.27   3
  -7  -2  -6  873.60   53.22   3
   7   2   6  825.29   68.74   3
  -7   2  -6  678.03   61.28   3
   7   2   6  803.24   54.72   1
   7   2   6  812.63   60.10   3
  -7   2  -6  838.88   56.41   3
  -8  -2  -6  273.46   48.29   3
   8  -2   6  312.77   49.44   3
   8  -2   6  239.63   48.64   3
   8   2   6  279.52   43.69   3
   8   2   6  250.80   33.49   1
  -8   2  -6  293.25   44.35   3
  -8   2  -6  265.15   34.58   3
   8   2   6  407.42   56.70   3
   9  -2   6  572.60   66.96   3
  -9  -2  -6  632.16   63.87   3
  -9  -2  -6  718.67   50.35   3
   9  -2   6  624.95   64.41   3
  -9   2  -6  790.86   54.58   3
   9   2   6  663.44   51.76   1
  -9   2  -6  693.61   60.58   3
   9   2   6  711.59   71.44   3
   9   2   6  690.40   61.25   3
 -10  -2  -6  267.54   52.86   3
  10  -2   6  227.88   54.61   3
  10  -2   6  251.55   44.18   3
  10   2   6  336.03   47.46   3
  10   2   6  180.19   35.39   1
  10   2   6  329.59   51.57   3
 -10   2  -6  223.90   42.51   3
 -10   2  -6  275.90   42.08   3
  11  -2   6  417.82   61.61   3
  11  -2   6  410.35   54.13   3
 -11  -2  -6  345.29   63.86   3
  11   2   6  402.43   59.16   3
  11   2   6  350.04   70.34   3
 -11   2  -6  370.77   54.83   3
  11   2   6  307.72   41.80   1
  12  -2   6  429.59   64.47   3
  12  -2   6  421.27   74.84   3
 -12  -2  -6  363.26   61.35   3
 -12   2  -6  320.47   37.70   1
 -12   2  -6  306.21   62.35   3
 -12   2  -6  360.36   58.66   3
  12   2   6  322.60   61.33   3
  12   2   6  395.10   63.59   3
  12   2   6  295.51   44.01   1
 -13  -2  -6  293.73   64.88   3
  13  -2   6  322.61   77.54   3
  13  -2   6  276.61   67.19   3
 -13   2  -6  271.54   55.67   3
 -13   2  -6  336.96   58.22   3
  13   2   6  255.57   66.65   3
  13   2   6  298.12   64.87   3
  13  -3  -6  -19.97   41.68   3
  13  -3  -6  133.70   64.74   3
 -13  -3   6   59.54   47.51   3
 -13  -3   6   33.39   64.57   3
 -13  -3   6    8.99   40.41   2
  13   3  -6   71.02   51.22   3
  13   3  -6  195.28   66.65   3
  13   3  -6   67.67   24.46   1
 -13   3   6   22.17   62.62   3
 -12  -3   6   91.07   61.64   3
 -12  -3   6  192.31   48.50   3
 -12  -3   6   73.05   37.51   2
  12  -3  -6   33.75   36.22   3
  12   3  -6   74.08   36.60   3
  12   3  -6  199.68   58.37   3
 -12   3   6   26.76   48.60   3
 -12   3   6  -39.21   61.65   3
 -11  -3   6  214.25   57.55   3
 -11  -3   6  116.97   39.94   3
 -11  -3   6   48.00   33.09   2
  11  -3  -6  127.00   39.61   3
 -11   3   6   42.79   42.33   3
 -11   3   6   32.96   51.33   3
  11   3  -6   95.52   35.63   3
  10  -3  -6   30.97   30.56   3
 -10  -3   6  137.01   30.26   2
 -10  -3   6  118.97   50.92   3
 -10   3   6   65.60   46.75   3
 -10   3   6   69.28   37.96   3
  10   3  -6   75.01   32.38   3
   9  -3  -6   87.34   31.14   3
  -9  -3   6   91.20   32.57   2
  -9  -3   6  114.89   34.98   3
  -9  -3   6  151.36   50.34   3
   9   3  -6   99.13   29.44   3
  -9   3   6   71.09   20.03   1
  -9   3   6  147.46   46.33   3
  -9   3   6   32.62   32.90   3
   8  -3  -6   27.32   25.81   3
  -8  -3   6   49.97   47.50   3
  -8  -3   6   91.90   28.88   2
  -8  -3   6   87.40   32.20   3
  -8   3   6   39.60   40.64   3
   8   3  -6   37.12   27.70   3
  -8   3   6   47.35   17.96   1
  -8   3   6  -12.71   29.32   3
  -7  -3   6   16.03   34.11   3
   7  -3  -6   -3.69   20.49   3
  -7  -3   6   10.31   40.14   3
   7  -3  -6   32.80   24.17   3
  -7   3   6   -2.01   32.25   3
   7   3  -6   -5.36   26.21   3
  -7   3   6   10.17   17.94   1
  -7   3   6  -36.84   22.74   3
   7   3  -6   79.59   30.86   3
   6  -3  -6   -3.96   19.65   3
  -6  -3   6   54.41   39.12   3
   6  -3  -6   41.27   21.20   3
  -6  -3   6   24.40   24.22   3
  -6   3   6  -10.81   17.95   1
  -6   3   6   20.38   30.84   3
   6   3  -6   59.48   21.18   3
  -6   3   6    3.71   28.70   3
   6   3  -6   -3.56   27.75   3
  -5  -3   6   79.42   37.03   3
   5  -3  -6   89.69   20.26   3
  -5  -3   6   57.37   24.01   3
   5  -3  -6   23.44   22.89   3
   5   3  -6   34.53   23.51   3
  -5   3   6   65.18   26.91   3
  -5   3   6   48.44   31.97   3
  -5   3   6   19.94   18.81   1
  -4  -3   6    3.93   23.95   3
   4  -3  -6   20.18   23.06   3
  -4  -3   6   12.23   35.22   3
  -4   3   6   20.09   21.02   3
  -4   3   6    9.22   17.29   1
   4   3  -6   -2.45   23.68   3
  -4   3   6   16.65   29.39   3
  -3  -3   6  -20.51   21.95   3
  -3  -3   6    4.66   37.01   3
   3   3  -6  -16.04   22.56   3
  -3   3   6   -5.38   31.51   3
  -3   3   6   13.11   18.48   1
  -3   3   6   23.77   19.04   3
  -2  -3   6   18.21   22.20   3
   2  -3  -6   25.12   24.71   3
  -2  -3   6   26.45   38.31   3
   2   3  -6    7.54   21.09   3
  -2   3   6   46.57   16.21   3
  -2   3   6   34.15   17.53   1
  -2   3   6    6.16   31.22   3
  -1  -3   6    6.17   22.97   3
   1  -3  -6  -24.44   23.68   3
  -1  -3   6  -30.14   37.39   3
  -1   3   6  -35.99   32.40   3
   1   3  -6   -5.11   22.09   3
  -1   3   6   13.23   16.99   3
  -1   3   6   -4.43   17.13   1
   0  -3  -6   85.42   26.76   3
   0  -3   6   17.90   36.29   3
   0  -3   6   22.97   21.33   3
   0   3   6   53.20   21.47   3
   0   3   6   54.19   19.51   1
   0   3   6   52.40   34.64   3
   0   3  -6   14.80   26.12   3
  -1  -3  -6   83.93   25.00   3
   1  -3   6   16.50   25.11   3
   1   3   6   26.35   33.78   3
   1   3   6   24.19   20.05   3
   1   3   6   52.55   19.18   1
  -1   3  -6   -5.07   24.18   3
  -2  -3  -6   18.91   24.66   3
   2  -3   6   12.73   25.11   3
   2  -3   6   19.92   34.38   3
   2   3   6   -7.45   31.89   3
   2   3   6   16.68   17.83   1
  -2   3  -6  -10.41   27.24   3
  -3  -3  -6   15.80   26.42   3
   3  -3   6   26.86   32.60   3
   3  -3   6   20.51   28.59   3
   3   3   6   28.85   18.63   1
  -3   3  -6   30.02   27.18   3
   3   3   6   43.17   33.70   3
   3   3   6   37.96   23.57   3
   4  -3   6  -30.98   27.51   3
   4  -3   6   10.87   32.60   3
  -4  -3  -6   36.37   29.56   3
   4   3   6  -13.73   16.50   1
   4   3   6   15.34   31.17   3
  -4   3  -6  -21.97   23.02   3
   4   3   6  -17.56   24.95   3
   5  -3   6   16.91   33.52   3
   5  -3   6   11.55   31.53   3
  -5  -3  -6   71.45   31.33   3
   5   3   6   16.91   19.47   1
   5   3   6   25.72   27.57   3
   5   3   6   46.69   32.50   3
  -5   3  -6   28.93   30.08   3
   6  -3   6   -4.09   34.72   3
  -6  -3  -6   25.39   31.35   3
   6  -3   6   52.23   40.93   3
  -6   3  -6    2.18   29.42   3
  -6   3  -6   19.86   29.55   3
   6   3   6   -3.89   32.50   3
   6   3   6    5.26   19.88   1
   6   3   6   -5.69   33.84   3
  -7  -3  -6   54.50   36.79   3
   7  -3   6  106.01   36.63   3
   7  -3   6   42.00   45.54   3
   7   3   6   32.53   21.80   1
  -7   3  -6   30.88   32.73   3
   7   3   6   67.67   38.80   3
   8  -3   6   35.82   49.15   3
  -8  -3  -6   56.04   39.18   3
   8   3   6   50.50   45.63   3
   9  -3   6  -46.51   57.90   3
   9  -3   6   40.43   47.11   3
  -9  -3  -6   50.01   43.45   3
  -9   3  -6   59.33   41.11   3
   9   3   6   42.69   49.29   3
  -9   3  -6   37.86   36.34   3
   9   3   6   11.59   27.65   1
 -10  -3  -6   64.95   51.20   3
  10  -3   6  -71.31   59.20   3
  10  -3   6   36.42   56.38   3
  10   3   6  -53.57   48.97   3
  10   3   6   22.05   58.53   3
  10   3   6   46.94   29.67   1
 -10   3  -6   -5.58   42.15   3
 -10   3  -6  -10.90   45.64   3
  11  -3   6   64.89   72.91   3
 -11  -3  -6  -80.40   52.98   3
  11  -3   6  -60.70   71.22   3
  11   3   6  -19.72   76.24   3
  11   3   6    2.92   32.36   1
  11   3   6   55.45   64.13   3
 -11   3  -6   -6.48   55.73   3
 -11   3  -6   20.59   54.73   3
  -9  -4   6  138.81   51.29   2
  -9  -4   6  397.78   86.13   3
   9  -4  -6  242.43   57.12   3
   9  -4  -6  209.98   47.39   3
  -9   4   6  287.68   70.96   3
  -9   4   6  258.14   37.13   1
   9   4  -6  362.73   69.42   3
  -9   4   6  141.48   53.46   3
  -8  -4   6  231.77   80.39   3
  -8  -4   6  287.70   66.02   3
  -8  -4   6  168.07   49.64   2
   8  -4  -6  228.63   49.52   3
  -8   4   6  358.29   62.23   3
   8   4  -6  258.45   55.38   3
  -8   4   6  285.89   44.53   1
  -8   4   6  220.27   53.77   3
  -7  -4   6  179.76   66.58   3
  -7  -4   6  280.92   59.01   3
   7  -4  -6  216.26   44.57   3
  -7   4   6  231.46   53.42   3
   7   4  -6  258.26   56.20   3
  -7   4   6  316.35   55.56   3
  -7   4   6  165.97   33.79   1
   6  -4  -6  329.20   54.08   3
  -6  -4   6  485.78   73.46   3
  -6  -4   6  599.53   85.18   3
   6  -4  -6  519.55   59.11   3
  -6   4   6  482.27   69.77   3
  -6   4   6  369.13   46.95   1
   6   4  -6  431.12   67.55   3
  -6   4   6  267.66   56.20   3
  -5  -4   6  409.61   60.36   3
  -5  -4   6  396.21   71.06   3
  -5   4   6  262.64   42.92   1
  -5   4   6  369.60   51.51   3
  -5   4   6  412.53   62.77   3
   5   4  -6  281.15   52.24   3
  -4  -4   6  457.82   82.31   3
  -4  -4   6  388.78   67.11   3
  -4   4   6  255.86   49.27   3
  -4   4   6  362.43   45.24   1
  -4   4   6  435.77   72.15   3
   4   4  -6  351.92   58.12   3
  -3  -4   6  625.15   84.42   3
  -3  -4   6  842.85   76.63   3
   3  -4  -6  586.28   61.01   3
  -3   4   6  687.28   55.30   1
   3   4  -6  652.41   67.43   3
  -3   4   6  573.36   59.24   3
   2  -4  -6  317.22   50.86   3
  -2  -4   6  285.12   57.76   3
  -2  -4   6  317.82   63.12   3
   2   4  -6  302.22   56.14   3
  -2   4   6  295.84   44.38   3
  -2   4   6  359.53   71.62   3
  -2   4   6  326.46   43.43   1
  -1  -4   6  207.81   45.92   3
   1  -4  -6  157.00   42.71   3
  -1  -4   6   98.90   50.45   3
  -1   4   6  152.34   31.82   1
  -1   4   6  224.03   51.59   3
   1   4  -6  178.12   41.77   3
  -1   4   6  167.02   34.42   3
   0  -4  -6  181.03   40.42   3
   0  -4   6  238.78   61.02   3
   0  -4   6  282.61   50.14   3
   0   4  -6  407.23   67.47   3
   0   4  -6  216.95   47.99   3
   0   4   6  221.62   34.43   1
   0   4   6  294.48   50.73   3
   0   4   6  256.19   43.95   3
  -1  -4  -6  413.83   54.04   3
   1  -4   6  426.56   75.03   3
   1  -4   6  449.25   65.37   3
   1   4   6  473.14   66.82   3
   1   4   6  391.72   46.32   1
   1   4   6  390.22   51.38   3
  -1   4  -6  436.35   58.53   3
  -2  -4  -6  623.15   62.92   3
   2  -4   6  548.87   63.56   3
   2   4   6  729.42   78.70   3
   2   4   6  563.63   59.11   3
  -2   4  -6  528.90   63.27   3
   2   4   6  455.97   50.06   1
   3  -4   6  449.27   65.08   3
  -3  -4  -6  434.84   61.73   3
   3   4   6  485.90   51.42   1
  -3   4  -6  483.89   63.33   3
  -3   4  -6  619.88   70.16   3
   3   4   6  590.36   82.37   3
   3   4   6  442.83   58.42   3
   4  -4   6  224.94   47.33   3
  -4  -4  -6  322.03   51.95   3
   4  -4   6  235.24   67.28   3
   4   4   6  193.30   35.60   1
   4   4   6  288.85   54.19   3
   4   4   6  358.01   61.18   3
  -4   4  -6  227.59   50.08   3
  -5  -4  -6  196.21   50.49   3
   5  -4   6  111.53   63.19   3
   5  -4   6  132.32   48.33   3
  -5   4  -6   19.70   60.04   3
   5   4   6   96.39   55.58   3
  -5   4  -6   62.13   46.85   3
   5   4   6  134.71   32.01   1
   6  -4   6  118.67   71.22   3
   6  -4   6   87.41   58.95   3
  -6  -4  -6  127.32   51.79   3
   6   4   6  125.92   56.46   3
  -6   4  -6  162.31   56.43   3
   6   4   6   67.97   32.79   1
  -6   4  -6  138.88   61.12   3
 -17   0   7   56.27   36.79   3
  17   0  -7    2.92   40.26   3
 -17   0   7  -35.11   62.61   3
 -15   0   7    7.94   28.01   3
  15   0  -7   74.42   34.22   3
 -15   0   7   20.14   48.27   3
  15   0  -7   -4.49   26.90   3
 -14   0   7   58.92   27.80   3
 -14   0   7  -32.12   41.73   3
  13   0  -7   -9.19   17.49   2
 -13   0   7   12.22   23.64   3
 -13   0   7   14.96   40.07   3
  13   0  -7    0.74   25.34   3
 -12   0   7   -6.54   17.00   3
  12   0  -7   -8.07   16.28   2
  12   0  -7   37.33   21.53   3
 -12   0   7  -15.80   36.22   3
  12   0  -7    2.20   25.25   3
 -11   0   7   -0.63   35.50   3
 -11   0   7   -8.56   15.27   3
  11   0  -7   -4.57   13.01   2
  11   0  -7   24.83   18.43   3
  11   0  -7  -10.58   21.27   3
 -10   0   7   18.78   11.35   3
 -10   0   7   -7.46   28.31   3
  10   0  -7   14.52   19.50   3
  10   0  -7   29.42   14.15   2
  10   0  -7  -10.46   13.28   3
   9   0  -7   23.57   11.91   2
  -9   0   7   -8.47   28.13   3
  -9   0   7  -19.11   11.20   3
   9   0  -7   -1.76   12.02   3
   9   0  -7   -9.57   17.33   3
  -8   0   7    2.60    9.93   3
   8   0  -7   17.73   15.53   3
  -8   0   7   -1.38   25.24   3
   8   0  -7  -13.02   11.48   2
   7   0  -7    7.70   12.88   2
   7   0  -7    3.69   14.61   3
  -7   0   7   16.51    8.74   3
   7   0  -7   12.02   11.98   3
  -6   0   7    0.74    8.45   3
  -6   0   7   37.06   15.73   3
   6   0  -7    3.32   12.95   3
   6   0  -7   -4.15   14.34   3
   6   0  -7    7.05   12.16   2
  -5   0   7    1.42    6.85   3
   5   0  -7   -5.80   10.63   2
  -5   0   7   17.89   12.69   3
   5   0  -7    8.69   12.82   3
   5   0  -7    9.60   13.26   3
  -4   0   7   -7.93    6.62   3
   4   0  -7    1.82   12.54   2
   4   0  -7  -20.16   11.32   3
   4   0  -7   -6.95   11.83   3
  -4   0   7  -11.44   12.23   3
   3   0  -7    2.66   10.94   2
   2   0  -7   -0.18   10.12   2
   1   0  -7    4.70    9.59   2
   0   0  -7    6.52    9.48   2
  -1   0  -7    4.07   10.79   1
  -1   0  -7    0.05    9.53   2
   2   0   7   -3.00   11.17   3
  -2   0  -7  -13.06   10.63   1
  -2   0  -7    1.29   10.04   3
  -2   0  -7   -0.83   12.39   3
  -2   0  -7   -8.52    7.11   2
   2   0   7    4.88    7.24   3
  -3   0  -7   10.91   11.19   1
  -3   0  -7    5.77   13.47   3
  -3   0  -7   18.16   12.50   3
   3   0   7   11.59    7.88   3
  -4   0  -7   -6.25   14.06   3
   4   0   7    1.12    8.05   3
  -4   0  -7  -18.26   10.99   1
   4   0   7   -3.09   12.19   3
  -4   0  -7   -5.06   16.14   3
   5   0   7   -5.24   14.84   3
  -5   0  -7    5.76   16.86   3
  -5   0  -7  -12.22   13.17   1
  -5   0  -7   14.84   21.55   3
   6   0   7  -20.84   17.23   3
  -6   0  -7    8.14   13.55   1
  -6   0  -7   12.85   20.03   3
   7   0   7   -7.73   21.28   3
   7   0   7   31.46   20.09   3
  -7   0  -7   21.95   14.54   1
  -7   0  -7  -24.92   19.36   3
  -8   0  -7   19.73   13.96   1
   8   0   7   22.41   21.21   3
  -8   0  -7    0.67   21.45   3
   8   0   7   14.43   24.37   3
  -8   0  -7   31.02   15.52   3
   9   0   7   -2.36   27.53   3
  -9   0  -7   24.68   16.18   1
  -9   0  -7   34.56   16.49   3
   9   0   7    7.34   25.06   3
  -9   0  -7   -4.14   24.62   3
 -10   0  -7   -4.61   18.18   1
  10   0   7   -5.32   29.37   3
  10   0   7  -27.23   27.49   3
 -10   0  -7   -5.92   26.15   3
  11   0   7  -30.21   30.02   3
  11   0   7    3.47   31.24   3
 -11   0  -7   21.60   18.92   1
 -11   0  -7   13.72   21.87   3
 -11   0  -7  -21.57   29.33   3
 -12   0  -7   41.41   24.29   3
  12   0   7  -49.88   37.72   3
  12   0   7   58.42   35.45   3
 -12   0  -7   45.74   21.36   1
 -12   0  -7   17.65   33.04   3
 -13   0  -7   33.25   26.84   3
  13   0   7  -41.16   46.46   3
 -13   0  -7   62.20   22.25   1
  13   0   7  103.71   41.36   3
 -14   0  -7    8.10   34.24   3
  14   0   7   49.91   50.96   3
 -14   0  -7  -28.65   44.66   3
 -14   0  -7   91.43   24.61   1
 -17  -1   7  732.12   73.21   3
 -17  -1   7  532.25   94.30   3
  17  -1  -7  550.91   73.48   3
 -17   1   7  560.96  108.06   3
 -17   1   7  607.14   75.23   3
  17   1  -7  414.09   68.95   3
 -16  -1   7  453.32   83.45   3
  16  -1  -7  679.28   80.13   3
  16  -1  -7  521.70   64.94   3
  16  -1  -7  703.36   51.93   2
 -16  -1   7  591.97   64.69   3
 -16   1   7  622.82   67.84   3
  16   1  -7  505.74   65.70   3
 -16   1   7  513.78   96.39   3
  15  -1  -7  240.40   48.66   3
 -15  -1   7  306.54   48.34   3
  15  -1  -7  277.45   42.68   2
 -15  -1   7  374.31   63.81   3
 -15   1   7  309.50   50.68   3
  15   1  -7  274.71   50.41   3
 -14  -1   7  869.42   62.01   2
  14  -1  -7  772.76   66.35   3
  14  -1  -7  782.33   59.49   2
 -14  -1   7  745.76   86.15   3
 -14  -1   7  729.31   63.11   3
  14   1  -7  689.48   65.41   3
 -14   1   7  863.60   86.66   3
 -14   1   7  797.00   64.67   3
  14   1  -7  956.32   74.94   3
  13  -1  -7  660.06   56.33   3
 -13  -1   7  630.14   77.17   3
  13  -1  -7  608.99   48.82   2
 -13  -1   7  652.25   53.75   2
 -13  -1   7  584.29   51.76   3
 -13   1   7  646.77   74.50   3
  13   1  -7  537.30   56.67   3
 -13   1   7  714.65   56.93   3
 -12  -1   7 1415.30  109.62   3
  12  -1  -7 1401.25   90.29   2
 -12  -1   7 1353.42   90.26   3
 -12  -1   7 1382.28   93.51   2
  12  -1  -7 1430.20   93.78   3
 -12   1   7 1518.09  104.05   3
 -12   1   7 1504.96   93.96   3
  12   1  -7 1371.81   94.02   3
  12   1  -7 1653.89   95.28   3
  11  -1  -7 1131.42   77.87   3
 -11  -1   7 1183.79   94.69   3
  11  -1  -7 1315.05   79.44   3
  11  -1  -7 1130.74   74.95   2
 -11  -1   7 1106.93   79.30   2
 -11  -1   7 1135.33   75.10   3
 -11   1   7 1107.23   78.21   3
  11   1  -7 1279.09   76.48   3
 -11   1   7 1186.18   87.39   3
  11   1  -7 1180.69   78.99   3
  10  -1  -7  557.68   45.26   2
  10  -1  -7  656.28   48.83   3
 -10  -1   7  557.42   51.02   2
  10  -1  -7  570.99   47.19   3
 -10  -1   7  509.50   41.65   3
 -10  -1   7  526.02   64.60   3
  10   1  -7  538.15   48.03   3
 -10   1   7  571.33   56.94   3
 -10   1   7  630.81   47.65   3
   9  -1  -7 1178.61   72.92   3
  -9  -1   7 1135.69   75.69   2
   9  -1  -7 1236.99   73.66   3
  -9  -1   7 1088.74   82.04   3
  -9  -1   7 1130.04   69.73   3
   9  -1  -7 1107.42   72.79   2
  -9   1   7 1150.87   78.89   3
  -9   1   7 1159.89   71.82   3
   9   1  -7 1210.68   70.93   3
   9   1  -7 1071.72   73.55   3
  -8  -1   7  801.68   52.94   3
  -8  -1   7  846.15   59.14   2
   8  -1  -7  851.24   55.49   3
   8  -1  -7  813.91   56.36   2
  -8  -1   7  896.82   65.91   3
   8  -1  -7  970.17   58.25   3
  -8   1   7  826.64   54.50   3
   8   1  -7  816.93   56.32   3
   8   1  -7  847.04   53.99   3
   7  -1  -7 2804.26  152.54   2
   7  -1  -7 2684.94  149.50   3
  -7  -1   7 2628.49  149.36   3
   7  -1  -7 2578.74  153.95   3
  -7  -1   7 2700.34  154.25   3
  -7  -1   7 2824.43  152.99   2
   7   1  -7 2679.76  150.80   3
  -7   1   7 2533.78  149.29   3
  -7   1   7 2519.10  149.46   3
   7   1  -7 2817.31  150.66   3
   6  -1  -7 1741.84  104.43   3
  -6  -1   7 1907.59  104.08   2
  -6  -1   7 1700.88  105.00   3
   6  -1  -7 1727.13   99.67   3
  -6  -1   7 1769.92  100.21   3
  -6   1   7 1693.10   98.80   3
   6   1  -7 1930.79  101.09   3
  -6   1   7 1570.22   99.37   3
   6   1  -7 1830.99  101.64   3
   5  -1  -7 1101.27   65.44   3
  -5  -1   7 1224.34   70.87   2
  -5  -1   7 1163.45   66.24   3
   5  -1  -7 1137.23   69.57   3
   5   1  -7 1150.37   67.88   3
   5   1  -7 1212.11   67.46   3
  -5   1   7 1062.88   64.48   3
  -5   1   7 1035.37   65.51   3
  -4  -1   7 1533.47   87.48   2
   4  -1  -7 1432.35   82.50   3
   4  -1  -7 1564.60   82.26   1
   4  -1  -7 1475.51   84.90   3
  -4  -1   7 1534.01   84.03   3
  -4   1   7 1533.38   82.25   3
   4   1  -7 1386.19   84.59   3
  -4   1   7 1329.16   82.43   3
   4   1  -7 1492.04   84.88   3
   3  -1  -7  708.45   42.18   3
   3  -1  -7  750.39   42.39   1
  -3  -1   7  712.60   45.33   3
   3  -1  -7  661.74   43.91   3
  -3  -1   7  730.47   48.15   2
  -3  -1   7  765.79   43.73   3
   3   1  -7  687.03   46.28   3
  -3   1   7  709.44   41.17   3
   3   1  -7  668.38   44.31   3
  -3   1   7  739.98   44.38   1
  -2  -1   7 3937.77  208.42   3
  -2  -1   7 3605.56  207.55   3
  -2  -1   7 3811.76  209.80   2
   2  -1  -7 3932.70  207.52   1
  -2   1   7 3896.58  207.88   1
   2   1  -7 3734.18  208.15   3
   2   1  -7 3721.11  207.84   3
  -1  -1   7 3101.92  173.51   2
   1  -1  -7 3240.59  172.16   1
  -1  -1   7 3114.79  171.91   3
  -1  -1   7 3151.99  172.18   3
   1   1  -7 3083.06  172.03   3
   1   1  -7 3129.33  172.31   3
  -1   1   7 3115.67  172.29   1
   0  -1   7 1660.96   93.32   3
   0  -1  -7 1768.86   94.29   1
   0  -1   7 1602.13   94.62   2
   0   1  -7 1626.48   93.85   3
   0   1   7 1637.92   94.18   1
   0   1  -7 1649.41   93.90   3
  -1  -1  -7  768.88   49.51   1
  -1  -1  -7  774.56   47.84   3
  -1  -1  -7  784.29   46.63   3
   1  -1   7  875.16   49.15   3
   1  -1   7  742.38   47.98   3
   1  -1   7  788.54   49.76   2
  -1   1  -7  815.83   49.74   3
   1   1   7  858.72   50.50   1
  -1   1  -7  793.21   49.35   3
   2  -1   7  406.31   33.27   3
   2  -1   7  403.69   30.47   2
  -2  -1  -7  381.12   30.56   3
  -2  -1  -7  465.67   31.29   1
   2  -1   7  400.06   29.22   3
  -2  -1  -7  396.90   28.24   3
  -2   1  -7  406.81   31.27   3
   2   1   7  438.92   27.70   3
   2   1   7  397.26   26.79   3
   2   1   7  426.23   31.73   1
  -3  -1  -7 2371.63  139.82   3
   3  -1   7 2479.94  138.03   2
   3  -1   7 2304.34  139.26   3
  -3  -1  -7 2525.46  138.09   3
  -3  -1  -7 2729.25  140.23   1
  -3   1  -7 2442.32  138.66   3
  -3   1  -7 2564.83  140.24   3
   3   1   7 2686.51  138.62   3
   3   1   7 2294.08  137.39   3
   3   1   7 2585.17  139.79   1
  -4  -1  -7 1564.76  100.30   3
  -4  -1  -7 1755.56   98.48   3
  -4  -1  -7 1856.81   99.40   1
   4  -1   7 1570.07   99.20   3
   4   1   7 1854.09   99.61   1
   4   1   7 1713.55   98.29   3
  -4   1  -7 1812.00  100.55   3
   4   1   7 1571.92   97.29   3
  -4   1  -7 1832.75   98.55   3
  -5  -1  -7 1886.07  123.03   3
   5  -1   7 2119.52  123.51   3
  -5  -1  -7 2158.24  120.57   1
   5  -1   7 2061.39  122.58   3
  -5  -1  -7 2130.08  121.45   3
  -5   1  -7 2248.76  122.82   3
   5   1   7 2036.06  119.13   3
   5   1   7 2270.69  121.25   1
  -5   1  -7 2202.25  120.57   3
   5   1   7 2113.63  120.33   3
   6  -1   7 1005.12   70.17   3
  -6  -1  -7  986.96   71.86   3
   6  -1   7 1043.56   71.84   3
  -6  -1  -7 1105.42   69.25   3
  -6  -1  -7 1071.23   65.95   1
   6   1   7 1089.28   64.28   3
  -6   1  -7 1158.21   65.06   3
  -6   1  -7 1066.89   69.43   3
   6   1   7 1013.98   66.35   3
   7  -1   7  171.03   33.21   3
  -7  -1  -7  145.92   30.40   3
  -7  -1  -7  112.36   23.52   3
  -7  -1  -7  169.59   23.47   1
   7  -1   7  219.80   35.07   3
  -7   1  -7  157.82   29.42   3
  -7   1  -7  196.69   24.26   3
   7   1   7  183.75   30.25   3
  -8  -1  -7  984.18   59.60   3
  -8  -1  -7  816.47   58.90   1
  -8  -1  -7  953.60   70.48   3
   8  -1   7  989.67   71.92   3
   8  -1   7  852.78   70.01   3
  -8   1  -7  960.46   66.45   3
   8   1   7  915.46   65.62   3
   8   1   7  842.36   67.87   3
   9  -1   7  664.73   66.86   3
   9  -1   7  904.07   69.04   3
  -9  -1  -7  763.28   65.69   3
  -9  -1  -7  799.78   53.96   3
  -9  -1  -7  791.96   54.32   1
   9   1   7  727.63   64.00   3
  -9   1  -7  889.53   56.10   3
  -9   1  -7  831.58   61.45   3
   9   1   7  842.55   61.51   3
  -9   1  -7  649.32   51.75   1
  10  -1   7 1102.70   87.77   3
 -10  -1  -7 1190.28   75.63   1
  10  -1   7 1321.61   88.12   3
 -10  -1  -7 1193.56   87.62   3
 -10  -1  -7 1254.68   76.54   3
  10   1   7 1158.20   85.21   3
 -10   1  -7 1254.12   77.32   3
  10   1   7 1232.92   83.62   3
 -10   1  -7 1174.73   82.79   3
 -10   1  -7 1085.11   74.57   1
 -11  -1  -7  496.83   45.72   1
  11  -1   7  550.35   64.61   3
 -11  -1  -7  532.95   60.49   3
  11  -1   7  578.97   65.23   3
  11   1   7  535.77   62.15   3
 -11   1  -7  423.75   43.72   1
  11   1   7  582.40   57.07   3
 -11   1  -7  550.98   54.76   3
 -12  -1  -7  319.83   40.08   1
 -12  -1  -7  300.57   51.88   3
  12  -1   7  335.25   53.43   3
  12  -1   7  385.39   65.73   3
 -12  -1  -7  437.82   48.36   3
  12   1   7  356.38   57.29   3
  12   1   7  420.30   55.54   3
 -12   1  -7  457.81   50.81   3
 -12   1  -7  339.39   52.88   3
 -13  -1  -7  444.36   69.77   3
  13  -1   7  600.36   79.90   3
  13  -1   7  648.49   81.15   3
 -13  -1  -7  726.65   58.27   3
 -13   1  -7  566.65   62.76   3
  13   1   7  440.21   77.47   3
 -13   1  -7  545.24   49.00   1
  13   1   7  605.91   70.38   3
 -13   1  -7  613.67   66.22   3
  14  -1   7  207.17   68.14   3
  14  -1   7   93.74   59.31   3
 -14  -1  -7  223.35   58.59   3
 -14  -1  -7  348.03   56.32   3
 -14   1  -7  240.66   43.45   3
 -14   1  -7  122.99   52.10   3
  14   1   7  322.86   65.97   3
  14   1   7  134.04   67.37   3
 -16  -2   7   83.93   74.72   3
 -16   2   7   96.61   61.08   3
 -15  -2   7   82.14   40.33   3
 -15  -2   7  145.22   66.08   3
  15  -2  -7   67.23   37.92   2
 -15  -2   7   89.58   41.13   2
  15  -2  -7   62.01   39.86   3
  15   2  -7   62.01   21.05   1
 -15   2   7   73.38   50.49   3
 -15   2   7  -14.27   68.82   3
  15   2  -7   72.87   40.83   3
  14  -2  -7   64.36   30.04   2
  14  -2  -7   79.81   50.07   3
 -14  -2   7   30.86   32.99   2
  14  -2  -7  -24.48   38.44   3
 -14  -2   7   59.94   35.77   3
 -14  -2   7   29.07   59.16   3
  14   2  -7   21.21   18.33   1
  14   2  -7   15.75   38.05   3
 -13  -2   7  165.67   32.38   3
  13  -2  -7   89.10   36.19   3
 -13  -2   7  134.30   52.23   3
 -13  -2   7  112.87   32.25   2
  13   2  -7  135.41   34.15   3
 -13   2   7   83.21   51.74   3
 -13   2   7  150.38   39.22   3
 -12  -2   7   46.62   26.97   3
  12  -2  -7   47.99   30.09   3
 -12  -2   7   14.76   26.43   2
 -12  -2   7   68.74   45.85   3
  12  -2  -7  -12.12   29.27   2
  12   2  -7  111.80   34.18   3
 -12   2   7   16.92   38.29   3
  12   2  -7   43.55   29.06   3
 -12   2   7   50.32   30.73   3
 -11  -2   7   17.66   40.99   3
 -11  -2   7   29.34   25.62   2
 -11  -2   7   11.64   22.61   3
  11  -2  -7   17.47   27.73   3
  11   2  -7   11.75   25.40   3
 -11   2   7   18.55   25.46   3
 -11   2   7   26.14   40.28   3
 -10  -2   7  243.05   49.96   3
  10  -2  -7  216.02   35.39   3
 -10  -2   7  200.24   38.26   2
  10  -2  -7  231.76   36.48   3
 -10  -2   7  199.79   32.89   3
 -10   2   7  221.14   37.80   3
 -10   2   7  246.46   45.51   3
  10   2  -7  209.64   35.61   3
  -9  -2   7  144.11   26.17   3
  -9  -2   7  125.30   27.13   2
  -9  -2   7  123.02   42.83   3
   9  -2  -7   84.48   23.07   3
  -9   2   7  161.71   27.74   3
  -9   2   7  146.49   39.48   3
   9   2  -7  103.47   28.15   3
   8  -2  -7    5.47   17.03   3
  -8  -2   7    0.87   15.40   3
   8  -2  -7   48.32   21.67   3
  -8  -2   7   18.15   20.10   2
  -8  -2   7  -23.28   34.60   3
  -8   2   7   51.72   20.03   3
  -8   2   7   15.09   29.01   3
   8   2  -7   28.37   25.99   3
   8   2  -7   51.91   17.15   3
   7  -2  -7    5.88   16.98   3
  -7  -2   7    9.55   20.75   2
  -7  -2   7  -17.70   16.48   3
  -7  -2   7   24.67   36.66   3
  -7   2   7   -2.34   19.71   3
   7   2  -7    2.97   22.60   3
  -6  -2   7   25.80   20.42   2
   6  -2  -7   10.02   16.44   3
  -6  -2   7   25.32   14.20   3
  -6  -2   7   58.39   31.99   3
   6  -2  -7   24.43   17.23   3
  -6   2   7   30.16   13.77   1
   6   2  -7    4.83   17.44   3
  -6   2   7   31.38   16.27   3
  -5  -2   7   62.25   20.64   2
   5  -2  -7   92.01   24.70   3
  -5  -2   7   77.46   16.37   3
   5  -2  -7   65.66   18.06   3
  -5  -2   7   41.96   30.22   3
  -5   2   7  102.19   19.53   3
  -5   2   7   53.91   14.74   1
   5   2  -7   46.99   19.89   3
  -4  -2   7   -5.09   11.94   3
   4  -2  -7  -12.05   14.04   3
   4  -2  -7   -6.30   17.91   3
  -4  -2   7   13.76   18.64   2
  -4  -2   7    8.96   27.20   3
   4   2  -7   24.39   11.06   3
   4   2  -7    1.66   17.03   3
  -4   2   7    2.69   12.30   1
  -4   2   7   13.70   11.79   3
  -3  -2   7   51.95   15.56   3
  -3  -2   7   50.54   27.24   3
  -3  -2   7   58.34   19.38   2
   3  -2  -7   64.62   16.71   3
   3  -2  -7   89.85   19.07   3
  -3   2   7   62.16   14.90   1
   3   2  -7   92.54   16.29   3
  -3   2   7   90.73   16.42   3
  -3   2   7   66.57   12.31   3
   3   2  -7   62.95   18.34   3
  -2  -2   7  148.28   29.28   3
  -2  -2   7  132.47   21.42   3
   2  -2  -7  130.73   24.58   3
  -2   2   7  150.03   21.91   1
   2   2  -7  157.97   23.55   3
   2   2  -7  163.03   19.06   3
  -2   2   7  186.64   18.55   3
  -1  -2   7   15.94   13.70   3
   1  -2  -7    6.90   14.72   3
  -1  -2   7   11.58   24.55   3
   1  -2  -7   12.59   15.12   3
  -1   2   7   -0.64    9.96   3
   1   2  -7   14.37   18.37   3
  -1   2   7   37.17   10.82   3
  -1   2   7    4.93   13.28   1
   0  -2  -7   96.63   18.49   3
   0  -2   7  106.30   18.76   3
   0  -2  -7   96.35   19.06   3
   0   2   7   71.59   16.78   1
   0   2  -7   61.69   19.50   3
   0   2   7  115.37   17.13   3
   0   2   7   77.97   13.60   3
  -1  -2  -7    1.64   15.20   3
   1  -2   7   24.64   14.58   3
  -1  -2  -7  -12.54   16.01   3
   1  -2   7   20.89   24.34   3
   1   2   7   -6.65   13.43   3
  -1   2  -7  -26.69   19.50   3
  -1   2  -7   22.92   11.06   3
   1   2   7    9.81   13.92   1
   1   2   7   23.04   10.37   3
   2  -2   7    2.81   24.80   3
  -2  -2  -7   -6.58   17.64   3
   2  -2   7   20.83   14.40   3
  -2  -2  -7   14.28   18.88   3
   2   2   7   13.29   14.36   1
   2   2   7    1.04   13.70   3
  -2   2  -7   -6.40   19.01   3
  -3  -2  -7   36.25   21.88   3
  -3  -2  -7   59.88   22.48   3
   3  -2   7   56.38   17.27   3
   3  -2   7   27.68   26.52   3
  -3   2  -7   13.24   20.68   3
   3   2   7   62.18   16.52   3
   3   2   7   45.92   16.20   1
  -4  -2  -7  185.81   29.06   3
   4  -2   7  205.30   37.45   3
  -4  -2  -7  178.57   32.37   3
   4  -2   7  187.44   28.43   3
  -4   2  -7  209.37   29.55   3
   4   2   7  148.87   27.09   1
  -4   2  -7  211.62   23.98   3
   5  -2   7  324.52   45.28   3
   5  -2   7  255.93   36.29   3
  -5  -2  -7  216.73   37.00   3
  -5  -2  -7  194.25   28.85   3
  -5   2  -7  212.76   34.25   3
   5   2   7  272.22   31.12   3
   5   2   7  187.65   28.86   1
   6  -2   7   31.42   25.79   3
   6  -2   7   12.06   33.54   3
  -6  -2  -7   42.66   27.32   3
   6   2   7   36.14   23.16   3
   6   2   7   28.71   18.99   1
  -6   2  -7   -2.21   23.63   3
   7  -2   7   11.74   37.05   3
  -7  -2  -7   27.04   17.25   3
  -7  -2  -7  -11.61   26.92   3
   7  -2   7   -8.84   30.96   3
   7   2   7    1.32   52.03   3
  -7   2  -7   27.83   18.49   3
   7   2   7   30.87   24.12   3
   7   2   7   -4.21   17.86   1
  -7   2  -7  -12.81   23.61   3
  -8  -2  -7   61.42   34.00   3
   8  -2   7   86.04   42.76   3
   8  -2   7   42.95   36.41   3
   8   2   7   12.87   20.52   1
   8   2   7   73.11   25.31   3
  -8   2  -7   28.85   26.52   3
   8   2   7   49.34   39.65   3
   9  -2   7   90.02   44.29   3
  -9  -2  -7  117.94   36.63   3
   9  -2   7  143.69   48.17   3
   9   2   7  161.17   31.93   3
  -9   2  -7  105.71   35.22   3
   9   2   7  111.30   38.17   3
   9   2   7   86.79   24.94   1
  10  -2   7  220.16   48.60   3
 -10  -2  -7  204.18   51.11   3
  10  -2   7  240.99   46.78   3
  10   2   7  229.21   55.33   3
 -10   2  -7  202.57   40.12   3
  10   2   7  272.25   42.19   3
  10   2   7  206.43   36.34   1
 -10   2  -7  288.12   47.92   3
  11  -2   7  -65.51   57.27   3
  11  -2   7   36.50   44.64   3
 -11  -2  -7    8.78   44.70   3
  11   2   7   49.05   43.88   3
 -11   2  -7   19.48   36.17   3
 -11   2  -7   25.39   40.75   3
  11   2   7    8.86   27.15   1
  11   2   7  -10.74   47.05   3
 -12  -2  -7   30.82   55.32   3
  12  -2   7    0.96   48.62   3
  12  -2   7   70.06   61.66   3
 -12  -2  -7   51.57   32.02   3
  12   2   7  -35.59   48.70   3
 -12   2  -7   12.98   38.48   3
 -12   2  -7   60.00   44.10   3
 -12   2  -7   25.85   26.19   1
  12   2   7  121.63   47.63   3
 -13  -3   7    2.46   42.79   2
  13  -3  -7  175.21   64.33   3
 -13  -3   7   54.44   69.61   3
 -13  -3   7  117.47   52.73   3
  13  -3  -7   31.90   45.63   3
  13   3  -7  288.88   73.89   3
 -13   3   7  -37.66   57.15   3
  13   3  -7   10.93   45.16   3
 -13   3   7  102.83   70.52   3
 -12  -3   7   50.47   40.89   2
 -12  -3   7   65.32   63.72   3
  12  -3  -7   51.06   39.91   3
 -12  -3   7  144.71   45.31   3
  12  -3  -7  143.55   55.64   3
 -12   3   7   67.83   58.21   3
 -12   3   7  -14.23   49.72   3
  12   3  -7   82.91   44.02   3
 -11  -3   7  302.95   65.12   3
  11  -3  -7  260.95   41.19   3
 -11  -3   7  234.68   46.23   2
 -11   3   7  182.05   46.33   3
 -11   3   7  379.67   62.34   3
  11   3  -7  205.90   41.00   3
 -10  -3   7  488.40   58.50   2
 -10  -3   7  492.64   84.36   3
  10  -3  -7  530.59   54.76   3
 -10  -3   7  700.32   62.25   3
  10   3  -7  479.27   59.35   3
 -10   3   7  644.04   60.11   3
 -10   3   7  559.01   42.94   1
 -10   3   7  646.10   75.54   3
  -9  -3   7  488.45   80.84   3
  -9  -3   7  570.22   54.15   3
  -9  -3   7  512.77   54.38   2
   9  -3  -7  639.16   53.72   3
   9  -3  -7  479.21   50.16   3
  -9   3   7  485.22   41.14   1
  -9   3   7  549.20   69.31   3
   9   3  -7  444.54   53.29   3
  -9   3   7  489.08   54.01   3
  -8  -3   7   33.19   28.83   2
   8  -3  -7  109.90   28.07   3
  -8  -3   7  183.10   57.65   3
  -8  -3   7   87.39   34.80   3
   8   3  -7  110.85   33.76   3
  -8   3   7   96.67   44.61   3
  -8   3   7  108.93   21.10   1
  -8   3   7  107.14   36.91   3
   7  -3  -7  141.67   28.79   3
  -7  -3   7  136.07   30.92   2
  -7  -3   7  201.69   52.23   3
  -7  -3   7  188.80   38.45   3
   7   3  -7  129.63   30.13   3
  -7   3   7  163.39   43.89   3
  -7   3   7  154.02   30.14   3
  -7   3   7  144.10   23.36   1
   6  -3  -7  160.06   30.08   3
  -6  -3   7  205.01   49.04   3
  -6  -3   7  124.09   32.30   3
  -6  -3   7  143.68   31.05   2
   6   3  -7  242.99   39.50   3
  -6   3   7  180.80   25.04   1
  -6   3   7  240.76   35.87   3
  -6   3   7  170.19   42.47   3
   5  -3  -7  501.46   45.28   3
  -5  -3   7  584.46   66.73   3
  -5  -3   7  502.96   52.51   3
   5  -3  -7  600.04   42.15   3
  -5   3   7  490.99   60.91   3
  -5   3   7  528.04   41.91   1
  -5   3   7  525.22   45.61   3
   5   3  -7  516.85   50.37   3
  -4  -3   7 1041.94   89.40   3
   4  -3  -7 1107.34   73.84   3
  -4  -3   7 1135.85   79.48   3
   4  -3  -7 1191.34   71.97   3
  -4   3   7 1117.06   71.10   1
   4   3  -7 1067.01   76.83   3
   4   3  -7 1329.88   77.13   3
  -4   3   7 1066.11   73.02   3
   3  -3  -7  492.55   36.74   3
  -3  -3   7  375.30   43.24   3
  -3  -3   7  324.92   58.03   3
  -3   3   7  414.02   37.40   1
  -3   3   7  346.63   37.61   3
   3   3  -7  363.34   43.22   3
   2  -3  -7  198.25   31.39   3
  -2  -3   7  185.19   32.25   3
   2  -3  -7  166.05   29.90   3
  -2  -3   7  146.41   39.58   3
  -2   3   7  130.86   22.84   1
  -2   3   7  125.94   22.55   3
   2   3  -7  136.17   29.51   3
   2   3  -7  184.92   32.05   3
  -1  -3   7   94.30   39.71   3
  -1  -3   7   91.59   27.87   3
   1  -3  -7  108.34   26.01   3
  -1   3   7   80.31   21.11   1
  -1   3   7  113.19   21.38   3
   1   3  -7  127.98   32.02   3
   0  -3  -7  480.28   44.14   3
   0  -3   7  481.12   48.76   3
   0  -3  -7  612.66   43.65   3
   0  -3   7  383.74   60.97   3
   0   3   7  518.84   42.88   1
   0   3  -7  563.53   44.68   3
   0   3   7  550.09   42.39   3
   0   3  -7  476.64   47.77   3
   1  -3   7  946.41   69.50   3
  -1  -3  -7  891.39   65.85   3
  -1  -3  -7 1131.70   65.79   3
   1   3   7  993.71   65.25   3
  -1   3  -7  889.64   68.21   3
   1   3   7  967.39   64.63   1
  -1   3  -7  985.87   66.37   3
   2  -3   7  600.13   53.15   3
   2  -3   7  591.40   66.93   3
  -2  -3  -7  584.41   50.73   3
  -2   3  -7  603.14   52.48   3
  -2   3  -7  691.18   49.94   3
   2   3   7  591.61   47.71   1
   2   3   7  583.92   48.92   3
   3  -3   7  499.44   47.74   3
  -3  -3  -7  394.89   46.36   3
   3  -3   7  494.10   61.46   3
  -3   3  -7  381.24   46.24   3
   3   3   7  470.11   43.26   3
   3   3   7  462.38   41.50   1
  -4  -3  -7   86.05   31.94   3
   4  -3   7  130.90   44.10   3
  -4   3  -7   79.96   30.09   3
   4   3   7  171.41   27.90   3
   5  -3   7  234.35   41.93   3
  -5  -3  -7  236.29   38.44   3
   5  -3   7  313.44   54.93   3
  -5   3  -7  327.35   40.85   3
   5   3   7  231.44   33.39   1
  -5   3  -7  217.94   40.67   3
   5   3   7  246.32   46.60   3
   5   3   7  254.07   36.68   3
   6  -3   7  709.63   78.35   3
  -6  -3  -7  683.69   61.78   3
   6  -3   7  667.81   65.24   3
   6   3   7  556.74   56.43   3
   6   3   7  663.93   52.46   1
  -6   3  -7  647.54   59.06   3
  -6   3  -7  640.91   60.35   3
   6   3   7  769.85   74.27   3
   7  -3   7  528.40   67.70   3
   7  -3   7  432.36   75.86   3
  -7  -3  -7  618.14   62.07   3
   7   3   7  631.56   74.93   3
   7   3   7  512.52   48.45   1
  -7   3  -7  555.40   57.82   3
   8  -3   7  481.70   66.18   3
   8  -3   7  480.88   69.58   3
  -8  -3  -7  427.36   61.25   3
   8   3   7  524.65   77.12   3
   8   3   7  378.85   46.86   1
  -8   3  -7  401.87   59.77   3
   9  -3   7   77.32   57.88   3
   9  -3   7  112.56   64.37   3
  -9  -3  -7  214.92   47.40   3
  -9   3  -7  196.92   43.58   3
   9   3   7  152.05   66.09   3
  -9   3  -7  184.50   46.52   3
   9   3   7   99.57   32.79   1
  10  -3   7  354.71   80.59   3
  10  -3   7  113.05   78.53   3
 -10  -3  -7  207.83   56.79   3
  10   3   7  220.69   67.65   3
 -10   3  -7  168.98   55.72   3
  10   3   7  109.05   33.97   1
 -10   3  -7  289.90   54.33   3
  -9  -4   7   48.22   54.86   2
   8  -4  -7    9.13   38.60   3
  -8  -4   7  133.31   52.60   3
  -8  -4   7  189.71   80.13   3
  -8  -4   7   83.55   47.74   2
  -8   4   7   -2.65   31.33   1
   8   4  -7   57.49   63.30   3
  -8   4   7   52.23   39.54   3
   8   4  -7   67.50   45.16   3
  -8   4   7   41.67   57.94   3
  -7  -4   7  136.55   58.15   3
   7  -4  -7   90.05   41.69   3
  -7  -4   7   60.91   67.73   3
  -7  -4   7  -25.86   45.22   2
   7  -4  -7   12.65   39.34   3
  -7   4   7   17.93   37.42   3
  -7   4   7   25.98   29.90   1
   7   4  -7   38.05   47.00   3
   7   4  -7  140.18   68.14   3
  -7   4   7   55.05   56.08   3
  -6  -4   7   30.35   55.66   3
   6  -4  -7  125.73   42.00   3
  -6  -4   7   44.17   67.40   3
  -6   4   7  103.24   55.72   3
   6   4  -7  240.50   51.96   3
   6   4  -7   94.43   48.90   3
  -5  -4   7   73.64   61.71   3
  -5  -4   7   -2.44   45.23   3
   5   4  -7   33.08   44.93   3
  -5   4   7   22.79   59.39   3
  -5   4   7   11.22   36.24   3
  -5   4   7   19.33   27.32   1
  -4  -4   7  113.34   41.59   3
  -4  -4   7  136.20   64.85   3
  -4   4   7   94.97   58.42   3
   4   4  -7  132.13   45.00   3
  -3  -4   7   93.62   45.74   3
  -3  -4   7   23.31   52.87   3
   3  -4  -7    4.14   32.34   3
   3   4  -7   74.33   38.53   3
  -3   4   7   71.92   58.23   3
  -2  -4   7   13.81   56.93   3
   2  -4  -7  -16.35   36.23   3
  -2  -4   7   64.71   40.28   3
  -2   4   7   54.02   51.00   3
  -2   4   7  -28.86   34.85   3
   2   4  -7   31.88   36.34   3
  -2   4   7    5.61   27.78   1
  -1  -4   7   88.79   36.72   3
  -1  -4   7   99.93   59.67   3
   1  -4  -7   58.73   36.45   3
   1   4  -7   36.03   39.61   3
  -1   4   7   17.07   27.56   1
   1   4  -7  147.97   50.22   3
  -1   4   7   30.05   51.73   3
   0  -4  -7   29.14   38.92   3
   0  -4   7  -14.82   41.00   3
   0  -4   7   27.19   54.83   3
   0   4  -7   56.23   38.84   3
   0   4   7  -17.84   24.85   1
   0   4  -7   24.81   46.57   3
   0   4   7   40.14   44.88   3
   0   4   7    5.88   31.55   3
   1  -4   7   26.20   58.14   3
  -1  -4  -7   76.43   40.49   3
   1   4   7   52.18   48.28   3
  -1   4  -7   61.35   43.49   3
  -2  -4  -7   26.91   38.88   3
   2  -4   7   -2.56   59.45   3
   2  -4   7   51.85   45.91   3
  -2   4  -7   73.29   41.74   3
  -2   4  -7  135.78   46.67   3
   2   4   7   13.06   34.65   3
   2   4   7   77.26   52.57   3
   3  -4   7  -41.94   42.39   3
  -3  -4  -7   46.66   43.95   3
   3   4   7   58.16   50.52   3
  -3   4  -7   45.14   41.80   3
   3   4   7    0.99   28.58   1
   3   4   7    0.54   37.23   3
  -4  -4  -7   89.02   47.59   3
   4   4   7  132.76   55.94   3
   4   4   7   30.83   30.07   1
  -4   4  -7   22.58   45.41   3
   4   4   7   75.68   41.10   3
   5   4   7  195.08   49.02   3
  -5   4  -7  163.00   55.60   3
 -17   0   8  427.14   62.41   3
  17   0  -8  392.15   64.17   3
 -16   0   8  126.15   58.43   3
 -16   0   8   60.61   34.47   3
  16   0  -8   88.14   35.33   3
 -15   0   8  817.24   65.68   3
  15   0  -8  786.30   68.72   3
 -15   0   8  851.95   96.59   3
  15   0  -8  818.84   64.19   2
  14   0  -8 1131.65   83.30   3
 -14   0   8 1124.48   79.51   3
  14   0  -8 1073.46   77.93   2
 -14   0   8 1153.48  102.99   3
  14   0  -8 1352.34   84.11   3
  13   0  -8 1958.34  121.73   3
 -13   0   8 1914.44  133.78   3
  13   0  -8 2248.17  121.36   3
 -13   0   8 1834.08  118.26   3
  13   0  -8 1950.88  118.11   2
  12   0  -8 1424.77   91.03   3
 -12   0   8 1292.93  100.67   3
  12   0  -8 1493.26   87.94   2
  12   0  -8 1494.66   88.90   3
 -12   0   8 1319.71   87.36   3
  11   0  -8  204.85   28.73   2
 -11   0   8  321.11   50.55   3
  11   0  -8  178.06   30.96   3
  11   0  -8  264.96   31.15   3
 -11   0   8  210.44   28.72   3
 -10   0   8  594.87   61.52   3
  10   0  -8  665.39   47.12   2
  10   0  -8  602.43   49.83   3
 -10   0   8  604.02   44.11   3
  10   0  -8  650.22   45.27   3
   9   0  -8 1172.09   68.72   3
   9   0  -8 1130.58   69.42   2
   9   0  -8 1095.51   71.22   3
  -9   0   8 1019.86   66.05   3
  -8   0   8 2555.52  163.91   3
  -8   0   8 2772.47  150.87   3
   8   0  -8 2791.31  153.77   3
   7   0  -8 1784.43  106.87   3
  -7   0   8 1776.86  103.74   3
   7   0  -8 1894.17  107.96   2
  -7   0   8 1912.60  107.71   3
   7   0  -8 1911.30  107.43   3
  -6   0   8  915.98   54.97   3
   6   0  -8  968.30   60.22   2
  -6   0   8  991.62   58.67   3
   6   0  -8  853.86   57.59   3
   6   0  -8 1004.55   58.45   3
   5   0  -8  982.59   61.62   3
   5   0  -8 1126.98   61.84   3
  -5   0   8  961.77   58.97   3
   5   0  -8 1078.33   64.65   2
  -5   0   8 1064.11   62.00   3
   4   0  -8  427.13   30.86   3
   4   0  -8  440.26   33.74   2
   4   0  -8  482.04   29.93   3
   3   0  -8 2984.53  167.04   2
   2   0  -8 2445.15  137.62   2
   1   0  -8 1332.51   78.49   2
   0   0  -8  647.39   41.59   2
  -1   0  -8  341.47   26.79   2
  -1   0  -8  384.70   29.19   1
  -2   0  -8 2241.06  129.03   3
   2   0   8 1949.96  127.78   3
  -2   0  -8 2268.97  127.97   3
   2   0   8 2462.49  127.34   3
  -2   0  -8 2707.69  131.52   1
  -2   0  -8 2334.27  128.92   2
   3   0   8  734.26   50.70   3
   3   0   8  879.64   48.75   3
  -3   0  -8  950.73   53.25   1
  -3   0  -8  799.59   50.72   3
  -3   0  -8  814.44   52.83   3
   4   0   8 1523.94   86.26   3
   4   0   8 1388.60   88.13   3
  -4   0  -8 1524.34   90.32   3
  -4   0  -8 1496.13   88.56   3
  -4   0  -8 1706.03   89.65   1
  -5   0  -8 1165.29   74.54   3
  -5   0  -8 1135.05   72.32   3
  -5   0  -8 1249.02   72.77   1
   5   0   8 1236.41   68.72   3
   5   0   8 1109.26   71.53   3
   6   0   8   90.94   20.38   3
  -6   0  -8  168.07   28.99   3
  -6   0  -8  139.14   20.47   1
  -6   0  -8  128.14   29.80   3
  -7   0  -8 1008.40   60.94   1
  -7   0  -8  930.03   63.17   3
  -7   0  -8  872.95   63.63   3
  -8   0  -8  318.32   35.77   1
   8   0   8  333.57   40.68   3
  -8   0  -8  313.04   39.13   3
  -8   0  -8  421.01   34.52   3
  -9   0  -8  673.26   45.15   3
  -9   0  -8  599.07   47.36   1
   9   0   8  588.75   51.62   3
  -9   0  -8  593.77   52.17   3
   9   0   8  659.47   62.44   3
  10   0   8  512.06   60.28   3
 -10   0  -8  420.33   42.17   1
 -10   0  -8  522.27   40.96   3
  10   0   8  527.17   50.65   3
 -11   0  -8  199.15   36.97   1
  11   0   8  234.67   44.64   3
 -11   0  -8  300.39   44.33   3
 -12   0  -8  898.40   60.14   1
 -12   0  -8  721.47   69.71   3
  12   0   8  807.03   83.74   3
  12   0   8  829.45   73.74   3
 -12   0  -8  889.35   61.61   3
  13   0   8   20.90   54.54   3
 -13   0  -8   84.86   35.69   3
  13   0   8  146.95   44.22   3
 -13   0  -8   40.86   36.91   3
 -14   0  -8  183.11   32.51   1
 -17  -1   8   28.73   59.49   3
 -17  -1   8    3.90   45.51   3
  17  -1  -8   66.39   47.09   3
 -17   1   8  124.49   52.20   3
 -17   1   8   39.63   92.12   3
  17   1  -8   52.23   42.64   3
 -16  -1   8   37.24   59.24   3
  16  -1  -8  -32.25   38.60   3
  16  -1  -8  114.13   44.28   3
 -16  -1   8  -19.63   36.77   3
  16  -1  -8   59.05   25.87   2
 -16   1   8   37.85   39.68   3
 -16   1   8  -27.70   60.12   3
  16   1  -8    6.26   38.32   3
  15  -1  -8   65.33   26.15   2
 -15  -1   8   49.83   32.96   3
 -15  -1   8   91.52   53.28   3
 -15   1   8   15.20   63.73   3
  15   1  -8  114.18   43.79   3
  15   1  -8   -2.37   28.99   3
 -15   1   8   75.88   33.31   3
 -14  -1   8    1.34   24.73   2
  14  -1  -8   -8.52   30.01   3
 -14  -1   8   19.72   23.10   3
 -14  -1   8   -5.72   49.86   3
 -14   1   8  -20.12   46.18   3
  14   1  -8   14.81   30.64   3
 -13  -1   8   54.19   50.32   3
 -13  -1   8   68.11   27.93   2
  13  -1  -8   92.48   28.74   3
 -13  -1   8   45.71   22.01   3
  13   1  -8  104.67   32.97   3
 -13   1   8   35.88   28.20   3
 -13   1   8   59.30   43.65   3
 -12  -1   8   57.71   21.22   3
  12  -1  -8   83.40   26.45   3
  12  -1  -8   46.82   24.23   3
  12  -1  -8   73.27   22.60   2
 -12  -1   8   89.39   46.78   3
 -12  -1   8   55.53   26.31   2
 -12   1   8   13.40   23.39   3
 -12   1   8   16.28   41.04   3
  12   1  -8   37.22   27.08   3
  11  -1  -8   25.08   21.67   2
 -11  -1   8   11.14   25.17   2
 -11  -1   8   48.25   44.61   3
  11  -1  -8    7.61   24.01   3
 -11  -1   8   21.90   19.51   3
 -11   1   8   26.43   33.09   3
  11   1  -8   33.10   26.31   3
 -11   1   8   26.52   21.76   3
  10  -1  -8   74.16   22.04   3
 -10  -1   8   75.61   41.29   3
 -10  -1   8   52.32   19.39   3
  10  -1  -8   45.08   21.09   2
 -10  -1   8   64.23   27.54   2
  10   1  -8   96.78   25.39   3
 -10   1   8   81.39   34.55   3
  10   1  -8  130.66   24.64   3
 -10   1   8   78.93   21.42   3
   9  -1  -8   74.69   22.75   3
  -9  -1   8   58.20   14.82   3
  -9  -1   8   84.65   34.90   3
   9  -1  -8   15.92   18.47   2
   9  -1  -8  117.81   29.50   3
  -9  -1   8   48.07   25.69   2
  -9   1   8   62.73   18.80   3
   9   1  -8   60.02   15.10   3
   9   1  -8   65.87   22.65   3
   8  -1  -8  215.85   38.15   3
  -8  -1   8  148.57   28.45   2
   8  -1  -8  175.10   24.65   3
  -8  -1   8  196.13   36.35   3
  -8  -1   8  126.53   20.71   3
   8  -1  -8  165.24   25.62   2
   8   1  -8  221.93   22.81   3
   8   1  -8  168.91   27.34   3
  -8   1   8  157.66   22.80   3
  -7  -1   8  155.85   19.40   3
  -7  -1   8  163.60   35.06   3
   7  -1  -8  161.39   21.92   3
  -7  -1   8  176.33   29.33   2
   7  -1  -8  181.59   26.98   2
   7  -1  -8  225.95   31.78   3
   7   1  -8  220.53   26.33   3
  -7   1   8  156.47   20.85   3
   7   1  -8  206.80   22.78   3
  -7   1   8  158.01   18.17   3
   6  -1  -8   -5.46   15.38   2
  -6  -1   8   22.01   17.73   2
   6  -1  -8   40.87   12.19   3
   6  -1  -8   17.13   20.26   3
  -6  -1   8   20.47   11.34   3
  -6   1   8   14.23   12.95   3
   6   1  -8   26.24   14.84   3
  -5  -1   8   38.65   13.91   3
   5  -1  -8   23.91   18.02   3
   5  -1  -8   10.27    6.35   1
  -5  -1   8   17.96    9.98   3
  -5  -1   8   15.51   17.98   2
   5  -1  -8   22.85   10.25   3
  -5   1   8   24.44    9.46   3
  -5   1   8   36.91    8.10   3
   5   1  -8    6.90   17.40   3
   5   1  -8   14.90   13.09   3
  -4  -1   8   56.05   18.06   2
   4  -1  -8   96.30   12.42   1
   4  -1  -8   47.33   17.22   3
   4  -1  -8   76.25   11.80   3
  -4  -1   8   83.12   11.56   3
   4   1  -8   74.80   15.35   3
  -4   1   8   63.04   10.27   3
   3  -1  -8  501.35   30.66   1
  -3  -1   8  499.23   37.90   2
  -3  -1   8  448.11   30.77   3
  -3  -1   8  532.06   32.72   3
   3   1  -8  439.97   33.64   3
   3   1  -8  450.92   32.88   3
  -2  -1   8  447.45   30.10   3
  -2  -1   8  479.90   36.65   2
  -2  -1   8  505.63   31.46   3
   2  -1  -8  467.29   30.75   1
   2   1  -8  426.27   31.59   3
   2   1  -8  446.97   31.88   3
  -1  -1   8  155.31   23.33   2
  -1  -1   8  120.11   15.79   3
   1  -1  -8  132.07   17.48   1
  -1  -1   8  117.55   15.58   3
   1   1  -8  100.33   17.93   3
   1   1  -8  131.97   17.59   3
   0  -1  -8   47.28   11.59   1
   0  -1   8   50.30   11.00   3
   0  -1   8   54.20   15.26   2
   0   1  -8   54.51   14.03   3
   0   1   8   49.04   15.06   1
   0   1  -8   73.64   15.67   3
   1  -1   8   -3.62   12.97   2
   1  -1   8   13.12    9.88   3
   1  -1   8  -12.61   10.98   3
  -1  -1  -8   -0.27    9.90   1
   1   1   8   -6.33   13.49   1
  -1   1  -8  -14.69   12.01   3
  -1   1  -8   -0.17   11.62   3
  -2  -1  -8  102.61   13.96   3
   2  -1   8  107.05   16.97   3
   2  -1   8   92.17   16.56   2
  -2  -1  -8   94.17   17.29   3
  -2  -1  -8  113.56   18.42   1
   2  -1   8  144.16   17.36   3
  -2   1  -8  105.32   18.18   3
  -2   1  -8   96.74   17.28   3
   2   1   8   95.65   12.17   3
  -3  -1  -8  423.02   36.07   3
  -3  -1  -8  443.67   31.86   3
   3  -1   8  462.63   34.21   3
   3  -1   8  412.70   34.14   2
  -3  -1  -8  467.23   35.42   1
  -3   1  -8  498.09   36.88   3
  -3   1  -8  460.80   36.04   3
   3   1   8  519.73   31.55   3
   3   1   8  445.78   29.78   3
  -4  -1  -8  494.08   38.06   1
   4  -1   8  546.45   40.25   3
  -4  -1  -8  457.89   42.28   3
  -4  -1  -8  502.67   36.51   3
   4   1   8  516.58   33.66   3
   4   1   8  487.87   36.61   3
  -4   1  -8  545.80   40.19   3
  -4   1  -8  553.34   38.14   3
  -5  -1  -8   26.60   22.15   3
  -5  -1  -8   16.99   17.16   3
   5  -1   8   47.22   19.15   3
  -5  -1  -8   12.57   14.11   1
  -5   1  -8   27.14   19.70   3
   5   1   8   48.28   16.84   3
   6  -1   8   18.07   25.91   3
   6  -1   8   56.77   31.53   3
  -6  -1  -8   41.71   25.21   3
  -6  -1  -8   11.37   17.39   1
  -6  -1  -8   13.95   22.34   3
  -6   1  -8   21.85   21.15   3
   6   1   8   51.58   19.40   3
   7  -1   8   54.02   28.18   3
  -7  -1  -8   14.04   24.69   3
  -7  -1  -8   44.80   26.45   3
   7  -1   8   15.57   30.51   3
  -7   1  -8   15.07   20.92   3
   7   1   8    9.69   21.76   3
   8  -1   8  241.61   40.91   3
  -8  -1  -8  139.50   33.97   3
  -8  -1  -8  148.76   24.23   3
  -8  -1  -8  195.64   27.74   1
   8  -1   8  200.90   34.69   3
  -8   1  -8  230.00   27.15   3
  -8   1  -8  160.91   23.59   1
  -8   1  -8  170.41   31.77   3
   8   1   8  235.16   34.81   3
  -9  -1  -8  315.10   48.18   3
  -9  -1  -8  407.43   35.51   3
  -9  -1  -8  262.43   35.32   1
   9  -1   8  359.02   51.76   3
   9  -1   8  469.50   52.52   3
   9   1   8  335.04   41.49   3
  -9   1  -8  354.81   35.11   1
  -9   1  -8  262.74   42.85   3
  -9   1  -8  354.82   38.11   3
 -10  -1  -8   16.85   31.61   3
 -10  -1  -8   46.31   19.31   1
  10  -1   8    1.83   40.16   3
  10  -1   8    6.85   34.41   3
  10   1   8   -0.63   42.15   3
 -10   1  -8  -17.58   25.59   3
  10   1   8    6.50   30.19   3
 -11  -1  -8   61.07   38.34   3
 -11  -1  -8   81.96   29.05   3
 -11  -1  -8   31.42   23.15   1
  11  -1   8   83.49   35.44   3
  11  -1   8  -42.06   45.93   3
  11   1   8  -24.93   40.37   3
 -11   1  -8   54.68   21.73   1
 -11   1  -8  -11.70   33.16   3
 -11   1  -8   58.14   30.51   3
  11   1   8   11.24   35.90   3
 -12  -1  -8   50.24   26.04   1
 -12  -1  -8  -13.82   39.19   3
  12  -1   8    8.54   52.04   3
 -12  -1  -8   65.70   30.39   3
  12  -1   8   17.53   46.15   3
 -12   1  -8   69.22   25.15   1
 -12   1  -8  -16.15   36.44   3
  12   1   8  -88.21   47.65   3
 -12   1  -8   50.99   33.67   3
  12   1   8   56.73   43.04   3
  13  -1   8   20.79   60.93   3
 -13  -1  -8  -45.42   45.04   3
  13  -1   8   11.19   60.74   3
  13   1   8  -39.38   55.27   3
 -13   1  -8   65.25   48.85   3
 -13   1  -8   41.59   27.96   1
 -13   1  -8  -11.80   43.51   3
  13   1   8   75.03   47.04   3
 -15  -2   8  364.24   64.28   2
  15  -2  -8  381.05   64.95   3
 -15  -2   8  483.64   62.62   3
 -15  -2   8  545.24   92.20   3
 -15   2   8  389.22   75.97   3
 -15   2   8  619.84   95.14   3
  15   2  -8  394.36   38.26   1
  15   2  -8  337.38   64.22   3
 -14  -2   8  182.83   41.50   3
 -14  -2   8  225.31   65.76   3
  14  -2  -8  125.59   44.23   3
 -14  -2   8  164.94   42.03   2
  14  -2  -8  313.09   53.69   2
 -14   2   8  180.59   58.70   3
 -14   2   8  193.18   54.59   3
  14   2  -8  168.10   49.39   3
 -13  -2   8  283.77   51.78   2
  13  -2  -8  281.75   50.77   3
 -13  -2   8  438.03   83.05   3
  13  -2  -8  355.19   46.86   2
 -13  -2   8  344.55   48.84   3
 -13   2   8  369.13   57.79   3
  13   2  -8  352.39   48.22   3
 -13   2   8  467.87   59.32   3
 -12  -2   8  531.66   76.39   3
 -12  -2   8  433.41   53.09   2
 -12  -2   8  381.48   46.86   3
  12  -2  -8  432.39   52.59   2
  12  -2  -8  448.52   49.58   3
  12   2  -8  431.07   50.49   3
 -12   2   8  463.77   70.43   3
 -12   2   8  402.00   54.69   3
  11  -2  -8  552.34   50.93   3
 -11  -2   8  540.99   77.88   3
  11  -2  -8  474.33   52.77   2
 -11  -2   8  504.98   52.93   2
 -11  -2   8  564.24   48.06   3
 -11   2   8  523.34   68.52   3
  11   2  -8  517.98   51.92   3
 -11   2   8  595.48   56.15   3
 -10  -2   8  746.70   60.65   2
  10  -2  -8  740.81   56.27   3
 -10  -2   8  759.72   79.64   3
 -10  -2   8  722.56   56.26   3
 -10   2   8  736.81   59.86   3
  10   2  -8  675.05   59.07   3
 -10   2   8  864.78   75.31   3
   9  -2  -8  190.83   36.78   3
  -9  -2   8  192.18   33.53   3
  -9  -2   8  222.04   37.78   2
   9  -2  -8  248.98   31.33   3
  -9   2   8  176.28   35.95   3
   9   2  -8  178.52   36.23   3
  -8  -2   8  737.92   52.81   3
  -8  -2   8  758.71   73.07   3
   8  -2  -8  852.99   56.28   3
  -8  -2   8  696.95   56.85   2
   8  -2  -8  640.27   50.70   3
  -8   2   8  689.88   54.21   3
  -7  -2   8  695.23   69.32   3
  -7  -2   8  590.62   45.79   3
   7  -2  -8  589.12   43.01   3
  -7  -2   8  639.16   50.75   2
   7  -2  -8  571.57   54.41   3
  -7   2   8  587.82   40.24   1
   7   2  -8  535.63   46.87   3
  -7   2   8  486.88   44.34   3
  -6  -2   8  776.07   57.81   2
   6  -2  -8  739.79   60.56   3
   6  -2  -8  734.55   51.59   3
  -6  -2   8  749.51   53.29   3
  -6  -2   8  730.96   69.83   3
  -6   2   8  811.00   50.23   1
  -6   2   8  818.73   52.52   3
  -6   2   8  868.59   49.28   3
   6   2  -8  713.49   55.47   3
   5  -2  -8 1640.00   97.21   3
  -5  -2   8 1697.94  102.13   2
   5  -2  -8 1547.18   99.64   3
  -5  -2   8 1719.94   99.30   3
  -5  -2   8 1615.84  106.90   3
  -5   2   8 1684.34   97.01   3
  -5   2   8 1681.83   96.10   1
   5   2  -8 1573.28  100.10   3
  -5   2   8 1836.76   95.89   3
   5   2  -8 1738.35   99.02   3
  -4  -2   8  488.22   43.49   2
   4  -2  -8  434.01   35.26   3
  -4  -2   8  468.98   36.13   3
  -4  -2   8  420.43   49.56   3
   4  -2  -8  410.34   38.37   3
  -4   2   8  497.47   35.26   1
  -4   2   8  450.48   34.23   3
   4   2  -8  421.67   39.44   3
   4   2  -8  504.77   33.88   3
   3  -2  -8  846.00   58.31   3
  -3  -2   8  961.13   62.81   2
  -3  -2   8  855.23   68.83   3
  -3  -2   8  905.35   58.47   3
  -3   2   8  999.12   55.24   3
  -3   2   8  935.85   55.54   3
  -3   2   8  951.03   57.35   1
   3   2  -8  932.47   57.08   3
   3   2  -8  864.35   60.13   3
  -2  -2   8  890.16   60.64   2
  -2  -2   8  904.83   56.82   3
  -2  -2   8  811.03   65.50   3
   2  -2  -8  840.32   54.94   3
   2  -2  -8  861.18   55.94   3
  -2   2   8  896.29   52.55   3
   2   2  -8  850.75   58.01   3
   2   2  -8  907.52   54.58   3
  -2   2   8  926.25   56.00   1
  -2   2   8  912.22   53.39   3
  -1  -2   8  885.10   60.43   2
  -1  -2   8  824.96   67.03   3
  -1  -2   8  867.27   57.41   3
   1  -2  -8  862.95   56.35   3
   1  -2  -8  842.86   55.33   3
   1   2  -8  841.92   58.37   3
  -1   2   8  939.02   53.07   3
  -1   2   8  931.98   56.77   1
  -1   2   8  918.06   53.53   3
   1   2  -8  934.48   54.91   3
   0  -2   8 1291.00   78.98   2
   0  -2   8 1259.73   77.31   3
   0  -2  -8 1207.19   75.14   3
   0  -2  -8 1201.61   75.23   3
   0   2   8 1284.36   76.50   1
   0   2  -8 1346.29   75.45   3
   0   2   8 1355.49   73.94   3
   0   2  -8 1210.53   77.85   3
   0   2   8 1267.02   73.18   3
  -1  -2  -8  578.74   42.99   3
   1  -2   8  620.28   46.38   2
   1  -2   8  604.22   44.04   3
  -1  -2  -8  571.61   44.06   3
   1  -2   8  578.85   56.98   3
  -1   2  -8  557.83   46.78   3
  -1   2  -8  677.10   41.38   3
   1   2   8  626.29   43.76   1
   1   2   8  652.65   41.12   3
   2  -2   8 1254.22   85.70   3
   2  -2   8 1270.10   78.56   2
  -2  -2  -8 1266.44   77.94   3
  -2  -2  -8 1224.58   76.60   3
   2  -2   8 1248.83   78.12   3
   2   2   8 1228.00   77.12   1
   2   2   8 1419.81   74.43   3
  -2   2  -8 1243.72   79.89   3
   2   2   8 1268.14   75.89   3
  -2   2  -8 1249.68   75.66   3
   3  -2   8  789.26   54.67   3
  -3  -2  -8  768.97   53.49   3
   3  -2   8  732.94   65.36   3
   3  -2   8  804.74   53.09   2
  -3  -2  -8  695.10   53.03   3
   3   2   8  733.51   52.02   1
  -3   2  -8  732.15   54.86   3
   3   2   8  676.59   51.83   3
  -3   2  -8  847.08   50.09   3
   4  -2   8  834.70   70.76   3
   4  -2   8  870.26   61.39   3
  -4  -2  -8  824.15   59.59   3
   4  -2   8  899.24   58.06   2
  -4  -2  -8  827.19   60.07   3
   4   2   8  853.87   57.60   1
  -4   2  -8  912.35   56.18   3
  -5  -2  -8 1113.34   74.51   3
  -5  -2  -8 1156.33   76.48   3
   5  -2   8 1123.43   77.22   3
   5  -2   8 1099.01   71.03   2
   5  -2   8 1163.16   85.28   3
  -5   2  -8 1150.97   70.46   3
   5   2   8 1312.08   70.26   3
  -5   2  -8 1047.24   74.73   3
   5   2   8 1095.54   72.65   1
   6  -2   8  452.78   57.63   3
  -6  -2  -8  442.07   47.97   3
   6  -2   8  411.67   48.16   3
  -6  -2  -8  407.55   46.09   3
  -6   2  -8  445.63   46.26   3
   6   2   8  432.42   40.30   1
   6   2   8  455.37   42.32   3
  -6   2  -8  456.55   35.92   3
  -7  -2  -8  705.95   61.45   3
   7  -2   8  705.04   73.15   3
  -7  -2  -8  779.05   54.48   3
   7  -2   8  626.45   62.00   3
  -7   2  -8  611.54   58.40   3
  -7   2  -8  790.79   51.36   3
   7   2   8  786.57   53.54   3
   7   2   8  677.14   52.16   1
   7   2   8  592.95   55.44   3
   8  -2   8  552.53   63.51   3
  -8  -2  -8  586.47   57.04   3
   8  -2   8  576.98   70.86   3
  -8   2  -8  565.38   57.27   3
  -8   2  -8  629.53   48.72   3
   8   2   8  494.46   52.02   3
   8   2   8  549.20   47.62   1
  -9  -2  -8  665.06   69.31   3
   9  -2   8  719.06   73.30   3
  -9  -2  -8  924.27   56.98   3
   9  -2   8  794.59   84.79   3
   9   2   8  696.93   63.28   3
  -9   2  -8  680.08   67.06   3
  -9   2  -8  904.08   62.08   3
   9   2   8  766.30   58.83   1
 -10  -2  -8  541.97   67.80   3
  10  -2   8  512.30   74.55   3
  10  -2   8  623.79   80.64   3
 -10  -2  -8  669.15   51.58   3
  10   2   8  518.51   51.22   1
 -10   2  -8  502.21   61.29   3
 -10   2  -8  655.02   61.05   3
  10   2   8  412.80   81.14   3
 -11  -2  -8  516.83   50.72   3
  11  -2   8  509.28   70.97   3
 -11  -2  -8  478.34   73.40   3
  11  -2   8  407.48   81.23   3
  11   2   8  434.87   62.05   3
 -11   2  -8  407.44   60.74   3
 -11   2  -8  329.64   63.85   3
  11   2   8  485.77   63.96   3
  12  -2   8  542.99   99.47   3
 -12  -2  -8  474.80   81.55   3
  12  -2   8  575.75  102.64   3
  12   2   8  674.79  103.45   3
 -12   2  -8  501.51   77.28   3
 -12   2  -8  465.81   71.58   3
  12   2   8  645.13   79.03   3
 -12   2  -8  511.92   51.88   1
 -13  -3   8   95.87   55.20   3
  13  -3  -8  -44.88   45.38   3
 -13  -3   8   52.58   76.76   3
 -13  -3   8   22.47   45.80   2
  13  -3  -8  123.62   72.49   3
  13   3  -8  -25.79   39.91   3
 -13   3   8 -113.52   63.01   3
 -13   3   8   -2.43   74.47   3
  13   3  -8  133.57   61.87   3
 -12  -3   8   43.67   66.16   3
 -12  -3   8  108.93   42.97   3
  12  -3  -8   25.40   42.02   3
  12  -3  -8   27.04   55.36   3
 -12  -3   8   17.55   40.37   2
  12   3  -8   26.02   47.05   3
 -12   3   8   15.06   46.51   3
  12   3  -8  116.23   52.26   3
 -12   3   8   64.74   64.29   3
 -11  -3   8   78.36   62.07   3
  11  -3  -8  129.62   47.06   3
 -11  -3   8  -22.27   33.35   2
 -11  -3   8   31.78   34.14   3
  11  -3  -8   10.82   34.61   3
 -11   3   8   38.72   54.90   3
 -11   3   8  -45.65   40.14   3
  11   3  -8   68.96   36.75   3
 -10  -3   8   14.66   30.68   3
 -10  -3   8   24.70   36.49   2
  10  -3  -8   -9.89   29.74   3
 -10  -3   8    9.05   59.66   3
  10   3  -8  -25.11   29.82   3
 -10   3   8  -16.82   38.76   3
 -10   3   8   11.46   48.90   3
  -9  -3   8   33.62   56.25   3
  -9  -3   8   17.70   28.82   3
  -9  -3   8    6.25   31.35   2
   9  -3  -8    6.67   26.31   3
  -9   3   8    8.71   42.86   3
   9   3  -8    9.42   28.11   3
  -9   3   8    4.75   20.50   1
  -9   3   8  -32.53   34.48   3
  -8  -3   8   76.11   56.66   3
   8  -3  -8   80.36   27.59   3
  -8  -3   8   11.70   29.28   2
  -8  -3   8   76.78   34.25   3
   8   3  -8  133.53   30.93   3
  -8   3   8   37.88   30.52   3
  -8   3   8   46.70   21.77   1
  -8   3   8   73.71   42.78   3
   8   3  -8   91.99   31.76   3
   7  -3  -8   -5.89   22.55   3
  -7  -3   8  -11.17   27.79   2
  -7  -3   8   29.44   47.08   3
  -7  -3   8   17.57   26.01   3
  -7   3   8   -1.14   25.55   3
   7   3  -8   14.79   24.46   3
  -7   3   8    0.12   45.54   3
  -7   3   8    9.09   20.55   1
  -6  -3   8   31.47   45.60   3
   6  -3  -8   18.60   23.41   3
  -6  -3   8   15.28   27.49   2
  -6  -3   8  -29.41   30.05   3
   6   3  -8   12.99   28.76   3
  -6   3   8    7.10   21.06   3
  -6   3   8   -1.47   20.38   1
  -5  -3   8   77.04   32.68   3
   5  -3  -8   44.49   24.48   3
  -5  -3   8   61.80   42.19   3
  -5  -3   8   54.40   27.57   2
   5   3  -8   91.93   27.98   3
  -5   3   8   52.60   20.78   1
  -5   3   8   64.40   24.53   3
  -4  -3   8   45.78   43.71   3
  -4  -3   8   44.97   26.50   2
  -4  -3   8    1.36   23.77   3
   4  -3  -8   69.48   26.75   3
  -4   3   8   19.54   21.16   3
   3  -3  -8  267.97   44.05   3
  -3  -3   8  277.95   52.12   3
  -3  -3   8  202.35   33.01   3
  -3   3   8  171.00   30.28   3
   3   3  -8  214.38   37.82   3
  -3   3   8  195.27   31.57   1
  -2  -3   8    2.67   39.79   3
   2  -3  -8   18.41   23.22   3
   2  -3  -8   17.69   35.57   3
  -2  -3   8   -7.49   25.04   3
   2   3  -8   -0.52   23.76   3
  -2   3   8   26.46   18.85   3
  -2   3   8    1.11   19.18   1
   1  -3  -8   31.08   35.04   3
  -1  -3   8   -1.88   39.15   3
  -1  -3   8  -15.20   22.51   3
   1  -3  -8   23.25   23.99   3
  -1   3   8   23.10   18.54   1
  -1   3   8   49.21   18.87   3
   1   3  -8   -2.00   22.42   3
   0  -3  -8   57.97   25.38   3
   0  -3  -8   71.90   36.71   3
   0  -3   8   46.47   24.31   3
   0  -3   8   47.77   44.21   3
   0   3   8  101.56   21.58   3
   0   3  -8  101.64   31.57   3
   0   3   8   73.25   22.20   1
  -1  -3  -8   29.88   24.35   3
   1  -3   8   60.92   28.01   3
  -1  -3  -8   75.50   34.40   3
  -1   3  -8   43.40   26.81   3
   1   3   8   34.38   21.60   3
   1   3   8   30.49   20.42   1
   2  -3   8   24.31   25.33   3
  -2  -3  -8   16.21   24.51   3
  -2  -3  -8   40.87   35.88   3
  -2   3  -8   14.34   24.36   3
   2   3   8   53.31   24.54   3
  -3  -3  -8  107.80   36.88   3
  -4  -3  -8   62.37   33.16   3
   4  -3   8   49.58   35.56   3
   4  -3   8   11.26   44.38   3
  -4  -3  -8  110.10   30.10   3
   4   3   8   61.50   22.88   1
  -4   3  -8  145.34   29.07   3
   4   3   8   98.87   28.95   3
  -4   3  -8  110.59   31.75   3
   5  -3   8   -3.67   48.46   3
   5  -3   8   -7.96   31.13   3
  -5  -3  -8   49.59   32.31   3
  -5   3  -8  127.33   33.31   3
   5   3   8   59.52   22.62   1
   5   3   8   75.12   28.74   3
  -5   3  -8   21.04   31.34   3
  -6  -3  -8   37.80   34.38   3
   6  -3   8   50.44   43.68   3
   6  -3   8  -44.24   46.44   3
  -6   3  -8   14.55   30.86   3
   6   3   8   38.54   25.49   1
   6   3   8   14.75   32.64   3
  -7  -3  -8   49.52   38.10   3
   7  -3   8  -11.06   62.88   3
   7   3   8   29.59   25.83   1
  -7   3  -8   41.98   34.86   3
   7   3   8  -34.52   35.14   3
   8  -3   8   10.10   58.30   3
  -8  -3  -8  130.61   41.94   3
   8  -3   8   27.31   51.03   3
  -8   3  -8   27.42   42.83   3
  -8   3  -8   35.16   37.07   3
  -9  -3  -8   70.84   50.47   3
   9  -3   8  -27.72   31.40   2
   9  -3   8   10.17   69.41   3
   9  -3   8   31.99   74.02   3
  -9   3  -8   77.66   45.13   3
   9   3   8   31.37   67.24   3
   9   3   8  -27.87   31.01   1
  -9   3  -8   -1.93   48.72   3
   8  -4  -8  170.58   47.74   3
  -8  -4   8  287.92   73.79   3
  -8  -4   8  379.68   90.03   3
  -8  -4   8  178.53   63.00   2
  -8   4   8  155.38   38.64   1
  -8   4   8  237.49   84.44   3
   8   4  -8  183.33   48.83   3
  -7  -4   8  171.80   80.55   3
   7  -4  -8  146.77   44.61   3
  -7  -4   8  115.99   46.37   2
  -7  -4   8  236.02   63.40   3
  -7   4   8  204.92   37.86   1
  -7   4   8  168.21   43.60   3
   7   4  -8  241.03   50.84   3
  -7   4   8  333.13   68.69   3
   6  -4  -8  456.46   62.80   3
  -6  -4   8  463.53   70.65   2
  -6  -4   8  486.24   82.56   3
  -6  -4   8  466.69   84.85   3
  -6   4   8  393.36   59.98   3
   6   4  -8  469.52   69.30   3
  -6   4   8  604.86   82.58   3
  -6   4   8  484.58   55.45   1
  -5  -4   8  761.57   81.38   3
  -5  -4   8  720.95  101.85   3
   5  -4  -8  732.21   64.37   3
  -5  -4   8  575.39   74.17   2
  -5   4   8  709.26   87.80   3
  -5   4   8  553.45   58.76   1
   5   4  -8  569.77   72.02   3
  -5   4   8  498.85   61.69   3
  -4  -4   8  501.27   72.84   3
  -4  -4   8  616.80   95.99   3
   4  -4  -8  510.32   58.59   3
  -4   4   8  606.34   91.66   3
   4   4  -8  444.21   62.46   3
  -4   4   8  424.21   52.91   1
  -4   4   8  370.35   53.69   3
  -3  -4   8  278.08   72.69   3
  -3  -4   8  219.53   54.37   3
   3  -4  -8  241.29   46.45   3
  -3   4   8  223.79   38.24   1
   3   4  -8  300.97   50.10   3
  -3   4   8  309.85   73.09   3
  -3   4   8  186.63   44.43   3
   2  -4  -8  224.26   42.73   3
  -2  -4   8  219.26   63.91   3
  -2  -4   8  189.74   47.88   3
  -2   4   8  116.60   63.90   3
  -2   4   8  121.24   38.22   3
   2   4  -8  242.01   50.61   3
  -2   4   8  204.97   37.12   1
   1  -4  -8  485.04   57.00   3
  -1  -4   8  490.46   69.62   3
  -1  -4   8  524.38   90.04   3
  -1   4   8  289.33   78.21   3
  -1   4   8  560.13   54.20   1
   1   4  -8  500.41   62.30   3
  -1   4   8  380.83   50.12   3
   0  -4   8  606.42   94.14   3
   0  -4   8  542.29   71.76   3
   0  -4  -8  553.46   59.96   3
   0   4   8  609.56   56.29   1
   0   4   8  430.99   54.56   3
   0   4  -8  614.24   65.27   3
  -1  -4  -8  426.01   57.11   3
   1  -4   8  425.60   54.46   3
   1  -4   8  514.33   80.02   3
  -1   4  -8  422.84   61.85   3
   1   4   8  497.62   51.04   1
   1   4   8  347.90  100.06   3
   1   4   8  337.16   52.37   3
   2  -4   8  420.69   68.25   3
  -2  -4  -8  439.53   61.28   3
   2  -4   8  474.99   94.91   3
   2   4   8  319.13   55.13   3
  -2   4  -8  513.18   64.51   3
   2   4   8  304.99   99.85   3
   2   4   8  495.23   53.60   1
   3  -4   8  264.88   57.92   3
  -3  -4  -8  335.79   61.46   3
   3   4   8  222.92   40.59   1
  -3   4  -8  249.90   50.62   3
   3   4   8  267.20   77.04   3
   3   4   8  279.93   54.60   3
   4  -4   8  434.24   71.17   3
  -4  -4  -8  288.38   58.64   3
  -4   4  -8  377.85   68.09   3
   4   4   8  244.79   52.75   3
   4   4   8  261.35   67.42   3
   4   4   8  239.83   40.27   1
  17   0  -9  -11.13   60.60   3
  17   0  -9  -37.55   38.61   3
 -17   0   9   43.93   38.80   3
 -16   0   9  -29.12   69.22   3
  15   0  -9  -15.33   32.02   3
  15   0  -9   54.15   25.17   2
 -15   0   9   19.56   26.05   3
 -15   0   9  -19.49   52.87   3
  14   0  -9  -35.93   23.12   2
  14   0  -9    2.75   28.26   3
 -14   0   9   13.20   21.17   3
 -14   0   9   48.79   49.49   3
 -13   0   9    4.95   50.03   3
 -13   0   9   12.99   19.75   3
  13   0  -9  -18.28   20.57   2
  13   0  -9   10.37   22.48   3
 -12   0   9   52.39   41.78   3
  12   0  -9    4.97   26.25   3
  12   0  -9   -2.18   20.05   2
 -11   0   9    3.77   37.81   3
  11   0  -9   10.33   21.47   3
 -11   0   9   -7.83   14.01   3
  11   0  -9   -5.13   17.81   2
  10   0  -9    5.31   20.98   3
 -10   0   9   -9.91   12.73   3
  10   0  -9   17.69   18.02   2
  10   0  -9   18.74   16.62   3
   9   0  -9   -0.97   23.38   3
   9   0  -9    3.99   16.77   2
   9   0  -9   -4.39   18.43   3
   8   0  -9   16.76   17.90   3
  -8   0   9   38.36    9.94   3
  -8   0   9   44.65   16.93   3
   8   0  -9  -18.02   14.86   2
   8   0  -9   -0.58   20.23   3
   7   0  -9   -8.69   16.39   3
   7   0  -9  -10.44   12.84   2
  -7   0   9   16.32    8.00   3
   7   0  -9    2.16   14.73   3
   6   0  -9  -22.53   11.66   2
  -6   0   9    8.25    7.60   3
   6   0  -9   14.87   13.77   3
   6   0  -9   -0.82   14.62   3
   5   0  -9   -1.37   10.89   3
  -5   0   9    7.25   10.76   3
   5   0  -9    3.56   13.20   2
  -5   0   9    0.66    6.09   3
   5   0  -9   -5.56   11.17   3
   4   0  -9   -5.31   13.33   2
   3   0  -9  -13.79    9.96   2
   2   0  -9   -1.61   10.37   2
   1   0  -9   15.94    9.71   2
   0   0  -9   -2.18   11.06   1
   0   0  -9   -2.54   10.52   2
  -1   0  -9   25.56   14.12   1
  -1   0  -9   -6.40   10.38   2
  -2   0  -9   17.49    8.84   2
  -2   0  -9    4.63   13.10   3
  -2   0  -9    7.38   10.97   3
  -2   0  -9   -0.43   12.05   1
  -3   0  -9    0.38   16.05   3
  -3   0  -9    5.86   12.49   1
  -3   0  -9   14.53   12.63   3
  -3   0  -9    1.87    7.98   2
   3   0   9    7.31   11.06   3
   4   0   9    6.21    9.84   3
  -4   0  -9  -16.27   17.75   3
  -4   0  -9   -2.57   14.65   3
  -4   0  -9   -0.06   13.10   1
   4   0   9    4.81   13.43   3
   5   0   9  -10.20   16.01   3
  -5   0  -9   -9.83   14.11   1
  -5   0  -9    1.46   16.90   3
  -5   0  -9   20.07   21.40   3
  -6   0  -9    6.62   17.45   1
  -6   0  -9   -4.37   24.24   3
  -7   0  -9   11.54   26.53   3
  -8   0  -9   18.69   19.92   3
   8   0   9    4.30   23.21   3
  -9   0  -9   22.96   21.36   1
  -9   0  -9  -26.28   19.93   3
   9   0   9   18.99   25.99   3
  -9   0  -9   -7.23   23.24   3
  10   0   9  -14.82   27.46   3
 -10   0  -9   26.26   22.27   1
  10   0   9   65.33   44.91   3
 -10   0  -9  -12.01   24.87   3
  11   0   9   23.50   33.74   3
 -11   0  -9   66.56   26.15   3
  11   0   9  -24.87   42.59   3
 -11   0  -9  -22.06   26.48   1
 -11   0  -9    0.55   31.81   3
  12   0   9   65.58   43.60   3
  12   0   9  -32.15   53.16   3
 -12   0  -9   98.62   29.60   3
 -12   0  -9   24.65   32.69   3
  13   0   9   93.97   50.22   3
 -13   0  -9   54.26   34.99   3
 -13   0  -9  -20.50   40.41   3
  13   0   9 -107.10   58.65   3
  16  -1  -9  477.47   62.04   3
 -16  -1   9  470.85   71.20   3
 -16  -1   9  368.96   58.92   3
 -16   1   9  564.78  110.31   3
 -16   1   9  430.34   62.24   3
  16   1  -9  429.84   60.38   3
 -15  -1   9  519.05   76.06   3
 -15  -1   9  343.51   48.07   3
  15  -1  -9  270.61   51.96   3
  15   1  -9  350.14   50.97   3
 -15   1   9  384.36   50.60   3
 -14  -1   9  735.81   57.37   3
 -14  -1   9  670.32   64.99   2
 -14  -1   9  687.96   91.71   3
  14  -1  -9  875.63   61.42   2
  14  -1  -9  658.87   63.39   3
 -14   1   9  903.11   93.60   3
 -14   1   9  781.69   60.25   3
  14   1  -9  585.28   63.21   3
  13  -1  -9  640.70   55.96   2
  13  -1  -9  690.93   57.24   3
 -13  -1   9  599.55   51.55   3
 -13  -1   9  621.78   59.30   2
 -13  -1   9  779.20   87.68   3
 -13   1   9  664.60   55.89   3
 -13   1   9  739.93   82.79   3
  13   1  -9  558.96   59.86   3
 -12  -1   9  265.13   42.67   2
 -12  -1   9  355.45   62.28   3
 -12  -1   9  212.66   30.07   3
  12  -1  -9  229.66   37.57   3
 -12   1   9  238.13   34.75   3
  12   1  -9  206.55   40.34   3
 -11  -1   9  585.47   80.01   3
  11  -1  -9  563.72   45.71   3
 -11  -1   9  481.82   41.60   3
 -11  -1   9  532.61   53.45   2
  11  -1  -9  437.14   48.19   2
  11   1  -9  598.81   42.05   3
  11   1  -9  485.48   47.30   3
 -11   1   9  518.75   42.95   3
 -10  -1   9  251.76   43.41   2
 -10  -1   9  358.53   65.24   3
  10  -1  -9  232.47   39.48   2
 -10  -1   9  330.34   30.43   3
  10  -1  -9  336.55   34.97   3
  10   1  -9  321.44   37.69   3
 -10   1   9  344.00   33.12   3
   9  -1  -9 1010.55   63.85   3
  -9  -1   9  921.16   61.89   3
  -9  -1   9 1066.95   72.37   2
   9  -1  -9  979.18   70.65   2
   9  -1  -9 1028.71   77.60   3
  -9  -1   9  992.51   81.85   3
   9   1  -9 1036.10   64.35   3
  -9   1   9  955.86   62.14   3
   9   1  -9 1006.02   67.12   3
   8  -1  -9  745.84   50.13   3
   8  -1  -9  748.60   59.58   3
  -8  -1   9  710.12   49.17   3
   8  -1  -9  780.14   57.59   2
  -8  -1   9  776.22   60.21   2
   8   1  -9  710.82   52.65   3
  -8   1   9  714.62   49.34   3
  -8   1   9  907.29   48.15   3
   7  -1  -9  632.47   52.14   3
  -7  -1   9  635.11   43.02   3
   7  -1  -9  649.65   49.29   2
  -7  -1   9  715.18   54.68   2
   7  -1  -9  669.30   43.56   3
   7   1  -9  682.70   47.05   3
  -7   1   9  610.78   42.49   3
   7   1  -9  686.13   47.78   3
  -7   1   9  723.28   42.25   3
   6  -1  -9 1517.75   94.85   3
  -6  -1   9 1593.76   91.84   3
  -6  -1   9 1618.69   98.21   2
   6  -1  -9 1627.39   97.12   2
   6  -1  -9 1564.17   90.76   3
  -6  -1   9 1818.66   94.22   3
  -6   1   9 1667.14   90.03   3
   6   1  -9 1588.25   93.32   3
   6   1  -9 1604.47   95.27   3
  -6   1   9 1446.63   89.87   3
   5  -1  -9  375.87   23.80   1
  -5  -1   9  337.27   25.35   3
  -5  -1   9  323.17   37.58   2
  -5  -1   9  384.43   28.42   3
   5  -1  -9  303.19   24.62   3
   5  -1  -9  364.26   34.63   2
   5  -1  -9  280.33   32.44   3
   5   1  -9  344.87   29.64   3
  -5   1   9  406.75   23.79   3
  -4  -1   9  816.11   52.00   3
   4  -1  -9  936.74   58.31   2
   4  -1  -9  905.04   51.31   1
  -4  -1   9  867.75   59.68   2
  -4  -1   9  922.33   54.89   3
   4   1  -9  853.33   53.59   3
   4   1  -9  831.74   54.34   3
  -3  -1   9  903.59   50.52   3
  -3  -1   9  757.13   48.75   3
   3  -1  -9  864.13   49.70   1
  -3  -1   9  806.31   56.00   2
   3   1  -9  796.74   50.15   3
   3   1  -9  795.15   50.09   3
   2  -1  -9  909.08   51.28   1
  -2  -1   9  801.45   55.44   2
  -2  -1   9  897.66   50.52   3
  -2  -1   9  794.39   49.37   3
   2   1  -9  780.23   50.21   3
   2   1  -9  784.09   50.31   3
  -1  -1   9 1337.57   72.90   3
  -1  -1   9 1220.92   76.78   2
  -1  -1   9 1215.67   72.25   3
   1  -1  -9 1356.43   74.48   1
   1   1  -9 1229.45   72.88   3
   1   1  -9 1213.00   72.99   3
   0  -1   9  595.06   42.88   2
   0  -1  -9  635.66   40.51   1
   0  -1   9  530.59   36.91   3
   0   1  -9  584.09   38.67   3
   0   1  -9  584.15   39.17   3
   1  -1   9 1543.81   83.78   3
  -1  -1  -9 1395.77   85.27   1
   1  -1   9 1425.09   85.39   2
   1  -1   9 1398.33   82.48   3
  -1   1  -9 1437.33   83.16   3
  -1   1  -9 1457.04   83.55   3
   2  -1   9  267.61   27.10   3
   2  -1   9  268.62   31.13   2
   2  -1   9  340.60   24.87   3
  -2  -1  -9  271.98   28.64   1
  -2  -1  -9  241.82   26.50   3
  -2   1  -9  296.77   27.64   3
  -2   1  -9  279.25   27.53   3
  -3  -1  -9  548.05   38.12   3
   3  -1   9  510.75   43.35   2
  -3  -1  -9  588.55   43.50   1
  -3  -1  -9  512.51   42.32   3
   3  -1   9  628.53   41.66   3
   3   1   9  617.57   35.96   3
   3   1   9  655.83   37.84   3
  -3   1  -9  588.34   43.06   3
  -3   1  -9  567.44   42.04   3
   4  -1   9 1326.52   83.72   3
  -4  -1  -9 1419.20   81.34   3
  -4  -1  -9 1359.60   84.00   1
  -4  -1  -9 1235.16   83.84   3
  -4   1  -9 1405.36   85.23   3
  -4   1  -9 1479.97   84.52   3
   4   1   9 1463.15   80.81   3
   4   1   9 1416.95   79.47   3
  -5  -1  -9  399.58   39.44   3
   5  -1   9  319.45   40.59   3
  -5  -1  -9  393.84   35.27   3
  -5  -1  -9  328.13   35.93   1
  -5   1  -9  428.22   38.40   3
   5   1   9  434.36   35.60   3
   5   1   9  434.61   30.55   3
  -5   1  -9  407.78   37.37   3
  -6  -1  -9  701.29   57.87   3
  -6  -1  -9  805.02   55.99   3
  -6  -1  -9  805.15   55.57   1
   6  -1   9  692.95   60.98   3
   6   1   9  736.37   54.66   3
  -6   1  -9  894.43   54.39   3
  -6   1  -9  816.45   56.92   3
  -7  -1  -9  246.00   37.30   3
   7  -1   9  243.65   37.29   3
   7  -1   9  256.03   43.62   3
  -7  -1  -9  227.23   38.23   3
  -7  -1  -9  185.69   33.66   1
  -7   1  -9  311.60   30.09   3
  -7   1  -9  235.52   35.16   3
   7   1   9  230.81   36.27   3
   8  -1   9  303.57   45.15   3
   8  -1   9  371.53   60.98   3
  -8  -1  -9  403.24   45.49   3
  -8  -1  -9  342.04   37.93   1
  -8  -1  -9  375.30   48.25   3
  -8   1  -9  319.03   40.84   3
   8   1   9  368.94   43.98   3
  -8   1  -9  343.61   36.23   1
   9  -1   9  462.29   62.53   3
  -9  -1  -9  413.37   41.75   1
   9  -1   9  495.84   53.86   3
  -9  -1  -9  422.25   50.22   3
  -9  -1  -9  564.93   49.27   3
  -9   1  -9  375.91   47.62   3
  -9   1  -9  468.45   41.63   1
   9   1   9  466.27   48.88   3
 -10  -1  -9  476.35   55.33   3
 -10  -1  -9  563.13   46.54   3
  10  -1   9  456.74   57.95   3
 -10  -1  -9  499.86   44.82   1
  10  -1   9  361.06   67.86   3
 -10   1  -9  384.55   50.88   3
  10   1   9  459.81   56.24   3
 -10   1  -9  568.15   50.90   3
  11  -1   9  827.17   78.34   3
 -11  -1  -9  727.22   69.14   3
 -11  -1  -9  764.92   61.40   1
  11  -1   9  845.01   84.56   3
  11   1   9  770.59   69.58   3
  11   1   9  543.69   90.26   3
 -11   1  -9  757.57   66.73   3
 -11   1  -9  718.01   58.10   1
  12  -1   9  158.87   52.19   3
 -12  -1  -9  130.46   31.18   1
  12  -1   9    2.42   54.82   3
 -12   1  -9  102.67   29.86   1
 -12   1  -9  162.91   44.69   3
 -12   1  -9   57.69   40.27   3
  12   1   9   16.72   51.33   3
  12   1   9  202.18   50.55   3
  15  -2  -9  149.90   46.05   2
 -15  -2   9   33.15   45.99   2
 -15  -2   9   13.92   81.03   3
  15   2  -9   55.60   41.05   3
 -15   2   9  225.59   46.64   3
 -15   2   9  135.90   67.68   3
 -14  -2   9  289.67   51.57   2
 -14  -2   9  379.45   83.89   3
 -14  -2   9  323.23   52.87   3
  14  -2  -9  385.83   55.05   3
  14   2  -9  314.91   54.93   3
 -14   2   9  367.45   68.62   3
 -14   2   9  308.00   53.17   3
 -13  -2   9   21.94   26.13   3
  13  -2  -9  -36.12   42.35   2
 -13  -2   9  -19.47   58.11   3
  13  -2  -9   60.44   36.85   3
 -13   2   9    2.02   38.30   3
 -13   2   9  -13.03   49.61   3
  13   2  -9   69.18   29.11   3
  12  -2  -9   16.65   30.09   3
 -12  -2   9   58.46   48.22   3
 -12  -2   9  -12.29   29.08   2
 -12  -2   9   15.00   25.02   3
  12  -2  -9   21.81   33.36   2
 -12   2   9  -44.75   47.70   3
  12   2  -9    5.63   29.36   3
 -12   2   9    4.22   33.69   3
  11  -2  -9   21.19   30.24   2
 -11  -2   9    8.70   23.86   3
  11  -2  -9   50.09   33.98   3
 -11  -2   9    3.41   49.01   3
  11  -2  -9    0.83   25.35   3
 -11   2   9  -30.94   51.11   3
 -11   2   9   31.57   28.44   3
  11   2  -9   30.95   26.78   3
 -10  -2   9  134.39   51.42   3
 -10  -2   9   52.59   29.54   2
  10  -2  -9   89.63   24.73   3
 -10  -2   9   93.62   25.69   3
  10   2  -9   88.55   27.74   3
 -10   2   9   85.55   30.54   3
  -9  -2   9  367.85   46.28   2
   9  -2  -9  385.61   37.09   3
  -9  -2   9  375.80   40.73   3
  -9  -2   9  428.57   70.48   3
   9   2  -9  376.98   43.73   3
  -9   2   9  434.85   43.37   3
   8  -2  -9  164.48   45.33   3
  -8  -2   9  152.39   25.17   3
  -8  -2   9  146.35   30.96   2
   8  -2  -9  120.22   23.32   3
  -8  -2   9  120.28   44.86   3
   8   2  -9  104.81   25.70   3
  -8   2   9   93.62   26.97   3
   7  -2  -9   21.73   29.75   3
   7  -2  -9  -13.87   15.33   3
  -7  -2   9    2.82   42.24   3
  -7  -2   9   -7.86   21.29   2
  -7  -2   9  -11.87   17.37   3
  -7   2   9    9.75   15.18   1
   7   2  -9    6.09   19.70   3
  -7   2   9   -2.34   20.50   3
  -6  -2   9  153.31   28.56   3
  -6  -2   9  128.74   25.03   2
   6  -2  -9  123.79   24.29   3
  -6  -2   9  214.17   43.89   3
   6  -2  -9  221.12   33.49   3
  -6   2   9  163.50   23.60   3
  -6   2   9  155.84   24.74   1
   6   2  -9  184.80   32.16   3
  -5  -2   9   19.40   21.47   2
  -5  -2   9   11.83   32.79   3
   5  -2  -9   18.95   22.57   3
  -5  -2   9   13.38   16.64   3
   5  -2  -9   -3.82   15.20   3
  -5   2   9    6.56   15.85   1
   5   2  -9   23.10   13.03   3
  -5   2   9    9.39   17.12   3
  -5   2   9   16.85   13.80   3
   5   2  -9  -21.03   18.30   3
  -4  -2   9  600.75   51.63   2
  -4  -2   9  624.93   62.14   3
  -4  -2   9  616.24   46.95   3
   4  -2  -9  624.06   48.04   3
   4  -2  -9  608.47   44.19   3
  -4   2   9  727.45   43.73   3
  -4   2   9  757.32   42.38   3
  -4   2   9  640.87   45.91   1
   4   2  -9  574.38   47.73   3
   4   2  -9  725.20   43.93   3
  -3  -2   9  317.31   32.90   3
  -3  -2   9  372.33   40.09   2
   3  -2  -9  376.04   33.82   3
  -3  -2   9  264.07   52.86   3
   3   2  -9  299.87   35.42   3
   3   2  -9  430.55   30.07   3
  -3   2   9  437.99   29.08   3
  -3   2   9  434.27   28.04   3
  -3   2   9  355.22   33.67   1
  -2  -2   9   60.87   19.64   3
   2  -2  -9   36.02   16.38   3
  -2  -2   9   66.75   21.83   2
  -2  -2   9   47.74   36.18   3
   2  -2  -9   82.97   18.54   3
   2   2  -9   28.07   17.89   3
  -2   2   9   37.88   17.10   1
  -1  -2   9  133.16   26.88   3
  -1  -2   9  207.62   32.60   2
   1  -2  -9  182.72   24.70   3
   1  -2  -9  213.58   26.53   3
  -1  -2   9  229.64   42.17   3
  -1   2   9  242.79   21.11   3
   1   2  -9  139.53   28.11   3
  -1   2   9  198.01   28.46   1
   0  -2   9   93.34   21.93   3
   0  -2   9   85.76   22.54   2
   0  -2  -9   88.00   19.67   3
   0  -2  -9  113.02   20.06   3
   0   2  -9   50.64   22.12   3
   0   2   9  134.69   16.70   3
   0   2   9   83.85   20.66   1
   0   2   9   97.30   17.04   3
   1  -2   9   43.37   21.03   2
  -1  -2  -9   68.78   19.28   3
  -1  -2  -9   77.10   20.84   3
   1  -2   9   59.16   19.01   3
   1   2   9  104.91   16.36   3
   1   2   9   99.81   17.41   3
   1   2   9   31.62   18.48   1
  -1   2  -9   59.50   22.27   3
  -2  -2  -9  204.66   28.73   3
   2  -2   9  198.45   32.19   2
   2  -2   9  199.87   28.97   3
  -2  -2  -9  187.46   29.01   3
   2   2   9  191.07   29.50   1
   2   2   9  243.14   25.79   3
   2   2   9  214.66   22.39   3
  -2   2  -9  142.59   26.67   3
  -3  -2  -9  314.72   34.90   3
   3  -2   9  320.64   35.76   2
   3  -2   9  275.63   53.97   3
  -3  -2  -9  319.32   35.20   3
   3  -2   9  377.77   37.54   3
  -3   2  -9  289.85   36.13   3
   3   2   9  287.96   34.46   1
   3   2   9  354.38   32.44   3
   4  -2   9   90.61   22.31   2
   4  -2   9   66.81   37.76   3
  -4  -2  -9   72.75   24.79   3
  -4  -2  -9   70.16   25.01   3
   4  -2   9   73.28   24.95   3
  -4   2  -9   62.51   26.12   3
   5  -2   9  162.93   33.73   3
  -5  -2  -9  199.99   30.61   3
   5  -2   9  144.83   23.30   2
  -5  -2  -9  139.85   30.21   3
   5  -2   9  192.51   41.55   3
   5   2   9  142.25   25.70   1
  -5   2  -9  154.26   29.65   3
  -6  -2  -9    2.06   22.39   3
   6  -2   9  -32.17   38.95   3
  -6  -2  -9  -30.67   26.35   3
   6  -2   9   42.02   31.34   3
  -6   2  -9   -6.08   23.99   3
   6   2   9    1.67   18.78   1
   6   2   9   27.76   23.56   3
  -6   2  -9   15.31   19.55   3
  -7  -2  -9    2.92   29.68   3
  -7  -2  -9   12.99   31.41   3
   7  -2   9   68.91   41.08   3
   7  -2   9   -2.39   32.39   3
  -7   2  -9    0.81   26.26   3
   7   2   9   52.77   25.61   3
   7   2   9   10.87   22.22   1
  -8  -2  -9   39.83   35.41   3
   8  -2   9   42.53   51.37   3
  -8  -2  -9   66.95   38.57   3
   8  -2   9  129.44   38.80   3
   8   2   9   96.72   30.16   3
   8   2   9   52.64   24.29   1
   9  -2   9   -2.40   44.08   3
   9  -2   9   20.94   52.31   3
  -9  -2  -9    6.02   39.24   3
  -9   2  -9   97.91   30.59   3
   9   2   9   22.38   30.20   3
  -9   2  -9   22.81   30.73   3
 -10  -2  -9   89.45   46.09   3
  10  -2   9  -54.46   52.84   3
  10  -2   9  -59.94   59.46   3
  10   2   9   -3.45   37.72   3
 -10   2  -9  -11.28   39.89   3
 -10   2  -9   43.74   37.08   3
  11  -2   9   -7.17   58.05   3
 -11  -2  -9    6.67   50.31   3
 -11   2  -9  -42.29   44.58   3
 -11   2  -9    2.98   43.75   3
 -11   2  -9   70.59   32.68   1
  11   2   9  138.24   44.52   3
 -12  -3   9  574.27   76.71   2
  12  -3  -9  613.15   66.24   3
 -12  -3   9  740.42  112.23   3
 -12  -3   9  634.23   76.87   3
 -12   3   9  634.45   96.41   3
  12   3  -9  619.72   71.11   3
 -12   3   9  648.17   78.73   3
 -11  -3   9  668.04   71.58   2
  11  -3  -9  675.15   62.90   3
 -11  -3   9  809.02  110.02   3
 -11  -3   9  716.92   70.56   3
  11  -3  -9  747.33   81.09   3
  11   3  -9  651.86   68.08   3
 -11   3   9  632.66   72.54   3
 -11   3   9  690.65   87.95   3
 -10  -3   9  335.61   47.05   3
  10  -3  -9  264.87   45.34   3
 -10  -3   9  423.70   75.52   3
 -10  -3   9  307.05   54.25   2
  10   3  -9  284.33   50.48   3
 -10   3   9  203.41   45.88   3
   9  -3  -9  408.63   47.30   3
  -9  -3   9  606.72   59.92   3
  -9  -3   9  493.87   58.99   2
  -9  -3   9  640.97   92.75   3
  -9   3   9  495.43   56.67   3
  -9   3   9  494.86   43.68   1
   9   3  -9  491.83   53.30   3
   8  -3  -9  584.29   56.16   3
  -8  -3   9  612.99   58.77   2
   8  -3  -9  561.55   51.11   3
  -8  -3   9  576.67   57.25   3
  -8  -3   9  753.91   92.64   3
  -8   3   9  538.92   46.71   1
   8   3  -9  566.85   53.56   3
  -8   3   9  517.11   53.97   3
  -7  -3   9  643.89   59.97   3
  -7  -3   9  646.46   86.28   3
   7  -3  -9  601.40   52.47   3
   7  -3  -9  639.82   64.14   3
  -7  -3   9  732.07   61.48   2
  -7   3   9  696.49   55.93   3
   7   3  -9  631.32   59.31   3
  -7   3   9  671.50   50.43   1
   6  -3  -9  941.06   66.17   3
  -6  -3   9 1024.59   92.17   3
  -6  -3   9  951.56   71.22   3
   6  -3  -9  920.01   81.08   3
  -6  -3   9 1033.35   73.64   2
  -6   3   9 1003.39   64.45   1
  -6   3   9  857.00   64.78   3
   6   3  -9  902.77   71.62   3
   5  -3  -9  561.22   67.15   3
  -5  -3   9  612.44   57.39   3
  -5  -3   9  622.24   58.65   2
  -5  -3   9  631.33   76.22   3
   5   3  -9  661.78   57.28   3
  -5   3   9  679.91   51.77   3
  -5   3   9  738.59   50.52   1
  -4  -3   9  894.87   84.26   3
  -4  -3   9  812.91   63.39   3
   4  -3  -9  750.01   69.18   3
  -4  -3   9  823.90   66.06   2
   4   3  -9  800.67   62.37   3
  -4   3   9  847.71   57.87   1
  -4   3   9  844.41   58.16   3
  -3  -3   9  951.23   68.69   3
  -3  -3   9  964.48   70.76   2
  -3  -3   9  922.11   86.90   3
   3  -3  -9  886.70   63.55   3
   3  -3  -9  883.72   71.43   3
  -3   3   9  990.61   62.97   1
  -3   3   9  925.78   62.80   3
   3   3  -9  870.44   66.48   3
  -2  -3   9 1018.92   89.51   3
  -2  -3   9  987.02   71.36   3
   2  -3  -9  963.72   67.56   3
  -2  -3   9 1026.85   73.46   2
   2  -3  -9  973.56   72.64   3
   2   3  -9  975.68   69.98   3
  -2   3   9 1028.23   65.87   3
  -2   3   9  990.24   66.70   1
  -1  -3   9  784.28   61.51   3
  -1  -3   9  753.10   80.34   3
   1  -3  -9  743.69   57.65   3
   1  -3  -9  823.87   65.60   3
  -1  -3   9  810.35   64.26   2
  -1   3   9  860.07   57.44   1
  -1   3   9  843.51   55.58   3
   1   3  -9  750.96   60.32   3
   0  -3  -9  459.43   45.86   3
   0  -3   9  549.66   52.12   2
   0  -3   9  493.79   49.89   3
   0  -3   9  502.99   73.40   3
   0  -3  -9  553.78   55.58   3
   0   3   9  543.51   45.05   1
   0   3  -9  455.96   48.50   3
   0   3   9  561.19   42.59   3
  -1  -3  -9 1009.59   74.49   3
  -1  -3  -9 1160.82   79.03   3
   1  -3   9 1058.83   77.14   3
   1  -3   9 1135.90   78.94   2
  -1   3  -9 1076.69   77.25   3
   1   3   9 1104.99   73.66   1
   1   3   9 1257.88   70.67   3
   1   3   9 1125.87   73.20   3
   2  -3   9 1066.98   79.84   3
  -2  -3  -9 1085.49   78.01   3
  -2  -3  -9 1189.75   84.34   3
   2  -3   9 1196.04   81.53   2
   2   3   9 1122.17   76.79   1
  -2   3  -9 1084.21   80.26   3
   2   3   9 1315.16   73.11   3
   2   3   9 1152.86   76.29   3
  -2   3  -9 1285.52   77.46   3
  -3  -3  -9 1098.43   76.43   3
   3  -3   9  961.93   77.35   3
   3  -3   9 1067.13   77.53   2
  -3  -3  -9 1070.99   83.03   3
   3  -3   9 1160.41   99.04   3
   3   3   9 1093.49   75.28   3
  -3   3  -9 1061.80   77.92   3
   3   3   9 1108.26   74.21   1
  -3   3  -9 1335.08   76.22   3
   4  -3   9  791.88   86.67   3
  -4  -3  -9  741.82   62.41   3
   4  -3   9  758.06   65.48   3
  -4  -3  -9  836.70   75.51   3
   4  -3   9  864.53   64.66   2
   4   3   9  727.71   58.70   1
  -4   3  -9  748.00   64.18   3
   4   3   9  735.29   60.94   3
  -5  -3  -9  322.94   47.78   3
   5  -3   9  456.86   55.93   3
   5  -3   9  352.15   47.46   2
   5   3   9  350.10   41.85   1
   5   3   9  297.28   48.18   3
  -5   3  -9  306.85   50.27   3
  -6  -3  -9  651.60   85.16   3
   6  -3   9  467.17   67.52   3
   6  -3   9  508.84   91.82   3
  -6  -3  -9  648.32   64.83   3
   6  -3   9  639.14   58.43   2
  -6   3  -9  618.88   60.58   3
   6   3   9  564.00   55.17   1
   6   3   9  578.85   56.89   3
  -7  -3  -9  925.48   75.23   3
   7  -3   9  914.47   70.45   2
   7  -3   9  737.00   79.73   3
   7  -3   9  706.38  101.31   3
  -7   3  -9  818.53   70.24   3
  -7   3  -9  834.16   73.67   3
   7   3   9  870.39   67.30   1
   7   3   9  792.63   69.81   3
   8  -3   9 1119.26  122.26   3
   8  -3   9 1016.99   98.21   3
  -8  -3  -9  967.93   85.07   3
   8  -3   9 1089.60   78.25   2
  -8   3  -9  932.25   86.17   3
  -8   3  -9  982.38   84.67   3
   8   3   9 1070.50   77.80   1
  -7  -4   9   53.94   82.36   3
  -6  -4   9   92.01   87.04   3
   6  -4  -9  140.39   46.34   3
   6   4  -9   14.12   46.04   3
  -5  -4   9   78.36   48.88   3
  -5  -4   9  127.36   73.57   3
  -5  -4   9   78.36   44.08   2
   5  -4  -9   96.18   40.74   3
   5  -4  -9   62.75   40.13   3
   5   4  -9   71.35   42.62   3
  -5   4   9   30.24   33.27   1
  -5   4   9   26.91   36.88   3
  -4  -4   9   -0.24   42.02   2
  -4  -4   9   87.84   69.97   3
  -4  -4   9   83.34   45.58   3
   4  -4  -9    3.33   41.01   3
  -4   4   9   22.00   33.38   1
   4   4  -9   38.59   44.05   3
  -4   4   9   54.96   34.93   3
  -3  -4   9  152.76   81.39   3
  -3  -4   9   52.79   50.55   3
   3  -4  -9  116.69   43.78   3
  -3   4   9   77.86   31.85   3
  -3   4   9   72.53   33.55   1
   3   4  -9   83.35   44.19   3
  -2  -4   9   34.99   69.17   3
   2  -4  -9   60.62   40.24   3
   1  -4  -9   58.79   39.66   3
   1   4  -9   64.61   47.16   3
   0  -4   9    8.23   72.80   3
   0  -4  -9    8.85   40.55   3
   0   4   9   28.61   31.99   3
   0   4  -9   95.74   38.89   3
  -2  -4  -9   81.44   44.02   3
   2  -4   9  -98.16   80.31   3
   2   4   9  103.00   42.04   3
   2   4   9   78.50   33.95   1
  -2   4  -9  111.57   49.84   3
   3  -4   9  -98.49   52.83   3
   3   4   9  -20.21   36.92   1
  -3   4  -9   29.61   47.43   3
 -17   0  10  525.46  109.06   3
  17   0 -10  441.11   60.36   3
 -16   0  10   92.57   33.61   3
  16   0 -10  160.88   45.02   3
 -16   0  10  106.38   77.51   3
  16   0 -10  163.69   37.84   2
 -15   0  10  234.47   71.40   3
  15   0 -10  158.02   34.79   2
 -15   0  10  237.53   39.55   3
  15   0 -10  238.22   41.34   3
 -14   0  10  281.73   36.90   3
  14   0 -10  292.50   48.08   2
  14   0 -10  306.60   47.79   3
  13   0 -10  294.38   42.89   3
  13   0 -10  320.87   39.69   2
 -13   0  10  294.79   34.20   3
  12   0 -10  511.56   47.94   2
 -12   0  10  458.92   76.02   3
  12   0 -10  504.18   47.73   3
 -12   0  10  496.93   39.22   3
 -11   0  10   90.06   18.85   3
  11   0 -10   70.51   23.28   3
  11   0 -10  107.35   26.64   3
  11   0 -10   59.49   22.41   2
 -10   0  10  262.14   27.96   3
  10   0 -10  356.18   48.76   3
  10   0 -10  323.98   35.69   3
  10   0 -10  297.44   35.95   2
   9   0 -10  195.21   28.68   2
   9   0 -10  226.60   40.99   3
   9   0 -10  213.47   31.19   3
  -9   0  10  187.84   22.60   3
  -8   0  10  518.33   36.66   3
   8   0 -10  530.50   43.22   2
   8   0 -10  575.38   46.38   3
   8   0 -10  582.12   42.87   3
  -7   0  10 2362.28  134.84   3
   7   0 -10 2317.20  137.56   3
   7   0 -10 2549.73  141.64   2
  -7   0  10 2476.94  137.28   3
   7   0 -10 2509.95  137.89   3
   6   0 -10  182.36   24.11   3
   6   0 -10  198.65   28.00   2
  -6   0  10  211.83   17.28   3
   6   0 -10  233.43   23.23   3
   5   0 -10  140.88   20.43   2
   4   0 -10   95.44   18.41   2
   3   0 -10  423.29   33.54   2
   2   0 -10 2189.77  121.58   1
   2   0 -10 2119.20  123.16   2
   1   0 -10  972.63   62.53   2
   1   0 -10 1062.07   62.46   1
   0   0 -10 1001.43   65.16   2
   0   0 -10 1177.79   66.71   1
  -1   0 -10   27.79   10.45   2
  -1   0 -10   57.42   16.21   1
  -2   0 -10  112.98   20.84   1
  -2   0 -10  101.01   13.62   2
   3   0  10 1780.10  106.14   3
  -3   0 -10 1742.77  107.67   3
  -3   0 -10 2082.52  110.62   1
   3   0  10 2066.67  105.70   3
  -3   0 -10 1827.65  105.94   2
  -3   0 -10 1874.80  106.86   3
  -4   0 -10 1014.28   62.04   1
   4   0  10  865.39   56.99   3
  -4   0 -10  920.55   58.35   3
   4   0  10  995.83   56.21   3
  -4   0 -10  847.93   59.58   3
  -5   0 -10  848.88   60.40   3
  -5   0 -10  862.39   58.03   3
   5   0  10  955.70   55.71   3
   5   0  10  823.92   57.82   3
  -5   0 -10 1008.34   59.62   1
  -6   0 -10  167.29   27.02   3
  -6   0 -10  169.72   33.74   3
  -6   0 -10  168.72   26.48   1
   6   0  10  187.92   27.68   3
  -7   0 -10  171.32   31.17   3
  -7   0 -10  181.37   32.08   3
   7   0  10  214.00   31.18   3
  -7   0 -10  221.54   31.45   1
  -8   0 -10  478.64   44.26   1
  -8   0 -10  508.39   52.31   3
   8   0  10  481.34   45.55   3
  -8   0 -10  442.71   44.02   3
  -9   0 -10  738.27   51.66   1
  -9   0 -10  538.58   57.41   3
  -9   0 -10  613.34   51.99   3
   9   0  10  584.86   51.68   3
 -10   0 -10 1124.23   75.87   1
 -10   0 -10 1290.63   77.40   3
  10   0  10 1096.62   80.25   3
 -10   0 -10 1015.66   78.49   3
 -11   0 -10   51.89   33.48   3
  11   0  10  106.60   40.02   3
 -11   0 -10   58.09   27.54   1
  12   0  10   52.05   61.66   3
 -12   0 -10   52.91   31.79   1
 -12   0 -10   41.71   38.11   3
  16  -1 -10  121.72   36.61   2
 -16  -1  10   98.24   62.80   3
 -16   1  10    0.44   78.51   3
 -16   1  10  216.46   41.91   3
  15  -1 -10  182.29   34.57   2
  15  -1 -10  168.05   43.02   3
 -15  -1  10  215.00   41.68   3
 -15  -1  10  205.73   72.18   3
  15   1 -10  162.64   42.20   3
 -15   1  10  277.59   74.53   3
 -15   1  10  134.40   38.83   3
 -14  -1  10   -0.56   19.47   3
  14  -1 -10   -4.99   33.14   2
 -14  -1  10   15.12   54.57   3
  14  -1 -10    9.51   29.61   3
  14   1 -10  -17.47   29.96   3
 -14   1  10  -69.70   51.02   3
 -14   1  10    8.76   26.89   3
  13  -1 -10   16.02   25.99   3
 -13  -1  10   60.53   53.47   3
  13  -1 -10   37.18   26.98   2
 -13  -1  10    3.98   30.90   2
 -13  -1  10   72.94   22.19   3
 -13   1  10   78.12   58.89   3
 -13   1  10   49.97   26.05   3
  13   1 -10   52.88   31.63   3
 -12  -1  10   67.40   29.66   2
  12  -1 -10   43.53   27.99   2
  12  -1 -10   98.69   32.69   3
  12  -1 -10   39.38   25.83   3
 -12  -1  10   87.91   21.78   3
 -12  -1  10  123.67   55.10   3
  12   1 -10   85.26   30.43   3
 -12   1  10   68.25   23.31   3
  11  -1 -10   41.36   27.68   2
  11  -1 -10   45.70   20.98   3
 -11  -1  10   -2.30   45.62   3
  11  -1 -10   55.92   37.47   3
 -11  -1  10   37.08   18.32   3
 -11  -1  10   42.18   27.50   2
  11   1 -10    6.17   24.42   3
 -11   1  10   59.23   20.72   3
  10  -1 -10  147.42   28.58   3
  10  -1 -10  218.76   41.67   3
 -10  -1  10  216.97   54.89   3
  10  -1 -10  195.70   34.06   2
 -10  -1  10  135.48   24.38   3
 -10  -1  10  155.13   32.80   2
  10   1 -10  212.49   32.90   3
 -10   1  10  150.97   26.51   3
  -9  -1  10   -6.27   22.65   2
  -9  -1  10   21.39   14.61   3
   9  -1 -10   22.29   28.76   3
   9  -1 -10   -6.50   23.66   2
   9  -1 -10   12.96   15.76   3
   9   1 -10    8.78   19.40   3
  -9   1  10    4.01   16.11   3
   8  -1 -10   13.68   21.40   2
   8  -1 -10  -10.88   24.26   3
  -8  -1  10  -13.87   23.34   2
   8  -1 -10    4.62   14.15   3
   8   1 -10    2.12   16.54   3
   8   1 -10  -14.97   21.46   3
   7  -1 -10  191.79   28.40   3
   7  -1 -10  144.45   28.33   2
   7  -1 -10  141.44   21.55   3
  -7  -1  10  162.68   31.65   2
  -7  -1  10  159.33   19.77   3
  -7   1  10  138.96   17.44   3
   7   1 -10  186.92   30.65   3
   7   1 -10  211.83   27.31   3
  -6  -1  10   46.76   25.13   2
   6  -1 -10   44.89   18.33   2
   6  -1 -10   26.46   12.47   3
  -6  -1  10   48.07   13.18   3
   6  -1 -10   29.48   19.54   3
   6   1 -10   60.15   18.31   3
  -6   1  10   40.29   10.77   3
   6   1 -10   23.92   18.84   3
   5  -1 -10  150.88   25.05   2
  -5  -1  10  134.65   18.32   3
  -5  -1  10  139.85   27.83   2
   5   1 -10  110.29   22.13   3
  -4  -1  10    3.29   10.75   3
   4  -1 -10   26.97   16.60   2
  -4  -1  10   27.99   15.34   3
  -4  -1  10   10.04   21.02   2
   4   1 -10   -2.16   13.51   3
   4   1 -10   11.67   13.77   3
  -3  -1  10    6.31   10.55   3
   3  -1 -10   -6.00   15.29   2
  -3  -1  10    7.49   20.92   2
   3  -1 -10   -9.50    9.93   1
   3   1 -10   13.93   12.67   3
   3   1 -10   -5.31   12.80   3
  -2  -1  10  127.05   16.82   3
   2  -1 -10  125.94   18.13   1
  -2  -1  10  132.49   24.97   2
   2  -1 -10  105.38   20.60   2
   2   1 -10  120.01   18.59   3
   2   1 -10  130.36   19.00   3
  -1  -1  10   94.94   14.13   3
   1  -1 -10   84.41   17.61   2
   1  -1 -10   59.90   15.98   1
  -1  -1  10   94.34   21.55   2
   1   1 -10  109.20   17.19   3
   1   1 -10   88.27   16.02   3
   0  -1  10   15.65   11.51   3
   0  -1 -10   37.87   15.21   2
   0  -1 -10  -26.38   15.71   1
   0  -1  10    2.61   18.29   2
   0  -1  10   12.80   11.41   3
   0   1 -10   19.64   13.45   3
  -1  -1 -10   17.57   15.02   2
   1  -1  10   32.21   20.47   2
   1  -1  10   40.38   14.45   3
  -1  -1 -10   16.54   14.49   1
  -1   1 -10   32.78   14.44   3
  -1   1 -10   12.15   14.62   3
   2  -1  10    8.05   19.48   2
  -2  -1 -10    8.21   14.63   2
   2  -1  10   17.55   17.62   3
  -2  -1 -10    0.90   17.05   1
  -2   1 -10   -2.04   15.33   3
  -2   1 -10   25.88   16.45   3
  -3  -1 -10   25.41   20.97   1
  -3  -1 -10   28.97   13.73   3
   3  -1  10   22.99   20.38   2
  -3  -1 -10   74.73   14.46   2
   3  -1  10    7.82   21.04   3
  -3  -1 -10   56.47   18.15   3
  -3   1 -10   49.76   18.96   3
  -3   1 -10   63.71   18.58   3
  -4  -1 -10   85.13   18.01   3
  -4  -1 -10   98.79   21.90   3
   4  -1  10   34.86   26.18   3
  -4  -1 -10   55.62   22.77   1
  -4   1 -10  105.18   23.17   3
  -4   1 -10   55.85   21.58   3
   4   1  10   99.79   17.78   3
   5  -1  10   16.70   26.00   3
  -5  -1 -10   12.55   20.26   1
  -5  -1 -10   49.60   20.50   3
  -5  -1 -10    3.90   18.43   3
  -5   1 -10   36.20   24.47   3
  -5   1 -10    8.48   19.57   3
   5   1  10   15.72   18.48   3
  -6  -1 -10   78.05   23.73   3
  -6  -1 -10   72.47   23.08   1
   6  -1  10   31.19   30.30   3
  -6  -1 -10   85.63   23.88   3
  -6   1 -10   86.39   25.77   3
  -6   1 -10   65.99   29.30   3
   6   1  10   73.94   21.75   3
  -7  -1 -10   69.86   24.90   1
   7  -1  10   73.54   32.51   3
  -7  -1 -10  108.16   27.90   3
  -7  -1 -10   66.90   26.63   3
  -7   1 -10   73.60   21.27   1
  -7   1 -10   89.60   26.11   3
   7   1  10   93.15   26.92   3
  -8  -1 -10   54.40   22.93   1
  -8  -1 -10   82.56   29.10   3
   8  -1  10    4.85   33.64   3
  -8  -1 -10   65.58   28.30   3
   8   1  10   44.70   28.57   3
   8   1  10   79.32   20.21   3
  -8   1 -10   42.21   21.40   1
  -8   1 -10   48.10   25.56   3
  -9  -1 -10   30.78   23.18   1
  -9  -1 -10   -3.60   28.21   3
   9  -1  10   63.45   34.43   3
  -9  -1 -10   12.71   35.72   3
   9  -1  10   -3.04   51.03   3
  -9   1 -10    0.90   22.26   1
   9   1  10   18.26   30.59   3
  -9   1 -10   -8.30   28.99   3
  10  -1  10  -80.41   51.55   3
 -10  -1 -10   25.73   25.78   1
 -10  -1 -10   24.71   40.62   3
 -10  -1 -10   18.10   34.84   3
  10  -1  10   51.10   45.56   3
 -10   1 -10   50.07   34.41   3
 -10   1 -10    5.73   33.01   3
  10   1  10   15.11   36.92   3
 -10   1 -10   17.12   26.45   1
  11  -1  10  -71.39   64.44   3
 -11  -1 -10   10.42   39.20   3
 -11  -1 -10   27.96   34.28   1
  11  -1  10    4.00   48.40   3
 -11   1 -10   70.81   29.31   1
 -11   1 -10   12.19   36.03   3
 -11   1 -10  100.31   40.97   3
  11   1  10   99.13   40.44   3
 -12  -1 -10   31.36   36.40   1
 -12  -1 -10   27.77   69.39   3
 -12   1 -10  120.78   35.26   1
 -12   1 -10   19.77   54.58   3
  15  -2 -10  435.87   78.88   2
 -15  -2  10  411.00   61.04   3
 -15  -2  10  243.14   55.31   2
 -15  -2  10  562.35  101.80   3
  15  -2 -10  339.71   66.39   3
  15   2 -10  222.65   47.38   3
  14  -2 -10  613.51   64.28   3
  14  -2 -10  603.78   75.84   2
 -14  -2  10  654.11  117.61   3
 -14  -2  10  582.71   58.80   3
 -14  -2  10  522.16   75.29   2
 -14   2  10  518.62   69.66   3
  14   2 -10  428.08   61.60   3
 -13  -2  10  404.06   52.82   3
  13  -2 -10  403.85   51.84   3
 -13  -2  10  390.25   62.02   2
 -13  -2  10  534.69   99.72   3
  13  -2 -10  352.91   64.35   2
 -13   2  10  451.72   55.64   3
  13   2 -10  349.01   52.98   3
  12  -2 -10  547.26   54.09   3
  12  -2 -10  736.56   64.68   2
 -12  -2  10  577.59   63.73   2
 -12  -2  10  629.33   91.91   3
 -12  -2  10  622.79   54.04   3
  12   2 -10  547.30   57.35   3
 -12   2  10  624.04   61.30   3
  11  -2 -10  446.15   44.21   3
 -11  -2  10  468.49   45.80   3
  11  -2 -10  411.78   55.58   2
 -11  -2  10  384.19   52.94   2
 -11  -2  10  422.23   83.26   3
  11   2 -10  393.08   47.76   3
 -11   2  10  414.19   49.64   3
  10  -2 -10  692.59   53.79   3
  10  -2 -10  735.39   86.40   3
 -10  -2  10  776.41   64.44   2
 -10  -2  10  852.20   89.24   3
  10  -2 -10  731.56   66.42   2
 -10  -2  10  741.57   56.77   3
  10   2 -10  692.82   58.86   3
 -10   2  10  703.28   59.74   3
  -9  -2  10  816.99   61.96   3
  -9  -2  10  934.76   89.86   3
   9  -2 -10  801.03   58.68   3
  -9  -2  10  847.23   66.86   2
   9  -2 -10  875.32   81.89   3
   9   2 -10  985.97   62.33   3
   9   2 -10  806.69   63.36   3
  -9   2  10  868.94   64.44   3
   8  -2 -10  653.66   49.77   3
  -8  -2  10  670.93   52.90   3
  -8  -2  10  875.38   78.69   3
   8  -2 -10  762.59   70.77   3
  -8  -2  10  700.30   59.29   2
  -8   2  10  668.66   55.07   3
   8   2 -10  696.28   55.79   3
  -7  -2  10 1114.21   75.33   3
   7  -2 -10 1163.93   71.87   3
   7  -2 -10 1189.08   84.90   3
  -7  -2  10 1178.67   79.92   2
  -7  -2  10 1326.39   94.95   3
  -7   2  10 1133.44   73.80   3
   7   2 -10 1129.22   76.14   3
  -6  -2  10  669.08   76.70   3
   6  -2 -10  683.82   46.18   3
  -6  -2  10  618.23   49.28   3
  -6  -2  10  672.05   55.79   2
   6  -2 -10  681.19   56.18   3
  -6   2  10  654.10   47.62   3
   6   2 -10  667.84   51.02   3
  -5  -2  10  952.01   64.48   2
  -5  -2  10  875.06   58.22   3
   5  -2 -10  880.48   62.21   3
   5  -2 -10  799.08   55.07   3
  -5  -2  10  760.70   79.20   3
  -5   2  10  846.79   55.68   3
   5   2 -10  886.44   60.27   3
  -5   2  10  936.27   57.08   1
  -4  -2  10 1079.13   75.32   2
  -4  -2  10 1114.04   71.07   3
   4  -2 -10 1014.02   71.19   3
   4   2 -10 1234.38   70.79   3
  -4   2  10 1161.34   70.65   1
   4   2 -10 1069.87   71.72   3
  -4   2  10 1112.07   68.40   3
  -4   2  10 1277.81   65.89   3
   3  -2 -10 1065.15   66.42   3
   3  -2 -10 1102.77   68.17   3
  -3  -2  10 1145.56   74.72   2
  -3  -2  10 1087.16   69.44   3
  -3   2  10 1166.73   69.44   1
  -3   2  10 1135.00   65.18   3
   3   2 -10 1146.31   68.69   3
   3   2 -10 1033.07   70.09   3
   2  -2 -10  927.47   58.07   3
   2  -2 -10  901.37   56.84   3
  -2  -2  10  922.79   60.21   3
  -2  -2  10  954.27   65.11   2
   2   2 -10  762.52   60.13   3
   2   2 -10 1009.89   59.30   3
  -2   2  10  974.95   59.96   1
  -1  -2  10  635.35   46.58   3
  -1  -2  10  685.07   50.71   2
   1  -2 -10  594.43   42.91   3
   1  -2 -10  634.49   44.32   3
  -1   2  10  652.45   47.58   1
   1   2 -10  741.44   46.11   3
   1   2 -10  545.59   46.29   3
   0  -2  10 1365.48   85.69   3
   0  -2 -10 1407.46   83.08   3
   0  -2 -10 1446.09   83.30   3
   0  -2  10 1444.02   87.97   2
   0   2 -10 1273.33   85.55   3
   0   2  10 1419.59   85.83   1
   0   2 -10 1532.44   85.13   3
   1  -2  10  911.73   61.32   2
  -1  -2 -10  837.65   56.60   3
   1  -2  10  873.47   59.45   3
  -1  -2 -10  849.52   56.40   3
  -1   2 -10  804.65   59.29   3
  -1   2 -10  947.27   57.22   3
   1   2  10  748.26   58.73   1
   1   2  10 1015.34   52.81   3
   1   2  10  909.28   54.82   3
  -2  -2 -10 1079.50   70.48   3
   2  -2  10 1045.20   73.43   3
  -2  -2 -10 1133.74   71.42   3
   2  -2  10 1130.84   73.82   2
  -2   2 -10 1162.05   70.66   3
   2   2  10 1099.98   72.54   1
   2   2  10 1297.23   67.45   3
  -2   2 -10 1095.26   73.07   3
   2   2  10 1220.96   69.26   3
   3  -2  10 1042.73   71.23   3
   3  -2  10  858.62   86.51   3
  -3  -2 -10 1061.44   68.80   3
   3  -2  10 1040.02   69.96   2
  -3  -2 -10 1034.72   68.89   3
   3   2  10 1037.88   68.73   1
  -3   2 -10 1019.80   70.08   3
   3   2  10 1107.55   67.45   3
  -3   2 -10 1172.40   67.20   3
   3   2  10 1181.00   64.51   3
   4  -2  10  336.86   37.44   2
   4  -2  10  353.79   40.42   3
  -4  -2 -10  344.04   41.12   3
  -4  -2 -10  338.94   38.67   3
  -4   2 -10  346.49   37.97   3
   4   2  10  361.68   36.67   1
   4   2  10  268.28   37.15   3
   5  -2  10  839.51   82.73   3
  -5  -2 -10  833.48   61.86   3
  -5  -2 -10  816.38   62.32   3
   5  -2  10  803.53   56.73   2
   5  -2  10  878.54   63.85   3
   5   2  10  744.70   58.82   1
   5   2  10  923.43   54.81   3
  -5   2 -10  844.82   55.75   3
  -5   2 -10  797.87   62.38   3
  -6  -2 -10  673.61   57.12   3
   6  -2  10  632.91   77.35   3
  -6  -2 -10  646.72   56.30   3
   6  -2  10  660.47   60.42   3
   6   2  10  630.17   51.34   1
  -6   2 -10  625.88   54.85   3
  -6   2 -10  758.71   50.94   3
  -7  -2 -10 1097.22   71.78   3
   7  -2  10  982.87   91.75   3
   7  -2  10  894.91   76.77   3
  -7  -2 -10  794.09   73.44   3
   7   2  10  994.17   67.23   3
  -7   2 -10  929.11   72.97   3
  -7   2 -10  999.72   66.05   3
   8  -2  10  621.01   84.01   3
  -8  -2 -10  687.98   65.42   3
  -8  -2 -10  600.15   65.30   3
   8  -2  10  676.86   71.33   3
   8   2  10  638.12   57.04   3
  -8   2 -10  605.92   62.89   3
  -8   2 -10  749.19   56.90   3
   8   2  10  754.23   54.55   3
  -9  -2 -10  350.52   69.13   3
   9  -2  10  381.65   70.48   3
  -9  -2 -10  227.74   49.57   3
   9  -2  10  344.94   65.67   3
  -9   2 -10  270.76   47.49   3
   9   2  10  297.75   50.55   3
  -9   2 -10  299.39   55.10   3
 -10  -2 -10  673.08   84.19   3
  10  -2  10  750.18   82.24   3
  10  -2  10  520.26  100.43   3
 -10  -2 -10  465.05   73.55   3
 -10   2 -10  513.73   69.63   3
 -10   2 -10  642.96   71.67   3
  10   2  10  611.43   66.23   3
 -12  -3  10   94.34   48.66   2
 -12  -3  10   88.86   43.21   3
 -12  -3  10   60.98   83.37   3
  12  -3 -10  -17.66   39.24   3
  12   3 -10   53.29   41.49   3
 -12   3  10   59.99   98.26   3
 -11  -3  10   28.84   44.20   2
  11  -3 -10   26.02   36.65   3
 -11  -3  10  -53.66   42.57   3
 -11  -3  10   74.23   81.12   3
 -11   3  10   37.04   44.80   3
  11   3 -10   35.60   33.51   3
 -10  -3  10   25.23   43.01   2
  10  -3 -10   89.74   31.08   3
 -10  -3  10  172.69   75.84   3
 -10  -3  10   47.64   36.79   3
 -10   3  10   14.03   39.26   3
  10   3 -10   66.32   34.58   3
  -9  -3  10  -23.29   36.32   2
   9  -3 -10   61.91   31.04   3
  -9  -3  10  -22.82   37.47   3
   9  -3 -10   75.51   61.11   3
  -9  -3  10  -38.92   60.89   3
  -9   3  10    4.91   22.70   1
   9   3 -10    7.87   32.69   3
  -9   3  10  -26.16   37.45   3
  -8  -3  10    6.40   64.66   3
  -8  -3  10   75.13   32.70   3
   8  -3 -10  -43.74   51.77   3
   8   3 -10   31.28   29.44   3
  -8   3  10   21.29   24.17   1
   7  -3 -10  -51.77   37.32   3
  -7  -3  10  -38.23   60.63   3
  -7  -3  10   54.21   26.51   3
  -7  -3  10   16.40   32.07   2
   7  -3 -10   33.54   25.43   3
  -7   3  10   16.24   29.13   3
   7   3 -10    2.69   27.12   3
  -7   3  10   33.99   24.20   1
  -6  -3  10   19.16   54.22   3
   5  -3 -10   81.83   36.04   3
  -5  -3  10   25.60   26.73   3
  -5  -3  10   15.03   28.61   2
  -5  -3  10   78.98   54.14   3
   5   3 -10   35.43   26.05   3
  -5   3  10   88.73   25.13   3
  -5   3  10   51.07   24.37   1
  -4  -3  10   42.83   51.36   3
  -4  -3  10   47.42   30.96   2
   4  -3 -10   30.12   33.96   3
   4   3 -10   26.69   30.57   3
  -3  -3  10   18.90   29.30   2
  -3  -3  10   16.40   24.34   3
   3  -3 -10   -2.25   32.78   3
  -3  -3  10  -16.33   48.83   3
   3  -3 -10    4.34   25.33   3
  -3   3  10  -32.67   21.58   3
  -3   3  10   -6.38   22.26   1
   3   3 -10   17.77   26.62   3
  -2  -3  10   73.56   50.96   3
   2  -3 -10   41.62   30.54   3
  -2  -3  10   37.27   28.62   2
   2  -3 -10   81.58   26.15   3
  -2  -3  10   72.99   25.58   3
  -2   3  10   40.61   22.39   3
  -2   3  10   35.75   22.95   1
   2   3 -10   71.32   31.99   3
   1  -3 -10   18.19   24.53   3
   1  -3 -10   -9.56   33.69   3
  -1  -3  10    2.15   25.68   2
  -1  -3  10    7.14   50.08   3
   1   3 -10    8.85   24.59   3
   0  -3 -10   33.45   32.93   3
   0  -3  10  -21.22   26.78   2
   0  -3 -10   20.99   24.98   3
   0  -3  10   13.87   25.33   3
   0  -3  10  -15.72   54.70   3
   0   3 -10    9.94   28.96   3
   0   3  10  -19.83   19.89   3
  -1  -3 -10    2.02   34.38   3
   1  -3  10   34.60   25.66   3
   1  -3  10    1.99   28.52   2
   1  -3  10   67.70   52.22   3
  -1  -3 -10   31.00   26.06   3
   1   3  10    8.23   19.99   3
  -1   3 -10   -3.91   32.17   3
   1   3  10  -13.51   21.87   1
   2  -3  10   49.92   30.62   2
   2  -3  10   65.94   26.00   3
  -2  -3 -10   52.70   31.20   3
  -2  -3 -10  106.35   39.42   3
   2   3  10  100.28   25.27   3
  -2   3 -10   65.76   33.68   3
   2   3  10   44.89   25.11   1
   3  -3  10   22.59   30.70   3
   3  -3  10    1.28   28.57   2
  -3  -3 -10   19.90   30.67   3
  -3  -3 -10    8.73   37.42   3
   3   3  10   24.06   26.09   3
  -3   3 -10   27.99   29.19   3
  -4  -3 -10    0.50   39.87   3
   4  -3  10   -7.24   30.16   2
  -4  -3 -10  -15.17   33.92   3
   4  -3  10  -74.51   53.86   3
   4  -3  10  -50.91   37.00   3
  -4   3 -10  -22.24   33.47   3
   4   3  10  -40.22   32.09   3
   4   3  10   13.34   24.61   1
   5  -3  10   -0.94   57.44   3
  -5  -3 -10  -21.55   39.46   3
  -5  -3 -10   52.47   37.99   3
   5  -3  10   69.17   40.72   3
   5  -3  10  -13.42   30.83   2
   5   3  10    9.33   26.63   1
   5   3  10   28.64   34.68   3
  -5   3 -10   -1.93   37.10   3
   6  -3  10  -21.94   41.71   3
   6  -3  10  -78.06   61.09   3
  -6  -3 -10    8.12   40.74   3
  -6  -3 -10   -7.75   42.44   3
   6  -3  10   17.45   34.18   2
   6   3  10   -5.09   30.03   1
  -6   3 -10   -4.76   36.65   3
   6   3  10  -13.53   37.19   3
  -6   3 -10   80.44   34.97   3
   7  -3  10   21.00   33.71   2
  -7  -3 -10   43.73   44.37   3
  -7  -3 -10    1.54   60.29   3
   7  -3  10  -35.26   52.19   3
   7   3  10   61.90   40.61   3
  -7   3 -10   10.17   46.18   3
  -7   3 -10   21.34   38.64   3
   7   3  10    0.05   27.40   1
   5  -4 -10  789.31   90.31   3
  -5  -4  10  546.19   82.01   2
  -5  -4  10  874.30  109.90   3
  -5  -4  10  722.31   87.00   3
  -5   4  10  737.47   69.19   1
   5   4 -10  697.00   79.30   3
   4  -4 -10  707.92   71.07   3
  -4  -4  10  652.15   78.53   2
  -4  -4  10  758.27   81.74   3
  -4   4  10  595.03   65.31   1
   4   4 -10  739.40   74.06   3
  -4   4  10  489.58   70.44   3
  -3  -4  10  442.66   72.62   3
   3  -4 -10  660.48  108.48   3
   3  -4 -10  582.01   62.36   3
  -3  -4  10  498.07   68.76   2
  -3  -4  10  709.43  108.83   3
   3   4 -10  489.03   66.78   3
  -3   4  10  342.14   58.22   1
   2  -4 -10  267.68   48.71   3
  -2  -4  10  242.70   56.28   3
  -2  -4  10  287.61   80.86   3
   2  -4 -10  232.00   79.07   3
  -2  -4  10  237.28   54.00   2
  -2   4  10  236.18   46.35   3
  -2   4  10  248.12   45.15   1
   2   4 -10  240.10   47.57   3
   1  -4 -10  206.29   47.67   3
  -1  -4  10  216.29   50.59   2
  -1  -4  10  134.97   47.93   3
  -1  -4  10  314.64   98.39   3
   1  -4 -10  178.64   88.73   3
   1   4 -10  148.63   49.70   3
  -1   4  10  155.22   43.34   3
  -1   4  10  145.06   40.45   1
   0  -4  10  652.61  112.92   3
   0  -4 -10  477.66   65.31   3
   0  -4  10  364.36   68.84   3
   0   4 -10  444.22   66.60   3
   0   4  10  520.11   61.59   1
 -14   0  11 -107.23   63.46   3
  14   0 -11   24.92   32.54   3
  14   0 -11   40.30   25.70   2
 -14   0  11    6.21   24.15   3
 -13   0  11   17.42   19.50   3
  13   0 -11   53.56   28.15   2
  12   0 -11   47.31   31.22   3
  11   0 -11   20.01   22.76   3
  11   0 -11  -28.56   36.89   3
 -11   0  11    4.09   15.83   3
  10   0 -11  -16.62   18.11   3
  10   0 -11   25.50   28.62   3
 -10   0  11   -5.48   15.76   3
  10   0 -11   -2.15   21.20   2
   9   0 -11   -3.84   25.77   3
   9   0 -11    6.89   17.41   2
   9   0 -11   28.13   19.50   3
  -9   0  11   20.75   12.78   3
  -8   0  11   33.59   10.81   3
   8   0 -11    5.91   18.05   3
   8   0 -11   16.28   17.71   3
  -8   0  11   44.91   18.17   3
   8   0 -11   16.23   19.28   2
   7   0 -11    8.81   16.42   3
   7   0 -11   -8.86   16.97   3
   7   0 -11  -10.37   18.82   2
   6   0 -11    6.59   18.52   2
   6   0 -11   -8.74   13.58   3
   6   0 -11   22.35   10.74   1
   6   0 -11   27.00   15.49   3
   5   0 -11  -13.00   14.47   2
   4   0 -11  -21.66   13.28   2
   4   0 -11   28.16   11.27   1
   3   0 -11  -21.47   15.78   2
   3   0 -11   -8.32   11.79   1
   2   0 -11    1.83   12.23   2
   1   0 -11    2.16   15.99   1
   1   0 -11    6.60   15.14   2
   0   0 -11   -5.96   12.34   2
   0   0 -11  -15.21   14.32   1
  -1   0 -11    4.83   13.17   2
  -1   0 -11    8.11   17.29   1
  -2   0 -11   21.45   17.00   1
  -2   0 -11   -3.29   11.02   2
  -3   0 -11    1.16   14.59   3
  -3   0 -11   -7.61   15.14   3
  -3   0 -11    0.75   17.50   1
  -4   0 -11   -9.91   18.45   3
  -4   0 -11    7.84   18.94   1
  -5   0 -11   -9.56   16.76   3
  -5   0 -11  -16.12   17.85   1
  -5   0 -11    3.46   20.86   3
   5   0  11    6.63   18.88   3
  -6   0 -11   -8.55   17.82   3
  -6   0 -11   -7.19   23.69   3
  -6   0 -11   -9.65   21.76   1
  -7   0 -11    6.90   25.95   3
  -7   0 -11   -2.08   20.25   3
  -7   0 -11   -0.95   22.37   1
  -9   0 -11  -25.50   22.75   3
   9   0  11    4.98   30.53   3
  -9   0 -11   -4.11   34.61   3
 -11   0 -11  108.43   35.50   3
  11   0  11  121.40   41.57   3
  16  -1 -11  123.11   39.00   2
  16  -1 -11   94.84   39.88   3
 -16  -1  11   40.04   36.76   3
 -16  -1  11   66.50   66.42   3
 -16   1  11  100.75  101.14   3
  16   1 -11   79.35   43.25   3
  15  -1 -11  307.85   58.88   2
 -15  -1  11  545.98   86.76   3
  15  -1 -11  274.81   52.11   3
 -15  -1  11  408.10   45.43   3
 -15   1  11  379.04   51.44   3
  15   1 -11  331.66   52.74   3
  14  -1 -11  406.56   48.76   3
 -14  -1  11  416.86   45.27   3
  14  -1 -11  460.55   57.72   2
  14   1 -11  374.62   54.09   3
 -14   1  11  463.68   48.30   3
 -13  -1  11  658.91   64.92   2
 -13  -1  11  598.23   92.35   3
  13  -1 -11  632.78   54.28   3
 -13  -1  11  593.21   50.49   3
  13  -1 -11  686.83   58.04   2
  13   1 -11  608.84   59.43   3
 -13   1  11  767.35   54.00   3
  12  -1 -11  267.06   52.74   3
  12  -1 -11  187.60   31.74   2
  12  -1 -11  233.63   34.32   3
 -12  -1  11  190.94   39.21   2
 -12  -1  11  181.18   60.81   3
 -12  -1  11  164.68   29.98   3
 -12   1  11  252.18   32.52   3
  12   1 -11  191.64   36.96   3
 -11  -1  11  292.85   47.71   2
  11  -1 -11  317.09   45.15   2
  11  -1 -11  297.49   52.35   3
 -11  -1  11  268.25   30.10   3
  11   1 -11  211.52   37.67   3
 -11   1  11  313.37   33.67   3
 -10  -1  11  350.57   47.88   2
  10  -1 -11  333.77   46.90   3
  10  -1 -11  301.03   31.98   3
  10  -1 -11  303.83   48.44   2
 -10  -1  11  282.29   31.03   3
  10   1 -11  314.06   37.01   3
 -10   1  11  288.19   32.86   3
   9  -1 -11  648.18   45.93   3
   9  -1 -11  652.08   59.98   2
  -9  -1  11  580.39   60.24   2
  -9  -1  11  654.52   46.38   3
   9  -1 -11  715.35   56.88   3
  -9   1  11  781.46   45.75   3
   9   1 -11  638.64   51.41   3
  -9   1  11  626.46   44.86   3
   9   1 -11  724.75   61.67   3
  -8  -1  11 2009.57  117.53   3
   8  -1 -11 2063.78  125.89   2
   8  -1 -11 1758.84  115.48   3
   8  -1 -11 2081.39  119.97   3
  -8  -1  11 2116.81  126.55   2
  -8   1  11 2209.59  115.27   3
   8   1 -11 1986.56  118.96   3
   8   1 -11 2181.05  123.65   3
  -7  -1  11  368.12   34.60   3
   7  -1 -11  492.17   29.75   1
   7  -1 -11  464.15   33.11   3
   7  -1 -11  502.13   50.21   2
  -7  -1  11  345.13   47.12   2
   7  -1 -11  483.94   39.29   3
   7   1 -11  451.03   37.73   3
  -7   1  11  456.78   30.00   3
   7   1 -11  512.96   42.76   3
  -6  -1  11  220.10   24.94   3
   6  -1 -11  279.74   42.02   2
  -6  -1  11  225.80   41.40   2
   6   1 -11  255.60   28.49   3
  -5  -1  11  261.11   42.94   2
   5  -1 -11  351.94   40.96   2
  -5  -1  11  329.56   26.37   3
   5  -1 -11  338.37   25.38   1
   5   1 -11  319.00   30.06   3
   5   1 -11  273.24   30.22   3
   4  -1 -11  798.12   58.18   2
  -4  -1  11  800.44   48.39   3
   4  -1 -11  921.96   50.15   1
  -4  -1  11  767.65   61.70   2
   4   1 -11  745.45   51.06   3
   4   1 -11  720.92   50.17   3
  -3  -1  11 1781.68  115.64   2
  -3  -1  11 1961.08  107.69   3
   3  -1 -11 1818.55  114.40   2
  -3  -1  11 2101.96  109.28   3
   3  -1 -11 1995.67  109.88   1
   3   1 -11 1892.39  108.38   3
   3   1 -11 1862.58  108.47   3
   2  -1 -11  942.03   67.18   2
  -2  -1  11 1029.02   59.68   3
  -2  -1  11 1168.12   60.94   3
   2  -1 -11  965.18   63.05   1
  -2  -1  11 1026.79   70.32   2
   2   1 -11  932.21   59.99   3
   2   1 -11  968.02   60.72   3
   1  -1 -11 1424.48   82.50   2
  -1  -1  11 1318.30   75.69   3
   1  -1 -11 1217.31   79.46   1
  -1  -1  11 1302.34   84.21   2
   1   1 -11 1380.78   77.51   3
   1   1 -11 1258.00   76.10   3
   0  -1 -11  252.82   31.29   1
   0  -1  11  341.05   26.35   3
   0  -1 -11  270.34   32.35   2
   0  -1  11  241.13   37.61   2
   0   1 -11  290.07   27.54   3
   0   1 -11  228.92   25.84   3
  -1  -1 -11  329.01   38.42   1
  -1  -1 -11  422.61   36.82   2
   1  -1  11  418.84   33.14   3
   1  -1  11  402.71   42.24   2
  -1   1 -11  410.86   32.31   3
  -1   1 -11  430.22   33.79   3
  -2  -1 -11 1693.34   99.07   2
   2  -1  11 1620.32   97.79   3
   2  -1  11 1585.00  100.18   2
   2  -1  11 1830.99   97.42   3
  -2   1 -11 1648.89   97.52   3
  -2   1 -11 1657.15   97.15   3
   3  -1  11  772.49   53.21   3
  -3  -1 -11  659.43   56.62   1
  -3  -1 -11  828.92   50.53   2
  -3   1 -11  741.37   50.30   3
  -3   1 -11  708.41   52.27   3
   4  -1  11  966.62   70.02   3
  -4  -1 -11 1012.41   70.61   1
  -4  -1 -11  932.07   61.27   3
  -4  -1 -11 1138.78   62.98   2
  -4  -1 -11 1004.34   62.97   3
  -4   1 -11 1005.41   67.00   3
  -4   1 -11 1003.24   65.57   3
  -5  -1 -11  455.95   38.00   3
  -5  -1 -11  482.94   40.62   3
   5  -1  11  442.83   49.90   3
  -5  -1 -11  480.71   46.01   1
  -5   1 -11  496.58   47.44   3
  -5   1 -11  487.47   42.62   3
   5   1  11  456.24   38.99   3
   6  -1  11  693.58   59.59   3
  -6  -1 -11  645.73   52.71   3
  -6  -1 -11  706.64   55.86   1
  -6  -1 -11  679.18   52.94   3
   6   1  11  800.09   47.25   3
  -6   1 -11  691.93   60.93   3
  -6   1 -11  796.81   56.66   1
   6   1  11  695.00   51.91   3
  -6   1 -11  732.46   54.73   3
  -7  -1 -11  759.70   58.72   1
  -7  -1 -11  814.95   59.60   3
   7  -1  11  734.91   62.28   3
  -7  -1 -11  686.70   56.83   3
  -7   1 -11  768.17   57.70   3
  -7   1 -11  815.70   57.74   1
  -7   1 -11  772.02   71.37   3
   7   1  11  760.66   58.50   3
  -8  -1 -11  427.21   49.98   3
  -8  -1 -11  401.68   45.59   1
   8  -1  11  412.16   52.56   3
  -8   1 -11  306.22   43.47   1
  -8   1 -11  450.44   46.31   3
   8   1  11  420.14   47.21   3
  -8   1 -11  553.31   56.42   3
   9  -1  11  862.29   77.26   3
  -9  -1 -11  927.25   66.96   1
  -9  -1 -11  881.01   72.86   3
  -9  -1 -11  798.60   69.25   3
  -9   1 -11  817.81   67.01   1
   9   1  11  822.26   69.55   3
  -9   1 -11  949.80   70.95   3
   9   1  11 1050.98   62.72   3
 -10  -1 -11  208.93   45.46   3
 -10  -1 -11  308.79   51.20   3
  10  -1  11  322.06   61.68   3
 -10  -1 -11  248.98   46.95   1
 -10   1 -11  234.46   44.70   3
 -10   1 -11  258.36   39.95   1
  10   1  11  236.98   45.33   3
 -11  -1 -11  298.83   57.43   3
 -11  -1 -11  436.54   50.69   1
 -11   1 -11  304.38   59.13   3
  11   1  11  340.95   79.58   3
 -11   1 -11  318.57   58.71   1
  14  -2 -11  146.97   51.92   2
 -14  -2  11   89.24   86.44   3
 -14  -2  11   11.44   44.40   2
 -14  -2  11   60.27   36.52   3
  14  -2 -11   46.19   40.38   3
 -14   2  11   78.99   47.72   3
  14   2 -11   59.25   42.79   3
 -13  -2  11   82.65   74.96   3
 -12  -2  11   24.28   38.84   2
  12  -2 -11    0.63   72.03   3
 -12  -2  11  120.30   61.64   3
  12  -2 -11  -17.32   42.13   2
  12  -2 -11   10.89   29.39   3
 -12  -2  11   75.78   30.32   3
 -12   2  11   21.49   37.47   3
  12   2 -11   20.00   32.60   3
  11  -2 -11   12.99   22.15   3
  11  -2 -11   23.25   55.64   3
 -11  -2  11  -48.18   57.51   3
 -11  -2  11   39.87   23.37   3
  11  -2 -11  -45.57   37.74   2
 -11  -2  11    9.20   35.60   2
  11   2 -11   35.67   27.04   3
 -11   2  11   29.22   32.79   3
  10  -2 -11   24.03   22.41   3
 -10  -2  11   45.41   31.48   2
 -10  -2  11   63.02   59.90   3
  10  -2 -11   37.54   38.61   2
 -10  -2  11   53.87   26.18   3
  10  -2 -11   75.25   48.53   3
  10   2 -11   53.97   26.48   3
 -10   2  11   32.77   28.61   3
  -9  -2  11   12.82   30.32   2
  -9  -2  11   79.88   59.10   3
  -9  -2  11   28.14   20.49   3
   9  -2 -11    3.55   40.48   3
   9  -2 -11    2.82   20.03   3
   9  -2 -11  -38.44   32.87   2
   9   2 -11   18.41   24.02   3
  -9   2  11  -39.49   24.33   3
   8  -2 -11   30.29   19.09   3
  -8  -2  11   17.71   20.03   3
   8  -2 -11   31.01   37.30   3
  -8  -2  11   55.37   29.18   2
  -8  -2  11  121.67   56.25   3
  -8   2  11   -7.70   21.36   3
   8   2 -11   43.23   25.28   3
  -7  -2  11  111.18   56.37   3
  -7  -2  11  122.57   23.35   3
  -7  -2  11   64.08   26.64   2
   7  -2 -11  171.99   39.49   3
   7  -2 -11   89.16   19.85   3
  -7   2  11   70.45   23.11   3
   7   2 -11   81.32   27.09   3
  -6  -2  11   -2.80   17.38   3
   6  -2 -11   25.61   30.26   3
   6  -2 -11   25.54   16.56   3
  -6  -2  11    7.69   26.63   2
   6   2 -11   71.75   19.49   3
   6   2 -11    3.99   19.41   3
  -6   2  11   -7.49   18.51   3
   5  -2 -11  153.32   28.41   3
  -5  -2  11  164.11   27.84   3
  -5  -2  11  100.83   29.54   2
   5   2 -11   92.67   23.64   3
   5   2 -11  145.11   27.92   3
  -4  -2  11   45.70   24.20   2
  -4  -2  11   70.58   19.57   3
   4  -2 -11   39.72   22.08   3
   4   2 -11   64.24   18.71   3
   4   2 -11   35.42   20.53   3
  -3  -2  11   39.75   17.93   3
  -3  -2  11   42.73   23.28   2
   3   2 -11   44.16   21.24   3
   3   2 -11   24.76   19.49   3
  -3   2  11   36.11   19.67   1
  -2  -2  11   -7.28   22.24   2
  -2  -2  11    5.63   17.77   3
   2   2 -11   -1.33   17.86   3
   2   2 -11    3.78   23.27   3
  -2   2  11   16.34   17.89   1
  -1  -2  11   43.59   18.77   3
  -1  -2  11   56.17   23.53   2
   1   2 -11   53.59   26.14   3
  -1   2  11   37.91   19.65   1
   1   2 -11    1.96   18.90   3
   0  -2  11  325.71   40.12   2
   0  -2  11  379.02   33.98   3
   0   2  11  281.77   33.87   1
   0   2 -11  306.23   41.39   3
   0   2 -11  270.19   33.71   3
   1  -2  11   13.94   23.02   2
  -1  -2 -11   75.72   19.69   3
   1  -2  11   62.54   20.93   3
  -1  -2 -11   96.06   19.09   3
   1   2  11   43.85   21.38   1
  -1   2 -11   36.55   21.49   3
  -1   2 -11   74.99   21.84   3
   2  -2  11   23.39   23.36   3
  -2  -2 -11   27.45   19.18   3
   2  -2  11    9.23   22.68   2
  -2  -2 -11   31.87   20.43   3
  -2   2 -11   57.07   18.50   3
  -2   2 -11  -15.57   19.66   3
   2   2  11    4.66   20.05   1
   3  -2  11  -10.82   22.83   2
  -3  -2 -11   17.40   20.54   3
   3  -2  11   -7.42   24.30   3
  -3  -2 -11   13.37   22.74   3
   3   2  11   12.36   19.98   3
   3   2  11   34.04   15.77   3
  -3   2 -11   33.37   20.17   3
  -3   2 -11   25.91   23.18   3
   3   2  11    1.94   19.26   1
  -4  -2 -11    7.53   23.92   3
   4  -2  11   12.02   28.30   3
   4  -2  11  -11.08   22.63   2
  -4  -2 -11   26.94   25.82   3
  -4   2 -11   58.96   20.57   3
   4   2  11   23.02   25.46   3
  -4   2 -11    2.44   22.73   3
   4   2  11    3.95   21.35   1
  -5  -2 -11  211.66   37.23   3
  -5  -2 -11  306.89   39.72   3
   5  -2  11  207.56   37.67   3
  -5   2 -11  345.79   35.13   3
   5   2  11  356.33   31.15   3
  -5   2 -11  271.10   39.36   3
  -6  -2 -11  264.93   48.92   3
   6  -2  11  290.35   69.97   3
  -6  -2 -11  242.10   48.26   3
   6  -2  11  282.73   47.43   3
  -6   2 -11  235.06   38.75   3
  -6   2 -11  286.07   36.37   3
  -7  -2 -11  142.40   38.07   3
   7  -2  11  155.17   66.38   3
   7  -2  11   69.70   49.37   3
  -7  -2 -11  133.59   39.60   3
   7   2  11  202.31   37.51   3
  -7   2 -11  133.86   36.23   3
  -7   2 -11  103.48   31.18   3
   8  -2  11   98.50   61.07   3
  -8  -2 -11   48.85   42.58   3
  -8  -2 -11  133.75   41.73   3
   8  -2  11   62.43   51.32   3
  -8   2 -11   51.81   36.53   3
  -8   2 -11  115.01   38.70   3
   8   2  11   66.18   34.24   3
   9  -2  11   57.93   60.75   3
  -9  -2 -11   55.82   45.34   3
   9  -2  11  -59.99   52.17   3
  -9  -2 -11  102.53   47.84   3
   9   2  11  103.42   36.85   3
   9   2  11   62.08   35.62   3
  -9   2 -11    2.08   39.98   3
  -9   2 -11   38.19   37.69   3
 -11  -3  11  754.38   84.78   2
  11  -3 -11  812.76   70.47   3
 -11  -3  11  945.78   79.45   3
 -11  -3  11 1113.85  139.00   3
 -11   3  11  939.38   84.99   3
  11   3 -11  800.85   76.91   3
 -10  -3  11  691.99   69.43   3
  10  -3 -11  694.74   61.13   3
 -10  -3  11  663.23   76.85   2
  10  -3 -11  636.88  117.46   3
 -10  -3  11  885.51  115.68   3
 -10   3  11  594.51   71.19   3
  10   3 -11  684.73   68.38   3
  -9  -3  11  355.28   53.39   3
  -9  -3  11  398.94   84.60   3
  -9  -3  11  201.94   48.57   2
   9  -3 -11  353.66   74.19   3
   9  -3 -11  277.48   45.07   3
   9   3 -11  254.96   52.00   3
  -9   3  11  318.87   45.89   3
   8  -3 -11  273.09   41.77   3
  -8  -3  11  299.27   50.63   3
  -8  -3  11  303.67   48.50   2
   8  -3 -11  361.32   63.85   3
  -8   3  11  275.42   40.07   1
  -8   3  11  326.20   45.91   3
   8   3 -11  297.88   47.67   3
  -7  -3  11  366.02   53.70   2
   7  -3 -11  336.16   66.95   3
   7  -3 -11  303.69   42.15   3
  -7  -3  11  327.41   47.60   3
  -7   3  11  309.10   41.25   1
   7   3 -11  291.49   46.49   3
  -7   3  11  238.84   46.48   3
  -6  -3  11  983.32   71.12   3
  -6  -3  11  940.41   76.69   2
  -6  -3  11 1144.40  100.37   3
   6  -3 -11  921.12   81.15   3
  -6   3  11  902.60   67.30   1
   6   3 -11  965.52   72.47   3
  -6   3  11  926.12   70.25   3
  -5  -3  11 1060.72   81.93   2
  -5  -3  11 1136.56   76.25   3
  -5  -3  11 1169.05  101.96   3
   5  -3 -11 1042.78   83.47   3
   5   3 -11 1055.45   77.03   3
  -5   3  11 1058.86   74.10   3
  -5   3  11 1135.83   74.86   1
  -4  -3  11  606.97   59.21   2
  -4  -3  11  646.70   53.90   3
  -4  -3  11  750.65   81.60   3
   4  -3 -11  596.42   50.81   3
   4  -3 -11  527.23   61.43   3
  -4   3  11  502.99   48.34   3
   4   3 -11  592.56   53.37   3
  -4   3  11  595.62   51.23   1
   3  -3 -11  259.11   48.80   3
   3  -3 -11  283.48   37.74   3
  -3  -3  11  423.98   69.21   3
  -3  -3  11  273.21   41.94   3
  -3  -3  11  292.93   45.66   2
  -3   3  11  260.76   39.60   1
   3   3 -11  360.10   43.46   3
  -3   3  11  296.68   36.49   3
  -2  -3  11  211.48   32.62   3
   2  -3 -11  225.54   32.88   3
  -2  -3  11  336.38   60.80   3
   2  -3 -11  255.42   41.76   3
  -2  -3  11  234.09   43.26   2
  -2   3  11  167.78   33.44   3
  -2   3  11  196.77   33.13   1
   2   3 -11  261.05   40.00   3
   1  -3 -11  667.52   54.00   3
   1  -3 -11  695.66   60.19   3
  -1  -3  11  648.43   56.86   3
  -1  -3  11  693.52   62.55   2
  -1  -3  11  829.67   87.05   3
  -1   3  11  724.12   56.18   1
  -1   3  11  693.43   50.65   3
   1   3 -11  685.07   58.40   3
   0  -3  11  856.72   63.80   3
   0  -3 -11  910.85   70.99   3
   0  -3  11  847.18   70.23   2
   0  -3  11  974.17   94.50   3
   0  -3 -11  857.76   63.01   3
   0   3  11  823.11   57.19   3
   0   3  11  768.24   62.46   1
   0   3 -11  787.09   64.55   3
   1  -3  11  692.09   89.62   3
   1  -3  11  747.64   63.04   2
  -1  -3 -11  750.62   68.00   3
  -1  -3 -11  729.53   59.40   3
   1  -3  11  663.54   57.26   3
  -1   3 -11  646.54   59.33   3
   1   3  11  652.43   56.10   1
   1   3  11  731.23   51.25   3
  -2  -3 -11  472.00   49.31   3
   2  -3  11  433.35   53.71   2
  -2  -3 -11  408.13   57.60   3
   2  -3  11  373.60   49.26   3
   2   3  11  360.79   46.68   1
   2   3  11  437.64   41.24   3
  -2   3 -11  360.59   48.68   3
  -3  -3 -11  180.62   39.28   3
  -3  -3 -11  270.90   50.37   3
   3  -3  11  178.46   38.51   2
   3  -3  11  117.19   46.31   3
  -3   3 -11  189.28   41.32   3
   3   3  11  163.03   31.79   3
  -4  -3 -11  446.87   53.47   3
   4  -3  11  321.42   52.61   2
   4  -3  11  515.54   84.18   3
   4  -3  11  307.52   53.05   3
  -4  -3 -11  334.26   64.77   3
  -4   3 -11  446.01   49.93   3
   4   3  11  268.84   46.06   1
  -4   3 -11  289.83   51.11   3
  -5  -3 -11  521.37   73.97   3
   5  -3  11  514.13   59.00   2
  -5  -3 -11  382.60   58.92   3
   5  -3  11  490.57   65.68   3
  -5   3 -11  570.51   58.75   3
  -5   3 -11  401.25   57.81   3
   5   3  11  395.69   53.47   1
   5   3  11  350.94   55.30   3
   6  -3  11  530.38   69.99   3
   6  -3  11  476.58   61.59   2
  -6  -3 -11  495.22   64.38   3
   6  -3  11  664.89   98.34   3
  -6  -3 -11  511.20   77.33   3
  -6   3 -11  626.27   59.75   3
   6   3  11  452.69   55.44   1
  -6   3 -11  412.29   65.22   3
  16   0 -12  500.47   73.43   2
  16   0 -12  439.91   65.08   3
  15   0 -12  647.91   63.40   3
 -15   0  12  631.53   54.69   3
  15   0 -12  538.84   70.32   2
  14   0 -12  953.68   74.42   3
 -14   0  12  936.44   68.12   3
  14   0 -12 1034.30   76.96   2
 -13   0  12  367.54   33.87   3
  13   0 -12  251.49   39.83   2
  13   0 -12  267.38   40.15   3
  12   0 -12  280.15   37.66   2
 -12   0  12  234.16   30.80   3
  12   0 -12  245.99   36.24   3
  12   0 -12  334.69   62.43   3
  11   0 -12  489.63   46.99   3
 -11   0  12  661.45   50.89   3
  11   0 -12  576.56   53.37   2
 -11   0  12  474.31   40.38   3
  11   0 -12  616.95   57.90   3
  10   0 -12  733.30   56.11   3
  10   0 -12  659.07   60.77   2
  10   0 -12  723.84   51.25   3
 -10   0  12  632.52   45.54   3
   9   0 -12 2388.58  141.44   3
   9   0 -12 2634.73  146.91   2
  -9   0  12 2224.67  137.60   3
   9   0 -12 2336.86  140.53   3
  -9   0  12 2790.13  140.90   3
   8   0 -12  804.28   62.43   2
   8   0 -12  820.28   56.04   3
  -8   0  12  824.04   50.26   3
   8   0 -12  810.47   53.67   3
   7   0 -12  350.33   31.56   3
   7   0 -12  330.65   29.66   3
   7   0 -12  331.00   39.54   2
   6   0 -12  782.45   49.85   1
   5   0 -12 1317.55   75.29   1
   5   0 -12 1213.83   80.60   2
   4   0 -12 2076.82  126.71   2
   4   0 -12 2240.19  123.04   1
   3   0 -12 1220.15   74.27   1
   3   0 -12 1202.49   76.16   2
   2   0 -12 2036.37  115.78   1
   2   0 -12 1970.94  116.88   2
   1   0 -12  999.69   64.75   1
   1   0 -12 1036.13   64.67   2
   0   0 -12 1017.80   64.13   2
   0   0 -12 1025.05   66.16   1
  -1   0 -12 1641.08  107.78   1
  -1   0 -12 1969.19  105.36   2
  -2   0 -12  789.79   59.71   1
  -2   0 -12  846.41   52.21   2
  -3   0 -12 1431.51   82.65   2
  -3   0 -12 1411.26   89.59   1
  -4   0 -12 1146.83   73.96   1
  -4   0 -12 1081.59   66.97   3
  -4   0 -12 1074.82   67.96   3
  -5   0 -12 2103.19  117.65   1
   5   0  12 2005.94  112.71   3
  -5   0 -12 1828.12  113.37   3
  -5   0 -12 1859.57  112.47   3
  -6   0 -12 1376.75   84.17   1
   6   0  12 1241.39   80.36   3
  -6   0 -12 1263.14   80.16   3
  -6   0 -12 1262.35   82.15   3
   7   0  12  266.45   40.25   3
  -7   0 -12  248.25   39.96   1
  -7   0 -12  304.19   42.15   3
  -7   0 -12  220.73   34.69   3
  -8   0 -12  769.73   61.40   3
  -8   0 -12  868.92   63.94   1
   8   0  12  833.82   66.49   3
  -8   0 -12  860.47   68.40   3
  -9   0 -12  369.88   49.43   1
  -9   0 -12  360.26   54.46   3
   9   0  12  470.78   56.04   3
  -9   0 -12  375.44   46.29   3
 -10   0 -12  996.02   79.42   3
 -10   0 -12 1232.39   89.94   3
  10   0  12 1231.70   86.63   3
 -10   0 -12  974.33   82.36   1
  15  -1 -12   40.29   39.72   2
 -15  -1  12  -43.28   62.05   3
 -15   1  12  111.54   35.44   3
 -13  -1  12  110.60   25.63   3
  13  -1 -12   83.07   27.69   3
  13  -1 -12   60.69   32.56   2
  13  -1 -12  177.78   59.65   3
 -13  -1  12   97.20   74.37   3
 -13   1  12  114.04   27.58   3
  13   1 -12  121.53   33.53   3
 -12  -1  12   97.39   38.08   2
  12  -1 -12   91.96   26.05   3
  12  -1 -12  109.90   32.25   2
 -12  -1  12  114.89   23.81   3
  12  -1 -12  180.65   49.01   3
  12   1 -12   95.05   33.67   3
 -11  -1  12  153.64   36.74   2
  11  -1 -12   83.44   30.36   2
 -11  -1  12  175.88   28.08   3
  11  -1 -12  141.80   25.88   3
  11  -1 -12  226.58   45.74   3
  11   1 -12  156.44   32.03   3
 -11   1  12  160.58   26.04   3
 -10  -1  12   70.63   18.95   3
  10  -1 -12   -4.40   29.21   2
 -10  -1  12   -7.51   28.32   2
  10   1 -12    4.10   35.43   3
   9  -1 -12   13.19   28.73   2
  -9  -1  12   46.52   30.22   2
   9  -1 -12   22.80   29.24   3
  -9  -1  12   43.96   17.71   3
   9  -1 -12   45.12   17.24   3
  -9   1  12   60.07   15.58   3
   9   1 -12   55.26   22.13   3
   9   1 -12   71.52   31.98   3
   8  -1 -12    4.83   25.84   2
  -8  -1  12   23.40   29.20   2
   8  -1 -12   52.94   22.20   3
   8  -1 -12   46.92   15.55   3
  -8  -1  12   54.19   18.82   3
   8   1 -12   51.44   29.03   3
   8   1 -12   71.25   22.27   3
  -8   1  12   72.38   12.74   3
   7  -1 -12  184.43   37.83   2
  -7  -1  12  179.75   25.54   3
  -7  -1  12  156.42   33.88   2
   7   1 -12  151.65   26.56   3
  -6  -1  12  266.49   25.22   3
  -6  -1  12  273.26   38.65   2
   6  -1 -12  247.48   38.71   2
   6   1 -12  236.31   29.03   3
   6   1 -12  288.14   31.73   3
   5  -1 -12  150.90   28.39   2
  -5  -1  12   90.80   16.34   3
  -5  -1  12   80.03   30.13   2
   5  -1 -12   88.16   15.43   1
   5   1 -12   88.01   18.42   3
   5   1 -12  108.52   20.38   3
  -4  -1  12   -1.36   26.59   2
   4  -1 -12    6.79   13.22   1
  -4  -1  12   13.60   13.38   3
   4  -1 -12   36.46   27.04   2
   4   1 -12   14.44   14.73   3
   4   1 -12    5.14   15.81   3
  -3  -1  12   27.26   27.04   2
   3  -1 -12   -6.57   23.20   2
   3  -1 -12   17.49   14.82   1
  -3  -1  12   41.83   13.17   3
   3   1 -12   43.91   15.84   3
   3   1 -12   14.54   14.56   3
   2  -1 -12   61.32   22.76   2
  -2  -1  12   34.51   24.82   2
   2  -1 -12   15.36   17.50   1
  -2  -1  12   35.50   12.72   3
   2   1 -12   31.96   14.41   3
   2   1 -12   42.86   16.21   3
   1  -1 -12  274.78   34.63   1
  -1  -1  12  321.00   42.45   2
   1  -1 -12  393.94   39.18   2
   1   1 -12  290.21   27.17   3
   1   1 -12  364.71   29.01   3
   0  -1 -12   89.65   23.06   1
   0  -1  12  112.97   27.53   2
   0  -1  12  145.07   20.24   3
   0  -1 -12  194.98   30.52   2
   0   1 -12  126.07   23.41   3
   0   1 -12  112.62   18.13   3
  -1  -1 -12   45.05   18.28   2
   1  -1  12   16.84   19.72   3
   1  -1  12   -9.40   23.46   2
  -1  -1 -12  -28.94   18.32   1
  -1   1 -12   -4.49   13.71   3
  -1   1 -12   17.93   16.39   3
   2  -1  12   62.85   22.66   3
  -2  -1 -12   75.14   23.55   1
  -2   1 -12   80.56   18.94   3
  -2   1 -12   69.61   21.34   3
  -3  -1 -12  -13.66   25.01   1
  -3   1 -12   11.42   18.61   3
   4  -1  12  108.04   29.48   3
  -4  -1 -12  111.31   28.28   1
  -4   1 -12  122.04   24.42   3
  -4   1 -12  147.62   28.77   3
  -5  -1 -12  130.60   23.23   3
   5  -1  12   66.81   31.86   3
  -5  -1 -12  105.41   27.37   1
  -5  -1 -12  100.25   21.83   3
  -5   1 -12   68.17   28.44   1
  -5   1 -12  110.82   31.36   3
  -5   1 -12  124.42   26.74   3
   6  -1  12   97.88   33.26   3
   6   1  12  169.49   30.90   3
   7  -1  12  102.03   33.51   3
   7   1  12  191.43   34.34   3
  -8  -1 -12   58.30   34.09   3
  -8  -1 -12   64.81   29.92   3
   8  -1  12   71.26   39.24   3
  -8  -1 -12   15.44   28.65   1
  -8   1 -12   59.09   26.18   1
  -8   1 -12  -14.00   32.17   3
  -8   1 -12   59.31   51.69   3
   8   1  12   90.51   29.74   3
   9  -1  12  119.86   47.33   3
  -9  -1 -12   99.75   39.57   3
  -9   1 -12   40.21   34.24   1
  -9   1 -12   22.59   60.08   3
   9   1  12   17.75   37.14   3
  -9   1 -12   17.89   35.66   3
 -10  -1 -12  112.04   66.28   3
 -10  -1 -12   -9.35   36.88   3
 -10  -1 -12   18.56   36.33   1
 -10   1 -12   56.92   37.16   1
  10   1  12   -7.40   46.34   3
 -10   1 -12   34.32   41.10   3
  14  -2 -12  199.96   63.53   2
 -14  -2  12  335.43   60.15   2
  14   2 -12  208.74   53.22   3
 -13  -2  12  317.93   49.96   3
  13  -2 -12  265.41   41.03   3
  13  -2 -12  199.94   54.58   2
 -13  -2  12  189.80   52.90   2
  13   2 -12  222.99   44.29   3
 -13   2  12  259.99   41.75   3
 -12  -2  12  691.60  113.12   3
  12  -2 -12  696.14  100.15   3
  12  -2 -12  505.45   52.79   3
 -12  -2  12  513.27   70.92   2
 -12  -2  12  533.63   55.91   3
  12  -2 -12  446.58   77.57   2
 -12   2  12  612.26   54.78   3
  12   2 -12  530.80   58.57   3
  11  -2 -12  336.81   42.34   3
 -11  -2  12  546.76   92.12   3
 -11  -2  12  403.23   46.76   3
 -11  -2  12  386.09   53.72   2
  11  -2 -12  319.26   56.41   2
  11   2 -12  402.74   49.78   3
 -11   2  12  294.55   46.19   3
 -10  -2  12  271.24   39.49   3
 -10  -2  12  425.56   77.67   3
  10  -2 -12  303.65   38.85   3
 -10  -2  12  336.64   53.08   2
  10  -2 -12  392.79   58.93   2
 -10   2  12  267.91   41.43   3
  10   2 -12  296.57   42.21   3
   9  -2 -12  610.69   67.19   2
  -9  -2  12  653.76   51.18   3
  -9  -2  12  720.50  104.26   3
   9  -2 -12  645.63   72.97   3
  -9  -2  12  609.60   62.74   2
   9  -2 -12  659.88   49.17   3
   9   2 -12  669.92   54.22   3
  -9   2  12  632.06   51.05   3
   8  -2 -12  281.12   45.79   2
   8  -2 -12  272.91   32.91   3
   8  -2 -12  310.23   55.12   3
  -8  -2  12  300.12   36.59   3
  -8  -2  12  275.34   47.22   2
   8   2 -12  286.77   37.78   3
  -8   2  12  317.52   34.66   3
   7  -2 -12  575.88   40.70   3
   7  -2 -12  639.87   61.06   2
   7  -2 -12  531.51   56.30   3
  -7  -2  12  451.24   43.73   3
  -7  -2  12  521.92   55.74   2
   7   2 -12  538.49   46.43   3
  -7   2  12  489.08   40.86   3
  -6  -2  12  535.22   44.17   3
   6  -2 -12  530.59   38.99   3
  -6  -2  12  515.26   53.45   2
   6  -2 -12  514.10   51.25   3
   6   2 -12  620.40   52.93   3
   6   2 -12  483.60   44.53   3
  -5  -2  12  468.80   49.46   2
  -5  -2  12  452.54   40.32   3
   5   2 -12  455.68   55.38   3
   5   2 -12  480.77   42.08   3
  -4  -2  12  774.54   53.91   3
  -4  -2  12  768.04   60.46   2
   4   2 -12  707.59   52.85   3
   4   2 -12  688.36   60.18   3
  -3  -2  12  311.33   41.86   2
  -3  -2  12  336.30   35.72   3
   3   2 -12  312.70   33.58   3
   3   2 -12  297.92   43.43   3
  -2  -2  12  803.16   60.56   2
  -2  -2  12  816.33   56.80   3
   2   2 -12  797.72   62.85   3
   2   2 -12  775.45   54.85   3
  -1  -2  12  485.30   45.66   2
  -1  -2  12  382.95   40.11   3
   1   2 -12  410.28   46.76   3
   1   2 -12  428.14   37.78   3
   0  -2  12  302.57   36.34   3
   0  -2  12  373.63   41.58   2
   0   2 -12  300.95   42.65   3
   0   2 -12  310.95   34.18   3
   1  -2  12  888.78   60.02   3
   1  -2  12  747.77   61.18   2
  -1   2 -12  788.35   56.88   3
  -1   2 -12  836.96   64.83   3
   2  -2  12  286.31   41.46   2
   2  -2  12  268.62   37.92   3
  -2  -2 -12  213.38   39.14   1
  -2   2 -12  257.05   47.75   3
  -2   2 -12  302.40   35.46   3
  -3  -2 -12  485.04   44.96   3
  -3  -2 -12  533.67   42.39   3
   3  -2  12  541.61   49.13   2
   3  -2  12  512.85   49.42   3
  -3   2 -12  552.00   57.80   3
  -3   2 -12  503.71   45.17   3
   4  -2  12  421.52   46.69   2
  -4  -2 -12  412.70   43.93   3
  -4  -2 -12  433.06   41.20   3
   4  -2  12  392.31   49.58   3
  -4  -2 -12  344.72   44.30   1
  -4   2 -12  366.56   43.78   3
  -4   2 -12  461.52   49.94   3
  -5  -2 -12  384.20   49.59   3
  -5  -2 -12  340.84   50.33   3
   5  -2  12  414.46   54.02   3
   5   2  12  539.12   45.81   3
  -5   2 -12  480.23   51.53   3
  -5   2 -12  395.69   45.84   3
   5   2  12  474.76   37.07   3
   6  -2  12  379.49   59.55   3
  -6  -2 -12  385.67   53.92   3
  -6  -2 -12  517.00   55.99   3
  -6   2 -12  508.56   52.18   3
  -6   2 -12  568.50   49.69   3
   7  -2  12  280.52   53.46   3
  -7  -2 -12  299.89   57.41   3
  -7  -2 -12  256.99   46.16   3
  -7   2 -12  286.36   46.03   3
  -7   2 -12  334.60   48.61   3
  -8  -2 -12  395.20   58.01   3
   8  -2  12  397.10  109.53   3
  -8  -2 -12  510.76   65.26   3
   8  -2  12  461.38   74.06   3
  -8   2 -12  509.11   60.87   3
  -8   2 -12  405.77   56.93   3
  10  -3 -12   88.09   35.89   3
 -10  -3  12   32.08   43.41   2
 -10  -3  12   97.61   45.26   3
 -10  -3  12   98.81   98.54   3
  10  -3 -12   67.98   86.04   3
 -10   3  12   23.79   45.30   3
  10   3 -12   77.29   44.06   3
  -9  -3  12   83.59   36.12   3
   9  -3 -12    8.18   32.68   3
  -9  -3  12   36.69   40.93   2
   9  -3 -12  -30.98   70.27   3
  -9  -3  12  102.91   84.59   3
  -9   3  12   55.47   40.67   3
   9   3 -12   62.70   36.90   3
   8  -3 -12  -58.16   62.63   3
  -8  -3  12   21.53   38.62   2
  -8  -3  12   -7.55   35.56   3
  -8  -3  12  112.57   84.00   3
   8  -3 -12   12.84   31.31   3
  -8   3  12    8.12   34.72   3
   8   3 -12   54.78   33.57   3
  -7  -3  12   39.72   34.55   3
  -7  -3  12    1.05   36.12   2
  -7  -3  12   33.78   83.76   3
   7  -3 -12   13.51   51.06   3
  -7   3  12  -14.46   32.33   3
  -7   3  12   21.39   27.99   1
   7   3 -12   26.07   30.31   3
  -6  -3  12   37.96   71.03   3
  -5  -3  12   14.32   30.42   3
  -5  -3  12   71.05   63.09   3
   5  -3 -12   27.58   39.01   3
   5  -3 -12   10.73   28.18   3
  -5  -3  12   15.63   34.11   2
  -5   3  12  -24.27   27.83   3
  -5   3  12   47.33   27.27   1
   5   3 -12  -15.16   26.64   3
  -4  -3  12  -23.55   58.47   3
   4  -3 -12   27.68   35.87   3
   4  -3 -12   31.02   27.97   3
   4   3 -12   32.73   29.65   3
  -3  -3  12  130.88   60.53   3
   2  -3 -12   54.86   34.87   3
  -2  -3  12  -17.38   65.16   3
   2  -3 -12   38.06   27.46   3
  -2  -3  12   54.40   26.44   3
  -2  -3  12  -14.91   31.99   2
  -2   3  12   25.39   24.19   3
   2   3 -12   43.65   27.87   3
  -2   3  12   78.68   27.15   1
  -1  -3  12   34.47   28.09   3
  -1  -3  12   77.75   34.22   2
  -1  -3  12   47.84   68.40   3
   1  -3 -12   65.71   35.34   3
   1   3 -12   97.34   28.28   3
  -1   3  12   44.10   27.94   1
  -1   3  12   43.00   24.96   3
   0  -3  12    8.26   32.03   2
   0  -3 -12   13.58   31.06   3
   0  -3 -12  -12.07   34.28   3
   0  -3  12    0.85   67.23   3
   0  -3  12   15.12   31.67   3
   0   3 -12   43.44   32.43   3
  -1  -3 -12    4.29   30.67   3
  -1  -3 -12   33.67   36.80   3
   1  -3  12   80.05   37.46   2
   1  -3  12   31.96   68.42   3
   1   3  12   -6.57   24.22   3
  -1   3 -12  -14.35   32.24   3
   1   3  12   15.13   25.55   1
  -2  -3 -12   49.80   33.64   3
   2  -3  12    1.07   36.42   3
  -2  -3 -12   12.63   39.70   3
   2  -3  12   24.49   75.28   3
   2  -3  12   41.52   38.04   2
  -2   3 -12    5.18   30.17   3
   2   3  12    1.67   27.81   1
   2   3  12   21.58   26.07   3
   3  -3  12   -1.24   41.55   3
  -3  -3 -12   26.11   35.54   3
   3  -3  12  -45.22   36.13   2
  -3  -3 -12   78.79   42.91   3
  -3   3 -12   41.43   38.42   3
   3   3  12  -13.49   31.16   3
   3   3  12   81.12   30.11   3
   3   3  12   13.88   29.10   1
  -3   3 -12   35.63   37.54   3
  -4  -3 -12   51.42   46.11   3
   4  -3  12   -7.26   40.17   2
   4  -3  12   18.56   43.56   3
  -4  -3 -12   23.61   39.14   3
  -4   3 -12   53.20   36.49   3
   4   3  12   10.51   31.41   1
  -5  -3 -12  -46.05   54.73   3
   5  -3  12  -40.98   38.99   2
   5  -3  12  -74.20   98.16   3
  -5  -3 -12  -10.33   41.50   3
  -5   3 -12   37.60   52.04   3
   5   3  12   87.66   41.11   3
   5   3  12   22.15   35.07   1
  14   0 -13   46.46   65.80   3
 -14   0  13   48.35   24.67   3
 -13   0  13   34.16   21.35   3
  13   0 -13   86.57   42.13   3
 -12   0  13  131.38   24.94   3
  11   0 -13   22.19   29.64   3
  10   0 -13   15.81   25.47   3
 -10   0  13   13.86   16.11   3
  10   0 -13  -20.16   19.95   3
  10   0 -13  -48.16   26.39   2
   9   0 -13   14.96   23.02   2
   9   0 -13    9.76   23.56   3
   8   0 -13   -0.16   15.12   3
   8   0 -13    2.84   14.64   1
   8   0 -13  -10.94   25.85   2
   8   0 -13   30.29   20.79   3
   7   0 -13   35.32   15.98   1
   7   0 -13  -10.16   24.33   2
   6   0 -13   -7.85   20.41   2
   6   0 -13    9.12   14.68   1
   5   0 -13  -21.86   20.02   2
   5   0 -13    3.25   15.28   1
   4   0 -13  -27.47   18.61   2
   4   0 -13   -2.64   14.07   1
   3   0 -13  -30.51   16.85   1
   2   0 -13  -23.75   16.84   2
   2   0 -13  -25.55   19.82   1
   1   0 -13   46.67   15.37   2
   1   0 -13   -8.55   19.55   1
   0   0 -13   -5.95   17.16   2
   0   0 -13    8.87   19.62   1
  -1   0 -13  -27.44   22.03   1
  -3   0 -13   -8.02   23.21   1
  -4   0 -13   -0.72   18.43   3
  -4   0 -13    2.93   23.62   1
  -4   0 -13  -11.18   17.09   3
  -5   0 -13  -21.06   20.63   3
  -5   0 -13   -5.89   23.54   1
  -5   0 -13    6.97   22.04   3
  -6   0 -13   18.11   26.94   3
   6   0  13   31.12   25.14   3
  -7   0 -13    2.10   25.75   3
   7   0  13   40.47   30.61   3
  -7   0 -13   41.03   26.38   1
  -7   0 -13    7.31   30.51   3
  -9   0 -13   70.84   43.55   3
   9   0  13  118.78   42.36   3
  -9   0 -13   79.04   32.51   1
  14  -1 -13  288.98   48.21   2
 -14  -1  13  349.73   44.28   3
  14  -1 -13  276.03   46.39   3
 -14   1  13  309.67   42.68   3
  14   1 -13  333.72   51.47   3
  13  -1 -13  482.06   62.36   2
  13  -1 -13  477.35   48.88   3
 -13  -1  13  528.28   48.39   3
  13   1 -13  535.93   55.94   3
 -13   1  13  531.26   46.12   3
 -12  -1  13  637.39   49.69   3
  12  -1 -13  494.17   59.93   2
  12  -1 -13  492.61   47.33   3
 -12   1  13  538.31   44.27   3
  12   1 -13  600.29   54.25   3
  11  -1 -13  476.22   58.59   3
  11  -1 -13  338.36   37.24   3
 -11  -1  13  411.40   40.16   3
 -11  -1  13  357.70   57.33   2
  11  -1 -13  463.36   51.24   2
 -11   1  13  386.14   33.08   3
  11   1 -13  323.99   44.27   3
  11   1 -13  388.04   61.76   3
  10  -1 -13 1156.65   74.94   3
  10  -1 -13  950.61   65.23   3
 -10  -1  13 1082.32   80.49   2
 -10  -1  13  991.25   66.90   3
  10  -1 -13 1136.21   78.67   2
 -10   1  13  982.84   62.28   3
  10   1 -13  995.43   75.04   3
  10   1 -13  979.95   69.46   3
   9  -1 -13  599.42   47.42   3
  -9  -1  13  516.55   42.70   3
  -9  -1  13  538.70   57.98   2
   9  -1 -13  497.96   39.27   3
   9  -1 -13  567.09   56.70   2
   9   1 -13  496.05   45.77   3
   9   1 -13  596.06   54.26   3
  -8  -1  13  733.08   64.08   2
   8  -1 -13  747.79   51.28   3
  -8  -1  13  698.82   50.03   3
   8   1 -13  731.80   52.72   3
   7  -1 -13 1075.59   78.44   2
  -7  -1  13  977.90   75.52   2
  -7  -1  13  867.89   61.59   3
   7  -1 -13 1048.02   59.56   1
   7   1 -13  929.21   62.90   3
   7   1 -13 1034.86   66.58   3
  -6  -1  13  868.83   58.22   3
   6  -1 -13 1045.68   57.37   1
   6  -1 -13  980.98   73.86   2
  -6  -1  13  860.78   71.73   2
   6   1 -13  869.03   58.91   3
   6   1 -13  910.17   60.48   3
   5  -1 -13 1242.73   86.15   2
   5  -1 -13 1295.33   73.44   1
  -5  -1  13 1071.45   83.25   2
  -5  -1  13 1154.37   72.10   3
  -5  -1  13 1417.51   73.98   3
   5   1 -13 1154.28   73.42   3
   5   1 -13 1135.83   72.61   3
  -4  -1  13  465.69   51.00   2
   4  -1 -13  569.48   53.56   2
   4  -1 -13  498.47   39.36   1
   4   1 -13  452.60   36.62   3
   4   1 -13  459.50   35.29   3
   3  -1 -13 1452.96   85.95   1
   3  -1 -13 1455.76   92.42   2
  -3  -1  13 1403.85   92.50   2
   3   1 -13 1482.20   83.40   3
   3   1 -13 1300.87   81.50   3
   2  -1 -13 1194.69   74.51   1
   2  -1 -13  992.72   76.97   2
  -2  -1  13 1258.21   80.70   2
   2   1 -13 1212.53   69.65   3
  -1  -1  13  892.92   66.60   2
   1  -1 -13  840.98   64.19   2
   1  -1 -13  863.95   61.42   1
   1   1 -13  855.41   54.09   3
   1   1 -13  827.60   52.24   3
   0  -1  13 1187.53   81.42   2
   0  -1 -13 1421.00   80.27   2
   0  -1 -13 1223.02   80.19   1
   0   1 -13 1130.43   70.80   3
   0   1 -13 1129.57   72.43   3
  -1  -1 -13  322.21   42.74   1
  -1   1 -13  285.89   27.04   3
  -1   1 -13  286.66   31.39   3
  -2  -1 -13  980.92   60.17   2
   2  -1  13  817.41   61.05   3
  -2  -1 -13  875.78   65.63   1
  -2   1 -13  848.44   55.36   3
  -2   1 -13  843.27   58.63   3
  -3  -1 -13 1149.03   67.15   2
   3  -1  13  996.92   69.99   3
  -3  -1 -13 1074.73   73.55   1
  -3   1 -13 1017.66   66.03   3
  -3   1 -13  974.55   69.21   3
  -4  -1 -13 1395.27   82.44   2
  -4  -1 -13 1447.09   90.95   1
   4  -1  13 1289.29   86.42   3
  -4   1 -13 1295.64   87.91   3
  -4   1 -13 1382.77   84.24   3
  -4   1 -13 1368.56   87.90   1
  -5  -1 -13  953.08   61.65   3
   5  -1  13  986.05   69.04   3
  -5  -1 -13  967.75   70.65   1
  -5  -1 -13  886.04   60.67   3
  -5   1 -13  935.54   69.78   1
  -5   1 -13 1020.97   66.10   3
  -5   1 -13  946.43   72.98   3
  -6  -1 -13  161.50   31.80   3
   6  -1  13  207.83   37.19   3
  -6  -1 -13  162.62   32.68   3
  -6  -1 -13   90.33   34.12   1
  -6   1 -13  162.28   42.06   3
  -6   1 -13  226.50   39.04   1
  -6   1 -13  188.20   33.16   3
  -7  -1 -13  370.49   43.70   3
  -7  -1 -13  534.07   45.66   3
   7  -1  13  463.60   57.39   3
  -7  -1 -13  483.38   54.47   1
  -7   1 -13  499.58   68.58   3
  -7   1 -13  408.24   51.38   3
   7   1  13  450.14   47.04   3
  -7   1 -13  495.57   53.11   1
  -8  -1 -13  427.11   48.90   3
  -8  -1 -13  317.52   45.08   3
  -8  -1 -13  282.56   53.88   1
   8  -1  13  376.12   62.72   3
  -8   1 -13  475.72   65.67   3
  -8   1 -13  358.29   51.92   1
   8   1  13  305.24   50.17   3
  -8   1 -13  348.53   51.19   3
  -9  -1 -13  622.36   65.26   3
  -9  -1 -13  956.48   85.64   3
  -9  -1 -13  714.80   79.47   1
  -9   1 -13  897.71   72.54   1
   9   1  13  782.79   70.77   3
  -9   1 -13  829.56   78.92   3
 -13  -2  13  271.35  113.57   3
  13  -2 -13   29.79   55.67   2
  13  -2 -13  108.70   37.74   3
 -13  -2  13   75.58   56.34   2
  13   2 -13   70.13   45.24   3
 -13   2  13  151.12   45.73   3
  12  -2 -13  190.32   66.87   3
 -12  -2  13  284.42   93.66   3
  12  -2 -13   20.27   56.55   2
  12  -2 -13  135.55   34.42   3
 -12  -2  13  130.71   32.64   3
 -12  -2  13   78.48   48.94   2
 -12   2  13  140.46   33.92   3
  12   2 -13   81.93   39.90   3
 -11  -2  13  158.09   96.08   3
  11  -2 -13  108.84   48.81   2
  11  -2 -13  159.24   60.35   3
 -11  -2  13   62.79   47.15   2
 -11   2  13   66.78   27.94   3
  11   2 -13   65.33   29.83   3
 -10  -2  13  199.52   46.40   2
  10  -2 -13  188.85   36.09   3
 -10  -2  13  225.07   36.01   3
  10  -2 -13  172.25   54.87   2
  10  -2 -13  333.22   57.98   3
 -10   2  13  198.59   28.16   3
  10   2 -13  172.94   36.32   3
   9  -2 -13  -10.42   40.73   3
  -9  -2  13   86.74   23.83   3
   9  -2 -13   12.48   44.04   2
  -9  -2  13   10.62   35.24   2
  -9   2  13   42.29   20.28   3
   8  -2 -13  124.26   38.12   3
   8  -2 -13  135.17   23.43   3
  -8  -2  13   91.21   36.33   2
   8  -2 -13   18.33   41.81   2
  -8  -2  13  133.22   26.59   3
   8   2 -13   97.62   28.41   3
   8   2 -13  141.04   37.09   3
   7  -2 -13  230.06   28.11   3
   7  -2 -13  256.96   36.84   3
  -7  -2  13  188.10   34.01   3
  -7  -2  13  182.02   40.47   2
   7   2 -13  298.41   50.12   3
   7   2 -13  221.10   36.83   3
  -6  -2  13   11.45   20.85   3
   6  -2 -13    6.94   38.26   2
  -6  -2  13  -10.87   30.57   2
   6   2 -13   52.06   34.17   3
   6   2 -13   18.12   20.27   3
   5  -2 -13   77.14   36.49   2
  -5  -2  13   87.95   24.87   3
  -5  -2  13   80.91   33.22   2
   5   2 -13   89.56   29.87   3
   5   2 -13   91.29   24.33   3
  -4  -2  13  126.29   25.64   3
  -4  -2  13  164.90   32.41   2
   4   2 -13  143.97   30.19   3
   4   2 -13  147.44   26.77   3
  -3  -2  13   15.69   20.83   3
  -3  -2  13   33.81   26.41   2
   3   2 -13    7.47   25.57   3
   3   2 -13   29.59   20.89   3
  -2  -2  13  131.37   26.00   3
  -2  -2  13   99.34   32.53   2
   2   2 -13  153.17   29.67   3
   2   2 -13  202.43   34.24   3
   1   2 -13   30.37   21.94   3
   0  -2  13   28.41   29.78   2
   0  -2  13   85.76   23.94   3
   0   2 -13   63.47   27.96   3
   0   2 -13   31.14   21.57   3
   1  -2  13   21.21   29.18   2
  -1  -2 -13   33.33   28.83   1
   1  -2  13   77.44   28.67   3
  -1   2 -13   27.68   23.08   3
  -1   2 -13   50.94   29.00   3
   2  -2  13  -16.52   28.95   2
   2  -2  13   77.96   30.04   3
  -2  -2 -13   -6.93   27.20   1
  -2   2 -13   17.43   30.02   3
  -2   2 -13   45.52   24.00   3
   3  -2  13  -24.07   29.62   2
   3  -2  13   29.26   31.62   3
  -3  -2 -13   -5.11   28.90   1
  -3   2 -13    7.42   29.31   3
  -3   2 -13   42.59   25.07   3
   4  -2  13   -1.05   31.39   2
  -4  -2 -13   -9.08   32.36   1
  -4  -2 -13   64.98   25.28   3
  -4  -2 -13   19.19   27.93   3
   4  -2  13   -4.85   35.72   3
  -4   2 -13   27.28   30.27   3
  -4   2 -13    9.26   36.51   3
  -5  -2 -13  -59.31   32.79   1
  -5  -2 -13  -25.10   29.70   3
   5  -2  13   -8.37   38.24   3
  -5  -2 -13  -31.74   29.08   3
  -5  -2 -13   64.87   34.08   2
  -5   2 -13  -30.21   43.90   3
  -5   2 -13   -6.10   30.98   3
  -6  -2 -13   73.71   38.21   3
  -6  -2 -13  127.52   34.34   2
   6  -2  13  107.82   48.99   3
  -6   2 -13   61.00   38.35   3
   6   2  13  210.49   33.25   3
   6   2  13  167.00   37.92   3
   9  -3 -13  166.36   36.86   3
  -9  -3  13  122.96  116.40   3
  -9  -3  13  145.02   50.99   2
   9  -3 -13  235.56   83.27   3
   9   3 -13  153.42   45.21   3
  -9   3  13  176.28   44.65   3
  -8  -3  13  149.50   49.69   2
  -8  -3  13  125.07   38.06   3
  -8  -3  13  238.68   94.83   3
   8  -3 -13  247.74   69.09   3
  -8   3  13  126.87   41.82   3
   8   3 -13  162.68   37.20   3
  -7  -3  13  305.30   90.81   3
   6  -3 -13  227.24   34.80   3
  -6  -3  13  171.88   43.52   2
  -6  -3  13  305.49   80.83   3
  -6  -3  13  232.04   38.69   3
   6  -3 -13  163.69   51.03   3
   6   3 -13  181.21   36.80   3
  -6   3  13  178.90   36.05   3
   5  -3 -13  375.58   52.13   3
  -5  -3  13  321.77   50.84   3
   5  -3 -13  439.22   44.98   3
  -5  -3  13  484.66   94.15   3
  -5  -3  13  375.27   59.78   2
   5   3 -13  433.85   51.43   3
  -5   3  13  308.58   50.97   1
   4  -3 -13  311.03   41.63   3
  -4  -3  13  358.01   46.24   3
   4  -3 -13  371.84   46.90   3
  -4  -3  13  401.99   91.62   3
  -4  -3  13  300.47   54.72   2
   4   3 -13  358.73   47.62   3
  -4   3  13  324.70   48.01   1
  -3  -3  13  238.98   40.31   3
   3  -3 -13  286.77   41.69   3
  -3  -3  13  246.38   45.59   2
  -3  -3  13  373.35   86.22   3
   3  -3 -13  310.42   39.40   3
  -3   3  13  257.58   47.32   1
   2  -3 -13   58.84   33.77   3
  -2  -3  13  132.83   93.11   3
  -2  -3  13   87.33   41.21   2
   2  -3 -13   69.70   30.26   3
  -2  -3  13   59.61   34.90   3
  -2   3  13   81.48   33.28   1
   2   3 -13   96.99   29.81   3
  -1  -3  13   95.63   34.84   3
  -1  -3  13  119.40   40.63   2
   1  -3 -13  115.09   32.89   3
   1  -3 -13  132.96   33.44   3
  -1  -3  13  230.28  101.19   3
  -1   3  13  128.42   33.67   1
   0  -3  13  706.09  123.25   3
   0  -3  13  437.64   65.17   2
   0  -3 -13  439.92   53.64   3
   0  -3 -13  528.57   50.98   3
   0   3 -13  545.68   53.48   3
   0   3  13  485.08   53.22   1
  -1  -3 -13  481.33   50.82   3
   1  -3  13  347.99   54.68   3
  -1  -3 -13  347.83   54.14   3
   1  -3  13  646.15  121.30   3
   1  -3  13  372.59   61.23   2
  -1   3 -13  432.73   52.92   3
   1   3  13  341.27   51.44   1
  -2  -3 -13  379.00   48.86   3
   2  -3  13  353.46   60.65   2
  -2  -3 -13  368.47   55.36   3
   2  -3  13  268.57   49.96   3
   2  -3  13  412.97  109.38   3
  -2   3 -13  329.87   52.72   3
   2   3  13  409.12   51.00   1
   3  -3  13  103.61   46.27   2
   3  -3  13   44.06   57.22   3
  -3  -3 -13  140.54   39.18   3
  -3   3 -13   55.07   46.27   3
   3   3  13   61.87   33.86   1
  14   0 -14 1221.97   98.12   3
  14   0 -14  984.67   80.27   3
  14   0 -14 1122.07   91.58   2
 -14   0  14 1097.78   72.03   3
 -13   0  14  770.82   56.00   3
  13   0 -14  797.99   63.98   3
  13   0 -14  726.86   75.54   2
  12   0 -14  325.33   53.11   3
  12   0 -14  218.19   40.97   3
  12   0 -14  282.93   42.49   2
 -12   0  14  262.34   32.67   3
  11   0 -14  407.94   44.56   3
 -11   0  14  520.95   40.96   3
  11   0 -14  580.89   55.96   3
  11   0 -14  493.38   58.25   2
 -10   0  14  522.11   38.06   3
  10   0 -14  408.04   39.30   3
  10   0 -14  514.22   50.35   3
  10   0 -14  356.28   53.18   2
   9   0 -14 1293.34   78.39   3
   9   0 -14 1325.99   85.56   2
   9   0 -14 1106.75   74.74   3
   8   0 -14 1760.11  114.56   2
   8   0 -14 1852.15  104.55   1
   7   0 -14 1236.92   69.95   1
   7   0 -14 1013.08   79.38   2
   6   0 -14  712.33   65.47   2
   6   0 -14  925.46   54.82   1
   5   0 -14  236.18   28.46   1
   5   0 -14  153.60   29.72   2
   4   0 -14 1433.95   84.87   1
   4   0 -14 1310.58   89.88   2
   3   0 -14 1906.09  115.66   2
   3   0 -14 1910.96  112.79   1
   2   0 -14 1006.35   71.69   2
   2   0 -14 1161.85   72.20   1
   1   0 -14 1070.74   75.74   1
   1   0 -14 1177.68   73.39   2
   0   0 -14  120.72   29.83   1
   0   0 -14  192.79   30.62   2
  -1   0 -14  765.42   53.01   2
  -1   0 -14  760.54   61.18   1
  -2   0 -14 1125.65   71.92   2
  -2   0 -14 1180.70   78.26   1
  -3   0 -14 1362.48   89.47   1
  -4   0 -14  949.26   69.37   1
  -5   0 -14   64.09   23.93   3
  -5   0 -14   58.32   24.08   3
  -5   0 -14   31.60   30.83   1
  -6   0 -14  289.50   39.09   3
  -6   0 -14  297.30   41.33   3
  -6   0 -14  341.71   42.52   1
  -7   0 -14  295.84   44.95   1
  -7   0 -14  304.00   44.87   3
   7   0  14  359.57   46.71   3
  -7   0 -14  409.98   49.85   3
   8   0  14  805.96   65.78   3
  -8   0 -14  724.61   66.08   1
  -8   0 -14  761.28   69.86   3
  13  -1 -14  -19.15   38.67   2
 -13  -1  14   60.12   28.33   3
  13  -1 -14  114.09   53.52   3
  13   1 -14   52.93   57.65   3
 -13   1  14   -5.94   26.86   3
  13   1 -14  -22.64   32.92   3
  12  -1 -14   81.43   26.52   3
 -12  -1  14  211.10   38.27   3
  12  -1 -14  134.46   46.87   3
  12  -1 -14  106.74   38.71   2
 -12   1  14  149.26   26.63   3
  12   1 -14   96.89   49.31   3
  12   1 -14   77.03   33.11   3
  11  -1 -14   62.22   36.39   2
  11  -1 -14  237.77   42.92   3
 -11  -1  14  124.62   28.24   3
  11  -1 -14  135.84   27.23   3
 -11   1  14  174.30   29.16   3
  11   1 -14   64.59   32.01   3
  11   1 -14  192.41   42.10   3
  10  -1 -14   30.94   29.96   2
  10  -1 -14   97.08   31.15   3
 -10  -1  14   37.39   22.12   3
 -10  -1  14   27.29   34.13   2
  10   1 -14   74.97   38.24   3
  -9  -1  14   17.96   31.51   2
  -9  -1  14   10.03   20.79   3
   9  -1 -14   12.61   25.05   3
   9  -1 -14   16.28   25.84   2
   9   1 -14    3.50   21.60   3
  -8  -1  14   25.17   30.12   2
  -8  -1  14   34.44   17.54   3
   8  -1 -14  -14.99   32.03   2
   8   1 -14   -6.84   21.01   3
   8   1 -14   -1.79   25.29   3
   7  -1 -14   58.57   30.19   2
  -7  -1  14  134.09   35.32   2
  -7  -1  14   92.18   22.10   3
   7  -1 -14  146.59   22.94   1
   7   1 -14   97.92   25.61   3
   7   1 -14   45.45   20.76   3
  -6  -1  14   45.09   29.17   2
   6  -1 -14   47.64   30.47   2
  -6  -1  14   61.52   18.67   3
   6   1 -14   47.18   18.13   3
   6   1 -14   93.44   21.65   3
  -5  -1  14   48.66   31.19   2
   5  -1 -14   72.06   22.38   1
   5  -1 -14   35.22   31.21   2
   5   1 -14   75.24   18.09   3
   5   1 -14   84.06   20.93   3
  -4  -1  14   93.59   30.65   2
   4  -1 -14  129.55   31.43   2
   4  -1 -14   90.63   24.27   1
   4   1 -14  144.33   21.84   3
   4   1 -14   95.45   18.34   3
   3  -1 -14   27.56   29.79   2
  -3  -1  14   20.49   25.09   2
   3  -1 -14  -24.41   20.39   1
   2  -1 -14  148.12   29.15   2
  -2  -1  14  101.36   30.72   2
   1  -1 -14   23.56   24.31   1
   1  -1 -14   90.23   26.34   2
   0  -1 -14   13.22   24.00   2
   0  -1 -14  -34.30   26.01   1
   0   1 -14    4.30   17.14   3
  -1  -1 -14  100.44   23.07   2
  -1  -1 -14    4.87   27.28   1
  -1   1 -14   14.52   19.67   3
  -1   1 -14   58.87   16.86   3
  -2  -1 -14   49.59   30.67   1
  -2   1 -14   74.75   24.25   3
  -2   1 -14   46.27   18.07   3
  -3  -1 -14  267.15   46.71   1
   3  -1  14  257.08   40.04   3
  -3   1 -14  227.25   34.78   3
  -3   1 -14  240.75   29.58   3
  -3   1 -14  314.85   37.48   1
  -5  -1 -14  -56.02   32.23   1
   5  -1  14   -4.81   33.51   3
  -5   1 -14  -18.09   33.96   3
  -5   1 -14    4.58   28.06   1
  -5   1 -14   -1.53   26.30   3
  -6  -1 -14   -4.17   23.53   3
  -6  -1 -14   43.77   25.37   3
  -6  -1 -14  -28.99   30.84   1
   6  -1  14   -4.23   38.32   3
  -6   1 -14   10.55   33.30   1
  -6   1 -14  -40.26   29.44   3
  -6   1 -14  -35.29   40.28   3
   7  -1  14   41.36   41.38   3
  -7  -1 -14   71.99   33.79   1
  -7  -1 -14   13.32   27.08   3
  -7  -1 -14   26.87   29.60   3
  -7   1 -14   24.11   32.87   1
  -7   1 -14   39.33   35.03   3
  -7   1 -14  -11.25   49.65   3
  12  -2 -14  131.80   61.51   2
  12  -2 -14  164.07   36.71   3
  12  -2 -14  377.37   76.86   3
 -12  -2  14  116.98   56.00   2
 -12   2  14  267.70   47.08   3
  12   2 -14   92.67   47.13   3
 -11  -2  14  578.98   52.22   3
  11  -2 -14  422.74   49.36   3
  11  -2 -14  596.70   80.96   3
 -11  -2  14  426.13   64.74   2
  11  -2 -14  540.47   84.11   2
 -11   2  14  554.63   50.21   3
  11   2 -14  421.56   55.84   3
 -10  -2  14  269.08   53.30   2
 -10  -2  14  334.35   45.45   3
  10  -2 -14  291.89   40.77   3
  10  -2 -14  318.45   54.41   2
  10  -2 -14  378.52   63.59   3
  10   2 -14  276.85   47.53   3
  10   2 -14  348.94   62.42   3
   9  -2 -14  239.16   35.66   3
  -9  -2  14  239.37   38.34   3
  -9  -2  14  179.33   45.16   2
   9  -2 -14  160.26   54.05   2
   9  -2 -14  295.08   50.11   3
   9   2 -14  176.68   35.72   3
   9   2 -14  328.91   56.80   3
  -8  -2  14  266.51   40.70   3
   8  -2 -14  363.38   53.40   2
  -8  -2  14  320.51   52.82   2
   8   2 -14  446.25   60.70   3
   8   2 -14  343.77   43.18   3
   7  -2 -14  504.35   64.85   2
  -7  -2  14  306.80   58.15   2
  -7  -2  14  338.53   39.44   3
   7   2 -14  366.17   59.05   3
   7   2 -14  338.27   42.75   3
  -6  -2  14  723.79   52.27   3
  -6  -2  14  617.75   67.23   2
   6  -2 -14  627.29   74.85   2
   6   2 -14  697.67   63.04   3
   6   2 -14  701.72   54.21   3
  -5  -2  14  537.52   44.49   3
   5  -2 -14  457.52   67.02   2
   5   2 -14  418.03   53.03   3
   5   2 -14  475.42   43.56   3
   4  -2 -14  478.75   64.20   2
  -4  -2  14  391.76   53.73   2
  -4  -2  14  478.27   44.26   3
   4   2 -14  504.10   43.62   3
   4   2 -14  451.83   52.03   3
  -3  -2  14  298.12   38.48   3
  -3  -2  14  326.54   46.17   2
   3  -2 -14  300.44   47.32   2
   3   2 -14  353.48   38.03   3
   3   2 -14  425.89   47.22   3
  -2  -2  14  263.00   37.78   3
  -2  -2  14  365.24   48.48   2
   2  -2 -14  220.86   46.79   2
   2   2 -14  285.59   49.89   3
   2   2 -14  371.90   36.82   3
  -1  -2  14  698.48   57.18   3
  -1  -2  14  712.39   65.91   2
   1  -2 -14  877.78   71.68   2
   1   2 -14  733.40   62.88   3
   1   2 -14  765.28   54.80   3
   0  -2  14  467.94   49.45   3
   0  -2 -14  375.16   52.05   1
   0  -2 -14  640.75   63.12   2
   0  -2  14  514.57   57.91   2
   0   2 -14  505.16   55.19   3
   0   2 -14  510.86   44.37   3
   1  -2  14  504.65   54.49   3
   1  -2  14  587.44   60.63   2
  -1  -2 -14  585.77   65.07   2
  -1   2 -14  554.23   59.76   3
  -1   2 -14  559.13   48.04   3
   2  -2  14  369.82   51.62   3
  -2  -2 -14  265.35   40.78   1
   2  -2  14  365.05   53.33   2
  -2   2 -14  319.15   52.60   3
  -2   2 -14  273.51   39.24   3
  -3  -2 -14  488.95   58.24   2
  -3  -2 -14  372.57   56.34   1
   3  -2  14  346.39   55.15   2
   3  -2  14  415.93   57.99   3
  -3   2 -14  412.68   44.89   3
  -3   2 -14  340.39   58.86   3
  -4  -2 -14  572.20   64.62   2
   4  -2  14  438.13   58.13   2
  -4  -2 -14  342.40   59.81   1
   4  -2  14  477.04   59.15   3
  -4   2 -14  508.40   51.83   3
  -4   2 -14  412.10   62.64   3
   5  -2  14  522.99   68.36   3
  -5  -2 -14  568.07   59.63   2
  -5   2 -14  367.09   52.31   3
  -5   2 -14  420.17   60.44   3
  -7  -3  14   -2.81   46.98   2
   7  -3 -14  100.99   57.47   3
   7  -3 -14   42.92   32.89   3
   7   3 -14   49.51   44.31   3
  -6  -3  14   12.33   43.40   2
  -6  -3  14   87.27   41.02   3
   6  -3 -14   15.47   50.54   3
   6  -3 -14  102.20   33.75   3
   6   3 -14   67.88   36.65   3
  -5  -3  14    4.49   36.27   3
  -5  -3  14   49.51   42.48   2
   5   3 -14   69.99   33.81   3
   2   3 -14  476.23   58.72   3
   1   3 -14  322.83   55.92   3
   1  -3  14  -42.78   47.58   2
   1   3  14  -28.78   36.91   1
  13   0 -15   31.64   47.08   3
  13   0 -15   25.13   36.54   2
 -12   0  15   73.92   25.57   3
  12   0 -15   48.80   44.20   3
  11   0 -15   30.61   35.57   3
 -11   0  15   -2.08   21.75   3
  11   0 -15   -0.84   22.79   3
  11   0 -15  -59.95   36.31   2
  10   0 -15   22.62   32.10   2
  10   0 -15   43.30   29.30   3
  10   0 -15   -3.99   20.13   3
   8   0 -15  -36.10   28.62   2
   8   0 -15   -3.52   17.10   1
   6   0 -15   59.63   19.39   1
   5   0 -15   12.85   27.22   2
   5   0 -15  -12.78   20.21   1
   4   0 -15   -0.34   24.66   2
   4   0 -15   16.64   21.64   1
   3   0 -15   11.87   25.16   2
   3   0 -15   -9.12   22.55   1
   2   0 -15  -37.39   23.39   1
   2   0 -15  -38.66   23.35   2
   1   0 -15   -4.85   27.33   1
   1   0 -15   51.77   23.06   2
   0   0 -15   -5.19   27.53   1
   0   0 -15  -33.40   24.39   2
  -1   0 -15   47.36   28.44   1
  -1   0 -15   58.79   22.11   2
  -2   0 -15   15.50   27.60   1
  -3   0 -15  -21.08   24.39   1
  -4   0 -15  -10.52   28.39   1
  -5   0 -15  -23.81   31.46   1
  -6   0 -15   31.70   28.04   3
  -6   0 -15   40.82   28.36   3
  -6   0 -15   48.03   33.41   1
  -7   0 -15   29.16   34.62   3
  13  -1 -15   97.07   32.54   3
 -13  -1  15  157.16   45.51   3
  13  -1 -15  247.32   69.72   3
  13  -1 -15  178.80   50.85   2
 -13  -1  15  148.31   36.63   3
 -13   1  15  237.96   43.96   3
  13   1 -15   44.67   40.38   3
 -12  -1  15  419.29   44.83   3
  12  -1 -15  348.61   67.49   3
  12  -1 -15  272.84   38.78   3
  12  -1 -15  349.32   62.57   2
 -12   1  15  333.69   41.11   3
  12   1 -15  412.68   66.20   3
  12   1 -15  219.74   43.18   3
  11  -1 -15  230.24   36.73   3
 -11  -1  15  321.45   40.29   3
  11  -1 -15  292.82   51.60   3
  11  -1 -15  283.09   42.93   2
  11   1 -15  273.01   41.74   3
 -10  -1  15  589.84   46.38   3
  10  -1 -15  503.03   62.66   2
  10   1 -15  460.63   50.32   3
  -9  -1  15  805.76   52.36   3
   9  -1 -15  738.67   68.44   2
   9   1 -15  800.01   63.08   3
   9   1 -15  614.73   55.28   3
   8  -1 -15  606.45   57.23   2
   8  -1 -15  502.52   37.94   1
  -8  -1  15  564.42   42.31   3
   8   1 -15  416.99   42.32   3
   8   1 -15  454.88   48.29   3
   7  -1 -15  608.66   40.44   1
   7  -1 -15  504.51   58.20   2
   7   1 -15  511.95   45.31   3
   7   1 -15  446.81   41.25   3
   6  -1 -15   67.22   33.91   2
   6   1 -15  142.48   24.16   3
   6   1 -15  142.79   28.63   3
   5  -1 -15  608.45   61.93   2
   5  -1 -15  569.57   49.59   1
   4  -1 -15  594.65   52.02   1
   4  -1 -15  583.69   62.26   2
   3  -1 -15  422.14   47.64   1
   3  -1 -15  422.41   52.20   2
   2  -1 -15  670.56   58.88   1
   2  -1 -15  685.92   61.96   2
   1  -1 -15  358.81   45.86   2
   1  -1 -15  241.22   45.35   1
   0  -1 -15  638.10   53.57   2
   0  -1 -15  526.48   57.37   1
  -1  -1 -15  391.81   52.67   1
  -1  -1 -15  459.51   47.60   2
  -2  -1 -15  478.56   45.14   2
  -2  -1 -15  531.11   55.91   1
  -2   1 -15  397.60   35.02   3
  -2   1 -15  361.67   41.57   3
  -2   1 -15  460.66   47.44   1
  -3  -1 -15  499.06   61.01   1
  -3  -1 -15  526.78   49.43   2
  -3   1 -15  575.11   43.08   3
  -3   1 -15  523.19   50.68   3
  -3   1 -15  577.90   55.76   1
  -4  -1 -15  240.42   40.83   1
  -4   1 -15  206.02   33.72   3
  -4   1 -15  172.29   37.33   3
  -4   1 -15  245.12   40.52   1
   5  -1  15  448.54   54.42   3
  -5  -1 -15  378.36   61.71   1
  -5   1 -15  455.17   58.40   3
  -5   1 -15  479.14   47.21   3
   6  -1  15  368.64   54.87   3
  -6  -1 -15  189.84   45.04   1
  -6   1 -15  289.05   46.09   3
  -6   1 -15  284.27   52.89   3
  -6   1 -15  259.23   50.77   1
  10  -2 -15   99.00   58.98   2
 -10  -2  15  249.65   44.37   3
   9  -2 -15   23.85   58.18   2
  -8  -2  15   82.99   30.25   3
  -8  -2  15   37.02   40.42   2
   8  -2 -15   66.07   53.12   2
   8   2 -15  125.74   32.16   3
   8   2 -15  142.12   52.45   3
  -7  -2  15   65.04   26.27   3
  -7  -2  15   -0.77   39.33   2
   7  -2 -15    1.81   50.28   2
   7   2 -15   60.79   28.70   3
   7   2 -15   23.25   39.51   3
  -6  -2  15   23.10   39.82   2
  -5  -2  15  117.75   39.78   2
   5  -2 -15   51.31   49.09   2
  -5  -2  15  146.04   29.05   3
   5   2 -15  133.15   38.71   3
   5   2 -15  183.84   35.43   3
   4  -2 -15  101.28   46.03   2
  -4  -2  15  146.39   42.77   2
  -4  -2  15  145.61   28.36   3
   4   2 -15  179.74   35.44   3
   4   2 -15  165.91   39.69   3
  -3  -2  15  137.65   29.42   3
   3  -2 -15  120.07   46.82   2
  -3  -2  15  181.42   42.07   2
   3   2 -15  171.13   38.40   3
   3   2 -15  213.18   35.82   3
  -2  -2  15   26.94   36.28   2
   1  -2 -15   92.12   41.86   2
  -1  -2  15   23.99   32.13   3
  -1  -2  15   75.86   39.05   2
   1   2 -15   45.87   34.72   3
   1   2 -15  107.24   27.33   3
   0  -2  15  -31.90   33.03   3
   0  -2  15  -13.08   37.01   2
   0  -2 -15  112.02   43.02   2
   0  -2 -15  -23.55   31.81   1
   0   2 -15   58.30   26.48   3
   0   2 -15  -26.60   33.97   3
   1  -2  15   64.22   39.93   2
  -1  -2 -15   54.59   36.14   1
  -1  -2 -15  198.88   42.96   2
   1  -2  15   78.77   38.99   3
  -1   2 -15  118.32   29.01   3
  -1   2 -15  105.00   39.79   3
   2  -2  15  428.28   54.05   3
  -2  -2 -15  235.50   48.78   1
   2  -2  15  337.12   60.37   2
  -2   2 -15  389.13   43.48   3
  -2   2 -15  300.79   57.64   3
  -3  -2 -15  -43.47   39.38   1
   3  -2  15   20.10   42.12   2
  -3  -2 -15   57.56   42.95   2
   3  -2  15   11.12   43.54   3
  -3   2 -15   -2.36   42.26   3
  -3   2 -15   77.91   33.94   3
  -4  -2 -15  -12.46   55.21   1
   4  -2  15   81.49   54.83   3
  -4  -2 -15  163.07   44.04   2
  -4   2 -15  140.88   39.45   3
  12   0 -16  206.85   46.32   3
 -12   0  16  253.17   41.46   3
  12   0 -16  142.88   46.71   2
  11   0 -16  268.98   50.00   2
  11   0 -16  271.21   34.68   3
  11   0 -16  271.78   45.71   3
  10   0 -16  471.62   67.17   2
   9   0 -16  226.68   42.39   2
   9   0 -16  313.07   35.12   1
   8   0 -16  423.70   42.08   1
   8   0 -16  354.76   58.13   2
   7   0 -16  331.46   38.88   1
   7   0 -16  295.68   55.01   2
   6   0 -16  190.98   38.55   2
   5   0 -16  335.10   49.72   2
   5   0 -16  296.79   43.20   1
   4   0 -16  180.82   29.99   1
   4   0 -16  140.63   34.13   2
   3   0 -16  621.49   58.37   2
   3   0 -16  532.41   56.73   1
   2   0 -16  353.26   50.91   1
   2   0 -16  448.40   50.10   2
   1   0 -16  481.95   53.46   1
   1   0 -16  423.51   52.85   2
   0   0 -16  149.82   37.48   1
   0   0 -16  157.04   31.66   2
  -1   0 -16   58.60   34.01   1
  -1   0 -16   80.77   29.31   2
  -2   0 -16  297.52   54.36   1
  -3   0 -16  306.28   53.67   1
  -4   0 -16  598.58   65.25   1
  -5   0 -16  102.25   47.61   1
 -11  -1  16  116.00   33.67   3
  11  -1 -16  105.94   47.46   2
  11   1 -16   56.89   32.86   3
 -10  -1  16  116.63   30.28   3
 -10  -1  16  141.24   34.05   3
  10  -1 -16   25.02   44.25   2
  10   1 -16   76.97   31.79   3
  10   1 -16   86.57   37.83   3
   9  -1 -16  164.52   24.42   1
   8  -1 -16   11.94   31.31   2
   8   1 -16    7.05   26.78   3
   8   1 -16   28.03   24.12   3
   7  -1 -16   39.87   38.00   2
   7  -1 -16   99.63   24.60   1
   7   1 -16   79.67   24.54   3
   6  -1 -16   82.49   25.92   1
   6  -1 -16  -51.91   35.49   2
   5  -1 -16  165.48   31.80   1
   5  -1 -16   29.63   39.96   2
   4  -1 -16   -8.77   30.14   1
   4  -1 -16   -3.43   34.03   2
   3  -1 -16    5.78   26.93   1
   3  -1 -16  117.59   31.27   2
   2  -1 -16  154.57   33.86   1
   2  -1 -16  112.88   33.62   2
   1  -1 -16  -38.41   29.77   2
   0  -1 -16   35.68   33.96   1
   0  -1 -16   79.18   31.37   2
  -1  -1 -16  113.42   39.71   1
  -1   1 -16   80.61   32.79   1
  -2  -1 -16  -66.93   36.23   1
  -2  -1 -16   -1.95   31.92   2
  -2   1 -16    9.31   32.38   1
  -3  -1 -16   16.84   38.91   1
  -3   1 -16   72.51   30.61   3
  -3   1 -16   85.80   38.38   1
  -4   1 -16   94.01   27.70   3
  -4   1 -16  110.23   43.15   1
  -4   1 -16   40.53   34.93   3
  -9  -2  16  313.96   67.60   2
  -9  -2  16  407.16   54.32   3
   9   2 -16  385.70   55.79   3
  -8  -2  16  482.55   57.01   3
  -8  -2  16  523.79   81.44   2
   8   2 -16  589.20   55.89   3
   8   2 -16  691.83   74.17   3
   7  -2 -16  299.02   66.53   2
  -7  -2  16  360.38   59.57   2
  -7  -2  16  338.51   49.73   3
   7   2 -16  320.80   58.64   3
   7   2 -16  311.70   46.74   3
   6  -2 -16  476.41   87.06   2
  -6  -2  16  586.44   71.25   2
  -6  -2  16  458.59   55.64   3
   6   2 -16  540.99   62.79   3
   6   2 -16  602.14   52.95   3
  -5  -2  16  269.88   51.23   3
   5  -2 -16  370.79   66.42   2
  -5  -2  16  395.34   66.01   2
   5   2 -16  445.13   45.17   3
   5   2 -16  413.93   59.20   3
  -4  -2  16  399.83   56.79   2
   4  -2 -16  318.36   63.87   2
  -4  -2  16  280.03   49.78   3
   4   2 -16  378.39   58.24   3
   4   2 -16  461.65   43.50   3
  -3  -2  16  762.77   79.12   2
  -3  -2  16  711.79   66.94   3
   3  -2 -16  766.03   90.41   2
   3   2 -16  769.62   67.09   3
   3   2 -16  823.13   58.74   3
   2  -2 -16  567.92   75.49   2
  -2  -2  16  418.26   68.49   2
  -2  -2  16  346.90   58.32   3
   2   2 -16  450.18   43.69   3
   2   2 -16  315.33   57.04   3
  -1  -2  16  653.31   74.18   2
   1  -2 -16  484.01   62.62   1
  -1  -2  16  471.15   63.62   3
   1  -2 -16  544.00   77.85   2
   1   2 -16  411.63   60.05   3
   1   2 -16  585.17   47.78   3
   0  -2 -16  632.96   76.27   2
   0  -2 -16  471.45   65.24   1
   0  -2  16  403.27   64.13   3
   0  -2  16  425.12   70.88   2
   0   2 -16  518.96   45.85   3
   0   2 -16  431.16   61.24   3
  -1  -2 -16  321.17   57.75   1
   1  -2  16  423.04   69.78   2
  -1  -2 -16  577.96   75.26   2
   1  -2  16  422.48   68.87   3
  -1   2 -16  324.51   60.92   3
  -1   2 -16  461.21   46.26   3
  10   0 -17   18.90   20.46   1
  10   0 -17  -22.05   46.08   2
   9   0 -17  -22.24   24.27   1
   9   0 -17   89.76   42.89   2
   8   0 -17  -67.90   40.95   2
   8   0 -17   30.66   29.32   1
   7   0 -17  -45.61   39.09   2
   7   0 -17   49.95   28.25   1
   6   0 -17   19.42   38.13   2
   6   0 -17   34.28   28.95   1
   5   0 -17   29.36   31.25   1
   4   0 -17  -35.78   29.39   1
   4   0 -17  -47.31   32.29   2
   3   0 -17  120.65   31.43   1
   3   0 -17   48.54   33.61   2
   2   0 -17  -11.62   32.28   1
   2   0 -17    1.06   31.76   2
   1   0 -17  -51.81   33.67   1
   1   0 -17   90.74   33.33   2
   0   0 -17   47.46   34.26   1
   0   0 -17  -44.07   32.45   2
  -1   0 -17   39.60   36.56   1
  -2   0 -17  -20.30   38.15   1
  -3   0 -17   30.82   38.75   1
  10   1 -17  178.77   34.57   3
  10   1 -17  283.19   45.49   3
   9  -1 -17  692.45   48.81   1
   9  -1 -17  696.92   71.77   2
   9   1 -17  653.99   58.88   3
   8  -1 -17  453.22   44.90   1
   8  -1 -17  364.23   55.92   2
   7  -1 -17  214.54   47.11   2
   7  -1 -17  285.41   37.04   1
   6  -1 -17  229.84   35.37   1
   6  -1 -17  168.32   42.98   2
   5  -1 -17  188.99   44.04   2
   4  -1 -17  894.67   73.66   1
   4  -1 -17  849.17   75.79   2
   3  -1 -17  476.25   62.03   2
   3  -1 -17  517.12   63.35   1
   2  -1 -17  568.10   69.43   1
   2  -1 -17  605.70   68.57   2
   2   1 -17  713.21   61.16   1
   1  -1 -17  202.02   43.69   1
   1  -1 -17  165.71   39.35   2
   0  -1 -17  140.41   35.92   2
   0  -1 -17   43.59   40.07   1
   0   1 -17   71.07   35.24   1
  -1  -1 -17  396.14   73.12   1
  -1  -1 -17  553.26   60.23   2
  -1   1 -17  448.57   58.10   1
  -2  -1 -17  731.60   58.59   2
  -2  -1 -17  450.30   74.66   1
  -2   1 -17  565.05   67.67   1
  -5  -2  17  -14.99   51.11   2
   5  -2 -17  -54.68   61.93   2
   5   2 -17   60.95   42.46   3
   4  -2 -17   64.94   67.90   2
  -4  -2  17   54.82   51.84   2
  -4  -2  17   19.99   41.73   3
   4   2 -17   85.06   29.91   3
   3  -2 -17   57.79   62.98   2
  -3  -2  17   22.89   52.46   2
   3   2 -17   67.30   28.81   3
   3   2 -17   29.32   37.46   3
   8   0 -18  553.05   52.77   1
   7   0 -18   32.07   48.05   2
   6   0 -18  119.37   48.65   2
   6   0 -18  203.25   39.03   1
   5   0 -18 1099.03   79.40   1
   5   0 -18  897.25   91.89   2
   4   0 -18  856.48   75.25   1
   4   0 -18  880.31   83.67   2
   3   0 -18 1021.94   81.40   1
   2   0 -18  341.44   60.38   2
   2   0 -18  287.32   51.13   1
   1   0 -18   81.89   41.36   1
   1   0 -18   47.70   39.26   2
   0   0 -18  537.30   72.77   1
   7  -1 -18   80.81   49.06   2
   7   1 -18   27.41   35.69   1
   6  -1 -18   10.54   52.89   2
   6  -1 -18  147.96   33.32   1
   6   1 -18   90.76   33.15   1
   5  -1 -18  -54.81   50.15   2
   5   1 -18   -5.51   34.54   1
   4  -1 -18  -75.86   46.24   2
   4  -1 -18   57.03   38.20   1
   4   1 -18  -45.89   35.49   1
   3  -1 -18  -38.48   44.02   2
   3  -1 -18  -81.47   41.92   1
   3   1 -18   36.22   37.28   1
   2  -1 -18  -31.67   48.38   1
   2   1 -18   66.23   39.72   1
   1  -1 -18   90.13   46.37   1
   1  -1 -18   83.22   42.68   2
   1   1 -18   14.99   42.67   1
;
_shelx_hkl_checksum              73852
loop_
_space_group_symop_operation_xyz
'x, y, z'
'-x, y+1/2, -z+1/2'
'-x, -y, -z'
'x, -y-1/2, z-1/2'
loop_
_atom_site_label
_atom_site_type_symbol
_atom_site_fract_x
_atom_site_fract_y
_atom_site_fract_z
_atom_site_U_iso_or_equiv
_atom_site_adp_type
_atom_site_occupancy
_atom_site_site_symmetry_order
_atom_site_calc_flag
_atom_site_refinement_flags_posn
_atom_site_refinement_flags_adp
_atom_site_refinement_flags_occupancy
Au1 Au 0.000000 0.000000 0.000000 0.00959(19) Uani 1 2 d S . P
S1 S -0.1687(2) 0.1391(10) -0.0335(2) 0.0139(6) Uani 1 1 d . . .
S2 S -0.0093(2) -0.1627(9) -0.1577(2) 0.0119(6) Uani 1 1 d . . .
S3 S -0.1935(2) -0.1450(10) -0.3239(2) 0.0141(6) Uani 1 1 d . . .
S4 S -0.4089(2) 0.0599(8) -0.3907(3) 0.0167(7) Uani 1 1 d . . .
C1 C -0.1323(9) -0.084(3) -0.2045(9) 0.0127(12) Uani 1 1 d . . .
C2 C -0.1980(8) 0.053(3) -0.1549(8) 0.0127(12) Uani 1 1 d . . .
N3 N -0.2925(7) 0.106(3) -0.2115(8) 0.014(2) Uani 1 1 d . . .
C4 C -0.3744(9) 0.249(4) -0.1726(9) 0.0127(12) Uani 1 1 d . . .
H4A H -0.420342 0.385098 -0.222320 0.019 Uiso 1 1 calc R U .
H4B H -0.347077 0.406404 -0.118319 0.019 Uiso 1 1 calc R U .
H4C H -0.410126 0.049469 -0.151374 0.019 Uiso 1 1 calc R U .
C5 C -0.3058(8) 0.025(4) -0.3051(8) 0.0127(12) Uani 1 1 d . . .
loop_
_atom_site_aniso_label
_atom_site_aniso_U_11
_atom_site_aniso_U_22
_atom_site_aniso_U_33
_atom_site_aniso_U_23
_atom_site_aniso_U_13
_atom_site_aniso_U_12
Au1 0.0100(3) 0.0112(3) 0.0071(3) 0.0005(3) 0.00098(19) -0.0011(3)
S1 0.0121(14) 0.0197(15) 0.0100(14) -0.0006(12) 0.0029(11) 0.0001(12)
S2 0.0071(13) 0.0192(16) 0.0090(14) -0.0008(12) 0.0012(10) 0.0002(12)
S3 0.0078(13) 0.0244(16) 0.0094(14) -0.0008(12) 0.0005(10) -0.0013(12)
S4 0.0143(14) 0.0052(17) 0.0278(17) 0.0012(12) -0.0006(12) -0.0037(11)
C1 0.012(3) 0.012(3) 0.014(3) 0.001(2) 0.005(2) 0.000(2)
C2 0.012(3) 0.012(3) 0.014(3) 0.001(2) 0.005(2) 0.000(2)
N3 0.005(4) 0.020(6) 0.020(6) 0.003(4) 0.007(4) 0.000(4)
C4 0.012(3) 0.012(3) 0.014(3) 0.001(2) 0.005(2) 0.000(2)
C5 0.012(3) 0.012(3) 0.014(3) 0.001(2) 0.005(2) 0.000(2)
loop_
_atom_type_symbol
_atom_type_description
_atom_type_scat_dispersion_real
_atom_type_scat_dispersion_imag
_atom_type_scat_source
C C 0.0033 0.0016 'International Tables Vol C Tables 4.2.6.8 and 6.1.1.4'
H H 0.0000 0.0000 'International Tables Vol C Tables 4.2.6.8 and 6.1.1.4'
N N 0.0061 0.0033 'International Tables Vol C Tables 4.2.6.8 and 6.1.1.4'
S S 0.1246 0.1234 'International Tables Vol C Tables 4.2.6.8 and 6.1.1.4'
Au Au -2.0133 8.8022 'International Tables Vol C Tables 4.2.6.8 and 6.1.1.4'
loop_
_geom_angle_atom_site_label_1
_geom_angle_atom_site_label_2
_geom_angle_atom_site_label_3
_geom_angle
_geom_angle_site_symmetry_1
_geom_angle_site_symmetry_3
S2 Au1 S2 180.00(4) . 3
S2 Au1 S1 88.08(10) . 3
S2 Au1 S1 91.92(10) 3 3
S2 Au1 S1 91.92(10) . .
S2 Au1 S1 88.08(10) 3 .
S1 Au1 S1 180.0 3 .
C2 S1 Au1 98.8(4) . .
C1 S2 Au1 99.3(4) . .
C1 S3 C5 92.4(6) . .
C2 C1 S2 125.3(10) . .
C2 C1 S3 109.5(9) . .
S2 C1 S3 125.2(7) . .
C1 C2 N3 113.2(11) . .
C1 C2 S1 124.5(9) . .
N3 C2 S1 122.3(9) . .
C5 N3 C2 116.4(10) . .
C5 N3 C4 121.5(10) . .
C2 N3 C4 122.0(10) . .
N3 C4 H4A 109.5 . .
N3 C4 H4B 109.5 . .
H4A C4 H4B 109.5 . .
N3 C4 H4C 109.5 . .
H4A C4 H4C 109.5 . .
H4B C4 H4C 109.5 . .
N3 C5 S4 128.0(9) . .
N3 C5 S3 108.5(8) . .
S4 C5 S3 123.4(7) . .
loop_
_geom_bond_atom_site_label_1
_geom_bond_atom_site_label_2
_geom_bond_distance
_geom_bond_site_symmetry_2
Au1 S2 2.326(3) .
Au1 S2 2.326(3) 3
Au1 S1 2.326(3) 3
Au1 S1 2.326(3) .
S1 C2 1.729(12) .
S2 C1 1.700(12) .
S3 C1 1.744(13) .
S3 C5 1.756(12) .
S4 C5 1.656(11) .
C1 C2 1.381(16) .
C2 N3 1.381(15) .
N3 C5 1.351(16) .
N3 C4 1.476(15) .
C4 H4A 0.9800 .
C4 H4B 0.9800 .
C4 H4C 0.9800 .
loop_
_geom_torsion_atom_site_label_1
_geom_torsion_atom_site_label_2
_geom_torsion_atom_site_label_3
_geom_torsion_atom_site_label_4
_geom_torsion
Au1 S2 C1 C2 2.5(12)
Au1 S2 C1 S3 179.3(7)
C5 S3 C1 C2 1.1(10)
C5 S3 C1 S2 -176.1(9)
S2 C1 C2 N3 177.1(9)
S3 C1 C2 N3 -0.1(14)
S2 C1 C2 S1 -5.1(17)
S3 C1 C2 S1 177.7(7)
Au1 S1 C2 C1 4.2(12)
Au1 S1 C2 N3 -178.2(10)
C1 C2 N3 C5 -1.4(17)
S1 C2 N3 C5 -179.3(10)
C1 C2 N3 C4 179.6(11)
S1 C2 N3 C4 1.8(17)
C2 N3 C5 S4 -179.6(11)
C4 N3 C5 S4 -1(2)
C2 N3 C5 S3 2.2(15)
C4 N3 C5 S3 -178.8(9)
C1 S3 C5 N3 -1.9(10)
C1 S3 C5 S4 179.8(10)
