#------------------------------------------------------------------------------
#$Date: 2019-11-26 01:11:40 +0200 (Tue, 26 Nov 2019) $
#$Revision: 242242 $
#$URL: file:///home/coder/svn-repositories/cod/cif/4/13/22/4132241.cif $
#------------------------------------------------------------------------------
#
# This file is available in the Crystallography Open Database (COD),
# http://www.crystallography.net/
#
# All data on this site have been placed in the public domain by the
# contributors.
#
data_4132241
loop_
_publ_author_name
'Wang, Yin-Xia'
'Qi, Shao-Long'
'Luan, Yu-Xin'
'Han, Xing-Wang'
'Wang, Shan'
'Chen, Hao'
'Ye, Mengchun'
_publ_section_title
;
 Enantioselective Ni-Al Bimetallic Catalyzed exo-Selective C-H Cyclization
 of Imidazoles with Alkenes.
;
_journal_issue                   16
_journal_name_full               'Journal of the American Chemical Society'
_journal_page_first              5360
_journal_page_last               5364
_journal_paper_doi               10.1021/jacs.8b02547
_journal_volume                  140
_journal_year                    2018
_chemical_absolute_configuration ad
_chemical_formula_moiety         'C18 H18 N2'
_chemical_formula_sum            'C18 H18 N2'
_chemical_formula_weight         262.34
_space_group_crystal_system      monoclinic
_space_group_IT_number           4
_space_group_name_Hall           'P 2yb'
_space_group_name_H-M_alt        'P 1 21 1'
_atom_sites_solution_hydrogens   geom
_atom_sites_solution_primary     direct
_audit_creation_date             2016-12-29
_audit_creation_method
;
Olex2 1.2-ac21
(compiled 2015.09.16 svn.r134, GUI svn.r4998)
;
_cell_angle_alpha                90
_cell_angle_beta                 97.6815(17)
_cell_angle_gamma                90
_cell_formula_units_Z            2
_cell_length_a                   8.57436(15)
_cell_length_b                   6.43605(18)
_cell_length_c                   13.5714(3)
_cell_measurement_reflns_used    8310
_cell_measurement_temperature    294(2)
_cell_measurement_theta_max      78.7900
_cell_measurement_theta_min      3.2850
_cell_volume                     742.22(3)
_computing_cell_refinement
;
CrysAlisPro 1.171.38.41 (Rigaku OD, 2015)
;
_computing_data_collection
;
CrystalClear-SM Expert 2.1 b42 (Rigaku, 2015)
;
_computing_data_reduction
;
CrysAlisPro 1.171.38.41 (Rigaku OD, 2015)
;
_computing_molecular_graphics    'Olex2 (Dolomanov et al., 2009)'
_computing_publication_material  'Olex2 (Dolomanov et al., 2009)'
_computing_structure_refinement  'ShelXL (Sheldrick, 2008)'
_computing_structure_solution    'ShelXT (Sheldrick, 2015)'
_diffrn_ambient_temperature      294.15
_diffrn_detector                 PILT
_diffrn_detector_area_resol_mean 5.814
_diffrn_detector_type            'Rigaku Pilatus 200K'
_diffrn_measured_fraction_theta_full 0.995
_diffrn_measured_fraction_theta_max 0.980
_diffrn_measurement_details
;
List of Runs (angles in degrees, time in seconds):

  # Type    Start    End  Width  t~exp~   \w     \q     \k     \f   Frames
--------------------------------------------------------------------------
  1  \w    -50.00  55.00   1.00    5.00    --  -35.00  43.00-180.00  105
  2  \w   -114.00 -21.00   1.00    5.00    --  -35.00 -72.00-108.00   93
  3  \w   -125.00 -32.00   1.00    5.00    --  -35.00 -72.00-180.00   93
  4  \w   -114.00 -21.00   1.00    5.00    --  -35.00 -44.00-108.00   93
  5  \w   -115.00 -25.00   1.00    5.00    --  -35.00 -72.00-144.00   90
  6  \w    -50.00  40.00   1.00    5.00    --  -35.00  72.00-144.00   90
  7  \w   -112.00 -21.00   1.00    5.00    --  -35.00 -72.00 144.00   91
  8  \w   -125.00 -33.00   1.00    5.00    --  -35.00 -44.00 -36.00   92
  9  \w   -125.00 -33.00   1.00    5.00    --  -35.00 -72.00 -72.00   92
 10  \w   -200.00 -96.00   1.00    5.00    -- -110.00 -72.00 144.00  104
 11  \w   -187.00 -96.00   1.00    5.00    -- -110.00 -44.00-108.00   91
 12  \w   -187.00 -96.00   1.00    5.00    -- -110.00 -72.00-144.00   91
 13  \w   -125.00 -33.00   1.00    5.00    -- -110.00  72.00-108.00   92
 14  \w   -200.00-110.00   1.00    5.00    -- -110.00 -15.00 144.00   90
 15  \w   -187.00 -96.00   1.00    5.00    -- -110.00 -44.00-144.00   91
 16  \w   -123.00 -33.00   1.00    5.00    -- -110.00  72.00 -36.00   90
 17  \w   -187.00 -97.00   1.00    5.00    -- -110.00 -15.00-108.00   90
 18  \w   -187.00 -96.00   1.00    5.00    -- -110.00 -44.00 144.00   91
 19  \w   -115.00 -25.00   1.00    5.00    -- -110.00  72.00-144.00   90
 20  \w   -187.00 -97.00   1.00    5.00    -- -110.00 -44.00-180.00   90
 21  \w   -187.00 -96.00   1.00    5.00    -- -110.00 -72.00-108.00   91
 22  \w   -187.00 -97.00   1.00    5.00    -- -110.00 -44.00 108.00   90
 23  \w   -187.00 -96.00   1.00    5.00    -- -110.00 -72.00-180.00   91
 24  \w   -115.00 -25.00   1.00    5.00    -- -110.00  72.00  72.00   90
 25  \w   -123.00 -33.00   1.00    5.00    -- -110.00  72.00-180.00   90
 26  \w   -187.00 -96.00   1.00    5.00    -- -110.00 -44.00  72.00   91
 27  \w   -200.00-110.00   1.00    5.00    -- -110.00 -15.00-180.00   90
 28  \w   -187.00 -97.00   1.00    5.00    -- -110.00 -15.00 108.00   90
 29  \w   -187.00 -97.00   1.00    5.00    -- -110.00 -72.00 -72.00   90
;
_diffrn_measurement_device       'AFC12 (Right): Kappa 3 circle'
_diffrn_measurement_device_type  'Rigaku XtaLab P200'
_diffrn_measurement_method       'profile data from \w-scans'
_diffrn_measurement_specimen_support Fiber
_diffrn_orient_matrix_type
'CrysAlisPro convention (1999,Acta A55,543-557)'
_diffrn_orient_matrix_UB_11      -0.0186990000
_diffrn_orient_matrix_UB_12      -0.0220150000
_diffrn_orient_matrix_UB_13      -0.1141379000
_diffrn_orient_matrix_UB_21      -0.1802688000
_diffrn_orient_matrix_UB_22      -0.0040490000
_diffrn_orient_matrix_UB_23      -0.0031491000
_diffrn_orient_matrix_UB_31      -0.0046357000
_diffrn_orient_matrix_UB_32      0.2380268000
_diffrn_orient_matrix_UB_33      -0.0104624000
_diffrn_radiation_collimation    0.3
_diffrn_radiation_monochromator  Confocal
_diffrn_radiation_probe          x-ray
_diffrn_radiation_type           CuK\a
_diffrn_radiation_wavelength     1.54184
_diffrn_reflns_av_R_equivalents  0.0262
_diffrn_reflns_av_unetI/netI     0.0150
_diffrn_reflns_Laue_measured_fraction_full 0.995
_diffrn_reflns_Laue_measured_fraction_max 0.980
_diffrn_reflns_limit_h_max       10
_diffrn_reflns_limit_h_min       -10
_diffrn_reflns_limit_k_max       7
_diffrn_reflns_limit_k_min       -6
_diffrn_reflns_limit_l_max       16
_diffrn_reflns_limit_l_min       -17
_diffrn_reflns_number            11699
_diffrn_reflns_point_group_measured_fraction_full 0.876
_diffrn_reflns_point_group_measured_fraction_max 0.851
_diffrn_reflns_theta_full        67.684
_diffrn_reflns_theta_max         79.198
_diffrn_reflns_theta_min         3.286
_diffrn_source                   'Rotating Anode'
_diffrn_source_current           30.0
_diffrn_source_power             1.2
_diffrn_source_target            Cu
_diffrn_source_type              'Rotating Anode'
_diffrn_source_voltage           40.0
_exptl_absorpt_coefficient_mu    0.532
_exptl_absorpt_correction_T_max  1.00000
_exptl_absorpt_correction_T_min  0.46418
_exptl_absorpt_correction_type   multi-scan
_exptl_absorpt_process_details
;
CrysAlisPro 1.171.38.41 (Rigaku Oxford Diffraction, 2015)
Empirical absorption correction using spherical harmonics,
 implemented in SCALE3 ABSPACK scaling algorithm.
;
_exptl_crystal_colour            colourless
_exptl_crystal_colour_primary    colourless
_exptl_crystal_density_diffrn    1.174
_exptl_crystal_description       prism
_exptl_crystal_F_000             280
_exptl_crystal_size_max          0.360
_exptl_crystal_size_mid          0.260
_exptl_crystal_size_min          0.22
_refine_diff_density_max         0.144
_refine_diff_density_min         -0.185
_refine_diff_density_rms         0.050
_refine_ls_abs_structure_details
;
 Flack x determined using 953 quotients [(I+)-(I-)]/[(I+)+(I-)]
 (Parsons, Flack and Wagner, Acta Cryst. B69 (2013) 249-259).
;
_refine_ls_abs_structure_Flack   -0.8(5)
_refine_ls_extinction_coef       0.098(8)
_refine_ls_extinction_expression Fc^*^=kFc[1+0.001xFc^2^\l^3^/sin(2\q)]^-1/4^
_refine_ls_extinction_method     'SHELXL-2014/7 (Sheldrick 2014'
_refine_ls_goodness_of_fit_ref   1.077
_refine_ls_hydrogen_treatment    constr
_refine_ls_matrix_type           full
_refine_ls_number_parameters     182
_refine_ls_number_reflns         2735
_refine_ls_number_restraints     1
_refine_ls_restrained_S_all      1.077
_refine_ls_R_factor_all          0.0449
_refine_ls_R_factor_gt           0.0445
_refine_ls_shift/su_max          0.000
_refine_ls_shift/su_mean         0.000
_refine_ls_structure_factor_coef Fsqd
_refine_ls_weighting_details
'w=1/[\s^2^(Fo^2^)+(0.0930P)^2^+0.0190P] where P=(Fo^2^+2Fc^2^)/3'
_refine_ls_weighting_scheme      calc
_refine_ls_wR_factor_gt          0.1310
_refine_ls_wR_factor_ref         0.1316
_reflns_Friedel_coverage         0.593
_reflns_Friedel_fraction_full    0.732
_reflns_Friedel_fraction_max     0.697
_reflns_number_gt                2647
_reflns_number_total             2735
_reflns_threshold_expression     'I > 2\s(I)'
_cod_data_source_file            ja8b02547_si_002.cif
_cod_data_source_block           p20161228a
_cod_database_code               4132241
_chemical_oxdiff_formula         C18H18N2
_shelx_space_group_comment
;
The symmetry employed for this shelxl refinement is uniquely defined
by the following loop, which should always be used as a source of
symmetry information in preference to the above space-group names.
They are only intended as comments.
;
_shelx_estimated_absorpt_t_max   0.892
_shelx_estimated_absorpt_t_min   0.831
_reflns_odcompleteness_completeness 97.84
_reflns_odcompleteness_iscentric 1
_reflns_odcompleteness_theta     78.95
_olex2_refinement_description
;
1. Fixed Uiso
 At 1.2 times of:
  All C(H) groups, All C(H,H) groups
2.a Ternary CH refined with riding coordinates:
 C10(H10)
2.b Secondary CH2 refined with riding coordinates:
 C8(H8A,H8B), C9(H9A,H9B), C11(H11A,H11B), C12(H12A,H12B)
2.c Aromatic/amide H refined with riding coordinates:
 C4(H4), C5(H5), C6(H6), C7(H7), C14(H14), C15(H15), C16(H16), C17(H17),
 C18(H18)
;
_shelx_res_file
;
    p20161228a.res created by SHELXL-2014/7

TITL p20161228a_a.res in P2(1)
REM Old TITL P20161228a in P21 #4
REM SHELXT solution in P2(1)
REM R1 0.176, Rweak 0.072, Alpha 0.006, Orientation as input
REM Flack x = -0.394 ( 0.877 ) from Parsons' quotients
REM Formula found by SHELXT: C17 N3
CELL 1.54184 8.574359 6.436053 13.571385 90 97.6815 90
ZERR 2 0.000146 0.000178 0.000268 0 0.0017 0
LATT -1
SYMM -X,0.5+Y,-Z
SFAC C H N
UNIT 36 36 4

L.S. 10
PLAN  20
SIZE 0.36 0.26 0.22
TEMP 21
BOND $H
MORE -1
CONF
htab
fmap 2
ACTA
REM <olex2.extras>
REM <HklSrc "%.\\P20161228a.hkl">
REM </olex2.extras>

WGHT    0.093000    0.019000
EXTI    0.098349
FVAR       2.12105
N1    3   -0.765014   -0.803108   -0.502203    11.00000    0.07592    0.05393 =
         0.08520    0.00471    0.00414   -0.00503
N2    3   -0.681101   -0.480832   -0.461700    11.00000    0.08304    0.05926 =
         0.07769    0.00022    0.00558   -0.00611
C1    1   -0.687819   -0.631926   -0.526916    11.00000    0.06941    0.05123 =
         0.07876    0.00502    0.00291   -0.00127
C2    1   -0.812410   -0.765676   -0.410671    11.00000    0.06438    0.07087 =
         0.08032    0.01595   -0.00164   -0.00111
C3    1   -0.760164   -0.562880   -0.386959    11.00000    0.07107    0.07057 =
         0.07277    0.00701   -0.00058    0.00209
C4    1   -0.791541   -0.475428   -0.297871    11.00000    0.09034    0.10203 =
         0.07663   -0.00297   -0.00036    0.00826
AFIX  43
H4    2   -0.759436   -0.340853   -0.280370    11.00000   -1.20000
AFIX   0
C5    1   -0.871160   -0.593181   -0.236530    11.00000    0.08650    0.16418 =
         0.07193    0.00971    0.00451    0.00947
AFIX  43
H5    2   -0.892506   -0.536969   -0.176635    11.00000   -1.20000
AFIX   0
C6    1   -0.920386   -0.793052   -0.261495    11.00000    0.08012    0.15778 =
         0.08629    0.03694    0.00362   -0.01070
AFIX  43
H6    2   -0.973389   -0.868301   -0.217794    11.00000   -1.20000
AFIX   0
C7    1   -0.893110   -0.882828   -0.348789    11.00000    0.08290    0.10296 =
         0.10030    0.03392   -0.00159   -0.01416
AFIX  43
H7    2   -0.927340   -1.016813   -0.365791    11.00000   -1.20000
AFIX   0
C8    1   -0.768515   -0.972172   -0.573382    11.00000    0.10410    0.05519 =
         0.09949   -0.00243   -0.00031   -0.00677
AFIX  23
H8A   2   -0.873519   -1.029524   -0.589053    11.00000   -1.20000
H8B   2   -0.695926   -1.082137   -0.549272    11.00000   -1.20000
AFIX   0
C9    1   -0.716488   -0.861476   -0.662296    11.00000    0.12871    0.06660 =
         0.08874   -0.01128    0.00796   -0.00266
AFIX  23
H9A   2   -0.807305   -0.824058   -0.709465    11.00000   -1.20000
H9B   2   -0.649067   -0.951329   -0.695470    11.00000   -1.20000
AFIX   0
C10   1   -0.626097   -0.664880   -0.623261    11.00000    0.07739    0.06242 =
         0.08216    0.00394    0.00870    0.00852
AFIX  13
H10   2   -0.513673   -0.697810   -0.609830    11.00000   -1.20000
AFIX   0
C11   1   -0.648220   -0.480364   -0.693148    11.00000    0.08496    0.06845 =
         0.08034    0.00773    0.01836    0.01456
AFIX  23
H11A  2   -0.593873   -0.361441   -0.660812    11.00000   -1.20000
H11B  2   -0.759364   -0.446627   -0.705656    11.00000   -1.20000
AFIX   0
C12   1   -0.587872   -0.517151   -0.792058    11.00000    0.13154    0.09031 =
         0.09405    0.00875    0.04069    0.03488
AFIX  23
H12A  2   -0.473852   -0.523731   -0.780979    11.00000   -1.20000
H12B  2   -0.626393   -0.650341   -0.818488    11.00000   -1.20000
AFIX   0
C13   1   -0.637264   -0.352110   -0.867116    11.00000    0.08050    0.07708 =
         0.06970   -0.00343    0.02236    0.00366
C14   1   -0.548534   -0.175942   -0.872520    11.00000    0.09556    0.09504 =
         0.07669   -0.01856    0.02426   -0.01550
AFIX  43
H14   2   -0.456145   -0.160127   -0.828755    11.00000   -1.20000
AFIX   0
C15   1   -0.592651   -0.022573   -0.940837    11.00000    0.20324    0.08654 =
         0.09385   -0.00438    0.06896   -0.01601
AFIX  43
H15   2   -0.529169    0.093957   -0.943348    11.00000   -1.20000
AFIX   0
C16   1   -0.725908   -0.038993   -1.003788    11.00000    0.21059    0.11811 =
         0.08653    0.01597    0.03132    0.04535
AFIX  43
H16   2   -0.754961    0.065277   -1.050057    11.00000   -1.20000
AFIX   0
C17   1   -0.818825   -0.209434   -0.999705    11.00000    0.11716    0.19465 =
         0.09711   -0.00648   -0.01399    0.05190
AFIX  43
H17   2   -0.912721   -0.219485   -1.042518    11.00000   -1.20000
AFIX   0
C18   1   -0.775000   -0.369741   -0.931970    11.00000    0.08684    0.11447 =
         0.10831   -0.01913    0.01261   -0.01198
AFIX  43
H18   2   -0.838076   -0.487000   -0.930675    11.00000   -1.20000
AFIX   0
HKLF 4

REM  p20161228a_a.res in P2(1)
REM R1 =  0.0445 for    2647 Fo > 4sig(Fo)  and  0.0449 for all    2735 data
REM    182 parameters refined using      1 restraints

END

WGHT      0.0826      0.0248

REM Instructions for potential hydrogen bonds
EQIV $1 -x-1, y-1/2, -z-1
HTAB C10 N2_$1

REM Highest difference peak  0.144,  deepest hole -0.185,  1-sigma level  0.050
Q1    1  -0.7538 -0.5295 -0.8991  11.00000  0.05    0.14
Q2    1  -0.5200 -0.5238 -0.6619  11.00000  0.05    0.14
Q3    1  -0.9985 -1.1392 -0.4011  11.00000  0.05    0.14
Q4    1  -0.7752 -0.5923 -0.9215  11.00000  0.05    0.14
Q5    1  -0.5845 -0.3636 -0.4385  11.00000  0.05    0.13
Q6    1  -0.7059  0.2003 -1.0175  11.00000  0.05    0.13
Q7    1  -0.4876 -0.3209 -0.6530  11.00000  0.05    0.11
Q8    1  -0.5301 -0.5544 -0.4155  11.00000  0.05    0.11
Q9    1  -0.7660  0.1529 -0.9645  11.00000  0.05    0.11
Q10   1  -0.8806 -0.7900 -0.7006  11.00000  0.05    0.11
Q11   1  -0.6864  0.1787 -1.1149  11.00000  0.05    0.10
Q12   1  -1.0360 -0.9395 -0.3003  11.00000  0.05    0.10
Q13   1  -0.3954 -0.4312 -0.7489  11.00000  0.05    0.10
Q14   1  -0.8765 -0.6161 -0.7860  11.00000  0.05    0.10
Q15   1  -0.4074 -0.2495 -0.8166  11.00000  0.05    0.10
Q16   1  -0.3955 -0.0958 -0.8702  11.00000  0.05    0.09
Q17   1  -0.8193  0.0572 -1.0549  11.00000  0.05    0.09
Q18   1  -0.9415 -0.8180 -0.7514  11.00000  0.05    0.09
Q19   1  -0.4362 -0.5998 -0.6016  11.00000  0.05    0.09
Q20   1  -0.4692 -0.7768 -0.6426  11.00000  0.05    0.09
;
_shelx_res_checksum              72614
_shelx_hkl_file
;
   0  -5  -2  208.19    1.49
   0  -5  -2  212.74    1.62
   0  -5  -3  107.24    1.20
   0  -5  -3  107.81    1.12
   0  -5  -4    4.58    0.43
   0  -5  -4    3.99    0.40
   0  -5  -5   18.08    0.62
   0  -5  -5   23.78    0.73
   0  -4  -1   31.24    0.50
   0  -4  -1   32.72    0.53
   0  -4  -2   36.78    0.54
   0  -4  -3   22.17    0.44
   0  -4  -4  361.28    1.79
   0  -4   4  357.72    1.79
   0  -4   5   64.02    0.88
   0  -4  -5   64.06    0.71
   0  -4   6   64.80    0.96
   0  -4  -6   64.79    0.78
   0  -4   7  173.78    1.62
   0  -4  -7  169.52    1.38
   0  -4  -8  113.33    1.23
   0  -4  -8  117.79    1.27
   0  -4   8  114.90    1.44
   0  -4 -11   12.19    0.42
   0  -4 -11   13.22    0.50
   0  -4 -12   19.24    0.52
   0  -4 -12   18.70    0.45
   0  -4 -13    8.06    0.36
   0  -4 -14    1.04    0.25
   0  -4 -14    0.99    0.22
   0  -3   0    2.11    0.12
   0  -3  -2  606.86    1.63
   0  -3  -2  565.33    1.72
   0  -3  -3 1889.84    2.66
   0  -3  -3 1833.35    3.14
   0  -3  -4  435.55    1.73
   0  -3  -4  431.91    1.52
   0  -3  -4  433.26    1.14
   0  -3   5  492.13    2.07
   0  -3  -5  521.40    1.76
   0  -3  -6  164.40    1.20
   0  -3   6  165.79    1.31
   0  -3  -7   50.01    0.70
   0  -3   7   47.59    0.79
   0  -3  -8   18.58    0.50
   0  -3   8   18.20    0.59
   0  -3  -9   38.60    0.69
   0  -3  -9   41.75    0.73
   0  -3  -9   42.77    0.77
   0  -3   9   47.85    0.98
   0  -3  -9   45.05    0.85
   0  -3 -10   97.51    1.19
   0  -3 -10   96.06    1.07
   0  -3 -11    1.06    0.36
   0  -3 -11    1.27    0.36
   0  -3 -12    7.67    0.48
   0  -3 -12    7.49    0.42
   0  -3 -12    7.64    0.45
   0  -3 -13   10.67    0.46
   0  -3 -13   10.66    0.48
   0  -3 -13   10.66    0.43
   0  -3 -14    6.37    0.37
   0  -3 -14    6.12    0.33
   0  -3 -14    6.02    0.35
   0  -3 -15    2.27    0.22
   0  -3 -15    2.58    0.26
   0  -3 -15    2.64    0.27
   0  -3 -15    2.27    0.21
   0  -2  -1  169.18    0.50
   0  -2  -1  161.93    0.48
   0  -2  -2  351.48    1.14
   0  -2  -2  354.76    0.60
   0  -2  -3  780.70    1.73
   0  -2  -3  803.17    1.43
   0  -2  -4  205.17    0.93
   0  -2  -4  199.85    1.03
   0  -2  -5 1812.49    2.99
   0  -2   5 1765.02    3.73
   0  -2  -6  144.69    0.76
   0  -2  -6  144.13    0.95
   0  -2   7    2.77    0.30
   0  -2   7    3.11    0.27
   0  -2   8  984.08    3.45
   0  -2   8  985.68    3.09
   0  -2  -9   43.22    0.74
   0  -2   9   43.94    0.76
   0  -2  -9   43.89    0.83
   0  -2  -9   41.33    0.63
   0  -2  -9   41.27    0.70
   0  -2 -10   40.08    0.87
   0  -2 -10   37.43    0.71
   0  -2 -10   39.55    0.79
   0  -2 -10   36.87    0.74
   0  -2 -11   29.78    0.74
   0  -2 -11   28.27    0.75
   0  -2 -11   30.28    0.73
   0  -2 -11   29.17    0.81
   0  -2 -12   85.90    1.11
   0  -2 -12   83.54    1.10
   0  -2 -12   82.50    1.16
   0  -2 -12   86.07    1.19
   0  -2 -13   97.41    1.13
   0  -2 -13   97.30    1.11
   0  -2 -13  100.26    1.23
   0  -2 -14   16.93    0.55
   0  -2 -14   16.83    0.58
   0  -2 -14   15.54    0.50
   0  -2 -14   15.94    0.53
   0  -2 -15    2.04    0.31
   0  -2 -15    2.32    0.31
   0  -2 -15    1.91    0.27
   0  -2 -15    1.83    0.30
   0  -2 -16    0.32    0.19
   0  -2 -16    0.38    0.18
   0  -2 -16    0.42    0.21
   0  -1   0    1.94    0.09
   0  -1   0    1.88    0.07
   0  -1   1 2249.44    1.91
   0  -1  -1 2340.71    1.51
   0  -1   1 2261.06    1.96
   0  -1  -1 2230.54    1.52
   0  -1  -1 2373.77    2.09
   0  -1   1 2338.01    2.10
   0  -1  -1 2259.40    1.93
   0  -1   2 2837.58    1.99
   0  -1  -2 2767.17    2.61
   0  -1  -3 1018.45    1.67
   0  -1  -3 1023.35    1.39
   0  -1  -4  306.24    1.11
   0  -1  -4  310.03    0.90
   0  -1  -5  923.60    2.07
   0  -1   5  931.57    1.43
   0  -1  -6  284.39    1.22
   0  -1  -6  300.30    1.29
   0  -1  -6  292.80    1.21
   0  -1   6  274.93    0.82
   0  -1   7  696.50    2.41
   0  -1  -7  695.49    1.90
   0  -1   8  213.04    1.49
   0  -1  -8  187.52    1.18
   0  -1  -8  183.67    1.23
   0  -1   8  209.60    1.54
   0  -1  -8  179.82    0.99
   0  -1  -9    1.38    0.35
   0  -1  -9    1.55    0.34
   0  -1  -9    1.38    0.23
   0  -1   9    4.05    0.38
   0  -1  -9    1.61    0.28
   0  -1  -9    2.11    0.33
   0  -1   9    4.23    0.35
   0  -1 -10  105.15    1.07
   0  -1 -10  107.55    1.20
   0  -1  10  105.51    1.22
   0  -1 -10  105.19    1.16
   0  -1 -10  104.49    1.27
   0  -1  11   62.27    1.04
   0  -1 -11   54.94    0.95
   0  -1 -11   54.30    0.88
   0  -1 -11   57.86    0.96
   0  -1 -11   58.46    1.02
   0  -1  11   63.25    1.12
   0  -1 -11   54.05    1.04
   0  -1 -11   54.65    0.96
   0  -1 -12   15.10    0.66
   0  -1 -12   16.40    0.69
   0  -1 -12   15.50    0.64
   0  -1 -12   15.81    0.70
   0  -1 -13    2.34    0.47
   0  -1 -13    2.35    0.48
   0  -1 -13    2.53    0.49
   0  -1 -13    2.16    0.48
   0  -1 -14   13.82    0.58
   0  -1 -14   12.79    0.53
   0  -1 -14   13.07    0.55
   0  -1 -14   12.41    0.56
   0  -1 -15    6.47    0.42
   0  -1 -15    6.55    0.44
   0  -1 -15    6.75    0.41
   0  -1 -15    6.88    0.38
   0  -1 -16    1.56    0.27
   0  -1 -16    1.78    0.27
   0  -1 -16    1.73    0.27
   0   0  -1 1706.83    1.14
   0   0   1 1714.37    1.24
   0   0   2 1731.54    1.73
   0   0  -2 1787.56    1.76
   0   0   2 1717.53    1.59
   0   0  -2 1627.45    1.61
   0   0  -2 1600.49    1.46
   0   0   2 1693.10    1.66
   0   0  -2 1694.17    1.46
   0   0  -3 2043.12    1.89
   0   0  -3 1889.52    2.13
   0   0   3 2039.50    2.13
   0   0   3 2110.61    2.70
   0   0  -3 1849.55    2.16
   0   0  -4  423.24    0.96
   0   0  -4  425.95    1.14
   0   0  -5   19.19    0.30
   0   0   5   19.22    0.36
   0   0  -5   19.38    0.24
   0   0  -6  202.47    0.79
   0   0   6  197.40    0.90
   0   0  -6  201.33    0.99
   0   0   6  205.86    1.23
   0   0   6  201.31    1.20
   0   0  -7    0.87    0.14
   0   0   7    0.38    0.22
   0   0  -7    0.48    0.19
   0   0   7    0.41    0.15
   0   0   8  262.92    1.22
   0   0   8  272.38    1.70
   0   0  -8  267.17    1.39
   0   0  -8  254.34    1.49
   0   0   8  253.85    1.69
   0   0  -9    4.80    0.36
   0   0  -9    4.34    0.30
   0   0  -9    4.56    0.38
   0   0  -9    4.88    0.34
   0   0  -9    4.93    0.38
   0   0  -9    4.58    0.38
   0   0   9    4.58    0.34
   0   0 -10   28.47    0.68
   0   0 -10   29.33    0.69
   0   0 -10   27.38    0.60
   0   0 -10   28.43    0.70
   0   0  10   28.92    0.72
   0   0  10   30.18    0.74
   0   0 -10   27.95    0.71
   0   0 -10   28.87    0.75
   0   0 -10   29.28    0.72
   0   0  11   41.39    0.89
   0   0 -11   44.08    0.87
   0   0  11   40.23    0.84
   0   0 -11   43.33    0.90
   0   0 -11   42.08    0.79
   0   0 -11   44.61    0.93
   0   0 -11   42.86    0.87
   0   0 -11   43.43    0.89
   0   0 -12    5.80    0.50
   0   0 -12    6.58    0.57
   0   0 -12    5.76    0.55
   0   0 -12    5.83    0.52
   0   0 -12    5.32    0.54
   0   0 -12    5.83    0.51
   0   0 -13   29.43    0.81
   0   0 -13   28.81    0.83
   0   0 -13   29.56    0.83
   0   0 -13   28.13    0.75
   0   0 -13   30.41    0.79
   0   0 -14    7.45    0.43
   0   0 -14    8.00    0.55
   0   0 -14    8.21    0.53
   0   0 -14    8.31    0.51
   0   0 -14    8.31    0.53
   0   0 -15   17.32    0.59
   0   0 -15   18.80    0.60
   0   0 -15   18.91    0.56
   0   0 -15   19.14    0.60
   0   0 -16    7.98    0.38
   0   0 -16    8.86    0.39
   0   0 -16    8.41    0.40
   0   0 -16    8.72    0.36
   0   0 -16    8.69    0.40
   0   0 -17    3.62    0.23
   0   0 -17    3.87    0.22
   0   1   0    2.73    0.10
   0   1   0    1.88    0.08
   0   1   1 2295.40    2.13
   0   1   1 2151.95    2.33
   0   1  -2 2770.10    2.64
   0   1   2 2719.33    2.15
   0   1   2 2866.00    2.86
   0   1   2 2873.98    2.39
   0   1   3 1009.24    1.52
   0   1   3 1013.03    1.97
   0   1   3 1009.38    1.91
   0   1   4  310.82    1.05
   0   1  -4  293.94    1.03
   0   1  -4  287.49    1.13
   0   1   4  283.67    1.17
   0   1  -4  299.53    0.70
   0   1   4  299.45    1.15
   0   1  -5  911.65    2.24
   0   1  -5  959.38    1.40
   0   1   5  902.06    2.21
   0   1  -5  947.65    2.11
   0   1   5  889.63    2.06
   0   1   6  294.20    1.53
   0   1   6  308.85    1.40
   0   1  -6  250.68    1.16
   0   1  -6  250.51    0.76
   0   1  -6  248.83    1.30
   0   1   6  294.17    1.37
   0   1  -7  711.80    2.44
   0   1   7  746.10    2.41
   0   1  -7  752.04    2.25
   0   1   7  725.10    2.28
   0   1   8  196.26    1.26
   0   1   8  190.03    1.30
   0   1  -9    4.29    0.34
   0   1  -9    4.24    0.39
   0   1   9    1.44    0.32
   0   1   9    1.44    0.28
   0   1  -9    4.02    0.41
   0   1  -9    4.20    0.42
   0   1  -9    3.79    0.41
   0   1   9    1.44    0.27
   0   1  -9    4.25    0.39
   0   1  -9    4.27    0.41
   0   1  -9    4.27    0.43
   0   1 -10   98.55    1.23
   0   1  10   99.35    1.14
   0   1 -10  103.31    1.30
   0   1 -10   98.48    1.13
   0   1 -10  100.84    1.23
   0   1 -10  101.61    1.27
   0   1 -10  106.07    1.23
   0   1 -10   98.99    1.24
   0   1  10  105.20    1.22
   0   1 -11   61.14    1.09
   0   1 -11   58.97    1.06
   0   1 -11   63.19    1.05
   0   1  11   57.02    0.99
   0   1 -11   63.90    1.11
   0   1 -11   64.63    1.07
   0   1 -11   57.70    1.05
   0   1 -12   11.44    0.68
   0   1 -12   11.68    0.63
   0   1 -12   10.60    0.68
   0   1 -12   11.36    0.66
   0   1 -12   10.71    0.60
   0   1 -13    3.66    0.53
   0   1 -13    2.93    0.46
   0   1  13    2.33    0.44
   0   1 -13    3.22    0.49
   0   1 -13    3.07    0.53
   0   1 -14   11.44    0.52
   0   1 -14   11.68    0.49
   0   1 -14   12.55    0.57
   0   1 -15    7.99    0.41
   0   1 -15    7.64    0.40
   0   1 -15    8.10    0.43
   0   1 -16    1.55    0.27
   0   2   0 2901.01    3.42
   0   2   0 3020.35    3.05
   0   2   1  179.15    0.87
   0   2   1  175.83    0.79
   0   2   2  340.66    1.16
   0   2   2  354.15    1.36
   0   2   3  757.61    1.93
   0   2   3  749.40    1.33
   0   2   4  209.00    1.18
   0   2   4  203.10    1.12
   0   2   5 1815.64    3.72
   0   2   5 1813.06    3.71
   0   2   5 1816.91    2.70
   0   2   6  144.19    1.13
   0   2   6  142.37    0.84
   0   2   7    3.12    0.31
   0   2   7    3.78    0.31
   0   2  -8  984.34    3.46
   0   2   8 1035.26    3.65
   0   2  -8  993.74    3.52
   0   2  -8  947.99    3.05
   0   2   8  989.89    2.95
   0   2  -8  983.61    3.58
   0   2  -8  971.66    3.49
   0   2   8  996.02    3.42
   0   2  -9   44.26    0.90
   0   2  -9   42.28    0.79
   0   2  -9   43.72    0.90
   0   2   9   45.87    0.82
   0   2   9   45.15    0.81
   0   2   9   44.84    0.87
   0   2  -9   43.52    0.84
   0   2  -9   43.61    0.92
   0   2   9   43.40    0.86
   0   2  10   43.94    0.87
   0   2  10   39.34    0.94
   0   2 -10   40.35    0.93
   0   2  10   40.72    0.90
   0   2 -10   36.66    0.89
   0   2  10   42.03    0.83
   0   2 -10   37.53    0.78
   0   2 -10   37.05    0.88
   0   2 -10   40.36    0.90
   0   2 -11   27.68    0.69
   0   2  11   31.20    0.84
   0   2 -11   31.66    0.88
   0   2 -11   27.29    0.83
   0   2 -11   29.31    0.86
   0   2 -11   31.58    0.84
   0   2 -12   87.89    1.33
   0   2 -12   85.21    1.32
   0   2  12   90.04    1.28
   0   2 -12   90.07    1.23
   0   2 -12   88.23    1.29
   0   2 -12   86.96    1.31
   0   2 -13  103.16    1.35
   0   2 -13   98.86    1.18
   0   2 -13  101.14    1.35
   0   2  13  101.60    1.25
   0   2 -13  102.53    1.28
   0   2 -14   15.27    0.62
   0   2 -14   14.67    0.54
   0   2 -14   15.16    0.52
   0   2 -14   15.56    0.63
   0   2 -15    2.05    0.29
   0   2 -15    2.10    0.36
   0   2 -15    2.25    0.35
   0   2 -16    0.56    0.24
   0   2 -16    0.48    0.24
   0   3   0    0.68    0.13
   0   3   0    0.26    0.17
   0   3   1  227.34    1.27
   0   3   1  213.58    1.01
   0   3   2  560.45    1.74
   0   3   2  602.15    2.17
   0   3   3 1806.35    3.43
   0   3   3 1812.52    3.92
   0   3   4  425.89    1.78
   0   3   4  421.79    2.00
   0   3   5  470.28    1.95
   0   3   6  180.73    1.42
   0   3   6  184.18    1.49
   0   3  -7   49.44    0.91
   0   3   7   44.92    0.84
   0   3   7   43.73    0.73
   0   3   7   45.97    0.86
   0   3   7   48.04    0.84
   0   3  -7   52.28    0.93
   0   3  -7   49.64    0.85
   0   3  -7   53.82    0.93
   0   3  -7   52.75    0.94
   0   3   7   45.23    0.69
   0   3   7   49.09    0.85
   0   3  -8   18.85    0.68
   0   3  -8   18.79    0.69
   0   3   8   17.85    0.64
   0   3   8   18.80    0.66
   0   3   8   17.46    0.62
   0   3  -8   19.53    0.69
   0   3   8   20.26    0.66
   0   3  -8   19.65    0.67
   0   3   8   15.20    0.55
   0   3  -8   20.00    0.70
   0   3   8   17.58    0.57
   0   3   9   48.85    0.99
   0   3  -9   46.82    1.02
   0   3  -9   48.04    1.03
   0   3   9   47.49    0.96
   0   3  -9   47.63    1.00
   0   3   9   42.84    0.95
   0   3   9   44.88    0.81
   0   3  -9   51.66    0.97
   0   3  -9   51.43    1.06
   0   3 -10   98.25    1.37
   0   3 -10  102.99    1.43
   0   3 -10  101.94    1.29
   0   3  10  103.00    1.10
   0   3  10  109.28    1.45
   0   3 -10  101.54    1.45
   0   3  10  111.37    1.35
   0   3 -10  105.54    1.41
   0   3 -11    1.36    0.43
   0   3  11    1.45    0.43
   0   3 -11    1.45    0.48
   0   3 -11    1.36    0.46
   0   3 -11    1.47    0.45
   0   3 -11    1.46    0.47
   0   3  11    1.46    0.44
   0   3 -12    7.65    0.56
   0   3  12    8.61    0.48
   0   3 -12    6.85    0.46
   0   3 -12    7.68    0.56
   0   3 -12    8.27    0.53
   0   3  12    8.39    0.54
   0   3 -13    9.25    0.44
   0   3 -13    9.93    0.52
   0   3 -13    9.77    0.56
   0   3 -13   10.09    0.51
   0   3 -14    6.97    0.42
   0   3 -14    6.57    0.44
   0   3 -14    6.31    0.42
   0   3 -15    2.12    0.28
   0   3 -15    2.30    0.27
   0   4   2   34.86    0.65
   0   4   3   21.33    0.57
   0   4   3   22.20    0.58
   0   4   4  356.74    1.69
   0   4   4  360.72    2.15
   0   4   4  354.16    2.06
   0   4   4  357.54    1.93
   0   4  -5   59.23    1.02
   0   4   5   61.05    0.78
   0   4   5   60.35    0.95
   0   4   5   58.83    0.95
   0   4  -5   61.15    1.01
   0   4  -5   62.65    0.98
   0   4   6   62.80    0.96
   0   4  -6   63.92    1.02
   0   4   6   64.23    1.06
   0   4  -6   62.52    1.09
   0   4   6   62.09    0.83
   0   4  -6   60.89    1.09
   0   4   7  178.11    1.41
   0   4   7  176.09    1.74
   0   4   7  187.46    1.58
   0   4  -7  177.29    1.86
   0   4   7  180.48    1.74
   0   4  -7  174.46    1.78
   0   4   7  188.93    1.86
   0   4   8  110.88    1.19
   0   4  -8  105.37    1.45
   0   4   8  122.92    1.32
   0   4   8  116.18    1.46
   0   4  -8  115.11    1.55
   0   4   8  129.96    1.64
   0   4   8  123.92    1.48
   0   4  -9   15.94    0.74
   0   4   9   15.57    0.68
   0   4  -9   17.08    0.74
   0   4   9   16.36    0.62
   0   4   9   16.21    0.73
   0   4  -9   16.71    0.72
   0   4  10   57.29    1.09
   0   4  10   58.45    0.89
   0   4 -10   59.70    1.05
   0   4 -10   59.18    1.12
   0   4  10   61.10    1.05
   0   4 -11   13.54    0.61
   0   4 -11   13.44    0.58
   0   4  11   15.04    0.51
   0   4  11   16.00    0.62
   0   4 -11   12.56    0.54
   0   4 -12   18.50    0.66
   0   4 -12   18.56    0.62
   0   4 -12   19.22    0.58
   0   4 -12   19.62    0.58
   0   4 -13    7.56    0.46
   0   4 -13    7.54    0.40
   0   4 -13    7.41    0.43
   0   4 -14    0.44    0.24
   0   5   1   13.12    0.56
   0   5   1   13.40    0.56
   0   5   2  221.51    1.71
   0   5   2  224.35    1.65
   0   5   3  119.48    1.14
   0   5   3  118.82    1.41
   0   5  -3  117.05    1.36
   0   5   3  111.74    1.23
   0   5   3  111.43    1.31
   0   5   4    4.34    0.51
   0   5   4    4.48    0.55
   0   5   4    4.26    0.53
   0   5   4    4.52    0.43
   0   5   5   19.68    0.71
   0   5  -5   17.30    0.75
   0   5  -5   18.64    0.72
   0   5   5   20.87    0.79
   0   5   5   19.95    0.68
   0   5   5   21.76    0.62
   0   5   6  120.88    1.17
   0   5   6  119.14    1.52
   0   5  -6  117.37    1.45
   0   5   6  114.40    1.40
   0   5  -6  115.32    1.50
   0   5  -7   38.24    0.91
   0   5  -7   37.96    0.92
   0   5   7   41.93    0.99
   0   5   7   40.74    0.77
   0   5  -7   39.43    0.97
   0   5   8    5.46    0.52
   0   5  -8    6.31    0.57
   0   5  -8    5.56    0.57
   0   5   8    5.74    0.57
   0   5  -8    5.91    0.51
   0   5   9   12.49    0.64
   0   5   9   12.46    0.60
   0   5  -9   10.88    0.54
   0   5   9   13.60    0.57
   0   5  -9   10.97    0.62
   0   5  10   27.02    0.61
   0   5  10   27.19    0.76
   0   5  10   27.63    0.70
   0   5 -10   21.33    0.62
   0   5 -10   22.65    0.73
   0   5 -11    1.36    0.39
   0   5  11    2.26    0.40
   0   5  11    1.90    0.34
   0   5  11    1.93    0.42
   0   5 -11    0.97    0.33
   0   5 -12    8.56    0.41
   0   5  12   11.58    0.41
   0   5  12    8.88    0.35
   0   5  12   10.75    0.48
   0   5 -13    6.30    0.29
   0   5  13    8.75    0.36
   0   6   1  223.98    1.54
   0   6   2   46.96    0.86
   0   6   2   46.57    0.82
   0   6   3   82.84    1.13
   0   6   3   82.64    1.06
   0   6   4   85.38    1.16
   0   6   4   83.42    1.15
   0   6   4   83.19    1.07
   0   6   5   71.95    1.09
   0   6   5   70.79    1.01
   0   6   5   70.98    1.07
   0   6   5   72.07    0.86
   0   6   6   13.98    0.59
   0   6   6   14.25    0.59
   0   6   6   14.11    0.61
   0   6   6   13.37    0.46
   0   6  -6   12.73    0.61
   0   6   7    9.70    0.54
   0   6   7    9.72    0.51
   0   6   7    9.47    0.53
   0   6   8    4.17    0.43
   0   6   8    3.83    0.45
   0   6  -8    2.91    0.43
   0   6  -9    3.25    0.39
   0   6   9    4.20    0.41
   0   6   9    4.11    0.39
   0   6  10    5.20    0.34
   0   6  10    5.13    0.37
   0   6  10    5.30    0.37
   0   6  11    0.46    0.24
   0   6  11    0.74    0.25
   0   6  11    0.46    0.24
   0   7   2   16.31    0.45
   0   7   3    5.64    0.38
   0   7   3    5.75    0.40
   0   7   4   19.72    0.53
   0   7   4   18.92    0.50
   0   7   5    8.10    0.42
   0   7   5    7.87    0.40
   0   7   6    1.50    0.33
   0   7   6    1.84    0.32
   0   7  -7    0.89    0.24
   0   7   7    1.51    0.28
   0   7   8    0.15    0.23
   0   7   8    0.20    0.24
   0   7  -8   -0.11    0.20
   1  -5 -13    5.43    0.26
   1  -5  -5   83.23    1.10
   1  -5  -4  217.67    1.63
   1  -5  -3   61.41    0.91
  -1  -5   2  307.30    2.03
   1  -5  -2  344.85    1.98
   1  -5  -1   29.37    0.64
  -1  -5   1   20.86    0.57
  -1  -5   0   48.83    0.79
  -1  -5  -1   23.12    0.57
  -1  -5  -2  120.40    1.13
  -1  -5  -3  151.32    1.24
  -1  -5  -4   61.15    0.94
  -1  -5 -11   15.44    0.42
  -1  -5 -12   20.13    0.37
   1  -4 -15    0.11    0.15
   1  -4 -15    0.04    0.14
   1  -4 -14    6.43    0.27
   1  -4 -13    4.18    0.32
   1  -4 -13    4.40    0.32
   1  -4 -12    8.96    0.41
   1  -4 -11    9.36    0.44
   1  -4 -10   24.72    0.63
   1  -4  -9   63.96    0.94
   1  -4  -8  145.73    1.35
   1  -4  -8  131.67    1.30
   1  -4  -7  129.52    1.21
   1  -4  -6   72.61    0.88
   1  -4  -5    2.48    0.32
   1  -4  -5    2.55    0.33
   1  -4  -4   22.98    0.50
   1  -4  -4   22.85    0.52
  -1  -4   3  323.36    1.87
   1  -4  -3  355.83    1.77
   1  -4  -2  177.33    1.22
   1  -4  -2  177.56    1.13
   1  -4  -1  296.47    1.50
   1  -4   0   94.96    0.83
  -1  -4   0   98.58    0.94
   1  -4   1   24.69    0.44
  -1  -4  -1   21.92    0.48
  -1  -4  -2  235.26    1.44
  -1  -4  -2  246.69    1.36
  -1  -4  -3  126.38    1.05
  -1  -4  -4  152.53    1.15
  -1  -4  -5    4.94    0.36
  -1  -4  -5    5.44    0.33
  -1  -4  -6   87.22    1.12
   1  -4   6   87.39    1.18
  -1  -4  -7  119.82    1.20
   1  -4   7  121.94    1.45
  -1  -4 -11    3.78    0.34
  -1  -4 -12    4.94    0.37
  -1  -4 -12    4.75    0.32
  -1  -4 -13    2.61    0.25
  -1  -4 -13    2.66    0.29
  -1  -4 -14    3.97    0.26
  -1  -4 -14    3.83    0.24
   1  -3 -15    0.78    0.24
   1  -3 -15    0.92    0.26
   1  -3 -15    0.83    0.21
   1  -3 -15    0.99    0.25
   1  -3 -14    4.63    0.36
   1  -3 -14    4.51    0.33
   1  -3 -14    3.92    0.38
   1  -3 -13    0.72    0.33
   1  -3 -13    0.87    0.31
   1  -3 -13    0.74    0.29
   1  -3 -12    8.99    0.48
   1  -3 -12    8.65    0.42
   1  -3 -12    8.51    0.47
   1  -3 -11   10.75    0.51
   1  -3 -11   10.00    0.51
   1  -3 -11    9.59    0.45
   1  -3 -10  186.79    1.64
   1  -3 -10  194.91    1.69
   1  -3 -10  189.40    1.50
   1  -3 -10  194.02    1.65
  -1  -3  10  190.45    1.87
   1  -3  -9   71.95    0.96
  -1  -3   9   76.18    1.19
   1  -3  -8   11.89    0.47
  -1  -3   8   12.62    0.51
  -1  -3   7   18.69    0.54
   1  -3  -7   18.99    0.48
   1  -3  -7   18.61    0.42
   1  -3  -7   18.61    0.47
   1  -3  -6  190.08    1.21
  -1  -3   6  196.21    1.42
  -1  -3   5  720.09    2.48
   1  -3  -5  669.96    1.85
   1  -3  -4  489.93    1.43
   1  -3  -4  492.09    1.77
   1  -3  -3  263.92    1.26
  -1  -3   3  261.82    1.21
   1  -3  -3  261.72    0.99
   1  -3  -2  329.09    0.99
   1  -3  -2  334.27    1.11
  -1  -3   1  169.46    0.74
  -1  -3   1  160.74    0.94
  -1  -3   0  333.33    1.22
  -1  -3  -1 1683.04    3.21
  -1  -3  -1 1639.83    2.44
   1  -3   2  508.43    1.34
  -1  -3  -2  504.98    1.85
  -1  -3  -2  509.10    1.39
  -1  -3  -3  581.09    1.74
  -1  -3  -3  585.09    1.97
  -1  -3  -4  140.56    0.85
  -1  -3  -4  137.72    0.97
  -1  -3  -5  425.00    1.74
  -1  -3  -5  354.06    1.25
  -1  -3  -6  380.43    1.73
   1  -3   7  111.15    1.23
  -1  -3  -7   99.50    1.01
  -1  -3  -7   90.39    0.99
  -1  -3  -7  118.67    1.22
  -1  -3  -8  121.45    1.17
  -1  -3  -8  129.65    1.19
  -1  -3  -9   68.66    0.97
  -1  -3  -9   67.86    0.93
  -1  -3  -9   71.08    0.97
   1  -3   9   59.27    1.13
  -1  -3  -9   61.44    0.87
  -1  -3 -10    8.71    0.47
  -1  -3 -10    8.66    0.53
  -1  -3 -11    3.72    0.37
  -1  -3 -11    3.92    0.42
  -1  -3 -12    5.86    0.41
  -1  -3 -12    5.64    0.37
  -1  -3 -12    5.44    0.41
  -1  -3 -13    2.01    0.32
  -1  -3 -13    2.12    0.33
  -1  -3 -13    2.40    0.36
  -1  -3 -14    1.86    0.29
  -1  -3 -14    1.76    0.28
  -1  -3 -14    1.98    0.31
  -1  -3 -15    2.66    0.25
  -1  -3 -15    2.38    0.21
  -1  -3 -15    2.71    0.23
  -1  -3 -15    2.53    0.21
   1  -2 -16    2.59    0.26
   1  -2 -16    2.62    0.25
   1  -2 -16    2.47    0.27
   1  -2 -16    2.71    0.27
   1  -2 -15    0.29    0.30
   1  -2 -15    0.51    0.31
   1  -2 -15    0.32    0.26
   1  -2 -15    0.29    0.29
   1  -2 -14    7.96    0.45
   1  -2 -14    7.29    0.46
   1  -2 -14    7.32    0.41
   1  -2 -14    6.72    0.38
   1  -2 -14    6.78    0.47
   1  -2 -13    2.59    0.43
   1  -2 -13    2.97    0.38
   1  -2 -13    2.59    0.39
   1  -2 -13    2.97    0.45
   1  -2 -12   29.09    0.78
   1  -2 -12   28.28    0.70
   1  -2 -12   29.48    0.73
   1  -2 -12   28.82    0.79
   1  -2 -11   60.35    1.07
   1  -2 -11   59.11    0.95
   1  -2 -11   57.75    0.92
   1  -2 -11   59.15    1.03
   1  -2 -11   60.10    0.99
  -1  -2  10  134.25    1.54
   1  -2 -10  113.39    1.06
   1  -2 -10  121.40    1.22
   1  -2 -10  109.84    1.20
   1  -2 -10  127.98    1.38
   1  -2 -10  115.80    1.38
   1  -2 -10  113.25    1.19
   1  -2  -9  306.38    1.67
   1  -2  -9  291.71    1.95
   1  -2  -9  314.98    1.78
   1  -2  -9  298.75    1.73
   1  -2  -8  409.02    1.77
  -1  -2   8  409.18    2.21
   1  -2  -7  152.72    1.06
   1  -2  -7  152.42    1.07
   1  -2  -6  188.03    1.12
   1  -2  -6  185.03    1.07
  -1  -2   6  195.91    1.29
   1  -2  -6  208.18    1.06
  -1  -2   6  175.16    0.97
  -1  -2   5  187.68    0.90
   1  -2  -5  191.94    1.03
  -1  -2   4 1248.80    2.00
  -1  -2   4 1242.29    2.77
   1  -2  -3   79.66    0.65
  -1  -2   3   85.55    0.66
   1  -2  -3   97.97    0.70
  -1  -2   3   69.11    0.39
   1  -2  -3   91.55    0.51
  -1  -2   3   86.36    0.39
   1  -2  -3   58.29    0.19
   1  -2  -2  295.62    1.14
   1  -2  -2  313.73    0.87
  -1  -2   2  319.39    1.07
   1  -2  -2  299.86    1.04
   1  -2  -2  278.67    0.73
   1  -2  -2  272.54    0.66
  -1  -2   1   28.15    0.28
  -1  -2   1   31.00    0.38
   1  -2   0 1614.73    1.70
  -1  -2   0 1588.14    1.50
  -1  -2  -1  766.41    1.57
  -1  -2  -1  771.40    1.78
  -1  -2  -2  114.75    0.76
  -1  -2  -2  115.27    0.61
  -1  -2  -2  116.02    0.69
  -1  -2  -3   61.63    0.45
  -1  -2  -3   62.48    0.57
  -1  -2  -4 1482.05    2.74
  -1  -2  -4 1493.33    2.40
  -1  -2  -5  199.05    1.16
  -1  -2  -5  203.82    0.95
  -1  -2  -6   68.61    0.74
  -1  -2  -6   69.47    0.63
  -1  -2  -7   46.28    0.66
  -1  -2  -7   43.60    0.57
   1  -2   7   47.47    0.77
  -1  -2  -7   44.89    0.62
  -1  -2  -7   46.88    0.67
  -1  -2  -8    4.07    0.35
  -1  -2  -8    3.33    0.30
  -1  -2  -8    4.14    0.31
  -1  -2  -8    4.66    0.36
  -1  -2  -9  182.30    1.45
  -1  -2  -9  178.95    1.54
  -1  -2  -9  171.83    1.23
   1  -2   9  186.20    1.56
  -1  -2  -9  182.98    1.37
  -1  -2  -9  166.36    1.34
  -1  -2 -10  145.69    1.30
  -1  -2 -10  144.58    1.38
  -1  -2 -10  143.30    1.47
   1  -2  10  146.50    1.54
  -1  -2 -11  104.30    1.22
  -1  -2 -11  108.04    1.34
  -1  -2 -11  106.18    1.24
  -1  -2 -12   16.12    0.58
  -1  -2 -12   16.48    0.64
  -1  -2 -12   14.99    0.60
  -1  -2 -13   12.43    0.55
  -1  -2 -13   12.20    0.57
  -1  -2 -13   13.30    0.58
  -1  -2 -13   12.32    0.55
  -1  -2 -14   13.17    0.48
  -1  -2 -14   13.16    0.49
  -1  -2 -14   13.41    0.51
  -1  -2 -14   12.67    0.52
  -1  -2 -14   13.26    0.50
  -1  -2 -15    8.23    0.38
  -1  -2 -15    8.00    0.32
  -1  -2 -15    8.81    0.39
  -1  -2 -15    8.96    0.40
  -1  -2 -15    8.49    0.35
  -1  -2 -16    2.29    0.21
  -1  -2 -16    2.13    0.20
  -1  -2 -16    2.51    0.22
   1  -1 -17    1.67    0.21
   1  -1 -17    1.65    0.21
   1  -1 -16    4.31    0.34
   1  -1 -16    3.81    0.30
   1  -1 -16    4.18    0.33
   1  -1 -16    3.99    0.29
   1  -1 -16    4.07    0.29
   1  -1 -15    0.98    0.33
   1  -1 -15    1.18    0.30
   1  -1 -15    0.94    0.34
   1  -1 -15    0.91    0.32
   1  -1 -15    0.83    0.35
   1  -1 -15    0.96    0.32
   1  -1 -14    5.44    0.46
   1  -1 -14    5.45    0.45
   1  -1 -14    5.12    0.46
   1  -1 -14    5.32    0.44
   1  -1 -14    5.43    0.43
   1  -1 -13  110.30    1.35
   1  -1 -13  105.83    1.31
   1  -1 -13  108.45    1.30
   1  -1 -13  109.62    1.38
   1  -1 -12  318.77    2.21
   1  -1 -12  318.42    2.20
   1  -1 -11   68.15    1.06
   1  -1 -11   74.18    1.12
  -1  -1  11   74.33    1.16
   1  -1 -11   71.27    1.16
   1  -1 -11   75.32    1.11
  -1  -1  11   78.04    1.14
   1  -1 -10  126.70    1.39
   1  -1 -10  130.31    1.33
  -1  -1  10  120.73    1.29
   1  -1 -10  127.48    1.27
   1  -1 -10  114.81    1.19
   1  -1 -10  120.30    1.17
  -1  -1  10  116.91    1.33
   1  -1  -9  281.48    1.67
   1  -1  -9  282.33    1.74
   1  -1  -9  280.79    1.85
   1  -1  -9  285.27    1.41
   1  -1  -9  280.41    1.60
  -1  -1   9  278.67    1.94
  -1  -1   8   24.69    0.52
   1  -1  -8   32.96    0.55
  -1  -1   8   25.05    0.57
   1  -1  -8   34.87    0.57
   1  -1  -8   37.29    0.52
   1  -1  -7  903.94    2.41
  -1  -1   7  876.12    2.62
   1  -1  -7  971.46    2.50
   1  -1  -7 1010.84    2.42
   1  -1  -6  511.62    1.58
   1  -1  -6  503.04    1.57
   1  -1  -5 1388.37    2.32
  -1  -1   5 1456.83    2.69
   1  -1  -5 1460.11    2.55
  -1  -1   5 1403.64    3.00
   1  -1  -4  654.39    1.57
   1  -1  -4  669.38    1.42
  -1  -1   4  677.93    1.58
  -1  -1   4  660.73    1.82
  -1  -1   3 4702.02    4.56
   1  -1  -3 4592.79    3.96
   1  -1  -3 4784.56    4.03
  -1  -1   3 4613.98    3.72
   1  -1  -3 4771.05    4.25
  -1  -1   2 4408.73    3.99
   1  -1  -2 4322.37    2.91
  -1  -1   1 4234.82    3.22
   1  -1  -1 4226.09    3.14
   1  -1  -1 4925.02    3.49
  -1  -1   0 3342.57    3.02
   1  -1   0 3736.74    2.47
  -1  -1   0 3861.50    2.38
  -1  -1  -1 7086.10    4.99
  -1  -1  -1 7023.52    4.59
   1  -1   1 8019.35    3.79
  -1  -1  -1 8108.42    4.48
  -1  -1  -2 2989.93    2.91
  -1  -1  -2 2993.35    2.98
  -1  -1  -3  102.11    0.44
   1  -1   3   95.27    0.40
  -1  -1  -3   95.23    0.55
  -1  -1  -3  101.16    0.54
  -1  -1  -4  512.30    1.48
  -1  -1  -4  502.40    1.31
  -1  -1  -5  625.11    1.67
  -1  -1  -5  611.17    1.72
   1  -1   6  517.31    1.47
  -1  -1  -6  510.50    1.74
   1  -1   7  330.47    1.26
   1  -1   7  329.22    1.84
  -1  -1  -7  305.01    1.37
  -1  -1  -7  311.88    1.48
  -1  -1  -7  299.64    1.25
  -1  -1  -8  157.23    1.14
   1  -1   8  157.69    1.33
  -1  -1  -8  176.66    1.15
  -1  -1  -8  168.99    0.97
   1  -1   9  134.16    1.32
  -1  -1  -9  133.93    1.06
  -1  -1  -9  135.57    1.23
  -1  -1  -9  128.91    1.16
  -1  -1  -9  131.08    1.33
  -1  -1 -10   64.66    0.99
  -1  -1 -10   64.05    0.84
   1  -1  10   69.24    1.08
   1  -1  10   64.38    1.02
  -1  -1 -10   65.81    1.08
  -1  -1 -10   68.32    0.96
  -1  -1 -10   67.39    0.97
  -1  -1 -10   65.00    0.96
   1  -1  11   38.83    0.88
  -1  -1 -11   42.74    0.84
  -1  -1 -11   40.32    0.75
  -1  -1 -11   40.88    0.83
  -1  -1 -11   43.31    0.90
  -1  -1 -11   44.40    0.91
   1  -1  11   38.64    0.91
  -1  -1 -11   43.90    0.97
  -1  -1 -12   79.76    1.16
  -1  -1 -12   81.85    1.19
  -1  -1 -13  127.33    1.38
  -1  -1 -13  126.14    1.37
  -1  -1 -13  124.97    1.27
  -1  -1 -14   59.81    0.82
  -1  -1 -14   58.97    0.92
  -1  -1 -14   60.25    0.91
  -1  -1 -14   56.92    0.91
  -1  -1 -15    2.31    0.35
  -1  -1 -15    1.98    0.35
  -1  -1 -15    1.96    0.34
  -1  -1 -16    0.75    0.24
  -1  -1 -16    0.94    0.24
  -1  -1 -16    0.89    0.23
   1   0 -17    5.29    0.27
   1   0 -17    5.00    0.26
   1   0 -16    2.36    0.32
   1   0 -16    2.44    0.33
   1   0 -16    2.18    0.31
   1   0 -16    2.32    0.34
   1   0 -16    2.37    0.32
   1   0 -15    7.42    0.45
   1   0 -15    7.07    0.47
   1   0 -15    7.03    0.46
   1   0 -15    7.31    0.45
   1   0 -15    6.91    0.39
   1   0 -14   29.28    0.75
   1   0 -14   30.45    0.78
   1   0 -14   28.88    0.77
   1   0 -14   27.86    0.70
   1   0 -14   28.69    0.76
   1   0 -13   49.19    1.01
   1   0 -13   48.62    1.00
   1   0 -13   48.42    0.97
   1   0 -13   47.17    1.02
   1   0 -13   48.79    0.97
   1   0 -12   95.72    1.28
   1   0 -12   98.92    1.32
   1   0 -12  103.05    1.39
   1   0 -12  102.70    1.37
   1   0 -12   97.90    1.35
   1   0 -12  100.76    1.37
   1   0 -11    3.93    0.46
   1   0 -11    3.01    0.47
   1   0 -11    3.94    0.44
   1   0 -11    3.32    0.42
  -1   0  11    3.79    0.42
   1   0 -11    3.68    0.51
  -1   0  11    3.57    0.42
   1   0 -11    3.35    0.44
   1   0 -11    3.68    0.48
  -1   0  10    7.86    0.46
   1   0 -10    7.30    0.49
  -1   0  10    6.79    0.41
   1   0 -10    7.32    0.47
   1   0 -10    7.98    0.49
   1   0 -10    7.60    0.51
   1   0 -10    7.31    0.43
   1   0 -10    7.17    0.47
   1   0  -9   38.98    0.65
  -1   0   9   37.92    0.74
  -1   0   9   39.22    0.71
   1   0  -9   37.55    0.75
   1   0  -9   37.58    0.70
   1   0  -9   35.94    0.68
   1   0  -9   37.31    0.72
   1   0  -9   37.06    0.70
   1   0  -8   26.40    0.51
  -1   0   8   25.93    0.55
  -1   0   8   27.65    0.58
   1   0  -8   27.42    0.40
   1   0  -8   27.56    0.54
  -1   0   7  572.89    1.53
  -1   0   7  564.77    2.17
   1   0  -7  576.07    1.61
   1   0  -7  566.24    1.91
   1   0  -7  572.00    2.03
   1   0  -6  638.89    1.54
   1   0  -6  640.68    1.93
   1   0  -6  610.71    1.80
  -1   0   6  617.45    2.08
  -1   0   6  644.37    2.17
  -1   0   6  631.99    1.45
   1   0  -5    0.98    0.12
  -1   0   5    0.93    0.17
  -1   0   4 3901.18    4.35
   1   0  -4 3882.87    3.89
   1   0  -4 3847.56    3.49
  -1   0   4 3845.21    4.21
   1   0  -3 4991.67    3.93
  -1   0   3 5012.26    4.54
  -1   0   2  473.37    0.87
   1   0  -2  474.09    0.92
   1   0  -2  472.16    0.77
  -1   0   1   15.60    0.17
  -1   0   1   15.74    0.18
  -1   0   1   15.29    0.15
  -1   0   1   15.13    0.15
  -1   0   0 1732.65    1.79
  -1   0   0 1774.24    1.70
  -1   0   0 1773.26    1.56
  -1   0   0 1717.01    1.73
   1   0   0 1743.89    1.67
   1   0   0 1726.28    1.79
  -1   0   0 1745.56    1.51
   1   0   0 1772.57    1.52
  -1   0   0 1744.97    1.49
   1   0   1 1300.90    1.54
   1   0   1 1278.44    1.45
  -1   0  -1 1281.22    1.33
  -1   0  -1 1293.70    1.50
  -1   0  -2 3511.41    2.81
  -1   0  -2 3498.18    2.93
  -1   0  -3    4.46    0.16
  -1   0  -3    4.78    0.17
  -1   0  -3    5.01    0.17
  -1   0  -4  145.39    0.83
  -1   0  -4  143.60    0.75
  -1   0  -4  111.25    0.56
   1   0   4  113.48    0.67
  -1   0  -5  849.91    1.47
  -1   0  -5  849.82    2.12
   1   0   6   84.96    0.80
  -1   0  -6   79.28    0.46
  -1   0  -6   68.57    0.63
   1   0   6   79.56    0.66
  -1   0  -6   80.70    0.60
  -1   0  -6   72.07    0.64
  -1   0  -7  258.79    1.18
   1   0   7  230.73    1.49
   1   0   7  261.33    1.47
  -1   0  -7  240.45    1.28
   1   0   7  266.11    1.30
   1   0   8  279.62    1.66
  -1   0  -8  286.73    1.36
   1   0   8  295.13    1.82
   1   0   8  288.41    1.43
  -1   0  -8  285.84    1.61
  -1   0  -9    0.46    0.36
   1   0   9    0.44    0.31
  -1   0  -9    0.50    0.32
  -1   0  -9    0.85    0.30
  -1   0  -9    0.60    0.33
   1   0   9    0.63    0.29
  -1   0  -9    0.81    0.33
  -1   0  -9    1.71    0.25
  -1   0 -10   20.62    0.52
  -1   0 -10   21.47    0.69
   1   0  10   21.94    0.60
  -1   0 -10   21.27    0.60
   1   0  10   21.08    0.63
  -1   0 -10   21.83    0.67
  -1   0 -10   20.97    0.60
   1   0  10   21.53    0.62
   1   0  11   49.15    1.02
  -1   0 -11   47.85    1.00
  -1   0 -11   43.84    0.87
  -1   0 -11   46.71    0.93
  -1   0 -11   53.52    0.95
  -1   0 -11   47.50    0.94
   1   0  11   50.18    0.88
  -1   0 -11   50.91    0.99
   1   0  11   48.80    0.98
  -1   0 -11   52.03    0.95
  -1   0 -12  152.06    1.59
  -1   0 -12  157.66    1.54
  -1   0 -12  155.90    1.57
  -1   0 -12  155.97    1.47
  -1   0 -13    3.25    0.52
  -1   0 -13    3.09    0.48
  -1   0 -13    3.02    0.45
  -1   0 -13    2.91    0.42
  -1   0 -14   17.42    0.64
  -1   0 -14   17.93    0.65
  -1   0 -14   16.34    0.56
  -1   0 -14   16.22    0.56
  -1   0 -15    8.02    0.47
  -1   0 -15    8.14    0.42
  -1   0 -15    7.79    0.46
  -1   0 -16    1.01    0.22
  -1   0 -16    1.20    0.26
  -1   0 -16    1.18    0.25
  -1   0 -16    1.31    0.27
   1   1 -17    2.10    0.22
   1   1 -17    1.70    0.21
   1   1 -16    3.71    0.29
   1   1 -16    3.85    0.35
   1   1 -16    3.40    0.34
   1   1 -16    3.87    0.32
   1   1 -15    0.95    0.36
   1   1 -15    1.01    0.35
   1   1 -15    0.94    0.33
   1   1 -15    1.00    0.36
   1   1 -15    1.07    0.32
   1   1 -14    4.80    0.45
   1   1 -14    4.07    0.38
   1   1 -14    4.15    0.43
   1   1 -14    4.30    0.44
   1   1 -14    3.88    0.47
   1   1 -13  108.72    1.44
   1   1 -13  109.62    1.40
   1   1 -13  107.09    1.37
   1   1 -12  312.77    2.41
   1   1 -12  314.69    2.31
  -1   1  12  309.27    2.13
   1   1 -12  315.84    2.38
   1   1 -12  309.47    2.29
   1   1 -12  313.34    2.37
   1   1 -11   80.20    1.24
   1   1 -11   84.36    1.25
   1   1 -11   81.50    1.25
  -1   1  11   71.55    1.08
   1   1 -11   72.84    1.08
  -1   1  11   77.87    1.28
   1   1 -11   81.12    1.26
   1   1 -11   80.55    1.21
   1   1 -11   83.42    1.15
  -1   1  10  129.18    1.37
   1   1 -10  128.04    1.34
   1   1 -10  123.46    1.38
   1   1 -10  120.32    1.39
  -1   1  10  122.96    1.30
   1   1 -10  120.36    1.30
  -1   1  10  129.41    1.50
   1   1 -10  119.89    1.39
   1   1 -10  124.03    1.43
   1   1 -10  124.70    1.44
   1   1  -9  283.69    1.83
   1   1  -9  269.53    1.83
  -1   1   9  294.74    2.01
   1   1  -9  269.02    1.88
   1   1  -9  280.51    1.89
   1   1  -9  269.92    1.90
   1   1  -9  268.80    1.83
  -1   1   9  281.24    1.80
  -1   1   9  277.70    1.76
  -1   1   8   35.73    0.68
  -1   1   8   37.21    0.56
  -1   1   7  934.98    2.73
  -1   1   7  938.73    2.43
   1   1  -6  456.89    1.34
   1   1  -6  455.83    1.76
  -1   1   5 1434.83    2.77
  -1   1   5 1445.88    2.66
   1   1  -4  643.05    1.78
  -1   1   4  636.18    1.63
  -1   1   3 4687.41    4.66
  -1   1   3 4478.33    2.41
   1   1  -3 4591.45    3.91
  -1   1   3 4751.76    4.44
  -1   1   3 4709.15    4.16
   1   1  -3 4842.32    4.45
  -1   1   2 4701.71    3.80
   1   1  -2 4373.27    4.13
  -1   1   2 4538.85    4.02
  -1   1   2 5202.44    2.92
  -1   1   2 4882.75    4.08
  -1   1   2 4575.86    2.70
   1   1  -1 3991.81    2.68
  -1   1   1 4349.40    3.58
  -1   1   1 4366.89    3.48
  -1   1   0 3482.28    2.43
  -1   1   0 3452.52    2.91
   1   1   1 4688.38    4.10
   1   1   1 6227.85    2.98
  -1   1  -2 2723.30    2.62
   1   1   2 3085.43    2.61
  -1   1  -3   77.67    0.40
  -1   1  -3   79.31    0.51
   1   1   4  490.59    1.59
  -1   1  -4  516.11    1.49
   1   1   4  517.91    1.38
   1   1   4  508.59    1.65
  -1   1  -4  484.80    1.16
  -1   1  -5  613.19    1.84
   1   1   5  610.01    1.66
  -1   1  -5  609.36    1.51
   1   1   6  501.75    2.07
  -1   1  -6  514.29    1.53
   1   1   6  501.98    1.74
  -1   1  -6  511.36    1.84
   1   1   6  495.25    1.87
   1   1   7  314.84    1.58
   1   1   7  327.98    1.57
  -1   1  -7  329.43    1.35
  -1   1  -7  330.26    1.64
   1   1   7  316.40    1.83
  -1   1  -8  155.01    1.05
   1   1   8  181.21    1.48
  -1   1  -8  160.30    1.28
   1   1   8  180.94    1.30
   1   1   8  177.14    1.26
  -1   1  -9  121.69    1.24
   1   1   9  138.11    1.32
  -1   1  -9  126.37    1.30
  -1   1  -9  134.95    1.40
  -1   1  -9  136.34    1.37
  -1   1  -9  131.10    1.31
   1   1   9  154.81    1.32
  -1   1  -9  135.72    1.34
   1   1   9  141.72    1.27
   1   1   9  134.04    1.41
  -1   1 -10   65.93    1.02
  -1   1 -10   65.33    1.03
  -1   1 -10   72.24    1.10
  -1   1 -10   69.87    1.09
  -1   1 -10   64.45    1.07
  -1   1 -10   67.47    1.09
  -1   1 -10   69.96    1.01
   1   1  10   67.50    1.03
   1   1  10   65.24    1.09
  -1   1 -11   41.11    0.92
  -1   1 -11   41.42    0.95
  -1   1 -11   38.05    0.92
  -1   1 -11   40.78    0.88
  -1   1 -11   41.59    0.94
  -1   1 -11   36.91    0.87
   1   1  11   41.83    0.96
  -1   1 -11   36.65    0.88
   1   1  11   45.25    0.93
  -1   1 -12   81.82    1.25
  -1   1 -12   83.60    1.16
  -1   1 -12   87.53    1.24
   1   1  12   82.54    1.18
  -1   1 -12   86.45    1.24
  -1   1 -12   84.09    1.27
  -1   1 -12   82.35    1.23
  -1   1 -13  143.86    1.49
  -1   1 -13  137.90    1.36
  -1   1 -13  140.80    1.53
  -1   1 -13  134.37    1.40
   1   1  13  133.75    1.36
  -1   1 -13  136.61    1.49
  -1   1 -13  134.72    1.52
  -1   1 -14   56.88    0.92
  -1   1 -14   56.75    0.97
  -1   1 -14   54.33    0.95
  -1   1 -14   53.73    0.89
   1   1  14   58.40    0.85
  -1   1 -14   53.60    0.84
  -1   1 -14   53.30    0.80
  -1   1 -15    2.14    0.36
  -1   1 -15    2.00    0.37
  -1   1 -15    1.99    0.34
  -1   1 -16    1.22    0.22
  -1   1 -16    0.83    0.25
  -1   1 -16    1.23    0.25
   1   2 -16    2.28    0.28
  -1   2  16    2.86    0.25
   1   2 -15    0.16    0.32
   1   2 -15    0.40    0.26
   1   2 -14    7.47    0.51
   1   2 -14    6.93    0.42
   1   2 -14    7.08    0.43
   1   2 -14    6.55    0.41
   1   2 -13    2.64    0.43
   1   2 -13    2.47    0.43
   1   2 -13    2.63    0.51
   1   2 -13    2.36    0.42
   1   2 -12   26.75    0.82
   1   2 -12   27.60    0.86
   1   2 -12   28.05    0.81
   1   2 -12   26.84    0.79
   1   2 -12   25.50    0.65
   1   2 -11   70.15    1.18
   1   2 -11   63.09    1.16
   1   2 -11   71.31    1.19
  -1   2  11   63.16    1.27
   1   2 -11   60.69    1.16
  -1   2  11   62.55    1.11
   1   2 -11   66.48    0.97
   1   2 -11   66.73    1.18
   1   2 -11   67.67    1.16
   1   2 -10  139.70    1.55
   1   2 -10  127.83    1.54
  -1   2  10  123.64    1.45
   1   2 -10  138.07    1.56
   1   2 -10  136.59    1.55
   1   2 -10  129.72    1.50
   1   2 -10  134.20    1.50
   1   2 -10  128.71    1.29
  -1   2  10  123.83    1.56
   1   2  -9  296.01    2.05
   1   2  -9  284.01    1.95
  -1   2   9  311.79    1.90
  -1   2   9  303.79    2.06
  -1   2   9  305.43    2.22
   1   2  -9  294.43    2.07
   1   2  -9  273.32    1.76
   1   2  -9  294.87    2.08
   1   2  -9  291.15    2.14
   1   2  -9  286.13    2.11
  -1   2   8  412.23    2.22
   1   2  -8  401.95    2.31
   1   2  -8  405.58    2.36
  -1   2   8  424.60    2.39
   1   2  -8  406.99    2.23
  -1   2   8  427.50    1.95
   1   2  -8  388.28    2.05
  -1   2   7  161.15    1.12
  -1   2   7  157.92    1.38
  -1   2   6  197.63    1.41
  -1   2   6  200.37    1.12
   1   2  -6  196.75    1.33
  -1   2   5  199.02    1.31
  -1   2   5  192.55    0.98
  -1   2   4 1266.43    2.99
  -1   2   4 1320.57    2.51
  -1   2   3   80.89    0.68
  -1   2   3   84.59    0.57
   1   2  -2  301.33    0.81
  -1   2   2  303.34    1.28
   1   2  -1   27.06    0.30
  -1   2   1   20.08    0.34
   1   2   0 1548.62    1.45
  -1   2   0 1667.28    2.72
   1   2   1  764.85    1.33
   1   2   1  749.72    1.81
   1   2   2  109.99    0.76
   1   2   2  111.99    0.63
   1   2   3   58.87    0.61
   1   2   3   61.15    0.53
   1   2   4  948.95    1.29
   1   2   4 1441.30    2.92
   1   2   5  206.91    1.31
   1   2   5  204.26    1.23
   1   2   6   72.97    0.86
   1   2   6   68.64    0.81
   1   2   7   50.27    0.78
   1   2   7   44.47    0.72
  -1   2  -8   10.33    0.51
   1   2   8    3.91    0.41
   1   2   8    4.39    0.37
   1   2   8    3.54    0.35
  -1   2  -8   10.12    0.53
  -1   2  -8    9.91    0.50
  -1   2  -8   12.79    0.56
   1   2   8    4.60    0.40
  -1   2  -8    9.99    0.52
  -1   2  -8   10.00    0.49
  -1   2  -8   10.13    0.49
  -1   2  -9  173.54    1.49
  -1   2  -9  184.14    1.62
   1   2   9  188.17    1.67
  -1   2  -9  184.72    1.68
  -1   2  -9  188.34    1.72
  -1   2  -9  186.12    1.74
  -1   2  -9  176.03    1.64
   1   2   9  187.75    1.74
  -1   2  -9  183.66    1.69
   1   2   9  190.64    1.63
   1   2  10  157.21    1.51
   1   2  10  156.29    1.63
  -1   2 -10  136.94    1.54
  -1   2 -10  132.17    1.36
   1   2  10  171.27    1.70
  -1   2 -10  134.65    1.58
  -1   2 -10  140.17    1.58
  -1   2 -10  133.57    1.47
  -1   2 -11  116.03    1.37
  -1   2 -11  113.12    1.44
   1   2  11  109.67    1.40
   1   2  11  111.59    1.26
  -1   2 -11  113.21    1.42
  -1   2 -11  111.60    1.44
  -1   2 -12   17.86    0.72
   1   2  12   17.20    0.68
  -1   2 -12   17.56    0.62
  -1   2 -12   16.80    0.69
  -1   2 -12   17.31    0.68
  -1   2 -13   10.18    0.50
  -1   2 -13   10.12    0.59
  -1   2 -13   10.72    0.61
  -1   2 -13   11.21    0.59
  -1   2 -13    9.33    0.61
  -1   2 -14   10.56    0.53
  -1   2 -14   10.52    0.50
  -1   2 -14   10.89    0.52
  -1   2 -15    8.97    0.41
  -1   2 -15    8.54    0.40
  -1   2 -15    8.89    0.38
  -1   2 -16    1.73    0.22
  -1   2 -16    1.72    0.21
   1   3 -16    0.74    0.17
  -1   3  15    0.94    0.29
   1   3 -15    0.91    0.28
   1   3 -15    0.59    0.27
   1   3 -14    4.85    0.42
   1   3 -14    4.49    0.44
   1   3 -13    0.60    0.41
   1   3 -13    0.46    0.33
   1   3 -13    0.30    0.41
   1   3 -13    0.55    0.38
   1   3 -12   10.15    0.60
   1   3 -12   10.19    0.60
   1   3 -12   10.31    0.52
   1   3 -12    9.29    0.62
   1   3 -11   11.00    0.63
   1   3 -11   11.41    0.65
   1   3 -11   10.15    0.65
  -1   3  11   10.86    0.48
  -1   3  11   10.98    0.55
   1   3 -11   10.68    0.56
   1   3 -10  198.31    1.71
  -1   3  10  192.21    1.87
  -1   3  10  195.70    1.45
   1   3 -10  201.99    1.98
  -1   3  10  200.91    1.71
  -1   3  10  204.14    2.15
   1   3 -10  192.79    1.91
   1   3 -10  189.78    1.98
   1   3  -9   78.02    1.24
  -1   3   9   71.12    1.20
  -1   3   9   77.03    1.16
   1   3  -9   78.74    1.14
  -1   3   9   72.41    0.97
   1   3  -9   73.27    1.24
   1   3  -9   78.96    1.27
  -1   3   9   74.31    1.13
  -1   3   8   11.75    0.57
   1   3  -8   14.80    0.65
   1   3  -8   15.33    0.60
  -1   3   8   11.59    0.52
   1   3  -8   14.47    0.62
   1   3  -8   14.12    0.62
   1   3  -8   14.83    0.64
  -1   3   8   11.31    0.53
  -1   3   8   10.84    0.50
  -1   3   7   16.07    0.48
  -1   3   7   18.71    0.57
  -1   3   7   17.61    0.59
   1   3  -7   19.89    0.65
   1   3  -7   18.78    0.59
   1   3  -7   19.67    0.66
  -1   3   7   18.22    0.60
  -1   3   7   16.88    0.50
  -1   3   7   19.73    0.57
   1   3  -7   19.08    0.63
  -1   3   6  196.88    1.52
  -1   3   6  193.70    1.54
  -1   3   5  695.41    2.68
  -1   3   5  701.93    2.70
  -1   3   4  535.65    2.24
  -1   3   3  263.48    1.51
  -1   3   3  263.66    1.43
  -1   3   2  340.86    1.62
  -1   3   2  333.92    1.52
  -1   3   1  149.04    0.97
   1   3  -1  163.29    0.92
   1   3   0  314.68    1.33
  -1   3   0  314.52    1.34
   1   3   1 1672.92    2.27
   1   3   1 1719.65    3.56
   1   3   2  520.01    1.54
   1   3   2  515.96    2.02
   1   3   3  579.08    2.24
   1   3   3  492.16    1.54
   1   3   4  130.02    1.15
   1   3   4  135.31    0.97
   1   3   5  418.38    1.88
   1   3   6  378.55    1.90
   1   3   6  378.99    2.16
   1   3   6  368.80    2.11
  -1   3  -6  376.04    2.18
   1   3   6  371.35    1.72
   1   3   6  387.51    2.01
   1   3   7  100.79    1.15
   1   3   7  101.43    1.24
   1   3   7   98.29    0.98
  -1   3  -7  110.11    1.30
   1   3   7   92.51    1.17
  -1   3  -7  112.00    1.27
  -1   3  -7  117.91    1.34
  -1   3  -7  121.93    1.37
  -1   3  -7  110.07    1.27
   1   3   7   94.97    1.06
  -1   3  -8  136.66    1.51
   1   3   8  130.24    1.42
  -1   3  -8  145.58    1.57
   1   3   8  133.30    1.27
   1   3   8  125.55    1.40
   1   3   8  147.60    1.62
   1   3   8  121.70    1.18
   1   3   8  134.68    1.45
  -1   3  -8  142.10    1.48
  -1   3  -8  143.72    1.55
  -1   3  -8  144.64    1.55
  -1   3  -9   62.97    1.15
   1   3   9   74.08    1.21
  -1   3  -9   64.23    1.12
  -1   3  -9   58.41    1.10
   1   3   9   67.67    1.12
   1   3   9   70.35    0.97
  -1   3  -9   60.01    1.14
   1   3   9   74.17    1.19
   1   3   9   65.58    1.13
  -1   3  -9   62.98    1.07
   1   3  10   10.21    0.61
  -1   3 -10   10.25    0.63
  -1   3 -10   10.70    0.61
  -1   3 -10   10.24    0.61
   1   3  10    9.39    0.50
  -1   3 -10   11.16    0.61
   1   3  11    4.25    0.47
  -1   3 -11    3.69    0.51
  -1   3 -11    3.56    0.48
  -1   3 -11    3.55    0.46
  -1   3 -11    3.53    0.45
  -1   3 -11    3.55    0.49
  -1   3 -12    4.96    0.49
   1   3  12    6.22    0.49
  -1   3 -12    4.91    0.42
   1   3  12    6.32    0.45
  -1   3 -12    5.09    0.48
  -1   3 -12    4.99    0.45
  -1   3 -12    5.67    0.52
  -1   3 -13    1.73    0.34
  -1   3 -13    1.71    0.35
   1   3  13    2.35    0.35
  -1   3 -13    1.47    0.38
   1   3  13    2.21    0.38
  -1   3 -13    1.80    0.41
  -1   3 -14    1.91    0.34
  -1   3 -14    2.13    0.33
  -1   3 -14    1.95    0.31
  -1   3 -15    2.21    0.26
  -1   3 -15    1.93    0.23
   1   4 -14    5.81    0.36
   1   4 -14    5.17    0.30
  -1   4  13    5.00    0.45
   1   4 -13    4.37    0.37
   1   4 -13    4.43    0.41
  -1   4  12   10.19    0.43
   1   4 -12    8.47    0.47
   1   4 -12    8.67    0.49
   1   4 -12    8.84    0.54
  -1   4  12   10.72    0.48
   1   4 -12    8.93    0.55
   1   4 -11    9.19    0.60
   1   4 -11   10.04    0.55
   1   4 -11    9.24    0.54
  -1   4  11   11.06    0.48
  -1   4  11   11.49    0.56
   1   4 -11    9.20    0.60
   1   4 -10   21.43    0.72
  -1   4  10   28.23    0.78
  -1   4  10   27.60    0.67
   1   4 -10   21.35    0.74
   1   4 -10   20.46    0.78
   1   4  -9   60.05    1.06
   1   4  -9   60.29    1.15
  -1   4   9   69.13    1.14
  -1   4   9   68.71    1.00
   1   4  -9   59.74    1.19
  -1   4   8  152.28    1.61
  -1   4   8  121.56    1.44
   1   4  -8  136.22    1.63
   1   4  -8  128.12    1.66
  -1   4   8  149.71    1.41
  -1   4   7  141.00    1.36
   1   4  -7  161.26    1.57
  -1   4   7  139.82    1.26
  -1   4   7  138.54    1.51
   1   4  -7  158.14    1.72
  -1   4   7  140.18    1.58
   1   4  -7  162.45    1.79
   1   4  -6   86.83    1.14
  -1   4   6   82.03    0.92
   1   4  -6   83.33    1.24
   1   4  -6   85.78    1.29
  -1   4   6   84.57    1.16
   1   4  -5    2.07    0.45
   1   4  -5    2.02    0.41
   1   4  -5    2.96    0.46
  -1   4   5    2.75    0.34
   1   4  -5    2.05    0.41
   1   4  -4   27.87    0.72
  -1   4   4   22.44    0.67
   1   4  -4   26.70    0.70
   1   4  -4   26.62    0.68
  -1   4   4   24.19    0.59
  -1   4   4   21.86    0.63
  -1   4   4   22.44    0.60
   1   4  -4   25.27    0.69
  -1   4   3  344.57    1.78
  -1   4   3  340.48    1.92
  -1   4   2  182.22    1.27
   1   4   0   93.09    0.89
   1   4   1   21.74    0.53
   1   4   2  241.77    1.64
   1   4   3  120.49    1.18
   1   4   3  124.52    1.11
   1   4   3  126.50    1.25
  -1   4  -3  120.93    1.25
   1   4   3  129.54    1.22
   1   4   3  124.37    1.18
   1   4   4  156.61    1.38
  -1   4  -4  200.19    1.70
   1   4   4  149.39    1.42
   1   4   4  149.47    1.23
  -1   4  -4  171.18    1.53
   1   4   4  147.54    1.38
  -1   4  -4  145.21    1.42
   1   4   4  190.24    1.47
  -1   4  -5    8.91    0.54
   1   4   5    5.45    0.47
  -1   4  -5    8.06    0.54
   1   4   5    5.94    0.44
  -1   4  -5    7.37    0.52
   1   4   5    4.67    0.36
   1   4   5    5.24    0.42
   1   4   6   77.61    0.93
  -1   4  -6   81.79    1.21
   1   4   6   74.78    1.11
   1   4   6   75.00    1.17
  -1   4  -6   82.47    1.19
   1   4   6   79.70    1.10
  -1   4  -6   84.43    1.25
   1   4   6   79.72    1.14
  -1   4  -7  112.30    1.47
   1   4   7  107.52    1.13
   1   4   7  108.31    1.39
   1   4   7  115.45    1.34
  -1   4  -7  117.08    1.52
  -1   4  -8   82.71    1.31
   1   4   8   69.22    1.17
  -1   4  -8   87.58    1.33
  -1   4  -8   86.86    1.30
   1   4   8   67.29    1.16
   1   4   8   71.99    1.07
   1   4   8   61.48    0.95
   1   4   9   23.71    0.78
  -1   4  -9   24.95    0.79
   1   4   9   26.63    0.73
  -1   4  -9   25.47    0.81
  -1   4  -9   24.60    0.85
   1   4   9   26.45    0.83
  -1   4  -9   25.29    0.81
   1   4  10   11.53    0.62
  -1   4 -10    7.56    0.61
  -1   4 -10    8.04    0.57
   1   4  10   10.64    0.52
   1   4  10   10.02    0.59
  -1   4 -10    7.39    0.53
   1   4  11    4.82    0.46
   1   4  11    4.19    0.37
   1   4  11    4.22    0.45
  -1   4 -11    3.53    0.44
  -1   4 -11    3.78    0.41
  -1   4 -11    3.84    0.50
  -1   4 -12    4.77    0.38
   1   4  12    5.63    0.42
  -1   4 -12    4.63    0.41
  -1   4 -13    2.62    0.32
  -1   4 -13    2.62    0.30
   1   4  13    3.48    0.33
   1   4  14    4.45    0.32
   1   5 -13    4.92    0.29
   1   5 -12    7.27    0.40
  -1   5  12    9.84    0.47
   1   5 -12    8.23    0.41
  -1   5  12    8.91    0.38
  -1   5  12   10.36    0.41
  -1   5  11   28.79    0.63
  -1   5  11   27.03    0.56
  -1   5  11   27.30    0.72
   1   5 -11   24.82    0.64
   1   5 -11   24.16    0.64
  -1   5  10   18.28    0.62
  -1   5  10   17.56    0.56
  -1   5  10   16.73    0.69
   1   5 -10   17.66    0.64
   1   5  -9    2.69    0.45
   1   5  -9    2.38    0.47
  -1   5   9    2.41    0.47
  -1   5   9    2.42    0.43
  -1   5   9    2.61    0.50
   1   5  -8   26.95    0.79
  -1   5   8   26.61    0.85
  -1   5   8   28.25    0.81
   1   5  -8   26.51    0.82
  -1   5   8   27.55    0.72
  -1   5   7    0.76    0.53
   1   5  -7    0.73    0.48
   1   5  -7    0.77    0.51
  -1   5   6  231.31    1.75
  -1   5   6  226.69    2.08
   1   5  -6  239.11    1.95
  -1   5   6  222.44    1.91
   1   5  -6  241.71    2.18
  -1   5   5   82.94    1.21
   1   5  -5  108.00    1.36
   1   5  -5  108.12    1.51
  -1   5   5   87.23    1.34
  -1   5   5   83.76    1.13
  -1   5   4  227.63    1.83
  -1   5   4  226.85    1.71
  -1   5   4  232.47    2.05
  -1   5   3   65.03    1.14
  -1   5   3   62.46    1.03
   1   5  -3   64.52    1.02
  -1   5   3   64.96    0.98
  -1   5   2  352.60    2.01
  -1   5   2  345.40    2.15
  -1   5   2  351.39    2.35
  -1   5   1   30.48    0.69
  -1   5   1   29.34    0.72
  -1   5   1   31.11    0.79
   1   5   0   54.43    0.92
   1   5   0   55.98    0.91
  -1   5   0   57.69    0.96
   1   5   1   24.22    0.68
   1   5   1   25.93    0.69
   1   5   1   24.72    0.68
   1   5   2  134.12    1.33
   1   5   2  125.71    1.32
   1   5   2  130.67    1.38
   1   5   2  124.52    1.32
   1   5   3  150.61    1.56
   1   5   3  155.62    1.52
   1   5   3  167.97    1.43
   1   5   3  165.43    1.55
   1   5   3  160.23    1.50
  -1   5  -3  167.43    1.64
   1   5   4   68.12    0.94
   1   5   4   62.48    1.00
   1   5   4   62.80    1.11
   1   5   4   62.74    1.05
  -1   5  -4   61.25    1.10
  -1   5  -4   66.33    1.12
   1   5   5  102.11    1.36
  -1   5  -5  107.74    1.37
   1   5   5   96.52    1.10
   1   5   5   94.55    1.20
   1   5   5   92.34    1.26
  -1   5  -5  106.15    1.41
   1   5   6   85.97    1.03
  -1   5  -6   77.00    1.25
  -1   5  -6   80.42    1.21
   1   5   6   77.15    1.18
   1   5   6   82.88    1.26
   1   5   7   31.54    0.84
  -1   5  -7   29.56    0.84
   1   5   7   32.70    0.83
   1   5   7   33.73    0.72
  -1   5  -7   30.72    0.85
   1   5   8    6.02    0.52
  -1   5  -8    6.32    0.56
  -1   5  -8    5.56    0.55
   1   5   8    5.57    0.45
   1   5   9   44.16    0.88
   1   5   9   46.79    0.80
   1   5  10    6.75    0.50
  -1   5 -10    4.62    0.49
  -1   5 -10    4.29    0.45
   1   5  10    6.98    0.43
   1   5  10    7.07    0.50
  -1   5 -11   17.19    0.58
  -1   5 -11   16.93    0.54
   1   5  11   18.07    0.47
   1   5  11   19.52    0.56
   1   5  11   18.71    0.59
   1   5  12   25.84    0.51
  -1   5 -12   20.50    0.48
   1   5  13    5.00    0.27
  -1   6  11    3.23    0.30
  -1   6  11    3.24    0.28
  -1   6  11    3.91    0.29
  -1   6  10    3.18    0.35
   1   6 -10    2.46    0.35
  -1   6  10    3.14    0.36
  -1   6  10    2.89    0.32
   1   6  -9    0.00    0.36
  -1   6   9    0.66    0.34
  -1   6   9    0.75    0.36
  -1   6   8    1.43    0.41
   1   6  -8    1.02    0.38
  -1   6   7    4.32    0.48
  -1   6   7    3.91    0.44
   1   6  -7    3.24    0.43
  -1   6   7    4.18    0.47
  -1   6   6   14.93    0.62
  -1   6   6   15.35    0.65
  -1   6   6   14.21    0.58
   1   6  -5   11.65    0.58
  -1   6   5   11.68    0.62
  -1   6   5   11.73    0.58
  -1   6   5   11.89    0.61
  -1   6   4   15.11    0.64
  -1   6   4   16.78    0.68
   1   6  -4   16.67    0.61
  -1   6   4   15.95    0.61
  -1   6   3   36.25    0.86
  -1   6   3   36.25    0.76
  -1   6   3   34.96    0.80
  -1   6   2   39.85    0.76
  -1   6   2   38.97    0.81
  -1   6   1   68.16    0.99
  -1   6   1   71.52    1.09
   1   6   0   96.11    1.09
   1   6   1   76.16    0.98
   1   6   1   72.97    0.98
   1   6   2   22.54    0.58
   1   6   2   21.45    0.64
   1   6   2   21.52    0.65
  -1   6  -3   26.86    0.71
   1   6   3   28.47    0.63
   1   6   3   27.04    0.71
   1   6   3   26.86    0.71
   1   6   4   10.26    0.56
   1   6   4   10.51    0.47
   1   6   4   10.51    0.57
  -1   6  -4    9.49    0.56
   1   6   5    1.93    0.35
   1   6   5    1.92    0.47
   1   6   5    1.93    0.46
  -1   6  -5    1.81    0.46
   1   6   6    9.49    0.56
   1   6   6    9.39    0.45
   1   6   6    9.03    0.54
   1   6   7   10.82    0.54
  -1   6  -7    9.83    0.54
   1   6   7   11.54    0.51
   1   6   7   11.74    0.45
   1   6   8   12.71    0.53
   1   6   8   13.24    0.50
   1   6   8   12.65    0.51
  -1   6  -9    0.41    0.34
   1   6   9    0.68    0.35
   1   6   9    0.78    0.32
   1   6   9    0.74    0.32
   1   6  10    1.61    0.28
  -1   6 -10    1.54    0.30
   1   6  10    1.63    0.28
   1   6  11    6.66    0.27
  -1   7   9    1.08    0.19
  -1   7   8    2.82    0.28
  -1   7   8    3.13    0.28
   1   7  -7    1.46    0.26
  -1   7   7    2.03    0.28
  -1   7   7    2.17    0.31
  -1   7   7    2.11    0.30
  -1   7   6    0.52    0.30
  -1   7   6    0.48    0.29
  -1   7   6    0.41    0.32
  -1   7   5   16.94    0.49
  -1   7   5   16.06    0.50
  -1   7   5   15.53    0.46
  -1   7   4   11.04    0.43
  -1   7   4   10.82    0.46
  -1   7   3   29.22    0.54
  -1   7   3   30.25    0.62
   1   7   2   15.64    0.44
   1   7   3   23.19    0.52
   1   7   4   23.46    0.52
   1   7   4   22.98    0.52
   1   7   5    7.55    0.39
   1   7   5    7.60    0.38
   1   7   6    7.40    0.36
   1   7   6    7.47    0.36
   1   7   7    2.71    0.29
   1   7   7    2.97    0.29
   1   7   8    0.72    0.22
   2  -5 -13    1.44    0.19
   2  -5 -13    1.20    0.18
   2  -5  -4    3.91    0.39
  -2  -5   4    4.17    0.44
  -2  -5   3    8.28    0.46
   2  -5  -3    9.35    0.44
  -2  -5   3    9.28    0.50
  -2  -5   2  166.71    1.58
  -2  -5   1  249.03    1.89
  -2  -5   0  126.45    1.33
  -2  -5   0  136.73    1.36
  -2  -5  -1   98.94    1.17
  -2  -5  -2    3.75    0.36
  -2  -5  -3   20.20    0.57
  -2  -5  -4   35.24    0.71
  -2  -5 -11    4.67    0.27
  -2  -5 -11    4.70    0.29
  -2  -5 -12    0.96    0.20
   2  -4 -15    2.56    0.17
   2  -4 -14    3.06    0.28
   2  -4 -14    3.38    0.28
   2  -4 -13    0.60    0.30
   2  -4 -12    3.71    0.33
   2  -4  -8  120.79    1.23
  -2  -4   8  118.93    1.62
  -2  -4   7   98.42    1.39
   2  -4  -7  115.50    1.14
   2  -4  -6   48.46    0.78
  -2  -4   6   46.97    0.93
   2  -4  -5  149.23    1.13
   2  -4  -5  148.22    1.25
  -2  -4   4  142.48    1.33
   2  -4  -4  142.26    1.01
  -2  -4   3  112.91    1.14
   2  -4  -3  114.18    1.02
  -2  -4   2  285.92    1.60
   2  -4  -2  275.30    1.49
  -2  -4   1  151.01    1.20
  -2  -4   1  144.17    1.23
  -2  -4   0  122.68    1.02
  -2  -4   0  124.63    1.14
  -2  -4  -1   89.48    0.98
  -2  -4  -2    1.54    0.29
  -2  -4  -2    1.67    0.25
  -2  -4  -3   95.82    1.00
  -2  -4  -3  104.66    0.97
  -2  -4  -4   50.95    0.76
  -2  -4  -5   59.17    0.83
  -2  -4  -6  110.96    1.14
  -2  -4  -6  108.29    1.23
  -2  -4  -7  160.28    1.46
   2  -4   7  157.14    1.81
  -2  -4 -12    0.56    0.27
  -2  -4 -12    0.62    0.29
  -2  -4 -13    1.74    0.24
  -2  -4 -13    1.73    0.26
  -2  -4 -14    3.52    0.20
   2  -3 -16    1.10    0.16
   2  -3 -15    1.01    0.25
   2  -3 -15    1.10    0.23
   2  -3 -15    1.08    0.25
   2  -3 -14    2.35    0.31
   2  -3 -14    2.33    0.30
   2  -3 -14    2.50    0.32
   2  -3 -13   14.00    0.54
   2  -3 -13   13.58    0.49
   2  -3 -13   12.97    0.48
   2  -3 -12    4.20    0.40
   2  -3 -12    4.54    0.42
   2  -3 -11   10.81    0.52
   2  -3 -11    9.41    0.51
   2  -3 -10   10.20    0.54
   2  -3 -10   10.31    0.55
   2  -3  -9   99.45    1.11
   2  -3  -9  100.30    1.20
   2  -3  -8   91.47    0.99
   2  -3  -8   94.04    1.06
  -2  -3   7   44.98    0.75
   2  -3  -7   48.06    0.70
   2  -3  -6  121.70    0.99
  -2  -3   6  110.18    1.05
   2  -3  -5  115.69    0.89
   2  -3  -5  117.08    0.99
  -2  -3   4  193.07    1.39
  -2  -3   4  182.41    1.11
   2  -3  -4  182.80    1.02
   2  -3  -4  192.41    1.21
   2  -3  -3  212.34    1.04
   2  -3  -3  216.36    1.20
  -2  -3   2  199.81    0.90
   2  -3  -2  200.52    0.96
  -2  -3   2  189.67    1.21
   2  -3  -2  190.14    1.07
   2  -3  -1  149.00    0.89
  -2  -3   1  144.51    1.01
   2  -3   0  316.27    0.98
  -2  -3   0  291.44    1.48
   2  -3   0  292.75    1.13
  -2  -3   0  303.78    1.40
  -2  -3   0  305.04    1.38
  -2  -3  -1  286.96    1.46
  -2  -3  -1  287.08    1.26
  -2  -3  -1  286.16    1.28
  -2  -3  -2  192.63    0.96
  -2  -3  -2  193.38    1.17
  -2  -3  -2  197.92    1.04
  -2  -3  -2  199.99    1.31
  -2  -3  -3  766.90    2.30
  -2  -3  -3  767.27    2.48
  -2  -3  -4  537.90    2.11
  -2  -3  -4  544.91    1.92
  -2  -3  -5  140.37    0.93
  -2  -3  -5  158.01    1.17
  -2  -3  -6  135.59    1.04
  -2  -3  -6  131.73    1.11
  -2  -3  -7   70.10    0.91
  -2  -3  -7   66.32    0.91
  -2  -3  -8  107.26    1.21
  -2  -3  -8  104.79    1.18
  -2  -3  -9   68.21    0.99
  -2  -3  -9   65.85    0.99
  -2  -3 -10   30.79    0.69
  -2  -3 -11   19.03    0.56
  -2  -3 -11   19.73    0.62
  -2  -3 -12    6.13    0.42
  -2  -3 -12    6.63    0.39
  -2  -3 -12    7.02    0.44
  -2  -3 -13    7.93    0.37
  -2  -3 -13    8.03    0.39
  -2  -3 -13    8.39    0.40
  -2  -3 -14    4.68    0.27
  -2  -3 -14    4.50    0.30
  -2  -3 -14    4.72    0.30
  -2  -3 -15    6.64    0.23
   2  -2 -16    5.45    0.29
   2  -2 -16    5.08    0.28
   2  -2 -16    4.61    0.29
   2  -2 -16    5.55    0.31
   2  -2 -16    4.45    0.26
   2  -2 -15    0.96    0.28
   2  -2 -15    1.18    0.30
   2  -2 -15    1.11    0.30
   2  -2 -15    1.00    0.31
   2  -2 -15    1.00    0.29
   2  -2 -14    0.31    0.34
   2  -2 -14    0.41    0.34
   2  -2 -14    0.18    0.33
   2  -2 -13   20.07    0.65
   2  -2 -13   20.44    0.67
   2  -2 -13   18.85    0.56
   2  -2 -13   20.88    0.64
   2  -2 -12   72.20    1.14
   2  -2 -12   74.16    1.13
   2  -2 -11  165.89    1.70
   2  -2 -11  171.90    1.65
   2  -2 -10   22.37    0.63
   2  -2 -10   21.88    0.55
  -2  -2  10   22.18    0.67
   2  -2 -10   22.65    0.73
  -2  -2   9   51.21    0.89
   2  -2  -9   54.03    0.80
   2  -2  -9   53.00    0.76
   2  -2  -9   52.64    0.93
   2  -2  -8   15.04    0.46
   2  -2  -8   12.84    0.40
   2  -2  -8   13.49    0.43
  -2  -2   8   13.82    0.48
   2  -2  -8   14.71    0.50
  -2  -2   7 1060.88    3.34
   2  -2  -7 1077.85    2.87
   2  -2  -6  157.36    1.06
   2  -2  -6  168.08    1.06
  -2  -2   6  164.06    1.23
   2  -2  -6  174.68    0.94
   2  -2  -5 2148.34    3.58
  -2  -2   5 2221.21    2.83
   2  -2  -5 2109.66    2.82
  -2  -2   5 2254.69    4.11
   2  -2  -4  458.23    1.07
   2  -2  -4  452.32    1.59
   2  -2  -3  423.00    1.44
   2  -2  -3  423.07    1.29
  -2  -2   2  107.52    0.67
  -2  -2   2  119.77    0.90
   2  -2  -2  107.16    0.31
   2  -2  -2   89.63    0.53
   2  -2  -2   89.96    0.63
   2  -2  -1   30.19    0.28
  -2  -2   1   29.97    0.43
  -2  -2   1   29.90    0.31
   2  -2  -1   30.04    0.24
   2  -2   0 1235.66    1.92
  -2  -2   0 1206.64    2.52
   2  -2   0 1200.78    1.01
  -2  -2   0 1202.43    2.33
   2  -2   0 1225.47    1.40
  -2  -2  -1  245.97    1.18
  -2  -2  -1  231.21    1.04
  -2  -2  -2  383.28    1.18
   2  -2   2  376.91    0.77
  -2  -2  -2  399.47    1.45
  -2  -2  -2  411.87    1.41
  -2  -2  -3 1495.98    2.86
  -2  -2  -3 1461.95    2.75
  -2  -2  -4 1410.71    2.80
  -2  -2  -4 1452.85    2.86
  -2  -2  -5    8.06    0.28
  -2  -2  -6  377.50    1.80
  -2  -2  -6  335.96    1.58
  -2  -2  -7  116.11    0.97
  -2  -2  -7  147.09    1.26
  -2  -2  -8  138.49    1.31
  -2  -2  -8  137.86    1.15
   2  -2   8  135.33    1.42
  -2  -2  -8  137.23    1.30
  -2  -2  -9  165.03    1.48
  -2  -2  -9  155.76    1.48
  -2  -2  -9  151.50    1.37
  -2  -2  -9  155.74    1.29
   2  -2   9  143.70    1.55
  -2  -2 -10   63.55    0.91
  -2  -2 -10   61.65    1.04
  -2  -2 -10   64.37    1.00
  -2  -2 -10   60.73    0.95
   2  -2  10   50.25    1.01
   2  -2  10   48.97    1.02
  -2  -2 -11    4.75    0.46
  -2  -2 -11    5.63    0.49
  -2  -2 -12    9.69    0.53
  -2  -2 -12    9.28    0.51
  -2  -2 -13   37.12    0.77
  -2  -2 -13   35.09    0.72
  -2  -2 -13   35.65    0.76
  -2  -2 -14   29.89    0.62
  -2  -2 -14   31.73    0.64
  -2  -2 -14   29.38    0.61
  -2  -2 -14   29.92    0.61
  -2  -2 -15    3.39    0.27
  -2  -2 -15    3.27    0.28
  -2  -2 -15    3.53    0.30
  -2  -2 -15    3.56    0.30
   2  -1 -17    6.47    0.27
   2  -1 -17    7.05    0.26
   2  -1 -16    0.70    0.27
   2  -1 -16    0.71    0.28
   2  -1 -16    0.65    0.26
   2  -1 -16    0.59    0.22
   2  -1 -15    3.78    0.35
   2  -1 -15    4.03    0.39
   2  -1 -15    3.81    0.41
   2  -1 -15    3.74    0.34
   2  -1 -15    3.49    0.38
   2  -1 -15    3.46    0.33
   2  -1 -14    3.18    0.38
   2  -1 -14    2.80    0.41
   2  -1 -14    2.84    0.42
   2  -1 -14    2.79    0.37
   2  -1 -13   10.12    0.59
   2  -1 -13   10.33    0.60
   2  -1 -13   10.58    0.54
   2  -1 -13   10.51    0.54
   2  -1 -12   32.82    0.89
   2  -1 -12   35.41    0.85
   2  -1 -12   35.81    0.89
   2  -1 -12   34.98    0.91
   2  -1 -12   36.26    0.85
   2  -1 -11  123.74    1.49
   2  -1 -11  124.61    1.49
   2  -1 -11  126.78    1.45
   2  -1 -11  127.12    1.40
  -2  -1  10   28.93    0.75
   2  -1 -10   30.71    0.70
   2  -1 -10   29.14    0.72
   2  -1 -10   29.23    0.78
   2  -1 -10   28.63    0.56
   2  -1 -10   27.36    0.66
   2  -1 -10   28.87    0.75
  -2  -1  10   31.20    0.70
   2  -1  -9  231.47    1.74
   2  -1  -9  235.26    1.38
   2  -1  -9  234.89    1.64
   2  -1  -9  230.77    1.70
   2  -1  -8    4.18    0.30
   2  -1  -8    3.94    0.27
   2  -1  -7  462.68    1.84
   2  -1  -7  446.54    1.72
  -2  -1   6 1603.58    3.61
   2  -1  -6 1560.17    2.89
   2  -1  -6 1587.58    3.05
   2  -1  -6 1633.32    3.15
  -2  -1   6 1545.10    3.08
  -2  -1   5  521.28    1.60
   2  -1  -5  586.67    1.71
   2  -1  -5  578.13    1.69
   2  -1  -5  552.22    1.51
  -2  -1   5  523.08    1.89
  -2  -1   4 1361.63    2.30
   2  -1  -4 1366.26    2.08
   2  -1  -3 2249.06    2.72
  -2  -1   3 2233.45    2.60
  -2  -1   2 3934.34    3.13
  -2  -1   2 3911.01    4.10
   2  -1  -1  572.76    0.96
   2  -1  -1  611.99    1.02
  -2  -1   1  588.54    1.61
  -2  -1   1  619.66    1.39
   2  -1  -1  588.69    1.26
  -2  -1   0 2322.62    2.88
  -2  -1   0 2318.51    3.17
   2  -1   0 2323.29    1.70
   2  -1   1 6090.20    4.00
  -2  -1  -1 6137.59    4.85
  -2  -1  -2 4668.22    4.15
  -2  -1  -2 4669.98    4.59
  -2  -1  -3  105.99    0.71
  -2  -1  -3  105.43    0.68
  -2  -1  -3  112.80    0.72
  -2  -1  -3  111.03    0.62
  -2  -1  -4  304.81    1.19
  -2  -1  -4  322.73    1.10
  -2  -1  -4  323.78    1.25
  -2  -1  -4  308.71    1.29
  -2  -1  -5   46.59    0.53
  -2  -1  -5   45.49    0.56
  -2  -1  -6  251.99    1.30
   2  -1   6  250.56    1.24
  -2  -1  -7    7.53    0.28
   2  -1   7    7.60    0.30
  -2  -1  -7    7.90    0.34
  -2  -1  -7    7.30    0.26
  -2  -1  -8  165.54    1.12
  -2  -1  -8  169.19    1.35
  -2  -1  -8  161.13    1.28
  -2  -1  -8  161.82    1.40
  -2  -1  -8  156.14    1.20
  -2  -1  -9   98.50    1.16
  -2  -1  -9   96.41    1.21
  -2  -1  -9   98.03    1.13
   2  -1   9   98.26    1.20
  -2  -1  -9   97.11    1.09
  -2  -1  -9   93.55    0.90
  -2  -1 -10   34.83    0.80
  -2  -1 -10   34.53    0.87
   2  -1  10   30.81    0.80
   2  -1  10   32.21    0.83
  -2  -1 -10   35.79    0.81
  -2  -1 -10   37.75    0.79
  -2  -1 -10   37.14    0.79
  -2  -1 -11   65.09    1.02
  -2  -1 -11   67.07    1.14
  -2  -1 -11   63.62    1.06
  -2  -1 -12   20.25    0.70
  -2  -1 -12   19.39    0.70
  -2  -1 -12   20.13    0.61
  -2  -1 -12   18.35    0.62
  -2  -1 -13   13.47    0.52
  -2  -1 -13   14.79    0.58
  -2  -1 -13   15.20    0.63
  -2  -1 -14    3.38    0.39
  -2  -1 -14    3.65    0.44
  -2  -1 -15    3.90    0.32
  -2  -1 -15    3.68    0.34
  -2  -1 -16    0.39    0.19
  -2  -1 -16    0.50    0.19
   2   0 -17   10.27    0.31
   2   0 -17   11.21    0.33
   2   0 -16    1.00    0.31
   2   0 -16    0.80    0.27
   2   0 -16    1.02    0.30
   2   0 -16    1.09    0.31
   2   0 -16    0.78    0.28
   2   0 -16    1.04    0.31
   2   0 -15    0.97    0.36
   2   0 -15    1.07    0.33
   2   0 -15    1.12    0.38
   2   0 -15    0.88    0.34
   2   0 -15    0.86    0.37
   2   0 -15    0.80    0.33
   2   0 -14    4.46    0.45
   2   0 -14    3.98    0.37
   2   0 -14    4.46    0.44
   2   0 -14    4.69    0.48
   2   0 -14    4.71    0.45
   2   0 -14    4.70    0.46
   2   0 -14    4.13    0.46
   2   0 -13    2.19    0.42
   2   0 -13    1.79    0.46
   2   0 -13    2.09    0.44
   2   0 -13    2.02    0.45
   2   0 -13    2.25    0.47
   2   0 -13    1.99    0.39
   2   0 -12    2.53    0.55
   2   0 -12    2.08    0.58
   2   0 -12    1.81    0.53
   2   0 -12    3.05    0.52
   2   0 -12    2.17    0.55
   2   0 -11   10.34    0.61
   2   0 -11   11.20    0.59
  -2   0  11   11.71    0.58
  -2   0  11   11.18    0.61
   2   0 -11   11.35    0.60
   2   0 -11   11.88    0.64
   2   0 -11   11.70    0.64
   2   0 -11   11.49    0.64
   2   0 -10  379.26    2.37
  -2   0  10  390.32    2.38
   2   0 -10  383.60    2.29
  -2   0  10  393.42    2.44
   2   0 -10  411.12    2.46
   2   0 -10  415.76    2.39
   2   0 -10  400.27    2.40
   2   0  -9   15.93    0.40
  -2   0   9   16.72    0.54
   2   0  -9   16.76    0.54
  -2   0   9   17.18    0.52
   2   0  -9   16.64    0.51
   2   0  -9   16.28    0.54
   2   0  -8    0.56    0.17
   2   0  -8    0.76    0.25
  -2   0   8    0.96    0.26
  -2   0   8    0.74    0.25
   2   0  -7    0.32    0.17
  -2   0   7    1.48    0.23
  -2   0   7    1.06    0.24
  -2   0   7    0.37    0.14
  -2   0   6  858.65    2.63
   2   0  -6  861.61    2.10
  -2   0   5  871.86    2.41
  -2   0   5  870.27    1.99
   2   0  -4 2704.70    3.60
   2   0  -4 2715.36    3.39
  -2   0   3  693.61    1.54
   2   0  -3  705.23    1.65
  -2   0   3  686.96    1.66
   2   0  -3  713.20    1.55
  -2   0   2 3968.95    3.95
  -2   0   2 3970.56    3.79
  -2   0   1 3541.73    3.34
   2   0  -1 3601.32    3.24
  -2   0   1 3417.93    3.67
  -2   0   1 3690.56    3.16
  -2   0   1 3540.51    3.48
  -2   0   1 3415.82    3.74
   2   0  -1 3532.28    3.28
  -2   0   0 7278.71    5.25
   2   0   0 6994.59    5.16
  -2   0  -1 9998.41    6.44
  -2   0  -1 9999.00    6.35
  -2   0  -2 6735.41    4.73
  -2   0  -2 6880.37    4.91
  -2   0  -3 1030.34    1.83
  -2   0  -3 1037.87    1.63
   2   0   4   46.62    0.49
  -2   0  -4   46.82    0.49
   2   0   5   77.31    0.70
  -2   0  -5   76.75    0.51
   2   0   6   33.46    0.52
  -2   0  -6   32.90    0.48
  -2   0  -6   34.18    0.56
  -2   0  -7  272.08    1.49
  -2   0  -7  278.52    1.38
  -2   0  -8    3.18    0.34
  -2   0  -8    3.15    0.38
  -2   0  -8    3.00    0.24
   2   0   8    3.03    0.32
  -2   0  -8    3.22    0.32
   2   0   8    3.57    0.28
   2   0   9  117.86    1.22
  -2   0  -9  117.10    1.17
  -2   0  -9  124.77    1.25
   2   0   9  116.80    1.21
  -2   0  -9  111.49    1.18
  -2   0  -9  123.60    1.32
  -2   0  -9  113.25    1.17
  -2   0  -9  116.35    1.35
  -2   0 -10   55.65    1.01
  -2   0 -10   48.03    0.91
  -2   0 -10   47.94    0.84
   2   0  10   49.21    0.88
   2   0  10   54.33    0.91
  -2   0 -10   50.26    1.01
  -2   0 -10   49.82    0.90
  -2   0 -10   55.95    0.98
   2   0  11    9.14    0.51
  -2   0 -11   10.03    0.61
  -2   0 -11   10.12    0.61
  -2   0 -11    8.28    0.60
  -2   0 -12   67.31    1.11
  -2   0 -12   70.11    1.13
  -2   0 -12   69.30    1.17
   2   0  12   70.77    1.01
  -2   0 -12   68.21    1.02
  -2   0 -12   69.04    1.05
  -2   0 -13   32.51    0.75
  -2   0 -13   31.66    0.71
  -2   0 -13   31.67    0.79
  -2   0 -13   32.67    0.73
  -2   0 -14    6.08    0.40
  -2   0 -14    5.56    0.46
  -2   0 -14    6.38    0.48
  -2   0 -14    6.46    0.41
  -2   0 -14    5.79    0.43
  -2   0 -15    0.17    0.23
  -2   0 -15    0.17    0.31
  -2   0 -15    0.28    0.30
  -2   0 -16    0.89    0.21
  -2   0 -16    0.66    0.21
   2   1 -16    0.48    0.22
   2   1 -16    0.62    0.28
   2   1 -16    0.83    0.29
   2   1 -16    0.68    0.29
   2   1 -16    0.67    0.28
   2   1 -15    4.27    0.42
   2   1 -15    4.13    0.39
   2   1 -15    4.13    0.38
   2   1 -15    3.81    0.35
   2   1 -15    4.05    0.42
   2   1 -15    4.62    0.43
   2   1 -14    2.97    0.43
   2   1 -14    2.57    0.37
   2   1 -14    2.81    0.41
   2   1 -14    3.02    0.43
   2   1 -14    2.84    0.43
   2   1 -14    2.72    0.43
   2   1 -13    9.41    0.56
   2   1 -13   10.41    0.59
   2   1 -13   10.10    0.58
   2   1 -13   10.08    0.60
   2   1 -13   10.70    0.59
   2   1 -13    9.60    0.60
   2   1 -12   34.31    0.96
   2   1 -12   32.70    0.89
   2   1 -12   33.61    0.91
   2   1 -12   33.31    0.92
   2   1 -12   33.96    0.93
   2   1 -11  116.63    1.56
  -2   1  11  118.54    1.47
   2   1 -11  110.09    1.44
   2   1 -11  110.22    1.44
   2   1 -11  110.24    1.47
   2   1 -11  113.90    1.48
   2   1 -11  118.27    1.54
   2   1 -10   31.05    0.80
   2   1 -10   28.54    0.73
   2   1 -10   32.36    0.84
  -2   1  10   30.51    0.80
   2   1 -10   32.30    0.81
  -2   1  10   29.13    0.72
   2   1 -10   31.31    0.81
   2   1 -10   32.24    0.82
   2   1  -9  203.68    1.74
   2   1  -9  204.57    1.66
  -2   1   9  239.49    1.88
   2   1  -9  209.65    1.75
   2   1  -9  207.00    1.65
   2   1  -9  213.85    1.80
  -2   1   9  222.50    1.62
   2   1  -9  206.71    1.73
   2   1  -9  217.52    1.76
  -2   1   9  231.76    1.73
  -2   1   8    4.30    0.35
   2   1  -8    7.63    0.39
  -2   1   8    4.01    0.31
   2   1  -8    6.85    0.30
   2   1  -7  411.87    1.59
   2   1  -7  421.83    2.04
  -2   1   7  470.39    2.25
  -2   1   7  466.55    2.07
   2   1  -6 1583.52    3.00
   2   1  -6 1601.17    3.70
  -2   1   6 1559.40    2.12
  -2   1   6 1564.45    3.78
  -2   1   6 1539.57    3.52
  -2   1   5  535.19    2.03
  -2   1   5  531.49    1.88
   2   1  -4 1455.22    2.75
  -2   1   4 1445.93    2.02
  -2   1   4 1326.03    2.27
   2   1  -4 1203.60    2.97
  -2   1   4 1276.53    2.72
  -2   1   3 2216.74    2.64
   2   1  -3 2207.41    1.69
  -2   1   2 4841.08    5.01
   2   1  -2 4801.41    4.63
  -2   1   1  567.36    1.27
  -2   1   1  597.96    1.09
  -2   1   1  607.31    0.92
   2   1  -1  637.14    1.21
  -2   1   1  601.21    1.20
  -2   1   0 2330.28    2.62
  -2   1   0 2345.55    2.31
  -2   1   0 2304.04    2.80
   2   1   0 2314.33    2.38
   2   1   0 2320.16    2.69
  -2   1  -1 5986.55    4.50
  -2   1  -1 5894.21    4.74
  -2   1  -2 4436.67    4.51
   2   1   2 4500.35    4.61
  -2   1  -3   81.24    0.65
  -2   1  -3   76.51    0.51
  -2   1  -4  289.46    1.13
  -2   1  -4  288.40    1.31
  -2   1  -5   44.62    0.37
  -2   1  -5   44.16    0.52
   2   1   6  274.52    1.49
  -2   1  -6  271.12    1.38
   2   1   7    8.42    0.37
  -2   1  -7    8.45    0.36
   2   1   7    8.14    0.31
   2   1   7    8.77    0.40
   2   1   8  176.31    1.40
   2   1   8  163.31    1.23
   2   1   8  177.68    1.54
  -2   1  -8  177.26    1.42
  -2   1  -8  182.87    1.39
   2   1   8  165.78    1.35
  -2   1  -8  176.90    1.35
  -2   1  -8  185.34    1.58
  -2   1  -8  183.72    1.48
   2   1   8  163.52    1.40
   2   1   9  100.25    1.27
  -2   1  -9   98.54    1.15
   2   1   9   97.92    1.19
  -2   1  -9  101.65    1.22
   2   1   9  103.80    1.16
  -2   1  -9   96.83    1.16
  -2   1  -9  101.35    1.26
  -2   1  -9   93.38    1.11
  -2   1  -9   97.97    1.26
  -2   1 -10   31.09    0.84
   2   1  10   37.50    0.91
  -2   1 -10   30.53    0.79
   2   1  10   38.31    0.87
  -2   1 -10   31.65    0.78
  -2   1 -10   30.06    0.82
  -2   1 -10   33.43    0.85
  -2   1 -11   60.48    1.07
  -2   1 -11   54.11    1.07
  -2   1 -11   55.13    1.00
  -2   1 -11   54.39    1.00
  -2   1 -11   55.73    1.09
  -2   1 -11   58.70    1.06
  -2   1 -12   21.46    0.74
  -2   1 -12   22.65    0.74
  -2   1 -12   21.33    0.75
  -2   1 -12   21.68    0.71
  -2   1 -12   22.85    0.72
  -2   1 -12   20.61    0.70
   2   1  12   20.97    0.68
  -2   1 -13   20.49    0.68
  -2   1 -13   19.12    0.70
  -2   1 -13   18.94    0.65
  -2   1 -13   19.20    0.65
  -2   1 -13   18.44    0.68
  -2   1 -14    3.05    0.42
   2   1  14    3.93    0.38
  -2   1 -14    2.92    0.41
  -2   1 -14    3.36    0.40
  -2   1 -14    3.05    0.39
  -2   1 -14    3.45    0.44
  -2   1 -15    4.09    0.30
  -2   1 -15    4.15    0.30
  -2   1 -15    4.41    0.36
  -2   1 -15    4.03    0.34
  -2   1 -16    0.38    0.18
  -2   1 -16    0.43    0.19
   2   2 -16    3.99    0.31
   2   2 -15    1.20    0.29
   2   2 -15    1.14    0.29
   2   2 -15    0.86    0.34
  -2   2  15    1.11    0.31
   2   2 -14    0.36    0.39
   2   2 -14    0.32    0.29
   2   2 -14    0.35    0.34
   2   2 -14    0.21    0.33
   2   2 -13   18.65    0.60
   2   2 -13   19.11    0.64
   2   2 -13   20.67    0.74
   2   2 -13   21.52    0.68
   2   2 -13   20.08    0.75
   2   2 -13   20.83    0.68
   2   2 -12   76.60    1.20
   2   2 -12   73.61    0.98
   2   2 -12   74.68    1.27
   2   2 -12   80.60    1.22
   2   2 -12   74.18    1.13
   2   2 -12   74.87    1.30
   2   2 -12   78.26    1.24
   2   2 -11  172.37    1.73
   2   2 -11  178.70    1.84
   2   2 -11  165.22    1.80
   2   2 -11  166.05    1.48
   2   2 -11  175.80    1.84
   2   2 -11  170.65    1.80
   2   2 -11  167.81    1.87
   2   2 -10   25.22    0.81
   2   2 -10   25.55    0.78
   2   2 -10   25.02    0.76
   2   2 -10   23.00    0.78
   2   2 -10   24.64    0.81
   2   2 -10   23.40    0.67
   2   2  -9   53.87    1.01
   2   2  -9   55.13    0.97
   2   2  -9   53.57    1.01
   2   2  -9   52.38    0.84
   2   2  -9   53.56    1.02
   2   2  -9   54.54    0.99
   2   2  -9   52.94    1.00
  -2   2   8   14.17    0.45
   2   2  -8   11.53    0.48
   2   2  -8   11.38    0.55
  -2   2   8   11.83    0.48
   2   2  -8   11.41    0.53
   2   2  -8   11.70    0.54
  -2   2   8   14.08    0.54
   2   2  -8   11.23    0.56
  -2   2   7 1063.49    3.06
  -2   2   7 1109.20    3.71
  -2   2   6  157.06    1.34
  -2   2   6  173.73    1.20
  -2   2   5 2240.78    4.10
  -2   2   5 2142.61    4.56
  -2   2   4  435.94    1.70
  -2   2   4  474.35    2.00
  -2   2   3  409.36    1.75
  -2   2   3  407.11    1.52
   2   2  -2  104.82    0.54
  -2   2   2   86.14    0.80
   2   2  -1   28.29    0.33
  -2   2   1   26.75    0.46
  -2   2   0 1192.40    2.66
   2   2   0 1216.71    2.33
   2   2   1  246.79    1.14
   2   2   1  257.73    0.77
   2   2   2  417.51    1.60
   2   2   2  429.59    1.27
   2   2   3 1477.83    3.29
   2   2   3 1571.79    2.81
   2   2   4 1523.87    3.15
   2   2   5    6.88    0.30
   2   2   6  325.92    1.85
   2   2   6  300.75    1.66
   2   2   7  119.92    1.05
  -2   2  -7   99.27    1.16
  -2   2  -7   88.93    0.99
  -2   2  -7  101.12    1.16
  -2   2  -7   96.66    1.14
   2   2   7  119.75    1.20
   2   2   7  123.17    1.21
  -2   2  -7  100.28    1.12
   2   2   7  116.24    1.17
   2   2   8  146.37    1.31
  -2   2  -8  149.18    1.41
   2   2   8  149.01    1.45
  -2   2  -8  154.14    1.52
  -2   2  -8  147.52    1.47
  -2   2  -8  150.21    1.42
  -2   2  -8  148.95    1.42
   2   2   8  139.86    1.40
  -2   2  -8  156.31    1.50
   2   2   8  137.63    1.41
  -2   2  -9  141.00    1.54
   2   2   9  157.83    1.60
  -2   2  -9  154.12    1.64
   2   2   9  150.95    1.57
  -2   2  -9  150.12    1.54
  -2   2  -9  148.94    1.56
  -2   2  -9  141.26    1.44
  -2   2  -9  150.25    1.56
  -2   2 -10   46.75    0.98
   2   2  10   69.73    1.15
  -2   2 -10   48.81    1.03
  -2   2 -10   46.97    0.97
  -2   2 -10   45.40    0.87
   2   2  10   67.30    1.20
  -2   2 -10   48.64    1.04
   2   2  10   64.77    1.11
  -2   2 -10   50.29    0.99
  -2   2 -10   48.03    1.01
   2   2  11    5.44    0.50
  -2   2 -11    6.92    0.56
  -2   2 -11    6.96    0.48
   2   2  11    4.80    0.49
  -2   2 -11    7.59    0.55
  -2   2 -11    6.63    0.49
  -2   2 -11    6.92    0.53
  -2   2 -12   10.07    0.55
   2   2  12    9.74    0.49
   2   2  12    9.36    0.55
  -2   2 -12    9.86    0.60
  -2   2 -12    9.72    0.55
  -2   2 -13   37.99    0.78
   2   2  13   36.60    0.77
  -2   2 -13   37.78    0.80
  -2   2 -13   35.38    0.76
  -2   2 -14   29.37    0.69
  -2   2 -14   28.59    0.62
   2   2  14   30.28    0.62
  -2   2 -14   29.71    0.64
  -2   2 -15    2.65    0.27
  -2   2 -15    2.57    0.27
  -2   2 -15    2.60    0.28
  -2   3  15    1.20    0.28
   2   3 -14    2.62    0.40
  -2   3  14    2.83    0.40
   2   3 -13   14.30    0.64
   2   3 -13   13.56    0.49
   2   3 -12    5.15    0.46
   2   3 -12    4.55    0.49
   2   3 -12    4.81    0.53
   2   3 -12    4.52    0.42
   2   3 -11   10.99    0.58
   2   3 -11   10.41    0.65
  -2   3  11   10.79    0.49
   2   3 -11   10.04    0.67
   2   3 -11   10.48    0.56
  -2   3  11   11.08    0.53
   2   3 -11   10.84    0.57
   2   3 -11   10.29    0.63
   2   3 -10   12.66    0.66
  -2   3  10   10.80    0.60
   2   3 -10   12.21    0.65
  -2   3  10    9.93    0.54
   2   3 -10   12.91    0.65
   2   3 -10   11.38    0.71
   2   3 -10   12.16    0.69
   2   3 -10   13.21    0.68
  -2   3   9  103.33    1.27
   2   3  -9   94.13    1.40
  -2   3   9  111.14    1.62
   2   3  -9   91.33    1.43
   2   3  -9   98.73    1.44
  -2   3   9  103.09    1.13
   2   3  -9   96.00    1.25
   2   3  -9  100.48    1.42
  -2   3   8   94.04    1.17
   2   3  -8   93.39    1.30
   2   3  -8   95.88    1.32
   2   3  -8   93.77    1.17
   2   3  -8   97.50    1.33
  -2   3   8   92.82    1.02
   2   3  -8   90.33    1.34
   2   3  -7   46.57    0.91
  -2   3   7   49.83    0.86
  -2   3   7   49.45    0.75
   2   3  -7   47.48    0.92
   2   3  -7   47.07    0.96
   2   3  -7   48.22    0.91
   2   3  -6  109.69    1.22
  -2   3   6  106.81    1.12
  -2   3   6  109.85    0.99
   2   3  -6  109.21    1.31
  -2   3   5  125.67    1.24
  -2   3   4  197.01    1.46
  -2   3   3  220.42    1.48
   2   3  -2  189.57    0.89
  -2   3   2  191.92    1.32
  -2   3   1  147.25    1.12
   2   3  -1  142.74    0.88
   2   3   0  283.91    1.32
  -2   3   0  287.03    1.48
   2   3   1  293.40    1.48
   2   3   2  194.12    1.28
   2   3   3  753.91    2.71
   2   3   4  516.87    2.37
   2   3   4  524.23    1.87
  -2   3  -5  152.15    1.44
   2   3   5  154.03    1.35
   2   3   5  154.37    1.15
  -2   3  -6  133.56    1.20
   2   3   6  127.90    1.23
   2   3   6  126.65    1.30
  -2   3  -6  137.36    1.37
   2   3   6  135.73    1.22
   2   3   6  127.96    1.33
  -2   3  -6  138.39    1.44
  -2   3  -6  132.15    1.37
   2   3   6  131.20    1.19
   2   3   7   63.05    1.02
  -2   3  -7   67.01    1.08
   2   3   7   66.83    1.07
  -2   3  -7   68.22    1.09
   2   3   7   67.44    0.95
  -2   3  -7   67.40    1.11
   2   3   7   64.39    0.86
   2   3   7   67.18    0.97
  -2   3  -7   67.04    0.96
  -2   3  -7   69.09    1.08
   2   3   7   63.47    0.93
  -2   3  -8  107.47    1.40
   2   3   8  100.36    1.37
   2   3   8  101.84    1.19
   2   3   8   99.80    1.14
  -2   3  -8  109.07    1.38
   2   3   8   92.43    1.26
  -2   3  -8  108.16    1.44
  -2   3  -8  100.95    1.34
  -2   3  -9   61.54    1.12
   2   3   9   69.16    1.01
  -2   3  -9   60.41    1.10
   2   3   9   65.49    1.12
  -2   3  -9   62.70    1.09
  -2   3  -9   66.93    1.14
  -2   3  -9   63.69    1.14
   2   3   9   70.32    1.01
  -2   3 -10   31.93    0.86
  -2   3 -10   32.07    0.81
  -2   3 -10   30.09    0.80
  -2   3 -10   31.09    0.83
  -2   3 -10   32.46    0.79
  -2   3 -10   30.08    0.85
  -2   3 -11   19.97    0.71
  -2   3 -11   19.51    0.64
  -2   3 -11   19.76    0.63
  -2   3 -11   19.26    0.65
  -2   3 -12    6.47    0.51
  -2   3 -12    6.57    0.43
  -2   3 -12    6.68    0.43
   2   3  12    6.90    0.47
  -2   3 -12    6.74    0.44
   2   3  12    7.94    0.47
  -2   3 -13    7.56    0.46
  -2   3 -13    7.78    0.47
   2   3  13    7.68    0.44
  -2   3 -13    7.59    0.39
   2   3  13    9.09    0.40
  -2   3 -13    7.45    0.40
  -2   3 -14    4.44    0.35
  -2   3 -15    5.63    0.25
   2   4 -14    3.44    0.33
  -2   4  14    4.07    0.34
   2   4 -13    0.31    0.36
  -2   4  13    0.59    0.38
   2   4 -13    0.02    0.30
   2   4 -13    0.46    0.32
  -2   4  12    4.11    0.38
   2   4 -12    3.32    0.42
  -2   4  12    4.21    0.38
  -2   4  12    3.93    0.48
  -2   4  11   42.93    0.78
   2   4 -11   42.15    0.91
   2   4 -11   41.09    1.00
  -2   4  11   42.61    0.99
  -2   4  11   42.16    0.71
   2   4 -11   43.95    0.85
  -2   4  10   63.26    1.02
   2   4 -10   58.20    1.01
  -2   4  10   61.44    0.89
   2   4 -10   56.40    1.10
   2   4 -10   54.33    1.14
  -2   4   9  143.86    1.55
   2   4  -9  147.50    1.73
   2   4  -9  145.85    1.75
   2   4  -9  143.36    1.77
  -2   4   8  130.82    1.73
  -2   4   8  131.62    1.53
   2   4  -8  132.61    1.59
   2   4  -8  131.85    1.64
  -2   4   7  130.68    1.63
  -2   4   7  128.88    1.48
   2   4  -7  111.80    1.53
  -2   4   7  121.01    1.27
   2   4  -7  101.00    1.28
   2   4  -7  111.26    1.48
   2   4  -7  102.16    1.50
  -2   4   6   56.54    1.05
  -2   4   6   54.69    0.99
  -2   4   6   50.77    1.05
   2   4  -6   49.63    1.04
   2   4  -6   51.28    0.93
   2   4  -6   54.59    1.04
   2   4  -5  150.71    1.65
  -2   4   5  158.41    1.56
   2   4  -5  159.91    1.71
  -2   4   5  147.40    1.57
   2   4  -5  159.25    1.62
  -2   4   5  144.93    1.29
   2   4  -5  152.41    1.44
   2   4  -4  142.00    1.54
  -2   4   4  144.55    1.38
  -2   4   4  146.40    1.24
   2   4  -4  146.92    1.51
   2   4  -4  148.49    1.34
  -2   4   4  145.30    1.50
  -2   4   3  108.76    1.16
  -2   4   3  107.99    1.05
   2   4  -3  106.05    1.09
   2   4  -3  112.46    1.34
  -2   4   3  108.86    1.25
   2   4  -3  107.83    1.29
   2   4  -3  111.27    1.28
  -2   4   2  264.73    1.69
   2   4  -2  284.04    1.98
   2   4  -2  293.90    1.98
  -2   4   2  265.46    1.85
   2   4  -2  288.35    1.99
  -2   4   2  288.23    1.85
  -2   4   1  119.78    1.24
  -2   4   1  120.17    1.11
   2   4  -1  151.33    1.42
   2   4  -1  148.92    1.40
   2   4   0  122.19    1.25
   2   4   0  120.20    1.05
   2   4   1   83.24    1.02
   2   4   1   82.75    1.02
   2   4   2    1.08    0.35
  -2   4  -2    4.56    0.42
   2   4   2    0.95    0.28
  -2   4  -2    5.84    0.49
   2   4   2    1.38    0.35
   2   4   2    1.90    0.36
   2   4   2    1.30    0.38
   2   4   3   97.04    1.07
   2   4   3   93.94    1.10
   2   4   3  102.67    1.21
   2   4   3   95.78    1.12
   2   4   3   92.62    1.08
  -2   4  -3   90.83    1.07
  -2   4  -3   94.26    1.20
  -2   4  -3   91.77    1.19
   2   4   3   99.56    1.14
   2   4   4   49.19    0.87
  -2   4  -4   45.12    0.79
  -2   4  -4   45.91    0.93
   2   4   4   52.74    0.91
  -2   4  -4   46.70    0.93
   2   4   4   48.02    0.78
   2   4   4   54.97    0.96
   2   4   5   53.66    0.94
   2   4   5   62.79    0.98
   2   4   5   58.34    0.96
   2   4   5   59.36    1.07
  -2   4  -5   61.14    1.08
  -2   4  -5   58.38    1.03
  -2   4  -5   59.61    0.91
   2   4   5   55.94    0.82
  -2   4  -5   55.83    1.03
  -2   4  -6   98.17    1.35
   2   4   6  112.27    1.51
   2   4   6  101.97    1.08
  -2   4  -6  101.29    1.37
  -2   4  -6  106.83    1.23
   2   4   6   99.24    1.27
  -2   4  -6   95.12    1.31
   2   4   6  112.14    1.31
   2   4   6  109.11    1.33
   2   4   6  119.11    1.35
  -2   4  -7  145.69    1.58
   2   4   7  154.73    1.54
   2   4   7  141.16    1.55
   2   4   7  139.67    1.27
  -2   4  -7  147.51    1.44
  -2   4  -7  129.13    1.57
  -2   4  -7  136.20    1.61
  -2   4  -8  169.00    1.70
   2   4   8  172.07    1.58
  -2   4  -8  166.34    1.70
  -2   4  -8  166.99    1.77
   2   4   9  126.80    1.46
  -2   4  -9  116.86    1.41
   2   4   9  127.42    1.27
  -2   4  -9  116.58    1.40
   2   4   9  117.15    1.44
  -2   4  -9  120.41    1.52
  -2   4  -9  117.66    1.50
   2   4  10    7.23    0.57
  -2   4 -10    7.25    0.52
   2   4  10    6.79    0.52
  -2   4 -10    7.73    0.55
   2   4  10    6.58    0.45
  -2   4 -10    7.56    0.59
   2   4  11    1.31    0.41
  -2   4 -11    0.97    0.42
   2   4  11    0.90    0.38
  -2   4 -11    0.75    0.38
   2   4  11    0.99    0.32
   2   4  12    0.81    0.34
  -2   4 -12    0.57    0.34
  -2   4 -12    0.48    0.32
   2   4  12    0.89    0.34
   2   4  13    1.83    0.27
  -2   4 -13    1.89    0.28
   2   4  14    2.98    0.24
  -2   5  13    1.62    0.28
   2   5 -12    1.58    0.32
  -2   5  12    2.17    0.37
  -2   5  12    2.30    0.32
   2   5 -12    1.82    0.32
  -2   5  12    2.06    0.31
   2   5 -11    1.20    0.38
  -2   5  11    1.26    0.37
   2   5 -11    0.79    0.37
  -2   5  11    1.51    0.36
   2   5 -10    0.36    0.39
   2   5 -10    0.07    0.34
  -2   5  10    0.15    0.40
  -2   5  10    0.33    0.37
   2   5  -9   17.00    0.71
  -2   5   9   20.74    0.76
  -2   5   9   20.49    0.68
   2   5  -9   17.35    0.65
  -2   5   9   22.31    0.63
   2   5  -9   13.18    0.58
  -2   5   8   11.23    0.61
  -2   5   8   11.55    0.57
   2   5  -8    9.41    0.57
   2   5  -8   11.31    0.64
  -2   5   8   10.32    0.65
   2   5  -8   11.45    0.60
   2   5  -7   16.86    0.74
   2   5  -7   17.39    0.70
   2   5  -7   16.75    0.72
  -2   5   7   18.62    0.78
   2   5  -6   40.09    1.04
   2   5  -6   40.83    1.01
  -2   5   6   39.18    0.86
   2   5  -6   42.09    0.95
   2   5  -6   39.52    0.90
  -2   5   6   37.04    1.01
  -2   5   5  158.94    1.64
   2   5  -5  146.56    1.61
   2   5  -5  150.92    1.74
   2   5  -5  143.53    1.77
  -2   5   5  159.57    1.77
   2   5  -5  153.17    1.55
  -2   5   5  158.19    1.45
  -2   5   4    4.36    0.55
   2   5  -4    5.65    0.55
  -2   5   4    4.34    0.60
   2   5  -4    5.23    0.59
  -2   5   4    4.42    0.53
   2   5  -4    5.24    0.55
  -2   5   3    8.88    0.59
   2   5  -3   10.12    0.58
   2   5  -3   10.55    0.63
  -2   5   3    9.11    0.58
  -2   5   3    9.19    0.64
  -2   5   2  195.00    1.82
  -2   5   2  192.14    1.64
  -2   5   1  247.01    1.82
   2   5  -1  252.18    2.02
  -2   5   1  253.36    1.65
   2   5  -1  254.94    1.90
  -2   5   1  250.57    2.00
  -2   5   0  128.99    1.33
   2   5   0  133.89    1.43
   2   5   0  138.59    1.48
  -2   5   0  128.08    1.46
   2   5   0  134.17    1.34
   2   5   1  101.44    1.21
   2   5   1   99.67    1.25
  -2   5  -1  103.67    1.31
  -2   5  -2    3.32    0.54
   2   5   2    3.84    0.49
   2   5   2    3.71    0.45
  -2   5  -2    3.94    0.52
   2   5   2    4.16    0.48
   2   5   2    3.09    0.49
   2   5   3   20.33    0.68
   2   5   3   21.01    0.70
   2   5   3   20.31    0.63
  -2   5  -3   21.50    0.78
  -2   5  -3   22.04    0.70
  -2   5  -3   21.98    0.77
   2   5   3   19.67    0.66
   2   5   3   22.07    0.69
   2   5   4   33.37    0.82
  -2   5  -4   42.43    0.83
   2   5   4   34.49    0.92
  -2   5  -4   42.58    0.96
  -2   5  -4   40.62    0.97
   2   5   4   33.72    0.80
   2   5   4   33.29    0.81
   2   5   4   34.75    0.73
  -2   5  -5   33.63    0.92
  -2   5  -5   35.82    0.78
   2   5   5   36.53    0.86
  -2   5  -5   34.45    0.88
   2   5   5   38.40    0.75
   2   5   5   37.76    0.85
  -2   5  -5   33.06    0.82
   2   5   6    0.42    0.47
   2   5   6    0.32    0.36
   2   5   6    0.66    0.36
  -2   5  -6    0.52    0.43
  -2   5  -6    0.85    0.51
  -2   5  -6    0.73    0.44
   2   5   7   22.07    0.74
   2   5   7   20.75    0.65
   2   5   7   24.04    0.73
   2   5   7   23.61    0.62
  -2   5  -7   19.40    0.73
  -2   5  -7   19.07    0.69
   2   5   8   11.19    0.60
  -2   5  -8    8.16    0.59
   2   5   8    9.91    0.50
   2   5   8   12.15    0.53
   2   5   8   11.93    0.56
  -2   5  -8    8.15    0.52
   2   5   9    1.78    0.41
  -2   5  -9    2.19    0.43
   2   5  10    7.61    0.47
   2   5  10    7.36    0.41
   2   5  10    7.16    0.46
  -2   5 -10    7.70    0.48
  -2   5 -10    7.82    0.49
  -2   5 -11    4.13    0.36
   2   5  11    5.73    0.39
   2   5  11    6.19    0.40
   2   5  11    4.86    0.31
  -2   5 -11    4.00    0.37
   2   5  12    1.10    0.26
   2   5  12    1.05    0.25
  -2   5 -12    0.64    0.25
  -2   6  11    4.36    0.28
  -2   6  11    4.39    0.30
  -2   6  11    4.56    0.29
  -2   6  10    0.53    0.30
  -2   6  10    0.40    0.30
  -2   6  10    0.17    0.32
   2   6 -10    0.32    0.30
   2   6  -9    4.61    0.40
  -2   6   9    5.11    0.42
  -2   6   9    5.28    0.43
  -2   6   8    0.53    0.40
   2   6  -8    0.86    0.37
  -2   6   7    0.33    0.42
   2   6  -7    0.15    0.36
  -2   6   7    0.58    0.38
  -2   6   7    0.37    0.43
  -2   6   6    9.01    0.56
  -2   6   6    8.73    0.51
   2   6  -6    9.28    0.51
  -2   6   6    8.31    0.57
   2   6  -6    8.79    0.45
  -2   6   5   52.93    1.01
  -2   6   5   54.13    0.97
   2   6  -5   53.70    0.88
   2   6  -5   53.56    0.88
  -2   6   5   53.73    0.89
   2   6  -4   94.92    1.16
  -2   6   4   94.52    1.21
   2   6  -4   91.69    1.08
  -2   6   4   94.23    1.09
  -2   6   4   94.27    1.29
  -2   6   3  108.31    1.27
  -2   6   3  107.94    1.14
  -2   6   2   26.48    0.73
   2   6  -2   25.14    0.70
  -2   6   2   26.50    0.64
   2   6  -1  102.12    1.23
  -2   6   1  102.02    1.18
  -2   6   0   48.13    0.85
  -2   6   0   49.75    0.93
   2   6   0   40.21    0.79
   2   6   0   37.31    0.72
   2   6   0   40.92    0.82
  -2   6  -1  103.42    1.21
   2   6   1  104.46    1.14
   2   6   2   62.64    0.90
   2   6   2   60.59    0.93
   2   6   3   42.11    0.82
   2   6   3   42.42    0.76
   2   6   4   13.89    0.55
   2   6   4   14.59    0.59
  -2   6  -4   13.16    0.58
   2   6   4   15.29    0.53
   2   6   5   34.32    0.74
  -2   6  -5   34.33    0.77
   2   6   6   12.85    0.56
   2   6   6   13.80    0.57
  -2   6  -6   12.25    0.56
   2   6   6   13.88    0.49
   2   6   7    2.63    0.41
  -2   6  -7    2.40    0.44
   2   6   7    2.50    0.36
   2   6   8   11.29    0.48
   2   6   8   10.73    0.46
   2   6   9    1.19    0.31
  -2   6  -9    1.20    0.31
   2   6   9    1.48    0.30
   2   6  10    2.99    0.25
  -2   7   8    0.19    0.24
  -2   7   8   -0.04    0.21
  -2   7   8   -0.07    0.24
  -2   7   7    5.38    0.34
  -2   7   7    5.89    0.34
  -2   7   7    5.02    0.32
  -2   7   6    1.77    0.34
  -2   7   6    1.74    0.34
  -2   7   6    1.89    0.33
  -2   7   5    3.50    0.38
  -2   7   5    3.93    0.37
  -2   7   5    3.73    0.38
  -2   7   4    1.11    0.35
  -2   7   4    0.83    0.37
  -2   7   4    0.89    0.34
  -2   7   3    5.83    0.42
  -2   7   3    5.26    0.37
  -2   7   3    5.95    0.42
  -2   7   2    6.01    0.41
  -2   7   2    7.20    0.42
   2   7   0   13.16    0.39
   2   7   1   11.67    0.37
   2   7   2    7.83    0.37
   2   7   2    9.16    0.35
   2   7   3   19.82    0.42
   2   7   3   16.90    0.46
   2   7   4   14.71    0.38
   2   7   4   12.19    0.42
   2   7   5   30.72    0.50
   2   7   5   32.16    0.54
   2   7   6    7.38    0.33
   2   7   6    7.11    0.31
   2   7   7    1.78    0.23
   2   7   7    1.85    0.25
  -3  -6  -9    0.95    0.17
   3  -5 -12    0.70    0.21
   3  -5 -12    0.63    0.21
   3  -5 -11    0.38    0.25
   3  -5 -11    0.62    0.25
  -3  -5   3   47.17    0.90
  -3  -5   3   51.53    1.00
  -3  -5   2  107.35    1.40
  -3  -5   1  183.84    1.72
  -3  -5   0   70.21    1.03
  -3  -5   0   72.25    1.13
  -3  -5  -1   28.71    0.74
  -3  -5  -1   28.75    0.68
  -3  -5  -2   28.16    0.71
  -3  -5 -11    0.36    0.20
  -3  -5 -11    0.38    0.21
   3  -4 -14    5.49    0.28
   3  -4 -14    4.87    0.25
   3  -4 -14    5.26    0.27
   3  -4 -13    5.53    0.36
   3  -4 -13    5.52    0.34
   3  -4 -12    6.40    0.41
   3  -4  -7   58.60    0.94
  -3  -4   7   47.61    1.04
  -3  -4   6   85.32    1.27
   3  -4  -6   87.90    1.06
  -3  -4   5    2.92    0.38
  -3  -4   5    3.08    0.38
   3  -4  -5    3.80    0.35
  -3  -4   4  254.73    1.82
  -3  -4   4  260.00    1.83
  -3  -4   3   70.68    0.95
  -3  -4   3   71.17    1.02
  -3  -4   3   71.09    0.97
   3  -4  -3   69.88    0.83
  -3  -4   2   37.11    0.69
  -3  -4   2   37.65    0.74
  -3  -4   1  299.61    1.94
  -3  -4   1  297.29    1.76
  -3  -4   0   53.29    0.77
  -3  -4   0   51.51    0.82
  -3  -4  -1  202.16    1.59
  -3  -4  -1  198.78    1.48
  -3  -4  -2    1.05    0.31
  -3  -4  -2    1.24    0.28
  -3  -4  -3   68.13    0.95
  -3  -4  -3   67.20    0.86
  -3  -4  -4   13.06    0.49
  -3  -4  -4   13.77    0.48
  -3  -4  -5   22.18    0.63
  -3  -4  -5   23.10    0.63
  -3  -4  -6   20.14    0.66
  -3  -4  -6   20.21    0.62
  -3  -4  -8    3.82    0.41
  -3  -4  -9   18.45    0.53
  -3  -4 -10    0.13    0.30
  -3  -4 -10    0.20    0.29
  -3  -4 -12    0.51    0.24
  -3  -4 -13    1.63    0.21
  -3  -4 -13    2.21    0.21
   3  -3 -15    1.19    0.22
   3  -3 -15    0.82    0.19
   3  -3 -15    0.97    0.23
   3  -3 -15    1.26    0.24
   3  -3 -14    5.92    0.33
   3  -3 -14    6.18    0.39
   3  -3 -14    6.68    0.37
   3  -3 -13   10.70    0.44
   3  -3 -13   11.14    0.50
   3  -3 -13   10.90    0.45
   3  -3 -13   10.98    0.49
   3  -3 -12    2.66    0.41
   3  -3 -12    2.00    0.36
   3  -3 -12    2.21    0.37
   3  -3 -11   33.15    0.75
   3  -3 -11   31.42    0.76
   3  -3 -11   34.27    0.85
   3  -3 -10   53.69    0.93
   3  -3 -10   57.05    1.08
   3  -3  -9  530.03    2.54
   3  -3  -9  525.37    2.57
  -3  -3   8  229.09    1.84
   3  -3  -8  215.32    1.59
   3  -3  -8  210.46    1.53
  -3  -3   8  231.70    2.06
   3  -3  -7   69.13    0.85
  -3  -3   7   71.09    1.00
  -3  -3   7   67.86    1.08
   3  -3  -6  170.40    1.29
   3  -3  -6  172.66    1.20
  -3  -3   6  199.55    1.50
  -3  -3   6  203.46    1.77
   3  -3  -5  105.92    0.88
   3  -3  -5  104.96    0.97
  -3  -3   4  270.76    1.67
  -3  -3   4  272.20    1.45
   3  -3  -4  268.49    1.47
  -3  -3   3  107.35    1.09
   3  -3  -3  109.43    0.90
   3  -3  -2   19.46    0.39
  -3  -3   2   19.57    0.49
  -3  -3   2   19.89    0.47
  -3  -3   2   20.21    0.47
  -3  -3   1  177.02    1.31
  -3  -3   1  179.30    1.22
  -3  -3   1  180.33    1.29
  -3  -3   0   63.19    0.73
  -3  -3   0   63.44    0.81
  -3  -3   0   57.39    0.71
   3  -3   0   56.37    0.51
  -3  -3  -1  195.38    1.17
  -3  -3  -1  193.20    1.32
  -3  -3  -2  308.62    1.41
  -3  -3  -2  308.18    1.62
  -3  -3  -3  272.06    1.45
  -3  -3  -3  275.53    1.56
  -3  -3  -4  393.85    1.90
  -3  -3  -4  363.40    1.70
  -3  -3  -5    2.12    0.24
  -3  -3  -6   68.42    0.93
  -3  -3  -6   73.45    0.90
  -3  -3  -7   46.84    0.81
  -3  -3  -7   49.39    0.80
  -3  -3  -7   47.58    0.85
  -3  -3  -8   79.64    1.08
  -3  -3  -8   75.08    1.11
  -3  -3  -9   90.21    1.15
  -3  -3 -10    9.18    0.49
  -3  -3 -11    3.17    0.37
  -3  -3 -12    4.19    0.34
  -3  -3 -12    4.35    0.37
  -3  -3 -12    3.82    0.37
  -3  -3 -13    0.40    0.28
  -3  -3 -13    0.64    0.28
  -3  -3 -13    0.58    0.25
  -3  -3 -13    0.59    0.27
  -3  -3 -14    6.04    0.26
  -3  -3 -14    6.45    0.28
   3  -2 -16    1.41    0.22
   3  -2 -16    1.41    0.23
   3  -2 -16    1.24    0.21
   3  -2 -16    1.31    0.22
   3  -2 -16    1.30    0.23
   3  -2 -15    2.06    0.30
   3  -2 -15    2.29    0.32
   3  -2 -15    2.22    0.31
   3  -2 -15    2.16    0.31
   3  -2 -14    3.38    0.37
   3  -2 -14    3.18    0.40
   3  -2 -14    3.76    0.39
   3  -2 -14    3.85    0.40
   3  -2 -13    2.40    0.39
   3  -2 -13    2.01    0.41
   3  -2 -13    2.10    0.39
   3  -2 -13    2.01    0.41
   3  -2 -12   11.50    0.58
   3  -2 -12   11.35    0.61
   3  -2 -12   11.31    0.58
   3  -2 -12   11.17    0.58
   3  -2 -11   26.17    0.78
   3  -2 -11   24.67    0.77
   3  -2 -10    6.47    0.54
  -3  -2  10    7.40    0.54
   3  -2 -10    6.01    0.47
   3  -2 -10    6.65    0.54
  -3  -2  10    5.55    0.42
   3  -2 -10    6.18    0.42
   3  -2  -9   69.52    1.04
   3  -2  -9   69.06    1.08
  -3  -2   9   67.18    1.09
   3  -2  -9   67.90    0.96
   3  -2  -9   66.94    0.90
   3  -2  -8   65.31    0.84
  -3  -2   8   62.88    0.96
   3  -2  -8   73.44    0.99
   3  -2  -8   70.39    1.01
  -3  -2   8   60.78    0.90
   3  -2  -8   67.53    0.82
   3  -2  -7  492.84    2.03
   3  -2  -7  510.27    2.10
   3  -2  -6  381.73    1.68
  -3  -2   6  401.87    2.05
  -3  -2   5  212.42    1.40
   3  -2  -5  209.14    1.24
   3  -2  -4 1145.59    2.40
  -3  -2   4 1120.84    2.88
  -3  -2   3  773.89    2.17
   3  -2  -3  708.47    1.68
  -3  -2   3  795.00    2.60
   3  -2  -3  720.76    2.01
   3  -2  -2  779.56    1.56
  -3  -2   2  761.34    2.30
  -3  -2   2  719.38    1.90
  -3  -2   2  698.17    2.26
   3  -2  -2  737.40    1.89
  -3  -2   1   94.99    0.66
  -3  -2   1   91.65    0.77
   3  -2  -1   93.95    0.46
  -3  -2   1   90.72    0.82
  -3  -2   0  600.11    2.12
   3  -2   0  612.58    1.45
  -3  -2  -1 1945.77    3.74
  -3  -2  -1 1817.57    3.50
  -3  -2  -1 1817.37    3.22
   3  -2   1 1910.92    2.38
   3  -2   2 1319.84    1.90
  -3  -2  -2 1390.03    3.17
  -3  -2  -2 1416.11    2.87
  -3  -2  -2 1253.45    2.87
  -3  -2  -2 1334.71    3.02
  -3  -2  -3  467.11    1.82
  -3  -2  -3  467.02    1.79
  -3  -2  -4   54.80    0.67
  -3  -2  -4   53.77    0.64
  -3  -2  -4   55.00    0.55
  -3  -2  -4   53.59    0.67
  -3  -2  -5   96.27    0.91
  -3  -2  -5   94.67    0.92
  -3  -2  -6  154.90    1.17
  -3  -2  -6  160.92    1.22
  -3  -2  -7   14.83    0.50
  -3  -2  -7   14.25    0.46
  -3  -2  -7   14.50    0.52
  -3  -2  -8   13.86    0.59
  -3  -2  -8   12.68    0.56
  -3  -2  -8   12.52    0.50
  -3  -2  -8   14.48    0.54
  -3  -2  -8   12.13    0.44
  -3  -2  -9   59.73    1.01
  -3  -2  -9   62.33    0.97
  -3  -2  -9   63.41    1.03
  -3  -2  -9   65.04    0.94
   3  -2   9   59.34    1.15
  -3  -2 -10   80.90    1.14
  -3  -2 -10   82.81    1.01
  -3  -2 -11   22.48    0.66
  -3  -2 -11   21.82    0.59
  -3  -2 -12   15.63    0.57
  -3  -2 -12   15.53    0.60
  -3  -2 -13    0.37    0.33
  -3  -2 -13    0.20    0.34
  -3  -2 -13    0.11    0.32
  -3  -2 -14    3.05    0.32
  -3  -2 -14    3.19    0.32
  -3  -2 -14    3.05    0.30
  -3  -2 -15    6.15    0.24
  -3  -2 -15    6.99    0.27
  -3  -2 -15    6.85    0.25
   3  -1 -16    2.65    0.30
   3  -1 -16    2.61    0.31
   3  -1 -16    2.48    0.29
   3  -1 -16    1.92    0.24
   3  -1 -16    2.86    0.32
   3  -1 -15    2.57    0.36
   3  -1 -15    2.96    0.34
   3  -1 -15    2.90    0.36
   3  -1 -15    2.76    0.37
   3  -1 -15    2.41    0.36
   3  -1 -14    0.37    0.36
   3  -1 -14   -0.08    0.37
   3  -1 -14    0.17    0.36
   3  -1 -14   -0.09    0.31
   3  -1 -14    0.66    0.30
   3  -1 -13   -0.08    0.39
   3  -1 -13    0.34    0.32
   3  -1 -13    0.16    0.35
   3  -1 -13    0.22    0.34
   3  -1 -13    0.30    0.38
   3  -1 -13    0.22    0.39
   3  -1 -12   97.75    1.37
   3  -1 -12   97.97    1.35
   3  -1 -12   96.60    1.19
   3  -1 -11  168.05    1.79
   3  -1 -11  165.07    1.61
  -3  -1  11  169.03    1.87
   3  -1 -10   10.28    0.61
   3  -1 -10   10.13    0.60
   3  -1 -10   10.49    0.54
   3  -1 -10    9.46    0.41
   3  -1  -9  353.81    2.20
  -3  -1   9  321.41    1.84
   3  -1  -9  340.15    2.23
   3  -1  -9  327.73    2.01
   3  -1  -9  339.30    1.82
   3  -1  -8   23.85    0.60
   3  -1  -8   24.48    0.57
  -3  -1   8   21.29    0.50
   3  -1  -8   22.25    0.61
  -3  -1   8   22.52    0.63
  -3  -1   8   20.65    0.52
   3  -1  -8   24.51    0.52
   3  -1  -7  187.23    1.30
  -3  -1   7  170.61    1.17
  -3  -1   7  173.34    1.26
  -3  -1   7  195.37    1.53
   3  -1  -7  181.59    1.17
   3  -1  -6  917.33    2.56
  -3  -1   6  848.63    2.40
  -3  -1   6  874.67    2.68
  -3  -1   6  925.70    3.09
   3  -1  -6  920.78    2.53
  -3  -1   5 1255.58    3.38
  -3  -1   5 1250.98    2.76
  -3  -1   5 1248.09    3.24
  -3  -1   4  688.11    2.13
   3  -1  -4  658.10    1.83
  -3  -1   4  668.49    2.17
  -3  -1   4  690.42    2.34
  -3  -1   4  679.41    1.79
   3  -1  -3  106.68    0.68
  -3  -1   3   99.18    0.64
  -3  -1   3   87.70    0.74
  -3  -1   3   94.07    0.76
  -3  -1   3  102.04    0.89
   3  -1  -3   86.98    0.65
  -3  -1   2  105.59    0.75
  -3  -1   2  110.36    0.61
   3  -1  -2  129.36    0.67
  -3  -1   2  104.90    0.74
   3  -1  -2  128.91    0.76
   3  -1  -1  683.47    1.60
  -3  -1   1  689.72    1.86
  -3  -1   0   30.12    0.40
  -3  -1   0   31.28    0.43
   3  -1   1 2289.53    2.85
  -3  -1  -1 2235.35    3.40
  -3  -1  -1 2214.90    3.77
  -3  -1  -1 2306.72    3.49
  -3  -1  -2 2185.91    3.37
  -3  -1  -2 2165.14    3.79
  -3  -1  -3 2760.12    4.37
  -3  -1  -3 2770.14    3.81
  -3  -1  -4  303.21    1.48
  -3  -1  -4  304.20    1.28
  -3  -1  -5  349.41    1.46
  -3  -1  -5  346.33    1.72
  -3  -1  -6   22.41    0.48
  -3  -1  -6   21.61    0.47
  -3  -1  -7    8.48    0.41
   3  -1   7    5.83    0.33
  -3  -1  -7    7.37    0.29
  -3  -1  -7    7.55    0.37
  -3  -1  -7    7.85    0.43
  -3  -1  -7   10.34    0.47
  -3  -1  -7    8.37    0.39
  -3  -1  -8  113.09    1.21
   3  -1   8  110.00    1.09
  -3  -1  -8  106.63    1.16
  -3  -1  -8  109.99    1.26
  -3  -1  -8  103.56    1.05
  -3  -1  -8  114.30    1.16
   3  -1   8  113.92    1.17
  -3  -1  -9   63.54    1.02
  -3  -1  -9   61.69    1.07
  -3  -1  -9   62.04    0.98
  -3  -1 -10   70.02    1.08
  -3  -1 -10   67.56    1.16
  -3  -1 -10   70.47    1.04
  -3  -1 -11   61.04    0.99
  -3  -1 -11   63.15    1.10
  -3  -1 -12    2.12    0.43
  -3  -1 -12    2.03    0.45
  -3  -1 -12    1.66    0.41
  -3  -1 -12    2.14    0.40
  -3  -1 -12    2.10    0.39
  -3  -1 -13   17.59    0.56
  -3  -1 -13   17.08    0.54
  -3  -1 -13   17.22    0.60
  -3  -1 -13   17.74    0.63
  -3  -1 -13   16.40    0.50
  -3  -1 -13   16.20    0.51
  -3  -1 -14   11.51    0.46
  -3  -1 -14   11.19    0.47
  -3  -1 -14   10.72    0.45
  -3  -1 -14   10.24    0.41
  -3  -1 -15    1.12    0.20
  -3  -1 -15    1.28    0.25
  -3  -1 -15    1.20    0.26
  -3  -1 -15    1.05    0.25
   3   0 -17    0.02    0.17
   3   0 -17   -0.08    0.17
   3   0 -16    3.45    0.33
   3   0 -16    3.26    0.29
   3   0 -16    3.88    0.33
   3   0 -16    3.41    0.32
   3   0 -16    3.43    0.34
   3   0 -16    3.12    0.26
   3   0 -15    0.00    0.29
   3   0 -15    0.17    0.33
   3   0 -15    0.00    0.27
   3   0 -15   -0.07    0.33
   3   0 -15    0.21    0.30
   3   0 -15    0.27    0.35
   3   0 -15    0.00    0.31
   3   0 -14    5.25    0.45
   3   0 -14    5.15    0.44
   3   0 -14    5.20    0.42
   3   0 -14    4.44    0.45
   3   0 -14    5.38    0.49
   3   0 -14    5.09    0.46
   3   0 -14    4.89    0.40
   3   0 -13   16.02    0.60
   3   0 -13   15.66    0.63
   3   0 -13   17.25    0.68
   3   0 -13   15.48    0.65
   3   0 -13   15.64    0.61
   3   0 -12  211.19    1.92
   3   0 -12  207.08    1.92
   3   0 -12  209.28    2.05
   3   0 -11  485.45    2.95
  -3   0  11  471.30    3.03
   3   0 -11  476.09    2.89
  -3   0  11  482.81    2.96
   3   0 -11  489.40    2.84
  -3   0  10   22.08    0.67
   3   0 -10   22.22    0.73
   3   0 -10   21.00    0.73
  -3   0  10   22.66    0.72
   3   0 -10   23.03    0.73
   3   0 -10   23.05    0.71
   3   0  -9    3.04    0.42
  -3   0   9    2.32    0.32
   3   0  -9    2.29    0.39
  -3   0   9    2.73    0.36
   3   0  -9    2.71    0.39
   3   0  -9    1.67    0.27
  -3   0   8   87.60    1.02
   3   0  -8   85.69    0.90
  -3   0   7   51.55    0.61
  -3   0   7   50.95    0.73
   3   0  -7   51.30    0.65
   3   0  -6  747.57    2.49
  -3   0   6  748.55    2.16
  -3   0   6  755.20    2.55
   3   0  -5 1502.74    3.35
  -3   0   5 1510.85    2.97
  -3   0   5 1590.18    3.43
  -3   0   5 1575.79    3.41
   3   0  -5 1566.23    3.13
  -3   0   4   26.61    0.41
   3   0  -4   25.30    0.44
   3   0  -4   26.55    0.41
  -3   0   4   25.55    0.46
  -3   0   3   37.49    0.48
  -3   0   3   35.42    0.38
   3   0  -3   35.20    0.45
  -3   0   3   37.56    0.45
  -3   0   3   34.12    0.48
  -3   0   3   37.91    0.49
  -3   0   2  374.02    1.20
  -3   0   2  343.45    1.24
   3   0  -2  353.23    1.24
  -3   0   2  388.47    1.45
  -3   0   2  349.16    1.33
  -3   0   2  371.11    1.52
   3   0  -2  350.41    1.28
  -3   0   1  404.38    1.38
  -3   0   1  407.64    1.34
  -3   0   1  406.58    1.20
  -3   0   0   27.76    0.30
  -3   0   0   24.23    0.38
  -3   0   0   23.41    0.31
   3   0   0   27.48    0.37
  -3   0  -1  837.36    1.94
  -3   0  -1  837.03    2.03
  -3   0  -2   17.47    0.27
  -3   0  -2   15.71    0.32
  -3   0  -2   14.24    0.27
  -3   0  -2   18.84    0.36
  -3   0  -3 1269.13    2.25
  -3   0  -3 1262.51    2.67
  -3   0  -4   33.50    0.35
  -3   0  -4   32.35    0.43
   3   0   5    7.61    0.32
  -3   0  -5    7.62    0.20
  -3   0  -6  228.92    1.26
  -3   0  -6  226.85    1.40
  -3   0  -7    0.69    0.33
  -3   0  -7    0.21    0.31
  -3   0  -7    0.43    0.28
   3   0   7    0.47    0.24
  -3   0  -7    0.25    0.23
  -3   0  -7    0.43    0.31
  -3   0  -8  226.32    1.71
   3   0   8  222.24    1.58
   3   0   8  220.86    1.63
  -3   0  -8  216.95    1.58
  -3   0  -8  202.75    1.41
   3   0   8  236.74    1.72
  -3   0  -8  209.08    1.59
  -3   0  -9   52.22    0.97
   3   0   9   53.24    0.88
   3   0   9   49.59    0.96
   3   0   9   49.89    0.87
  -3   0  -9   52.53    0.92
   3   0   9   51.22    0.89
  -3   0  -9   47.50    0.82
  -3   0  -9   48.91    0.82
  -3   0  -9   45.36    0.85
  -3   0 -10   46.14    0.86
  -3   0 -10   52.38    1.03
   3   0  10   51.27    0.94
  -3   0 -10   45.59    0.87
   3   0  10   51.38    1.09
  -3   0 -10   47.41    0.91
  -3   0 -10   51.38    0.99
   3   0  11   87.94    1.15
  -3   0 -11   84.86    1.27
  -3   0 -11   87.80    1.26
  -3   0 -11   80.44    1.15
  -3   0 -11   78.51    1.10
  -3   0 -11   89.48    1.23
  -3   0 -12    4.87    0.52
   3   0  12    5.09    0.44
  -3   0 -12    4.96    0.54
  -3   0 -12    5.05    0.53
  -3   0 -12    5.08    0.53
  -3   0 -12    4.50    0.46
  -3   0 -12    5.22    0.52
  -3   0 -12    5.30    0.44
  -3   0 -13   34.26    0.76
  -3   0 -13   31.54    0.74
  -3   0 -13   29.67    0.71
   3   0  13   32.89    0.64
  -3   0 -13   28.74    0.59
  -3   0 -13   28.81    0.69
  -3   0 -13   30.55    0.68
  -3   0 -14   30.20    0.65
  -3   0 -14   27.01    0.60
  -3   0 -14   31.60    0.66
  -3   0 -14   27.96    0.63
  -3   0 -14   27.70    0.57
  -3   0 -15   12.06    0.38
  -3   0 -15   13.03    0.40
  -3   0 -15   13.19    0.41
   3   1 -16    3.25    0.31
   3   1 -16    2.53    0.29
   3   1 -16    2.78    0.31
   3   1 -16    3.07    0.31
   3   1 -16    2.04    0.24
   3   1 -16    2.68    0.26
   3   1 -15    2.42    0.34
   3   1 -15    2.39    0.37
   3   1 -15    2.19    0.34
   3   1 -15    2.47    0.37
   3   1 -15    2.21    0.37
   3   1 -15    2.10    0.36
   3   1 -14    0.32    0.36
   3   1 -14    0.15    0.37
   3   1 -14    0.03    0.35
   3   1 -14    0.18    0.38
   3   1 -14    0.30    0.36
   3   1 -14    0.19    0.38
   3   1 -13    0.08    0.40
   3   1 -13    0.21    0.39
   3   1 -13    0.37    0.41
   3   1 -13    0.29    0.39
   3   1 -13    0.35    0.42
   3   1 -13    0.29    0.39
   3   1 -12   96.30    1.30
   3   1 -12   94.95    1.38
   3   1 -12   94.36    1.39
   3   1 -12   94.27    1.37
   3   1 -12   99.84    1.45
   3   1 -12   88.08    1.34
   3   1 -12   91.93    1.37
   3   1 -11  183.14    1.84
   3   1 -11  174.41    1.87
   3   1 -11  168.68    1.87
   3   1 -11  166.56    1.80
  -3   1  11  181.77    2.01
   3   1 -11  181.62    1.96
   3   1 -11  162.27    1.78
  -3   1  11  174.84    1.88
   3   1 -11  162.61    1.75
   3   1 -11  180.34    1.89
   3   1 -10    9.16    0.59
   3   1 -10   11.29    0.60
   3   1 -10   10.94    0.60
  -3   1  10   12.63    0.58
   3   1 -10   10.99    0.62
   3   1 -10   10.12    0.57
  -3   1  10   10.92    0.57
   3   1 -10   10.57    0.61
   3   1 -10   10.96    0.64
   3   1 -10   10.49    0.60
   3   1  -9  329.10    2.26
   3   1  -9  344.96    2.32
   3   1  -9  358.59    2.31
   3   1  -9  342.09    2.31
   3   1  -9  339.52    2.44
  -3   1   9  359.96    2.40
   3   1  -9  357.65    2.43
   3   1  -9  334.15    2.30
  -3   1   9  357.34    2.31
   3   1  -9  324.43    1.84
   3   1  -9  343.96    2.26
   3   1  -8   21.66    0.65
  -3   1   8   25.52    0.66
   3   1  -8   22.66    0.54
   3   1  -8   21.31    0.63
   3   1  -8   23.18    0.68
   3   1  -8   21.06    0.64
  -3   1   8   24.98    0.63
   3   1  -8   22.33    0.65
   3   1  -7  187.37    1.31
  -3   1   7  185.24    1.52
  -3   1   7  183.36    1.46
  -3   1   7  189.14    1.29
  -3   1   6  922.61    2.00
  -3   1   6  922.55    3.15
  -3   1   6  921.91    2.54
   3   1  -6  928.31    2.76
   3   1  -5 1255.52    3.09
  -3   1   5 1127.81    3.07
  -3   1   5 1206.50    2.28
  -3   1   5 1263.14    3.53
  -3   1   5 1177.58    2.59
  -3   1   4  635.60    1.75
  -3   1   4  638.36    2.25
  -3   1   4  655.24    2.30
  -3   1   4  652.90    1.66
  -3   1   3   87.15    0.82
   3   1  -3   90.21    0.77
  -3   1   3   89.00    0.63
  -3   1   3   88.11    0.32
  -3   1   3   86.44    0.62
  -3   1   3   87.25    0.81
  -3   1   2  114.44    0.93
  -3   1   2  113.36    0.67
  -3   1   1  667.52    2.10
  -3   1   1  676.90    1.66
  -3   1   0   16.68    0.27
  -3   1   0   16.66    0.31
   3   1   1 2269.89    3.41
  -3   1  -1 2246.75    3.04
  -3   1  -1 2283.11    2.01
  -3   1  -1 2187.66    3.49
  -3   1  -1 2215.32    3.35
   3   1   2 2238.58    3.70
  -3   1  -2 2253.79    2.48
  -3   1  -3 2724.41    4.31
  -3   1  -3 2724.01    4.06
  -3   1  -3 2556.88    3.07
  -3   1  -3 2572.09    4.25
  -3   1  -4  310.92    1.52
  -3   1  -4  297.64    1.16
   3   1   5  352.78    1.79
  -3   1  -5  344.86    1.43
   3   1   6   23.83    0.54
  -3   1  -6   23.82    0.48
  -3   1  -7    5.84    0.43
   3   1   7    7.87    0.40
  -3   1  -7    6.43    0.43
  -3   1  -7    6.81    0.45
  -3   1  -7    9.22    0.39
   3   1   7    8.26    0.44
  -3   1  -7    6.38    0.38
   3   1   7    8.17    0.40
   3   1   8  108.60    1.20
  -3   1  -8  119.82    1.29
  -3   1  -8  104.77    1.09
   3   1   8  114.55    1.30
  -3   1  -8  107.88    1.30
   3   1   8  119.45    1.28
  -3   1  -8  113.38    1.17
   3   1   8  111.05    1.24
  -3   1  -8  108.92    1.17
   3   1   9   63.73    1.01
  -3   1  -9   65.89    1.10
  -3   1  -9   70.78    1.07
   3   1   9   59.22    1.00
  -3   1  -9   66.92    1.00
   3   1   9   61.73    1.05
   3   1   9   64.64    1.12
  -3   1  -9   63.07    0.96
  -3   1  -9   67.75    1.02
  -3   1  -9   69.77    1.08
  -3   1 -10   63.96    1.12
  -3   1 -10   66.52    1.05
   3   1  10   69.66    1.12
  -3   1 -10   65.89    1.06
  -3   1 -10   70.13    1.12
  -3   1 -10   65.81    1.13
  -3   1 -11   55.13    1.06
  -3   1 -11   52.93    1.04
  -3   1 -11   53.84    0.97
  -3   1 -11   50.92    0.93
  -3   1 -11   54.81    1.03
  -3   1 -12    3.82    0.50
  -3   1 -12    4.16    0.45
  -3   1 -12    4.22    0.50
  -3   1 -12    4.62    0.45
  -3   1 -12    4.09    0.48
   3   1  12    2.24    0.41
  -3   1 -12    4.05    0.47
  -3   1 -13   21.74    0.60
  -3   1 -13   20.95    0.65
  -3   1 -13   21.57    0.65
  -3   1 -13   19.92    0.60
  -3   1 -13   19.92    0.63
  -3   1 -14   10.78    0.48
  -3   1 -14   11.19    0.45
  -3   1 -14   12.01    0.48
  -3   1 -14   11.03    0.42
   3   1  14   10.75    0.41
  -3   1 -14   10.79    0.43
  -3   1 -15    1.73    0.27
  -3   1 -15    1.51    0.23
  -3   1 -15    1.61    0.24
   3   2 -16    1.44    0.25
   3   2 -15    2.68    0.34
   3   2 -15    2.32    0.29
   3   2 -15    2.31    0.34
   3   2 -15    2.68    0.32
   3   2 -14    4.16    0.42
   3   2 -14    3.98    0.42
   3   2 -14    3.70    0.38
   3   2 -14    3.74    0.44
   3   2 -13    1.79    0.45
   3   2 -13    1.78    0.41
   3   2 -13    2.38    0.43
   3   2 -13    1.88    0.39
   3   2 -12   12.08    0.63
   3   2 -12   12.68    0.64
   3   2 -12   12.88    0.69
   3   2 -12   13.69    0.61
   3   2 -12   13.49    0.65
   3   2 -12   12.13    0.51
   3   2 -11   25.55    0.85
   3   2 -11   24.25    0.69
   3   2 -11   26.12    0.84
   3   2 -11   23.37    0.82
   3   2 -11   24.49    0.83
   3   2 -11   25.49    0.88
   3   2 -10    6.92    0.60
   3   2 -10    7.11    0.53
  -3   2  10    6.98    0.60
   3   2 -10    7.01    0.59
   3   2 -10    6.74    0.58
   3   2 -10    7.23    0.62
   3   2 -10    6.81    0.54
   3   2 -10    7.01    0.64
   3   2  -9   67.01    1.15
  -3   2   9   74.87    1.30
   3   2  -9   66.95    1.14
   3   2  -9   66.86    0.98
   3   2  -9   67.05    1.16
  -3   2   9   74.58    1.14
  -3   2   9   70.42    0.91
   3   2  -9   67.64    1.19
   3   2  -9   68.20    1.07
   3   2  -8   64.10    1.08
   3   2  -8   66.22    1.08
  -3   2   8   67.26    0.82
   3   2  -8   63.95    0.91
   3   2  -8   66.49    1.09
   3   2  -8   66.38    1.11
   3   2  -8   67.60    1.01
   3   2  -7  503.88    2.21
   3   2  -7  513.66    2.75
   3   2  -7  511.70    2.69
   3   2  -7  513.16    2.66
  -3   2   6  384.99    2.04
  -3   2   5  216.06    1.43
  -3   2   4 1095.79    3.35
  -3   2   4 1070.43    2.96
  -3   2   3  712.88    2.62
  -3   2   3  720.80    1.78
   3   2  -2  765.52    1.68
  -3   2   2  761.82    1.94
  -3   2   1   96.40    0.75
  -3   2   1   96.43    0.95
  -3   2   1   95.32    0.57
  -3   2   0  602.29    1.91
  -3   2   0  623.14    2.23
   3   2   1 1863.47    3.44
   3   2   2 1336.03    3.11
   3   2   3  478.61    2.00
   3   2   3  456.59    1.60
   3   2   4   56.90    0.77
   3   2   4   55.96    0.66
   3   2   5  100.85    0.96
   3   2   6  169.31    1.46
   3   2   6  158.62    1.43
   3   2   6  171.00    1.23
   3   2   6  160.12    1.39
   3   2   6  173.97    1.39
  -3   2  -6  147.78    1.27
  -3   2  -6  168.38    1.50
   3   2   6  162.43    1.40
  -3   2  -6  155.52    1.40
  -3   2  -6  159.13    1.41
  -3   2  -6  160.25    1.39
   3   2   7   15.55    0.55
  -3   2  -7   11.82    0.55
   3   2   7   15.50    0.53
  -3   2  -7   12.37    0.59
  -3   2  -7   12.27    0.56
   3   2   7   16.14    0.53
   3   2   7   14.75    0.56
  -3   2  -7   10.12    0.53
  -3   2  -7   12.24    0.62
   3   2   7   15.35    0.54
   3   2   7   14.67    0.56
  -3   2  -7   11.96    0.54
  -3   2  -8   14.49    0.64
   3   2   8   13.80    0.57
  -3   2  -8   15.39    0.64
   3   2   8   12.69    0.58
  -3   2  -8   15.24    0.66
  -3   2  -8   15.34    0.60
   3   2   8   12.88    0.52
  -3   2  -8   15.05    0.64
  -3   2  -8   14.78    0.64
   3   2   8   14.10    0.61
  -3   2  -9   53.83    1.01
   3   2   9   68.88    1.17
  -3   2  -9   57.73    1.08
  -3   2  -9   57.80    1.01
  -3   2  -9   56.73    1.08
  -3   2  -9   58.17    1.03
   3   2   9   62.37    1.10
   3   2   9   65.28    1.11
  -3   2  -9   55.59    0.99
  -3   2 -10   69.28    1.12
  -3   2 -10   63.97    1.13
  -3   2 -10   69.39    1.17
  -3   2 -10   63.41    1.02
  -3   2 -10   69.85    1.10
  -3   2 -10   66.28    1.06
  -3   2 -11   21.14    0.73
  -3   2 -11   20.77    0.71
  -3   2 -11   20.61    0.66
   3   2  11   22.37    0.72
  -3   2 -11   21.04    0.72
  -3   2 -11   19.36    0.64
  -3   2 -11   22.11    0.67
   3   2  12   16.12    0.54
  -3   2 -12   15.14    0.55
  -3   2 -12   14.31    0.52
   3   2  12   16.57    0.60
  -3   2 -12   15.53    0.62
  -3   2 -13    0.09    0.30
  -3   2 -13    0.05    0.33
   3   2  13    0.18    0.32
  -3   2 -13    0.07    0.36
  -3   2 -14    2.31    0.29
   3   2  14    2.89    0.30
  -3   2 -14    2.57    0.32
  -3   2 -14    2.26    0.26
  -3   2 -15    6.39    0.26
   3   3 -15    1.17    0.28
   3   3 -15    0.02    0.26
  -3   3  14    7.43    0.41
   3   3 -14    5.68    0.43
   3   3 -13   11.98    0.50
   3   3 -13   13.01    0.49
   3   3 -13   13.17    0.62
  -3   3  13   11.80    0.55
   3   3 -13   12.81    0.51
   3   3 -13   12.53    0.61
   3   3 -12    2.34    0.41
   3   3 -12    2.50    0.46
  -3   3  12    3.01    0.49
   3   3 -12    2.16    0.40
   3   3 -12    2.33    0.40
   3   3 -12    2.23    0.47
   3   3 -11   32.31    0.85
   3   3 -11   32.76    0.94
  -3   3  11   33.99    0.94
   3   3 -11   33.09    0.81
   3   3 -11   30.20    0.84
   3   3 -11   31.48    0.93
   3   3 -10   59.32    1.16
   3   3 -10   60.34    1.21
  -3   3  10   59.01    0.91
   3   3 -10   62.42    1.05
   3   3 -10   61.04    1.16
   3   3 -10   59.65    1.23
   3   3  -9  533.68    3.23
  -3   3   9  543.35    2.66
   3   3  -9  527.47    3.19
  -3   3   9  548.49    2.47
   3   3  -9  514.81    3.14
   3   3  -9  544.69    2.79
  -3   3   9  578.91    3.66
   3   3  -9  511.71    3.26
   3   3  -8  252.24    2.15
   3   3  -8  237.04    2.19
  -3   3   8  228.13    1.77
   3   3  -8  238.05    2.11
   3   3  -8  251.67    1.87
   3   3  -8  247.88    2.17
  -3   3   8  213.32    1.57
  -3   3   8  228.98    2.18
   3   3  -7   68.42    1.13
  -3   3   7   74.50    1.04
   3   3  -7   67.65    1.12
   3   3  -7   67.25    1.14
  -3   3   7   66.52    0.88
  -3   3   7   73.22    1.19
   3   3  -6  185.18    1.67
  -3   3   6  175.28    1.69
  -3   3   6  163.52    1.41
   3   3  -6  181.98    1.70
  -3   3   6  167.89    1.63
  -3   3   6  162.41    1.25
   3   3  -6  183.90    1.46
   3   3  -6  184.45    1.72
   3   3  -5  107.84    1.08
  -3   3   5   99.25    1.07
  -3   3   5  110.85    1.29
   3   3  -5  111.15    1.32
  -3   3   5  101.16    1.20
   3   3  -5  107.48    1.24
  -3   3   4  253.61    1.81
  -3   3   3  110.33    1.20
  -3   3   2   19.41    0.52
   3   3  -1  178.58    1.04
  -3   3   1  161.76    1.30
   3   3   0   55.25    0.63
   3   3   1  187.51    1.23
   3   3   2  306.45    1.68
   3   3   3  260.67    1.66
   3   3   4  338.06    2.00
   3   3   4  357.88    1.99
  -3   3  -4  359.38    2.15
   3   3   4  345.75    1.82
  -3   3  -4  344.97    1.88
   3   3   4  357.69    2.07
   3   3   5    2.97    0.36
   3   3   5    3.39    0.39
   3   3   5    2.31    0.34
  -3   3  -5    2.60    0.44
  -3   3  -5    2.55    0.40
   3   3   5    2.57    0.37
   3   3   5    1.96    0.39
  -3   3  -5    2.36    0.42
  -3   3  -6   70.82    1.08
   3   3   6   70.21    0.99
   3   3   6   69.90    0.90
   3   3   6   68.83    1.03
   3   3   6   65.49    1.02
  -3   3  -6   71.23    1.14
   3   3   6   64.13    1.02
  -3   3  -6   68.30    1.07
  -3   3  -6   66.48    0.98
   3   3   7   45.39    0.90
  -3   3  -7   56.37    1.04
   3   3   7   49.55    0.86
  -3   3  -7   58.28    1.09
  -3   3  -7   53.78    0.95
  -3   3  -7   55.93    1.07
   3   3   7   47.46    0.81
   3   3   7   49.12    0.93
  -3   3  -7   54.33    1.02
   3   3   8   70.30    1.14
  -3   3  -8   94.04    1.33
   3   3   8   79.17    1.32
  -3   3  -8   96.72    1.37
  -3   3  -8   95.39    1.38
   3   3   8   75.56    1.09
   3   3   8   78.36    1.03
   3   3   8   73.28    1.19
  -3   3  -8   89.97    1.29
   3   3   9   86.92    1.11
  -3   3  -9   92.08    1.26
  -3   3  -9   91.00    1.29
   3   3   9   84.80    1.24
  -3   3  -9   90.37    1.34
   3   3   9   88.26    1.08
  -3   3  -9   89.86    1.27
  -3   3  -9   85.74    1.29
  -3   3 -10    8.10    0.57
  -3   3 -10    6.93    0.55
  -3   3 -10    8.21    0.58
   3   3  10    9.33    0.58
  -3   3 -10    7.39    0.58
   3   3  11    4.03    0.47
  -3   3 -11    2.56    0.46
  -3   3 -11    2.77    0.42
  -3   3 -11    2.25    0.43
  -3   3 -11    2.45    0.46
  -3   3 -12    4.18    0.41
   3   3  12    5.18    0.41
  -3   3 -12    3.99    0.37
   3   3  13    0.51    0.30
   3   3  13    0.58    0.28
  -3   3 -13    0.87    0.32
  -3   3 -14    6.75    0.32
  -3   4  14    6.44    0.33
   3   4 -14    0.44    0.23
  -3   4  13    6.07    0.44
   3   4 -13    1.15    0.35
  -3   4  12    7.33    0.51
   3   4 -12    6.36    0.44
  -3   4  12    7.34    0.42
  -3   4  11    4.04    0.42
  -3   4  11    4.18    0.51
   3   4 -11    3.69    0.39
   3   4 -11    4.55    0.47
  -3   4  11    4.25    0.43
   3   4 -11    3.99    0.51
  -3   4  10   10.66    0.57
   3   4 -10    7.02    0.51
  -3   4  10   11.00    0.68
   3   4 -10    8.23    0.56
  -3   4  10   11.43    0.55
   3   4 -10    7.46    0.61
   3   4  -9    0.62    0.51
  -3   4   9    0.47    0.48
  -3   4   9    0.26    0.55
   3   4  -9    0.49    0.44
  -3   4   9    0.50    0.45
  -3   4   8  126.74    1.46
  -3   4   8  123.02    1.66
   3   4  -8  107.17    1.36
  -3   4   8  121.40    1.28
   3   4  -8  113.20    1.54
   3   4  -8  107.50    1.60
   3   4  -7   47.15    1.10
  -3   4   7   57.44    0.94
  -3   4   7   59.61    1.07
  -3   4   7   59.39    1.21
  -3   4   7   58.93    1.19
   3   4  -7   49.44    0.96
   3   4  -7   50.62    1.09
   3   4  -6   85.46    1.36
  -3   4   6   90.51    1.25
  -3   4   6   95.95    1.42
   3   4  -6   92.52    1.40
  -3   4   6   86.86    1.36
   3   4  -6   87.61    1.17
   3   4  -5    3.95    0.50
  -3   4   5    4.08    0.51
   3   4  -5    3.32    0.56
   3   4  -5    3.18    0.48
  -3   4   5    4.66    0.48
   3   4  -5    3.09    0.49
  -3   4   5    4.45    0.49
   3   4  -4  262.44    2.12
   3   4  -4  267.95    1.84
   3   4  -4  272.47    2.15
   3   4  -4  273.31    2.24
  -3   4   4  266.92    1.68
   3   4  -3   71.04    1.11
  -3   4   3   68.26    0.99
  -3   4   3   68.38    1.09
   3   4  -3   74.41    1.16
   3   4  -3   75.66    1.05
   3   4  -3   74.19    1.18
   3   4  -3   71.44    0.96
  -3   4   3   75.52    1.14
  -3   4   3   69.31    0.91
  -3   4   2   52.12    0.86
   3   4  -2   38.40    0.79
   3   4  -2   41.35    0.88
  -3   4   2   52.75    0.95
   3   4  -2   39.83    0.85
  -3   4   2   53.31    0.78
  -3   4   2   53.83    0.90
  -3   4   1  295.12    1.85
   3   4  -1  289.89    1.98
   3   4  -1  282.05    2.04
  -3   4   1  294.71    1.99
  -3   4   1  304.45    1.61
   3   4  -1  294.35    2.09
  -3   4   0   49.75    0.83
   3   4   0   52.51    0.86
   3   4   0   47.51    0.88
   3   4   0   50.41    0.89
  -3   4   0   49.57    0.89
   3   4   0   50.78    0.92
  -3   4  -1  185.98    1.46
   3   4   1  200.81    1.50
   3   4   1  199.01    1.65
   3   4   1  196.60    1.61
  -3   4  -1  182.46    1.58
  -3   4  -1  201.02    1.68
  -3   4  -2    0.70    0.39
   3   4   2    3.02    0.40
  -3   4  -2    0.80    0.42
  -3   4  -2    1.12    0.43
  -3   4  -2    0.96    0.46
   3   4   2    1.11    0.34
   3   4   2    2.40    0.33
   3   4   2    1.06    0.37
  -3   4  -3   52.19    1.02
   3   4   3   64.51    1.00
  -3   4  -3   52.47    1.01
   3   4   3   61.29    0.96
  -3   4  -3   49.28    0.90
   3   4   3   66.70    1.01
  -3   4  -4    8.25    0.53
   3   4   4   13.20    0.56
  -3   4  -4    9.07    0.63
   3   4   4   13.43    0.57
  -3   4  -4   10.58    0.61
   3   4   4   12.01    0.56
  -3   4  -5   18.82    0.66
  -3   4  -5   18.50    0.73
   3   4   5   24.56    0.72
   3   4   5   22.73    0.69
  -3   4  -5   18.44    0.75
   3   4   5   23.75    0.75
   3   4   5   21.33    0.71
  -3   4  -5   19.46    0.71
   3   4   6   19.22    0.75
  -3   4  -6   22.68    0.72
  -3   4  -6   21.34    0.77
   3   4   6   20.14    0.73
   3   4   6   18.18    0.67
   3   4   6   20.27    0.70
   3   4   6   18.50    0.70
  -3   4  -6   21.36    0.76
   3   4   7  102.77    1.34
   3   4   7  108.26    1.16
  -3   4  -7  100.62    1.42
   3   4   7  101.19    1.33
  -3   4  -7  113.83    1.32
   3   4   7  112.53    1.34
  -3   4  -7  104.40    1.38
  -3   4  -8    2.68    0.56
   3   4   8    3.90    0.45
  -3   4  -8    2.67    0.46
   3   4   8    4.75    0.55
   3   4   8    3.93    0.49
  -3   4  -8    2.98    0.54
   3   4   9   20.19    0.72
  -3   4  -9   23.43    0.70
   3   4   9   19.48    0.61
  -3   4  -9   23.42    0.79
   3   4   9   18.25    0.68
   3   4   9   19.47    0.62
  -3   4  -9   25.44    0.78
  -3   4  -9   24.49    0.78
   3   4  10    0.27    0.42
  -3   4 -10   -0.03    0.43
  -3   4 -10    0.19    0.37
  -3   4 -10   -0.10    0.40
  -3   4 -10    0.23    0.42
   3   4  10    0.06    0.38
   3   4  10    0.19    0.34
   3   4  11    4.68    0.42
   3   4  11    4.22    0.39
  -3   4 -11    3.64    0.39
  -3   4 -11    3.54    0.41
   3   4  12    0.69    0.29
   3   4  12    0.58    0.28
  -3   4 -12    0.45    0.28
  -3   4 -12    0.43    0.29
   3   4  13    2.42    0.22
  -3   4 -13    2.18    0.25
  -3   5  13    0.36    0.22
  -3   5  12    0.67    0.26
   3   5 -12    0.21    0.22
  -3   5  12    0.81    0.31
  -3   5  12    0.59    0.27
  -3   5  11    0.91    0.33
   3   5 -11    0.25    0.30
  -3   5  11    0.52    0.38
  -3   5  11    0.57    0.33
   3   5 -11    0.30    0.36
   3   5 -10   10.85    0.58
  -3   5  10   13.61    0.53
  -3   5  10   11.55    0.60
  -3   5  10   13.06    0.53
  -3   5   9   29.73    0.70
   3   5  -9   23.62    0.72
   3   5  -9   28.67    0.76
   3   5  -9   25.34    0.64
  -3   5   9   29.51    0.73
   3   5  -9   26.27    0.82
  -3   5   8    0.73    0.46
   3   5  -8    1.13    0.47
   3   5  -8    0.78    0.45
   3   5  -8    1.07    0.45
   3   5  -8    1.17    0.37
   3   5  -7   27.48    0.90
  -3   5   7   25.20    0.80
   3   5  -7   26.93    0.87
   3   5  -7   28.49    0.79
   3   5  -7   27.55    0.77
   3   5  -6   34.92    0.99
  -3   5   6   36.14    1.00
   3   5  -6   33.23    0.96
   3   5  -6   36.00    0.87
   3   5  -6   35.31    0.90
  -3   5   6   37.59    0.85
  -3   5   5  113.87    1.55
  -3   5   5  120.06    1.29
   3   5  -5  126.67    1.64
   3   5  -5  126.46    1.41
   3   5  -5  119.08    1.53
  -3   5   4  136.83    1.50
  -3   5   4  134.02    1.62
   3   5  -4  161.32    1.78
  -3   5   4  143.60    1.38
   3   5  -4  163.91    1.57
   3   5  -4  158.36    1.73
  -3   5   3   48.00    0.96
   3   5  -3   54.60    0.96
   3   5  -3   53.93    1.09
  -3   5   3   45.75    1.02
   3   5  -3   52.38    0.91
   3   5  -3   50.87    1.06
  -3   5   3   48.89    0.89
   3   5  -2  101.16    1.38
  -3   5   2  101.48    1.28
   3   5  -2  104.35    1.44
  -3   5   2  107.23    1.20
   3   5  -2  104.14    1.31
  -3   5   2   98.96    1.36
  -3   5   1  171.27    1.59
   3   5  -1  173.57    1.66
   3   5  -1  173.33    1.74
  -3   5   1  167.69    1.69
   3   5  -1  174.10    1.54
  -3   5   1  173.53    1.41
  -3   5   0   61.52    1.02
   3   5   0   72.49    1.07
   3   5   0   69.90    1.11
   3   5   0   68.10    1.09
  -3   5   0   60.13    1.07
  -3   5  -1   31.31    0.79
   3   5   1   28.10    0.77
  -3   5  -1   29.44    0.82
   3   5   1   29.99    0.78
   3   5   1   28.40    0.76
  -3   5  -1   29.79    0.85
   3   5   2   27.48    0.72
  -3   5  -2   26.60    0.76
   3   5   2   27.58    0.73
   3   5   2   28.08    0.77
   3   5   2   26.98    0.75
  -3   5  -2   27.54    0.82
  -3   5  -2   25.22    0.76
   3   5   3   54.43    0.96
   3   5   3   53.83    0.96
   3   5   3   54.42    0.90
  -3   5  -3   52.24    0.94
   3   5   3   54.31    0.99
  -3   5  -3   52.29    1.03
  -3   5  -3   55.90    1.08
   3   5   4   61.98    1.03
   3   5   4   60.02    1.02
  -3   5  -4   57.19    1.06
  -3   5  -4   58.28    0.96
  -3   5  -4   59.96    1.11
   3   5   4   59.48    0.91
   3   5   5   47.68    0.93
  -3   5  -5   46.35    0.99
   3   5   5   48.83    0.83
   3   5   5   49.11    0.94
  -3   5  -5   48.71    1.01
  -3   5  -6   46.24    1.01
   3   5   6   47.41    0.80
  -3   5  -6   44.45    0.96
  -3   5  -6   46.99    0.85
   3   5   6   45.12    0.92
   3   5   7   25.64    0.74
   3   5   7   24.16    0.60
  -3   5  -7   20.77    0.70
   3   5   7   22.39    0.61
  -3   5  -7   22.15    0.74
   3   5   7   28.54    0.73
  -3   5  -7   20.04    0.63
   3   5   8   18.31    0.64
   3   5   8   19.13    0.59
   3   5   9   20.19    0.53
  -3   5  -9   18.59    0.57
  -3   5 -10    9.58    0.43
  -3   5 -10    9.44    0.45
   3   5  11    0.49    0.27
  -3   5 -11    0.17    0.27
  -3   6  11    1.16    0.22
  -3   6  10    0.04    0.29
  -3   6  10    0.06    0.28
  -3   6   9    2.25    0.36
   3   6  -9    2.23    0.34
  -3   6   9    2.21    0.37
   3   6  -8    4.11    0.34
  -3   6   8    4.76    0.43
   3   6  -8    4.52    0.40
  -3   6   8    5.06    0.43
  -3   6   8    4.51    0.44
   3   6  -7    1.47    0.38
   3   6  -7    1.06    0.33
  -3   6   7    0.95    0.42
  -3   6   7    1.12    0.41
  -3   6   6    0.79    0.44
  -3   6   6    0.58    0.44
   3   6  -6    0.99    0.36
  -3   6   6    0.85    0.42
   3   6  -6    0.98    0.38
  -3   6   5   26.70    0.77
  -3   6   5   26.41    0.69
   3   6  -5   28.34    0.72
  -3   6   5   25.90    0.78
   3   6  -5   27.45    0.66
  -3   6   4   42.22    0.94
  -3   6   4   43.82    0.91
  -3   6   4   43.32    0.79
  -3   6   3    8.15    0.57
  -3   6   3    8.61    0.62
  -3   6   3    8.22    0.50
  -3   6   2   27.10    0.65
  -3   6   2   27.71    0.74
   3   6  -2   27.90    0.75
   3   6  -2   25.40    0.60
  -3   6   2   26.58    0.79
  -3   6   1    8.61    0.55
   3   6  -1    7.88    0.46
  -3   6   1    8.80    0.58
   3   6  -1    9.46    0.53
  -3   6   0   57.81    0.90
   3   6   0   58.31    0.93
   3   6   0   59.08    0.85
  -3   6   0   58.92    1.00
   3   6   1   39.74    0.81
  -3   6  -1   39.71    0.83
   3   6   1   41.44    0.78
   3   6   2   15.35    0.58
   3   6   2   15.10    0.60
   3   6   2   16.28    0.56
   3   6   3    3.58    0.39
   3   6   3    3.70    0.40
   3   6   3    3.91    0.46
  -3   6  -3    3.41    0.41
  -3   6  -3    2.83    0.42
   3   6   4    8.69    0.46
  -3   6  -4    8.69    0.51
   3   6   4    9.44    0.45
  -3   6  -4    9.44    0.46
   3   6   4    9.53    0.51
   3   6   5    4.13    0.40
   3   6   5    4.39    0.39
  -3   6  -5    4.06    0.38
  -3   6  -5    3.21    0.44
   3   6   5    4.54    0.45
   3   6   6    3.43    0.36
  -3   6  -6    3.06    0.42
   3   6   6    3.54    0.40
   3   6   7    8.10    0.43
   3   6   7    8.47    0.41
  -3   6  -7    7.16    0.45
   3   6   8    4.26    0.36
  -3   6  -8    3.46    0.37
   3   6   8    4.38    0.35
   3   6   9    1.85    0.27
  -3   6  -9    1.32    0.27
   3   6   9    1.67    0.25
   3   6  10    0.64    0.18
  -3   7   8    0.49    0.20
  -3   7   7    1.95    0.28
  -3   7   7    1.94    0.28
  -3   7   7    1.72    0.27
  -3   7   6    0.83    0.31
  -3   7   6    0.89    0.30
  -3   7   6    0.66    0.29
  -3   7   5   11.80    0.45
  -3   7   5   11.57    0.45
  -3   7   5   10.34    0.39
  -3   7   4   11.33    0.47
   3   7  -4   11.21    0.34
  -3   7   4   11.25    0.47
  -3   7   4    9.84    0.40
  -3   7   3    2.30    0.37
   3   7  -3    1.98    0.26
  -3   7   3    2.25    0.38
  -3   7   2   17.49    0.52
   3   7  -2   16.60    0.42
   3   7  -1    5.05    0.32
  -3   7   1    3.81    0.36
   3   7   0    6.15    0.33
  -3   7   0    4.02    0.34
   3   7   1    0.57    0.26
   3   7   2   11.70    0.37
   3   7   2    9.61    0.36
   3   7   3   10.04    0.37
   3   7   3   11.72    0.36
   3   7   4   17.18    0.38
   3   7   4   14.15    0.40
   3   7   5    9.98    0.31
   3   7   5    7.80    0.33
   3   7   6    5.16    0.27
   4  -5 -11    0.11    0.21
  -4  -5 -11    0.30    0.14
   4  -4 -14    4.98    0.24
   4  -4 -14    4.29    0.20
   4  -4 -13    1.51    0.26
   4  -4 -13    1.70    0.25
   4  -4 -13    1.54    0.25
   4  -4 -12    1.32    0.30
   4  -4 -12    1.47    0.31
   4  -4 -12    1.45    0.30
   4  -4 -11    1.14    0.32
   4  -4 -11    1.54    0.32
   4  -4 -10   34.08    0.76
   4  -4 -10   32.62    0.67
  -4  -4   6   18.87    0.65
  -4  -4   6   18.12    0.67
  -4  -4   5   14.40    0.57
  -4  -4   5   15.53    0.61
  -4  -4   5   14.93    0.58
   4  -4  -5   13.48    0.49
  -4  -4   4   64.18    1.03
  -4  -4   4   66.54    1.09
  -4  -4   3  174.17    1.67
  -4  -4   3  176.30    1.57
  -4  -4   3  184.92    1.71
   4  -4  -3  182.02    1.36
  -4  -4   2   41.54    0.81
  -4  -4   2   39.19    0.78
  -4  -4   2   39.79    0.84
  -4  -4   1  148.58    1.35
  -4  -4   1  151.76    1.43
  -4  -4   0   38.98    0.69
  -4  -4   0   38.10    0.78
  -4  -4  -1  141.31    1.38
  -4  -4  -2   62.81    0.96
  -4  -4  -3    3.75    0.38
  -4  -4  -4  169.67    1.48
  -4  -4  -8   29.03    0.66
  -4  -4  -9   56.54    0.78
  -4  -4 -10    5.81    0.34
  -4  -4 -10    5.24    0.35
  -4  -4 -11    0.92    0.22
  -4  -4 -11    0.89    0.27
  -4  -4 -12    0.29    0.20
   4  -3 -15    0.82    0.20
   4  -3 -15    0.84    0.19
   4  -3 -14    0.81    0.26
   4  -3 -14    0.57    0.27
   4  -3 -13    2.57    0.36
   4  -3 -13    3.09    0.36
   4  -3 -13    2.84    0.35
   4  -3 -13    2.77    0.32
   4  -3 -12    4.68    0.37
   4  -3 -12    4.70    0.43
   4  -3 -12    4.77    0.43
   4  -3 -12    5.17    0.43
   4  -3 -11    9.14    0.54
   4  -3 -11    9.12    0.53
   4  -3 -10   45.88    0.97
   4  -3 -10   45.70    0.92
   4  -3  -9  204.44    1.93
  -4  -3   8   59.30    1.04
  -4  -3   8   62.89    1.18
  -4  -3   7   73.90    1.09
  -4  -3   7   75.50    1.21
   4  -3  -7   75.46    1.00
  -4  -3   6   43.40    0.82
  -4  -3   6   45.29    0.92
  -4  -3   5   39.42    0.77
   4  -3  -5   42.57    0.69
  -4  -3   4   55.07    0.85
  -4  -3   4   52.39    0.83
  -4  -3   4   55.97    0.91
   4  -3  -4   51.85    0.72
  -4  -3   3   17.79    0.52
  -4  -3   3   17.75    0.52
  -4  -3   3   17.29    0.53
   4  -3  -3   16.70    0.42
  -4  -3   2   47.15    0.76
  -4  -3   2   46.80    0.79
   4  -3  -2   48.38    0.60
  -4  -3   1  295.52    1.73
  -4  -3   1  295.72    1.80
  -4  -3   0   45.42    0.68
  -4  -3   0   46.13    0.76
  -4  -3  -1    6.34    0.38
  -4  -3  -1    5.82    0.32
  -4  -3  -1    5.83    0.36
  -4  -3  -1    6.36    0.34
  -4  -3  -2    3.96    0.34
  -4  -3  -2    4.16    0.28
  -4  -3  -2    3.33    0.31
  -4  -3  -2    3.34    0.33
  -4  -3  -3  119.33    1.15
  -4  -3  -3  122.33    1.20
  -4  -3  -3  120.44    1.16
  -4  -3  -4    1.72    0.29
  -4  -3  -4    1.30    0.30
  -4  -3  -5  130.57    1.23
  -4  -3  -5  135.76    1.29
  -4  -3  -6   25.90    0.66
  -4  -3  -6   26.68    0.67
  -4  -3  -6   25.88    0.68
  -4  -3  -8   95.97    1.24
  -4  -3  -8   96.10    1.12
  -4  -3  -9   49.23    0.89
  -4  -3  -9   49.48    0.79
  -4  -3 -10   57.60    0.87
  -4  -3 -10   60.39    0.78
  -4  -3 -11   18.48    0.54
  -4  -3 -12    4.30    0.34
  -4  -3 -12    4.20    0.32
  -4  -3 -13    1.92    0.24
  -4  -3 -13    2.00    0.23
  -4  -3 -13    2.08    0.23
   4  -2 -16    0.42    0.16
   4  -2 -16    0.49    0.18
   4  -2 -16    0.41    0.18
   4  -2 -15   11.12    0.42
   4  -2 -15   11.96    0.40
   4  -2 -15   12.57    0.43
   4  -2 -15   11.78    0.42
   4  -2 -14    2.04    0.34
   4  -2 -14    1.88    0.35
   4  -2 -14    1.84    0.28
   4  -2 -14    2.27    0.34
   4  -2 -14    1.65    0.34
   4  -2 -14    1.96    0.34
   4  -2 -13    3.42    0.40
   4  -2 -13    3.53    0.40
   4  -2 -13    2.82    0.42
   4  -2 -13    3.56    0.40
   4  -2 -13    3.07    0.41
   4  -2 -12    8.91    0.51
   4  -2 -12    9.52    0.56
   4  -2 -12    9.85    0.55
   4  -2 -12    9.26    0.56
   4  -2 -11   31.66    0.80
   4  -2 -11   34.07    0.86
   4  -2 -11   33.66    0.92
   4  -2 -11   34.34    0.86
   4  -2 -10   90.23    1.26
   4  -2 -10   92.67    1.33
   4  -2 -10   93.45    1.44
   4  -2  -9   55.71    0.98
   4  -2  -9   50.30    0.93
  -4  -2   9   57.84    1.18
  -4  -2   9   51.69    0.93
   4  -2  -9   55.13    1.02
   4  -2  -9   57.66    1.15
   4  -2  -9   58.57    1.09
  -4  -2   9   55.24    1.04
   4  -2  -9   53.02    0.89
  -4  -2   8  138.18    1.63
   4  -2  -8  138.86    1.36
  -4  -2   8  134.93    1.37
   4  -2  -8  139.49    1.53
   4  -2  -8  142.54    1.62
  -4  -2   8  138.38    1.48
   4  -2  -8  141.56    1.30
   4  -2  -7  391.61    2.02
  -4  -2   7  408.04    2.35
   4  -2  -7  407.04    2.36
   4  -2  -7  388.24    2.46
  -4  -2   7  429.35    2.66
  -4  -2   7  415.47    2.26
   4  -2  -6  254.10    1.51
  -4  -2   6  299.48    1.88
  -4  -2   6  298.03    1.89
   4  -2  -6  249.35    1.50
  -4  -2   5  211.72    1.54
   4  -2  -5  208.61    1.31
   4  -2  -4  444.79    1.66
  -4  -2   4  448.74    1.98
  -4  -2   3  109.60    1.03
   4  -2  -3  110.35    0.89
  -4  -2   2  174.54    1.29
  -4  -2   2  178.72    1.30
  -4  -2   2  172.60    1.35
  -4  -2   2  168.13    1.09
   4  -2  -2  169.42    1.02
  -4  -2   1   53.12    0.73
  -4  -2   1   54.78    0.77
  -4  -2   0   62.07    0.76
  -4  -2   0   61.40    0.74
  -4  -2  -1   49.63    0.69
  -4  -2  -1   48.91    0.71
  -4  -2  -2   37.04    0.64
  -4  -2  -2   37.87    0.63
  -4  -2  -2   36.52    0.55
  -4  -2  -3  898.49    2.75
  -4  -2  -3  897.99    2.61
  -4  -2  -3  893.20    2.97
  -4  -2  -4  810.96    2.64
  -4  -2  -4  827.73    2.49
  -4  -2  -5  401.64    2.16
  -4  -2  -5  400.93    1.92
   4  -2   5  414.67    2.14
  -4  -2  -5  419.62    2.15
  -4  -2  -6   26.69    0.67
  -4  -2  -6   25.05    0.63
  -4  -2  -6   24.79    0.67
  -4  -2  -6   24.29    0.58
  -4  -2  -7  166.94    1.48
  -4  -2  -7  162.87    1.54
  -4  -2  -7  164.49    1.43
  -4  -2  -8   43.50    0.87
  -4  -2  -8   42.85    0.91
  -4  -2  -8   41.17    0.85
  -4  -2  -8   44.39    0.87
  -4  -2  -8   44.48    0.86
  -4  -2  -9    1.22    0.40
  -4  -2  -9    1.43    0.41
  -4  -2  -9    2.31    0.45
  -4  -2  -9    1.63    0.42
  -4  -2 -10   30.50    0.71
  -4  -2 -10   30.34    0.74
  -4  -2 -10   30.17    0.77
  -4  -2 -10   32.24    0.70
  -4  -2 -11    4.32    0.40
  -4  -2 -11    4.46    0.45
  -4  -2 -11    3.99    0.42
  -4  -2 -11    4.95    0.41
  -4  -2 -12    0.70    0.35
  -4  -2 -12    0.73    0.32
  -4  -2 -12    0.87    0.31
  -4  -2 -13    5.43    0.37
  -4  -2 -13    5.80    0.38
  -4  -2 -13    5.10    0.34
  -4  -2 -13    5.11    0.33
  -4  -2 -14    1.21    0.19
  -4  -2 -14    1.42    0.23
  -4  -2 -14    1.40    0.23
  -4  -2 -14    1.39    0.22
   4  -1 -16    2.15    0.21
   4  -1 -16    2.94    0.28
   4  -1 -16    3.10    0.28
   4  -1 -16    2.64    0.27
   4  -1 -16    2.80    0.27
   4  -1 -15    1.52    0.33
   4  -1 -15    1.60    0.31
   4  -1 -15    1.59    0.33
   4  -1 -14    6.35    0.46
   4  -1 -14    6.12    0.45
   4  -1 -14    7.16    0.45
   4  -1 -13    2.36    0.42
   4  -1 -13    2.57    0.43
   4  -1 -13    1.95    0.33
   4  -1 -13    1.90    0.39
   4  -1 -13    2.28    0.42
   4  -1 -12    2.57    0.44
   4  -1 -12    3.35    0.47
   4  -1 -12    3.13    0.46
   4  -1 -12    2.75    0.47
   4  -1 -11   74.02    1.24
   4  -1 -11   72.64    1.21
   4  -1 -11   75.58    1.27
   4  -1 -11   75.59    1.30
   4  -1 -11   74.20    1.27
   4  -1 -10  179.55    1.83
   4  -1 -10  175.42    1.84
   4  -1 -10  182.15    1.87
  -4  -1  10  163.66    1.89
   4  -1 -10  173.54    1.89
   4  -1 -10  179.02    1.81
  -4  -1  10  158.77    1.81
   4  -1 -10  164.01    1.52
   4  -1  -9    3.48    0.46
   4  -1  -9    3.23    0.42
   4  -1  -9    3.33    0.46
   4  -1  -9    3.26    0.49
   4  -1  -9    3.87    0.48
  -4  -1   9    4.05    0.43
   4  -1  -9    3.29    0.36
  -4  -1   9    4.97    0.46
   4  -1  -8   58.75    0.96
  -4  -1   8   59.41    1.04
  -4  -1   8   55.48    0.83
   4  -1  -8   56.64    1.04
   4  -1  -8   63.05    1.03
  -4  -1   8   54.10    0.96
   4  -1  -8   57.39    0.98
   4  -1  -8   60.18    0.94
   4  -1  -8   61.81    0.86
   4  -1  -7   29.04    0.62
  -4  -1   7   40.31    0.82
  -4  -1   7   39.39    0.68
   4  -1  -7   28.08    0.66
   4  -1  -7   28.78    0.72
  -4  -1   7   39.50    0.77
   4  -1  -7   26.27    0.55
  -4  -1   6  344.72    1.68
  -4  -1   6  359.66    1.89
  -4  -1   6  382.00    2.25
  -4  -1   6  358.03    2.07
   4  -1  -6  336.83    1.77
   4  -1  -6  315.01    1.63
  -4  -1   5 1213.41    3.67
  -4  -1   5 1204.20    3.57
  -4  -1   5 1210.54    3.10
  -4  -1   5 1200.91    2.91
  -4  -1   4   18.71    0.37
   4  -1  -4   31.91    0.51
  -4  -1   4   22.04    0.49
  -4  -1   4   19.08    0.42
  -4  -1   4   18.30    0.45
  -4  -1   4   18.72    0.45
   4  -1  -4   29.98    0.49
  -4  -1   3  731.67    2.53
  -4  -1   3  706.77    2.37
  -4  -1   3  690.24    2.20
  -4  -1   3  660.75    2.41
  -4  -1   3  678.62    1.89
   4  -1  -3  700.79    2.15
  -4  -1   2   27.05    0.47
   4  -1  -2   17.01    0.30
  -4  -1   2   26.97    0.52
  -4  -1   2   24.07    0.46
   4  -1  -2   19.05    0.38
  -4  -1   1  181.66    1.08
   4  -1  -1  200.85    1.06
  -4  -1   0  444.81    1.80
  -4  -1   0  415.03    1.64
  -4  -1  -1 1865.28    3.38
  -4  -1  -1 1866.64    3.58
  -4  -1  -2 2635.18    4.00
  -4  -1  -2 2655.82    4.25
  -4  -1  -3  899.55    2.34
  -4  -1  -3  873.97    2.52
  -4  -1  -4  137.29    0.97
  -4  -1  -4  139.52    1.16
  -4  -1  -5  179.14    1.07
  -4  -1  -5  178.73    1.25
  -4  -1  -5  176.98    1.16
   4  -1   6    7.10    0.38
  -4  -1  -6    9.62    0.47
  -4  -1  -6    9.07    0.41
   4  -1   6    8.06    0.44
  -4  -1  -6    9.49    0.48
  -4  -1  -6    9.43    0.41
   4  -1   6    7.30    0.44
  -4  -1  -7   27.41    0.68
   4  -1   7   22.06    0.58
  -4  -1  -7   24.58    0.62
  -4  -1  -7   25.80    0.73
  -4  -1  -7   25.28    0.59
   4  -1   7   25.05    0.65
  -4  -1  -7   28.45    0.67
  -4  -1  -8   27.29    0.74
   4  -1   8   28.30    0.67
  -4  -1  -8   23.87    0.75
   4  -1   8   29.43    0.70
  -4  -1  -8   23.01    0.69
  -4  -1  -8   20.42    0.57
  -4  -1  -8   24.70    0.71
  -4  -1  -8   24.02    0.71
  -4  -1  -9   88.92    1.21
  -4  -1  -9   84.90    1.26
  -4  -1  -9   87.01    1.13
  -4  -1 -10    4.77    0.47
  -4  -1 -10    5.17    0.53
  -4  -1 -10    3.79    0.43
  -4  -1 -10    4.93    0.49
  -4  -1 -11   12.77    0.53
  -4  -1 -11   14.43    0.59
  -4  -1 -11   13.45    0.61
  -4  -1 -12    1.30    0.37
  -4  -1 -12    1.31    0.38
  -4  -1 -12    1.45    0.35
  -4  -1 -12    1.26    0.38
  -4  -1 -13    7.33    0.41
  -4  -1 -13    7.80    0.38
  -4  -1 -13    7.64    0.45
  -4  -1 -13    7.89    0.39
  -4  -1 -13    7.77    0.37
  -4  -1 -14    2.69    0.30
  -4  -1 -14    2.64    0.27
   4   0 -16    7.06    0.30
   4   0 -16    7.44    0.33
   4   0 -15    1.57    0.28
   4   0 -15    1.71    0.29
   4   0 -15    1.60    0.35
   4   0 -15    1.54    0.33
   4   0 -14    7.97    0.46
   4   0 -14    7.96    0.51
   4   0 -14    8.31    0.50
   4   0 -14    8.24    0.45
   4   0 -13    7.62    0.50
   4   0 -13    8.28    0.56
   4   0 -13    7.72    0.49
   4   0 -13    6.89    0.52
   4   0 -13    6.99    0.45
   4   0 -12    6.03    0.54
   4   0 -12    5.68    0.49
   4   0 -12    6.52    0.51
   4   0 -12    5.84    0.56
   4   0 -12    5.60    0.47
   4   0 -11   27.33    0.92
   4   0 -11   26.49    0.88
   4   0 -11   27.52    0.81
   4   0 -11   26.33    0.84
   4   0 -11   26.39    0.89
   4   0 -10  145.00    1.45
   4   0 -10  145.64    1.70
   4   0 -10  142.70    1.68
   4   0 -10  138.29    1.62
   4   0 -10  149.69    1.63
   4   0 -10  143.51    1.72
   4   0 -10  147.91    1.74
  -4   0  10  153.58    1.80
   4   0  -9  136.62    1.25
   4   0  -9  158.42    1.65
   4   0  -9  157.27    1.64
   4   0  -9  155.07    1.56
   4   0  -9  149.42    1.71
  -4   0   9  164.39    1.65
   4   0  -9  150.28    1.54
  -4   0   9  136.01    1.33
   4   0  -9  164.95    1.71
  -4   0   9  164.56    1.71
   4   0  -8   35.41    0.67
   4   0  -8   37.15    0.81
   4   0  -8   38.02    0.84
  -4   0   8   40.97    0.82
   4   0  -8   35.97    0.76
   4   0  -8   37.29    0.77
   4   0  -8   37.31    0.85
  -4   0   8   33.33    0.64
   4   0  -8   39.75    0.86
  -4   0   8   37.99    0.82
   4   0  -7   18.94    0.59
   4   0  -7   19.98    0.55
   4   0  -7   18.54    0.58
  -4   0   7   19.66    0.45
   4   0  -7   19.90    0.61
  -4   0   7   19.45    0.53
  -4   0   7   20.69    0.55
   4   0  -7   19.43    0.50
  -4   0   6   16.55    0.41
  -4   0   6   17.56    0.49
   4   0  -6   14.65    0.45
  -4   0   6   16.60    0.47
   4   0  -6   15.35    0.44
  -4   0   5  390.08    1.71
  -4   0   5  346.69    1.87
  -4   0   5  396.16    1.93
   4   0  -5  415.77    2.06
  -4   0   5  370.27    1.76
  -4   0   5  402.95    1.50
   4   0  -5  384.67    1.78
  -4   0   4   78.07    0.82
   4   0  -4   75.47    0.79
  -4   0   4   74.94    0.78
  -4   0   4   81.39    0.66
  -4   0   4   84.14    0.95
  -4   0   4   73.11    0.72
  -4   0   3   87.11    0.83
  -4   0   3   83.17    0.78
   4   0  -3   82.55    0.77
  -4   0   3   85.60    0.83
  -4   0   3   82.00    0.62
  -4   0   3   87.26    0.90
   4   0  -2   75.87    0.77
  -4   0   2   65.96    0.69
  -4   0   2   71.07    0.72
  -4   0   2   65.17    0.73
  -4   0   2   73.75    0.76
  -4   0   2   67.17    0.57
   4   0  -1  369.02    1.56
  -4   0   1  362.81    1.61
  -4   0   0   16.11    0.27
  -4   0   0   16.20    0.38
  -4   0  -1   63.70    0.49
  -4   0  -1   64.49    0.60
  -4   0  -2 2981.80    4.24
  -4   0  -2 2968.58    3.54
  -4   0  -2 3053.49    4.62
  -4   0  -2 3025.41    4.95
  -4   0  -3    2.59    0.27
  -4   0  -3    2.19    0.20
  -4   0  -3    2.37    0.26
   4   0   4   19.73    0.47
  -4   0  -4   20.68    0.47
  -4   0  -5   32.60    0.58
  -4   0  -5   33.05    0.52
  -4   0  -5   32.43    0.58
   4   0   6   13.22    0.49
   4   0   6   13.94    0.45
  -4   0  -6   13.06    0.39
  -4   0  -7    0.71    0.39
   4   0   7    0.98    0.37
   4   0   7    1.02    0.31
  -4   0  -7    0.78    0.38
   4   0   7    0.88    0.36
  -4   0  -7    0.44    0.24
  -4   0  -8   80.18    1.15
   4   0   8   76.22    1.06
  -4   0  -8   72.49    1.07
  -4   0  -8   72.91    0.94
   4   0   8   79.55    1.12
  -4   0  -8   73.74    1.07
  -4   0  -9    0.15    0.45
  -4   0  -9    0.60    0.41
  -4   0  -9    0.34    0.42
   4   0   9    0.49    0.42
  -4   0  -9    0.55    0.35
   4   0   9    0.40    0.40
  -4   0  -9    0.42    0.38
  -4   0 -10   36.39    0.90
   4   0  10   35.42    0.81
  -4   0 -10   31.23    0.78
  -4   0 -10   31.82    0.72
  -4   0 -10   35.07    0.83
  -4   0 -11   25.81    0.74
  -4   0 -11   23.72    0.71
   4   0  11   26.35    0.67
  -4   0 -11   25.86    0.73
  -4   0 -12   40.22    0.81
  -4   0 -12   39.36    0.80
   4   0  12   41.31    0.73
  -4   0 -12   39.66    0.79
  -4   0 -13   12.54    0.48
  -4   0 -13   13.23    0.51
  -4   0 -13   12.27    0.49
   4   0  13   13.51    0.44
  -4   0 -13   11.32    0.46
  -4   0 -13   12.23    0.48
  -4   0 -14    0.25    0.27
  -4   0 -14    0.19    0.26
  -4   0 -14    0.32    0.28
  -4   0 -14    0.23    0.28
  -4   0 -14    0.35    0.26
  -4   0 -15    1.02    0.18
   4   1 -16    3.30    0.29
   4   1 -16    3.52    0.29
   4   1 -16    2.62    0.23
   4   1 -16    2.77    0.26
   4   1 -15    1.51    0.33
   4   1 -15    1.74    0.34
   4   1 -15    1.66    0.32
   4   1 -15    1.66    0.32
   4   1 -15    1.57    0.31
   4   1 -15    1.42    0.29
   4   1 -14    8.11    0.52
   4   1 -14    7.39    0.47
   4   1 -14    7.61    0.52
   4   1 -14    6.79    0.48
   4   1 -14    7.37    0.44
   4   1 -14    8.07    0.48
   4   1 -14    7.08    0.44
   4   1 -13    2.69    0.44
   4   1 -13    2.71    0.36
   4   1 -13    2.85    0.45
   4   1 -13    2.82    0.45
   4   1 -13    2.66    0.43
   4   1 -13    2.25    0.44
   4   1 -13    2.75    0.42
   4   1 -12    3.22    0.51
   4   1 -12    3.24    0.43
   4   1 -12    3.15    0.50
   4   1 -12    3.80    0.48
   4   1 -12    3.15    0.47
   4   1 -12    2.63    0.47
   4   1 -12    3.12    0.47
   4   1 -11   70.13    1.28
   4   1 -11   80.73    1.31
   4   1 -11   72.80    1.27
   4   1 -11   76.16    1.30
   4   1 -11   76.54    1.33
   4   1 -11   69.69    1.26
   4   1 -11   75.70    1.27
  -4   1  10  148.63    1.63
   4   1 -10  154.80    1.74
   4   1 -10  144.84    1.75
   4   1 -10  162.80    1.87
   4   1 -10  170.95    1.86
  -4   1  10  176.45    1.94
   4   1 -10  163.75    1.83
   4   1 -10  164.36    1.80
   4   1  -9    3.56    0.38
   4   1  -9    3.67    0.49
   4   1  -9    3.59    0.44
   4   1  -9    3.98    0.51
   4   1  -9    5.02    0.51
   4   1  -9    3.61    0.47
   4   1  -9    3.87    0.45
  -4   1   9    2.85    0.36
  -4   1   9    3.65    0.44
   4   1  -9    5.46    0.51
   4   1  -8   52.09    0.86
   4   1  -8   56.71    1.02
  -4   1   8   61.18    1.03
   4   1  -8   55.54    0.93
   4   1  -8   52.27    0.98
   4   1  -8   53.00    0.96
   4   1  -8   52.61    1.02
   4   1  -8   56.47    0.86
  -4   1   8   61.31    1.03
  -4   1   8   62.19    0.90
   4   1  -8   54.55    0.97
   4   1  -7   38.65    0.73
   4   1  -7   49.85    0.91
   4   1  -7   37.12    0.80
   4   1  -7   39.58    0.79
   4   1  -7   38.07    0.77
   4   1  -7   37.26    0.68
   4   1  -7   39.88    0.84
  -4   1   7   29.77    0.72
  -4   1   7   33.11    0.74
   4   1  -7   40.44    0.83
   4   1  -6  346.71    1.92
   4   1  -6  342.08    2.09
  -4   1   6  330.70    1.44
  -4   1   6  319.60    1.57
  -4   1   6  359.16    2.20
  -4   1   6  342.36    2.09
  -4   1   5 1182.70    2.89
  -4   1   5 1176.41    2.68
  -4   1   4   31.39    0.61
  -4   1   4   30.40    0.46
  -4   1   4   30.44    0.60
   4   1  -3  663.56    2.47
  -4   1   3  671.44    2.52
  -4   1   2   19.83    0.39
  -4   1   2   19.04    0.47
  -4   1   2   18.66    0.36
  -4   1   1  207.15    0.87
  -4   1   1  207.46    1.36
  -4   1   0  305.59    1.43
  -4   1   0  306.80    1.37
   4   1   1 1851.42    3.57
  -4   1  -1 1855.69    3.15
  -4   1  -2 2711.90    4.11
  -4   1  -2 2738.30    4.58
  -4   1  -3  880.52    2.75
  -4   1  -3  883.37    1.87
  -4   1  -4  121.70    1.07
  -4   1  -4  133.90    0.83
   4   1   5  177.96    1.41
   4   1   5  174.78    1.40
  -4   1  -5  173.08    1.28
  -4   1  -5  182.81    1.10
  -4   1  -5  187.86    1.41
  -4   1  -6    7.55    0.46
   4   1   6    8.96    0.44
  -4   1  -6    7.98    0.46
  -4   1  -6    7.29    0.34
  -4   1  -6    8.08    0.46
  -4   1  -6    6.99    0.45
  -4   1  -6    7.96    0.42
  -4   1  -7   28.56    0.75
  -4   1  -7   25.49    0.68
   4   1   7   26.35    0.68
   4   1   7   24.22    0.69
  -4   1  -7   24.51    0.71
   4   1   7   26.07    0.69
  -4   1  -7   26.81    0.71
  -4   1  -7   25.76    0.66
   4   1   7   27.11    0.68
  -4   1  -7   24.31    0.65
  -4   1  -8   26.23    0.76
   4   1   8   24.99    0.71
   4   1   8   24.52    0.74
  -4   1  -8   25.34    0.75
  -4   1  -8   29.53    0.78
  -4   1  -8   27.84    0.70
   4   1   8   23.40    0.71
   4   1   8   23.35    0.69
  -4   1  -9   70.42    1.16
  -4   1  -9   72.30    1.06
  -4   1  -9   74.17    1.14
   4   1   9   86.03    1.21
   4   1   9   87.08    1.16
  -4   1  -9   69.69    1.01
  -4   1 -10    6.21    0.53
  -4   1 -10    6.52    0.49
  -4   1 -10    6.50    0.51
  -4   1 -10    6.32    0.46
  -4   1 -10    6.79    0.54
  -4   1 -11   13.21    0.59
  -4   1 -11   13.05    0.65
  -4   1 -11   12.62    0.56
   4   1  11   15.24    0.59
  -4   1 -11   11.41    0.50
  -4   1 -11   13.68    0.63
  -4   1 -12    2.45    0.43
  -4   1 -12    2.65    0.44
  -4   1 -12    2.82    0.39
  -4   1 -12    2.42    0.41
   4   1  12    1.54    0.36
  -4   1 -12    2.50    0.35
  -4   1 -12    2.67    0.44
  -4   1 -13    9.06    0.48
  -4   1 -13    9.04    0.45
  -4   1 -13    8.94    0.40
   4   1  13    7.75    0.39
  -4   1 -13    8.33    0.39
  -4   1 -13    8.74    0.45
  -4   1 -14    2.64    0.31
  -4   1 -14    2.54    0.29
   4   1  14    2.56    0.24
  -4   1 -14    2.75    0.29
   4   2 -15   11.26    0.42
   4   2 -15   12.30    0.44
   4   2 -15   12.66    0.42
   4   2 -15   11.65    0.41
   4   2 -14    1.72    0.37
   4   2 -14    1.79    0.37
   4   2 -14    1.62    0.35
   4   2 -14    2.24    0.41
   4   2 -14    1.79    0.37
   4   2 -13    3.71    0.45
   4   2 -13    4.11    0.48
   4   2 -13    3.97    0.45
   4   2 -13    3.77    0.40
   4   2 -13    3.44    0.44
   4   2 -13    3.35    0.44
   4   2 -12    8.56    0.58
   4   2 -12    8.24    0.60
   4   2 -12    8.77    0.57
   4   2 -12    8.48    0.52
   4   2 -12    7.25    0.55
   4   2 -12    7.68    0.56
   4   2 -11   36.17    0.98
   4   2 -11   38.77    0.96
   4   2 -11   37.55    1.00
   4   2 -11   38.16    0.93
   4   2 -11   36.61    0.81
   4   2 -11   34.78    0.96
   4   2 -11   35.45    0.96
   4   2 -10   75.26    1.34
   4   2 -10   76.23    1.35
   4   2 -10   80.64    1.34
   4   2 -10   80.37    1.35
  -4   2  10   92.51    1.31
   4   2 -10   76.04    1.12
   4   2 -10   72.50    1.30
  -4   2  10   97.99    1.18
   4   2 -10   80.40    1.37
   4   2  -9   54.74    1.14
   4   2  -9   58.67    1.10
   4   2  -9   58.46    1.15
   4   2  -9   56.13    1.15
   4   2  -9   59.88    1.18
  -4   2   9   54.69    1.05
   4   2  -9   57.41    0.98
   4   2  -9   52.34    1.10
  -4   2   9   58.86    0.94
  -4   2   9   57.19    1.21
   4   2  -9   59.22    1.17
  -4   2   9   54.09    1.05
   4   2  -8  129.48    1.57
   4   2  -8  144.83    1.57
  -4   2   8  138.88    1.55
   4   2  -8  136.88    1.60
  -4   2   8  142.76    1.52
   4   2  -8  141.94    1.64
   4   2  -8  131.06    1.58
   4   2  -8  137.51    1.36
  -4   2   8  142.45    1.29
   4   2  -8  138.17    1.61
  -4   2   8  147.56    1.72
   4   2  -7  398.42    2.57
  -4   2   7  407.46    2.65
   4   2  -7  430.35    2.53
   4   2  -7  407.85    2.27
   4   2  -7  406.68    2.53
  -4   2   7  398.75    2.37
   4   2  -7  413.26    2.57
   4   2  -7  402.68    2.16
  -4   2   7  389.06    1.96
  -4   2   7  404.27    2.41
   4   2  -7  412.02    2.53
   4   2  -6  280.03    2.05
  -4   2   6  277.48    2.09
   4   2  -6  284.75    1.74
   4   2  -6  281.58    1.99
  -4   2   6  256.51    1.82
  -4   2   6  246.02    1.50
   4   2  -6  280.04    1.95
  -4   2   4  469.85    1.65
  -4   2   3  110.27    0.84
   4   2  -2  165.98    0.91
  -4   2   2  163.44    1.06
  -4   2   1   47.64    0.62
  -4   2   1   47.21    0.51
   4   2   0   64.15    0.69
  -4   2   0   70.17    0.65
   4   2   1   46.86    0.65
  -4   2  -1   63.33    0.78
   4   2   2   97.56    0.95
   4   2   3  880.46    2.99
   4   2   4  839.67    3.10
   4   2   4  840.05    3.15
  -4   2  -5  415.55    2.24
   4   2   5  410.17    2.33
  -4   2  -5  415.32    2.26
  -4   2  -5  427.51    2.40
   4   2   5  433.38    1.97
   4   2   5  403.57    2.32
   4   2   5  435.04    2.09
   4   2   5  406.69    2.25
   4   2   5  413.62    2.31
  -4   2  -5  408.10    2.16
  -4   2  -6   27.06    0.72
  -4   2  -6   28.72    0.80
  -4   2  -6   26.99    0.74
   4   2   6   28.14    0.62
   4   2   6   25.61    0.70
   4   2   6   27.13    0.65
  -4   2  -6   26.74    0.76
  -4   2  -6   23.32    0.69
   4   2   6   26.21    0.71
   4   2   6   25.20    0.68
  -4   2  -6   25.99    0.71
  -4   2  -7  149.42    1.56
   4   2   7  172.20    1.70
   4   2   7  154.75    1.53
   4   2   7  178.31    1.43
  -4   2  -7  162.58    1.69
  -4   2  -7  160.46    1.63
   4   2   7  167.41    1.61
  -4   2  -7  163.46    1.67
   4   2   7  162.81    1.41
  -4   2  -7  144.45    1.49
  -4   2  -8   40.22    0.92
   4   2   8   46.22    0.99
   4   2   8   47.03    0.85
  -4   2  -8   43.38    0.94
   4   2   8   41.92    0.90
  -4   2  -8   43.08    0.99
  -4   2  -8   45.06    0.99
   4   2   8   43.38    0.91
  -4   2  -8   40.30    0.90
  -4   2  -9    3.09    0.47
  -4   2  -9    3.16    0.49
  -4   2  -9    2.84    0.51
  -4   2  -9    3.27    0.42
  -4   2  -9    2.74    0.52
   4   2   9    1.33    0.43
  -4   2  -9    2.84    0.48
  -4   2 -10   29.72    0.73
  -4   2 -10   31.36    0.82
  -4   2 -10   32.00    0.80
  -4   2 -10   31.32    0.84
  -4   2 -10   31.43    0.72
  -4   2 -10   30.53    0.82
  -4   2 -11    4.73    0.50
  -4   2 -11    4.45    0.46
  -4   2 -11    4.63    0.42
  -4   2 -11    4.76    0.41
   4   2  11    4.83    0.46
   4   2  12    0.83    0.34
  -4   2 -12    0.83    0.38
   4   2  12    0.67    0.32
  -4   2 -12    1.08    0.32
  -4   2 -13    5.24    0.38
   4   2  13    5.40    0.35
  -4   2 -13    5.60    0.38
   4   2  14    1.35    0.21
  -4   2 -14    1.79    0.25
   4   3 -15    0.70    0.23
   4   3 -15   -0.02    0.22
   4   3 -14    0.67    0.32
   4   3 -14    0.65    0.27
   4   3 -14    0.47    0.27
   4   3 -13    2.68    0.43
   4   3 -13    2.53    0.38
  -4   3  13    3.14    0.39
   4   3 -13    2.50    0.37
   4   3 -12    5.03    0.47
  -4   3  12    5.04    0.47
   4   3 -12    4.93    0.48
  -4   3  12    5.17    0.42
   4   3 -12    4.35    0.51
   4   3 -11    9.09    0.60
   4   3 -11    9.23    0.54
   4   3 -11    9.45    0.65
  -4   3  11    8.62    0.59
   4   3 -11    8.99    0.55
   4   3 -11    8.85    0.60
  -4   3  11    9.83    0.53
   4   3 -11    9.08    0.64
  -4   3  10   45.91    1.03
   4   3 -10   44.83    1.06
   4   3 -10   43.97    0.92
   4   3 -10   41.94    1.04
   4   3 -10   44.43    1.03
   4   3 -10   45.56    0.97
  -4   3  10   45.97    0.88
   4   3 -10   45.08    1.10
   4   3  -9  194.89    2.00
  -4   3   9  197.70    1.62
   4   3  -9  193.44    2.02
  -4   3   9  197.93    1.98
   4   3  -9  203.19    1.78
   4   3  -9  192.57    2.03
  -4   3   9  211.68    1.66
   4   3  -9  204.77    2.14
   4   3  -8   64.68    1.25
  -4   3   8   75.79    1.13
  -4   3   8   79.48    1.45
   4   3  -8   60.84    1.21
  -4   3   8   78.51    1.34
   4   3  -8   65.13    1.09
   4   3  -8   61.73    1.22
  -4   3   8   77.25    1.09
   4   3  -8   68.24    1.31
   4   3  -7   74.29    1.25
  -4   3   7   73.81    1.07
  -4   3   7   74.09    1.31
  -4   3   7   75.10    1.25
   4   3  -7   71.48    1.24
  -4   3   7   70.26    0.99
   4   3  -7   75.86    1.29
   4   3  -6   44.99    0.99
   4   3  -6   43.81    0.97
  -4   3   6   51.59    0.90
  -4   3   6   50.43    1.05
   4   3  -6   44.41    0.84
  -4   3   6   52.47    1.03
   4   3  -6   43.21    0.82
   4   3  -6   42.18    0.98
  -4   3   6   48.55    0.80
   4   3  -5   40.37    0.90
   4   3  -5   41.75    0.92
  -4   3   5   41.22    0.81
   4   3  -5   41.88    0.80
  -4   3   5   41.82    0.90
   4   3  -5   39.73    0.76
  -4   3   5   43.96    0.93
   4   3  -5   40.66    0.92
   4   3  -4   51.12    0.93
  -4   3   4   52.47    0.97
   4   3  -4   55.51    0.99
  -4   3   4   47.42    0.82
   4   3  -4   56.01    0.90
   4   3  -4   53.58    0.88
  -4   3   4   49.88    0.91
   4   3  -4   51.51    0.80
  -4   3   4   47.33    0.74
   4   3  -3   16.58    0.57
   4   3  -3   18.36    0.61
  -4   3   3   16.31    0.59
   4   3  -3   17.77    0.56
   4   3  -3   17.34    0.62
  -4   3   3   14.95    0.57
   4   3  -3   17.20    0.51
  -4   3   3   15.40    0.49
   4   3  -2   44.24    0.84
  -4   3   2   47.10    0.84
  -4   3   2   47.52    0.84
   4   3  -2   44.10    0.78
   4   3  -2   46.77    0.85
   4   3  -2   43.32    0.83
  -4   3   1  283.90    1.72
   4   3  -1  286.74    1.88
   4   3  -1  282.57    1.92
  -4   3   0   39.71    0.72
   4   3   0   45.82    0.65
   4   3   0   45.74    0.81
  -4   3   0   39.40    0.76
   4   3   0   44.19    0.79
   4   3   1    6.46    0.33
   4   3   1    5.75    0.41
   4   3   1    5.27    0.37
   4   3   1    5.91    0.40
  -4   3  -2    3.82    0.43
   4   3   2    3.01    0.31
   4   3   2    3.58    0.39
   4   3   2    4.43    0.40
  -4   3  -2    3.96    0.43
   4   3   2    3.22    0.36
   4   3   2    3.52    0.38
  -4   3  -3  121.84    1.21
   4   3   3  116.45    1.23
   4   3   3  118.60    1.19
   4   3   3  119.58    1.30
   4   3   3  121.93    1.31
   4   3   3  121.09    1.27
  -4   3  -3  116.82    1.25
   4   3   3  121.13    1.30
   4   3   4    2.21    0.40
   4   3   4    1.41    0.34
  -4   3  -4    4.75    0.48
  -4   3  -4    3.90    0.50
   4   3   4    1.52    0.40
   4   3   4    1.38    0.38
   4   3   4    1.66    0.40
   4   3   4    1.42    0.36
   4   3   5  129.25    1.45
  -4   3  -5  120.84    1.43
   4   3   5  138.37    1.47
  -4   3  -5  115.19    1.31
   4   3   5  133.07    1.41
   4   3   5  135.77    1.39
   4   3   5  134.97    1.24
   4   3   5  131.43    1.43
  -4   3  -5  126.33    1.39
   4   3   6   26.88    0.72
  -4   3  -6   30.37    0.81
   4   3   6   26.48    0.79
   4   3   6   27.43    0.67
   4   3   6   25.99    0.74
  -4   3  -6   26.68    0.77
  -4   3  -6   28.57    0.87
   4   3   6   28.38    0.79
   4   3   6   26.70    0.75
  -4   3  -6   28.46    0.80
  -4   3  -7   22.06    0.74
   4   3   7   22.16    0.62
   4   3   7   19.67    0.62
   4   3   7   19.18    0.69
  -4   3  -7   20.36    0.71
  -4   3  -7   22.79    0.82
   4   3   7   20.62    0.70
  -4   3  -7   20.88    0.78
  -4   3  -7   21.47    0.73
  -4   3  -8   93.03    1.28
  -4   3  -8   92.85    1.36
  -4   3  -8   91.83    1.32
   4   3   8   92.99    1.13
   4   3   8   87.51    1.24
   4   3   8   99.05    1.09
   4   3   8   89.86    1.29
  -4   3  -8   86.56    1.24
  -4   3  -9   42.76    0.92
   4   3   9   48.75    0.83
  -4   3  -9   44.82    0.87
  -4   3  -9   44.90    0.99
   4   3   9   48.18    0.80
   4   3   9   46.27    0.95
  -4   3  -9   45.12    0.95
  -4   3  -9   42.86    0.93
  -4   3 -10   57.88    0.97
  -4   3 -10   57.38    0.98
  -4   3 -10   56.60    0.93
  -4   3 -10   59.30    1.02
  -4   3 -11   15.99    0.58
  -4   3 -11   15.26    0.56
  -4   3 -11   15.76    0.53
  -4   3 -11   15.66    0.58
   4   3  12    4.64    0.36
  -4   3 -12    3.56    0.36
  -4   3 -12    3.56    0.38
   4   3  13    2.39    0.22
  -4   3 -13    2.07    0.27
   4   4 -14    0.64    0.21
   4   4 -13    1.83    0.34
  -4   4  13    1.86    0.32
   4   4 -13    1.53    0.24
   4   4 -12    0.94    0.38
  -4   4  12    1.42    0.35
  -4   4  12    1.60    0.39
   4   4 -12    0.39    0.38
   4   4 -12    0.97    0.31
   4   4 -11    1.56    0.44
   4   4 -11    1.42    0.36
  -4   4  11    1.64    0.37
   4   4 -11    0.65    0.45
  -4   4  11    1.34    0.43
   4   4 -11    1.88    0.40
   4   4 -11    1.38    0.37
  -4   4  11    1.81    0.39
   4   4 -10   34.72    0.94
   4   4 -10   33.77    0.79
  -4   4  10   37.19    0.75
   4   4 -10   29.32    0.93
  -4   4  10   35.62    0.91
   4   4 -10   37.83    0.84
   4   4 -10   33.25    0.84
  -4   4  10   38.27    0.79
   4   4  -9   42.33    1.05
   4   4  -9   41.14    0.92
  -4   4   9   39.02    0.84
   4   4  -9   40.31    1.04
  -4   4   9   37.12    0.99
   4   4  -9   39.52    0.97
  -4   4   9   39.24    0.83
   4   4  -8  216.23    2.18
   4   4  -8  231.17    2.07
  -4   4   8  242.32    1.93
   4   4  -8  219.53    2.26
  -4   4   8  236.96    2.21
   4   4  -8  230.67    1.90
   4   4  -8  225.44    2.14
  -4   4   8  247.83    1.84
   4   4  -7   73.25    1.25
  -4   4   7   75.42    1.19
   4   4  -7   66.90    1.31
  -4   4   7   71.55    1.32
   4   4  -7   68.61    1.10
   4   4  -7   69.16    1.28
   4   4  -6   21.17    0.79
  -4   4   6   16.60    0.70
   4   4  -6   19.16    0.82
  -4   4   6   16.11    0.77
  -4   4   6   15.45    0.76
   4   4  -6   19.42    0.68
   4   4  -6   18.45    0.75
   4   4  -5   16.80    0.72
  -4   4   5   14.50    0.70
   4   4  -5   16.56    0.64
   4   4  -5   15.01    0.74
  -4   4   5   14.64    0.68
   4   4  -5   15.85    0.63
   4   4  -5   14.32    0.68
  -4   4   5   14.08    0.75
  -4   4   5   13.82    0.59
   4   4  -4   70.03    1.21
  -4   4   4   73.01    1.24
   4   4  -4   67.75    1.09
   4   4  -4   63.06    1.22
   4   4  -4   67.00    1.02
   4   4  -4   62.06    1.15
  -4   4   4   72.37    1.00
  -4   4   4   72.19    1.19
   4   4  -3  179.96    1.69
  -4   4   3  178.68    1.75
  -4   4   3  187.62    1.49
   4   4  -3  181.96    1.54
   4   4  -3  173.80    1.78
  -4   4   3  180.71    1.82
  -4   4   2   38.56    0.84
   4   4  -2   41.49    0.85
   4   4  -2   38.78    0.86
   4   4  -2   37.81    0.90
  -4   4   2   41.36    0.81
   4   4  -1  145.15    1.51
  -4   4   1  145.73    1.30
  -4   4   0   34.93    0.80
   4   4   0   40.05    0.85
   4   4   0   38.88    0.84
  -4   4   0   34.24    0.84
  -4   4   0   38.17    0.86
  -4   4  -1  137.77    1.52
  -4   4  -1  131.43    1.36
   4   4   1  148.38    1.54
  -4   4  -1  122.48    1.39
   4   4   1  144.41    1.51
   4   4   1  137.38    1.48
  -4   4  -1  136.58    1.50
   4   4   2   58.37    0.95
  -4   4  -2   73.59    1.20
  -4   4  -2   63.39    1.02
   4   4   2   58.92    1.01
  -4   4  -2   69.12    1.14
  -4   4  -2   69.90    1.04
   4   4   2   59.89    1.01
  -4   4  -3    7.07    0.58
  -4   4  -3    8.81    0.60
   4   4   3    3.66    0.44
   4   4   3    3.45    0.40
   4   4   3    3.71    0.47
  -4   4  -3    6.71    0.53
  -4   4  -3    6.36    0.61
   4   4   3    3.97    0.48
   4   4   4  167.37    1.76
   4   4   4  175.98    1.69
  -4   4  -4  158.06    1.71
   4   4   4  164.70    1.44
  -4   4  -4  146.67    1.49
  -4   4  -4  158.33    1.71
   4   4   4  166.41    1.65
   4   4   5   56.14    1.01
   4   4   5   52.04    0.94
  -4   4  -5   55.96    1.00
  -4   4  -5   54.72    1.11
   4   4   5   51.42    0.85
  -4   4  -5   54.14    1.10
   4   4   5   54.22    1.01
   4   4   5   53.33    1.00
  -4   4  -6   48.24    1.04
   4   4   6   56.91    0.97
   4   4   6   53.27    0.84
   4   4   6   52.03    0.95
  -4   4  -6   51.37    0.98
   4   4   6   55.33    1.00
   4   4   6   53.22    1.01
  -4   4  -6   47.96    0.94
  -4   4  -7   53.21    1.08
   4   4   7   61.82    0.87
  -4   4  -7   58.68    1.12
   4   4   7   58.90    0.99
   4   4   7   65.29    0.97
  -4   4  -7   60.36    1.01
   4   4   7   65.01    1.04
  -4   4  -7   53.75    0.99
  -4   4  -8   26.11    0.66
   4   4   8   29.05    0.65
   4   4   8   27.91    0.72
  -4   4  -8   27.69    0.80
  -4   4  -8   26.46    0.74
  -4   4  -9   58.74    1.00
  -4   4  -9   56.26    0.86
   4   4   9   56.88    0.93
  -4   4  -9   59.98    0.97
   4   4   9   59.48    0.80
  -4   4  -9   58.25    0.94
   4   4   9   62.09    0.80
   4   4  10    6.58    0.45
  -4   4 -10    5.13    0.38
   4   4  10    5.60    0.36
   4   4  10    5.61    0.42
  -4   4 -10    5.75    0.44
  -4   4 -10    5.10    0.44
  -4   4 -10    5.93    0.44
   4   4  11    1.54    0.32
   4   4  11    1.30    0.30
  -4   4 -11    0.79    0.30
  -4   4 -11    0.93    0.30
   4   4  12    0.33    0.23
  -4   4 -12    0.20    0.23
   4   5 -12    0.11    0.21
  -4   5  12   -0.03    0.26
   4   5 -11    0.08    0.29
  -4   5  11   -0.04    0.30
  -4   5  11    0.04    0.33
  -4   5  11   -0.01    0.32
  -4   5  10    0.84    0.38
   4   5 -10    0.56    0.29
   4   5 -10    0.57    0.35
  -4   5  10    0.75    0.40
  -4   5  10    1.12    0.37
  -4   5   9    2.23    0.44
   4   5  -9    2.00    0.43
  -4   5   9    2.12    0.46
   4   5  -9    2.84    0.42
   4   5  -9    2.38    0.36
  -4   5   9    2.33    0.43
  -4   5   8    1.69    0.47
  -4   5   8    1.54    0.48
   4   5  -8    1.01    0.43
   4   5  -8    0.94    0.36
   4   5  -8    0.95    0.43
  -4   5   7    0.85    0.48
   4   5  -7    1.15    0.49
  -4   5   7    0.69    0.50
   4   5  -7    1.12    0.45
   4   5  -7    1.22    0.41
  -4   5   7    1.07    0.48
  -4   5   6    8.37    0.61
   4   5  -6    7.87    0.61
  -4   5   6    9.31    0.59
   4   5  -6    7.87    0.55
   4   5  -6    7.18    0.56
   4   5  -5   19.63    0.79
   4   5  -5   19.28    0.69
   4   5  -5   18.41    0.75
  -4   5   4   10.48    0.68
   4   5  -4   11.19    0.55
   4   5  -4   12.32    0.69
  -4   5   4   12.08    0.64
   4   5  -4   11.88    0.60
   4   5  -4   12.12    0.66
  -4   5   3    4.88    0.59
   4   5  -3    3.76    0.46
  -4   5   3    5.14    0.60
  -4   5   3    5.13    0.53
   4   5  -3    3.22    0.53
   4   5  -3    3.40    0.51
  -4   5   2   34.71    0.87
  -4   5   2   34.10    0.95
   4   5  -2   34.24    0.91
   4   5  -2   33.68    0.82
   4   5  -2   34.55    0.91
  -4   5   2   36.79    0.80
  -4   5   1   84.08    1.19
  -4   5   1   80.91    1.25
   4   5  -1   71.53    1.14
   4   5  -1   74.83    1.18
   4   5  -1   73.32    1.06
  -4   5   0  160.35    1.54
   4   5   0  147.76    1.58
   4   5   0  136.94    1.51
  -4   5   0  154.82    1.63
   4   5   0  139.93    1.43
  -4   5  -1   99.47    1.21
   4   5   1   93.33    1.26
   4   5   1   98.83    1.27
  -4   5  -1   95.70    1.30
  -4   5  -1   98.46    1.32
   4   5   1   95.24    1.22
  -4   5  -2   69.67    1.18
  -4   5  -2   70.44    1.02
   4   5   2   72.53    1.10
   4   5   2   72.65    1.13
   4   5   3    6.94    0.49
  -4   5  -3    7.08    0.53
  -4   5  -3    6.87    0.59
   4   5   3    7.14    0.55
  -4   5  -3    6.49    0.53
   4   5   4    7.35    0.51
   4   5   4    7.10    0.52
  -4   5  -4    4.12    0.49
  -4   5  -4    4.31    0.50
  -4   5  -4    4.36    0.57
   4   5   4    7.93    0.56
   4   5   5   16.63    0.63
  -4   5  -5   16.51    0.65
   4   5   5   16.72    0.62
  -4   5  -5   16.29    0.73
   4   5   6    2.30    0.45
  -4   5  -6    2.79    0.47
   4   5   6    2.26    0.37
  -4   5  -6    3.19    0.45
  -4   5  -6    2.84    0.50
   4   5   6    2.36    0.48
   4   5   7    1.92    0.42
   4   5   7    1.74    0.35
  -4   5  -7    1.77    0.43
  -4   5  -7    1.82    0.45
   4   5   7    2.13    0.42
   4   5   8    5.85    0.44
   4   5   8    6.27    0.37
   4   5   8    5.25    0.35
   4   5   8    6.43    0.42
  -4   5  -8    4.85    0.37
   4   5   9    9.40    0.38
   4   5   9   10.24    0.45
  -4   5  -9    8.06    0.43
  -4   5  -9    7.37    0.37
   4   5  10    1.88    0.24
  -4   5 -10    1.41    0.29
   4   5  11    0.48    0.19
  -4   6  10    0.32    0.26
  -4   6  10    0.44    0.24
  -4   6   9    2.97    0.34
   4   6  -9    1.86    0.26
  -4   6   8    0.12    0.34
  -4   6   8    0.21    0.34
   4   6  -8    0.33    0.29
   4   6  -7    0.77    0.33
  -4   6   7    0.90    0.39
   4   6  -6    0.17    0.36
  -4   6   6    0.36    0.43
  -4   6   6    0.30    0.38
  -4   6   5    7.28    0.55
   4   6  -5    7.23    0.50
  -4   6   5    6.60    0.56
  -4   6   5    7.15    0.49
  -4   6   4   46.49    0.91
  -4   6   4   46.51    0.96
  -4   6   4   44.85    0.79
  -4   6   3   48.76    0.91
  -4   6   3   47.06    0.96
   4   6  -3   46.79    0.90
  -4   6   3   46.56    0.77
  -4   6   2    8.54    0.53
  -4   6   2    8.62    0.58
   4   6  -2    7.38    0.42
   4   6  -2    8.63    0.53
  -4   6   1    4.81    0.47
  -4   6   1    5.29    0.52
   4   6  -1    4.24    0.40
   4   6  -1    4.94    0.47
  -4   6   0    8.95    0.49
   4   6   0    8.68    0.49
  -4   6   0    9.35    0.55
   4   6   0    7.72    0.44
   4   6   0    7.47    0.47
  -4   6  -1    7.77    0.46
   4   6   1    5.59    0.45
  -4   6  -1    7.70    0.50
   4   6   1    6.22    0.44
   4   6   1    7.29    0.48
   4   6   2    2.32    0.37
   4   6   2    2.21    0.40
  -4   6  -2    2.04    0.41
  -4   6  -2    1.79    0.39
   4   6   2    2.06    0.42
   4   6   3   24.74    0.63
   4   6   3   26.38    0.62
   4   6   3   25.51    0.65
   4   6   4    1.65    0.33
  -4   6  -4    1.21    0.35
   4   6   4    1.64    0.38
   4   6   4    1.27    0.33
  -4   6  -4    1.17    0.38
   4   6   5    2.89    0.34
   4   6   5    3.31    0.34
  -4   6  -5    2.76    0.36
  -4   6  -5    2.65    0.38
   4   6   5    3.06    0.39
   4   6   6    3.09    0.34
   4   6   6    3.07    0.32
  -4   6  -6    2.95    0.36
   4   6   7    2.44    0.30
  -4   6  -7    1.74    0.31
   4   6   7    2.34    0.31
   4   6   8    0.69    0.24
  -4   6  -8    0.19    0.25
   4   6   8    0.57    0.24
  -4   7   7    0.87    0.21
  -4   7   7    1.02    0.19
  -4   7   6    3.05    0.29
  -4   7   6    3.31    0.28
  -4   7   5   10.75    0.39
   4   7  -5   10.94    0.28
  -4   7   5   10.94    0.39
  -4   7   4    8.25    0.40
  -4   7   4    8.75    0.40
   4   7  -4    9.67    0.31
  -4   7   3    5.03    0.37
   4   7  -3    6.01    0.30
  -4   7   3    5.45    0.37
  -4   7   2    3.80    0.35
   4   7  -2    3.62    0.29
  -4   7   2    4.43    0.36
   4   7  -1    8.23    0.33
  -4   7   1   10.33    0.40
   4   7   0    3.06    0.28
  -4   7   0    3.54    0.33
   4   7   1   10.06    0.33
  -4   7  -1    8.93    0.36
  -4   7  -2    3.78    0.27
   4   7   2    5.31    0.27
   4   7   3    4.69    0.26
   4   7   3    4.01    0.26
   4   7   4    2.06    0.22
   4   7   4    1.51    0.23
   4   7   5    4.57    0.23
  -5  -5  -6   13.06    0.42
  -5  -5  -6   12.18    0.40
  -5  -5  -7    4.11    0.29
  -5  -5 -10    0.50    0.14
   5  -4 -13    5.77    0.25
   5  -4 -13    5.67    0.27
   5  -4 -12    3.92    0.31
   5  -4 -12    3.18    0.27
   5  -4 -11    5.02    0.37
   5  -4 -11    5.54    0.38
   5  -4 -10    3.53    0.38
   5  -4 -10    3.65    0.39
   5  -4  -9   12.74    0.53
   5  -4  -8   12.53    0.55
  -5  -4   3  201.98    1.80
  -5  -4   3  194.08    1.81
  -5  -4   2   15.81    0.63
  -5  -4   2   13.44    0.56
  -5  -4   1   71.43    1.16
  -5  -4   1   69.23    1.06
  -5  -4   1   69.27    1.11
  -5  -4   1   71.86    1.11
  -5  -4   0   65.06    1.09
  -5  -4   0   64.06    1.05
  -5  -4  -1   38.37    0.86
  -5  -4  -1   38.54    0.85
  -5  -4  -7   21.51    0.56
  -5  -4  -8    5.71    0.35
  -5  -4  -8    5.43    0.40
  -5  -4  -9    1.00    0.29
  -5  -4 -10    1.16    0.26
  -5  -4 -11    3.20    0.22
   5  -3 -14    3.49    0.29
   5  -3 -14    3.11    0.24
   5  -3 -14    3.65    0.28
   5  -3 -14    3.29    0.25
   5  -3 -14    3.14    0.23
   5  -3 -13   18.60    0.52
   5  -3 -13   18.85    0.50
   5  -3 -13   17.46    0.47
   5  -3 -12   22.49    0.63
   5  -3 -12   24.49    0.62
   5  -3 -12   23.35    0.58
   5  -3 -11   26.68    0.72
   5  -3 -11   27.91    0.71
   5  -3 -11   26.48    0.64
   5  -3 -10    9.24    0.56
   5  -3 -10    9.53    0.56
   5  -3 -10    9.30    0.52
   5  -3  -9   31.03    0.84
   5  -3  -9   32.19    0.84
   5  -3  -9   31.20    0.77
   5  -3  -8  384.16    2.55
   5  -3  -8  384.53    2.61
   5  -3  -7  119.42    1.45
  -5  -3   7  123.19    1.48
  -5  -3   7  134.42    1.61
  -5  -3   7  124.98    1.59
   5  -3  -7  126.17    1.68
   5  -3  -7  112.98    1.28
   5  -3  -6  112.74    1.37
   5  -3  -6  131.42    1.68
  -5  -3   6  125.06    1.49
  -5  -3   6  116.08    1.39
  -5  -3   6  118.30    1.49
   5  -3  -6  109.96    1.23
  -5  -3   5   86.29    1.20
  -5  -3   5   88.87    1.28
  -5  -3   4  101.84    1.30
  -5  -3   4   99.56    1.33
  -5  -3   3    9.23    0.47
  -5  -3   3   10.01    0.49
  -5  -3   3   10.57    0.52
  -5  -3   2   16.89    0.54
  -5  -3   2   16.81    0.55
  -5  -3   2   17.51    0.57
  -5  -3   1   62.31    0.93
  -5  -3   1   59.95    0.92
  -5  -3   1   62.10    0.99
  -5  -3   0   72.86    1.00
  -5  -3   0   72.34    1.02
  -5  -3   0   72.57    1.02
  -5  -3  -1   28.42    0.68
  -5  -3  -1   27.95    0.63
  -5  -3  -1   26.90    0.65
  -5  -3  -1   29.34    0.70
  -5  -3  -2   25.91    0.65
  -5  -3  -2   26.15    0.59
  -5  -3  -2   24.94    0.64
  -5  -3  -2   25.20    0.64
  -5  -3  -3  100.55    1.15
  -5  -3  -3  100.48    1.23
  -5  -3  -4  311.50    2.02
  -5  -3  -4  319.69    2.13
  -5  -3  -5    8.91    0.51
  -5  -3  -5    8.72    0.51
  -5  -3  -6    0.96    0.38
  -5  -3  -7    0.87    0.34
  -5  -3  -8   16.29    0.63
  -5  -3  -8   16.07    0.57
  -5  -3  -9   19.74    0.60
  -5  -3  -9   18.88    0.55
  -5  -3 -10    8.09    0.45
  -5  -3 -10    8.32    0.40
  -5  -3 -11    2.00    0.31
  -5  -3 -11    1.90    0.30
  -5  -3 -12    1.59    0.23
  -5  -3 -12    1.62    0.23
  -5  -3 -12    1.64    0.23
  -5  -3 -12    1.71    0.24
   5  -2 -15    0.30    0.19
   5  -2 -15    0.43    0.22
   5  -2 -15    0.45    0.23
   5  -2 -15    0.30    0.22
   5  -2 -14    1.75    0.29
   5  -2 -14    2.06    0.34
   5  -2 -14    2.09    0.27
   5  -2 -14    2.34    0.32
   5  -2 -14    2.23    0.35
   5  -2 -14    2.46    0.34
   5  -2 -14    2.21    0.31
   5  -2 -13   15.28    0.51
   5  -2 -13   14.88    0.50
   5  -2 -13   16.10    0.54
   5  -2 -13   16.63    0.58
   5  -2 -13   14.45    0.53
   5  -2 -12    0.94    0.35
   5  -2 -12    1.36    0.37
   5  -2 -12    1.21    0.39
   5  -2 -12    1.00    0.38
   5  -2 -11   31.88    0.76
   5  -2 -11   33.25    0.83
   5  -2 -11   34.32    0.83
   5  -2 -11   34.62    0.90
   5  -2 -11   33.94    0.82
   5  -2 -10   44.15    0.90
   5  -2 -10   45.29    1.01
   5  -2 -10   46.39    1.04
   5  -2 -10   46.24    0.99
   5  -2 -10   47.29    0.96
   5  -2  -9   18.30    0.74
   5  -2  -9   18.42    0.76
   5  -2  -9   18.62    0.74
   5  -2  -9   19.14    0.71
   5  -2  -8  156.54    1.72
  -5  -2   8  159.15    1.61
   5  -2  -8  150.47    1.65
   5  -2  -8  154.26    1.79
  -5  -2   8  145.19    1.66
   5  -2  -8  154.44    1.59
  -5  -2   8  150.41    1.64
   5  -2  -7   42.32    0.94
  -5  -2   7   49.28    0.92
   5  -2  -7   40.80    0.90
  -5  -2   7   48.37    0.87
   5  -2  -7   41.22    0.96
  -5  -2   7   46.77    0.97
  -5  -2   7   50.79    0.98
   5  -2  -7   40.32    0.82
   5  -2  -6   65.03    1.05
  -5  -2   6   71.79    1.05
  -5  -2   6   68.49    0.97
   5  -2  -6   66.90    1.10
  -5  -2   6   68.17    1.11
  -5  -2   6   71.75    1.07
   5  -2  -6   66.88    0.94
   5  -2  -5   30.97    0.75
   5  -2  -5   32.02    0.83
  -5  -2   5   38.01    0.76
   5  -2  -5   32.87    0.78
  -5  -2   5   41.86    0.76
  -5  -2   5   35.12    0.76
  -5  -2   5   40.96    0.82
   5  -2  -5   31.97    0.65
  -5  -2   4  133.18    1.31
  -5  -2   4  122.46    1.24
   5  -2  -4  122.19    1.38
  -5  -2   4  130.52    1.27
   5  -2  -4  121.20    1.11
  -5  -2   3   39.26    0.66
   5  -2  -3   38.03    0.64
  -5  -2   2  278.25    1.72
  -5  -2   2  306.45    1.82
  -5  -2   2  301.27    1.94
   5  -2  -2  268.25    1.48
  -5  -2   1   45.45    0.73
  -5  -2   1   44.23    0.71
   5  -2   0   20.73    0.45
  -5  -2   0   18.82    0.50
  -5  -2   0   19.56    0.53
  -5  -2   0   19.10    0.53
  -5  -2   0   20.45    0.52
  -5  -2  -1   49.29    0.77
  -5  -2  -1   50.06    0.74
  -5  -2  -1   48.27    0.72
  -5  -2  -2  711.76    2.89
  -5  -2  -2  701.86    2.56
  -5  -2  -3  577.36    2.70
  -5  -2  -3  586.16    2.41
  -5  -2  -3  579.99    2.69
  -5  -2  -4  134.63    1.37
  -5  -2  -4  133.40    1.19
  -5  -2  -4  134.13    1.21
  -5  -2  -4  135.28    1.36
  -5  -2  -5  209.00    1.64
  -5  -2  -5  198.41    1.47
  -5  -2  -5  213.85    1.77
   5  -2   5  204.56    1.68
  -5  -2  -5  206.36    1.75
  -5  -2  -6  141.57    1.51
  -5  -2  -6  140.02    1.47
  -5  -2  -6  137.69    1.36
  -5  -2  -6  139.23    1.49
   5  -2   6  144.00    1.44
  -5  -2  -7    0.92    0.40
  -5  -2  -7    0.80    0.39
   5  -2   7    0.79    0.38
  -5  -2  -7    0.64    0.45
  -5  -2  -8    0.97    0.42
  -5  -2  -8    1.00    0.39
   5  -2   8    1.34    0.36
  -5  -2  -8    0.70    0.41
  -5  -2  -9   17.71    0.60
  -5  -2  -9   18.01    0.62
  -5  -2  -9   17.63    0.61
  -5  -2 -10   26.81    0.64
  -5  -2 -10   26.87    0.65
  -5  -2 -10   27.60    0.64
  -5  -2 -11   18.38    0.49
  -5  -2 -11   18.90    0.54
  -5  -2 -11   18.65    0.54
  -5  -2 -11   17.73    0.50
  -5  -2 -11   19.92    0.53
  -5  -2 -12    8.55    0.41
  -5  -2 -12    7.98    0.38
  -5  -2 -12    7.73    0.34
  -5  -2 -12    7.54    0.36
  -5  -2 -13    0.06    0.19
  -5  -2 -13    0.00    0.22
  -5  -2 -13    0.06    0.21
   5  -1 -16    9.62    0.28
   5  -1 -16    8.33    0.27
   5  -1 -15    1.83    0.28
   5  -1 -15    1.89    0.30
   5  -1 -15    1.93    0.30
   5  -1 -15    1.61    0.29
   5  -1 -14    2.90    0.36
   5  -1 -14    2.77    0.38
   5  -1 -14    2.71    0.37
   5  -1 -14    3.31    0.38
   5  -1 -14    2.69    0.36
   5  -1 -13    1.08    0.37
   5  -1 -13    1.09    0.37
   5  -1 -13    1.01    0.38
   5  -1 -13    1.27    0.38
   5  -1 -13    1.21    0.36
   5  -1 -13    0.94    0.31
   5  -1 -12    0.92    0.40
   5  -1 -12    0.41    0.37
   5  -1 -12    0.80    0.35
   5  -1 -12    0.62    0.39
   5  -1 -12    0.89    0.42
   5  -1 -12    0.61    0.40
   5  -1 -11    6.61    0.54
   5  -1 -11    5.62    0.54
   5  -1 -11    7.08    0.58
   5  -1 -11    6.28    0.56
   5  -1 -11    6.66    0.55
   5  -1 -10    8.34    0.63
   5  -1 -10    8.10    0.62
   5  -1 -10    8.08    0.63
   5  -1 -10    7.95    0.61
   5  -1  -9   61.34    1.02
   5  -1  -9   65.17    1.17
   5  -1  -9   57.03    1.05
   5  -1  -9   65.87    1.20
   5  -1  -9   65.98    1.24
  -5  -1   9   71.04    1.17
   5  -1  -9   69.53    1.23
  -5  -1   9   78.55    1.29
   5  -1  -8   30.89    0.80
   5  -1  -8   30.44    0.83
  -5  -1   8   28.43    0.68
   5  -1  -8   30.87    0.84
   5  -1  -8   30.78    0.86
  -5  -1   8   26.39    0.71
   5  -1  -8   31.92    0.83
   5  -1  -8   28.00    0.73
  -5  -1   8   27.11    0.77
   5  -1  -8   28.22    0.69
   5  -1  -7   59.81    0.98
   5  -1  -7   59.34    1.06
   5  -1  -7   60.42    1.04
  -5  -1   7   69.95    0.98
   5  -1  -7   57.76    1.08
  -5  -1   7   68.08    1.07
   5  -1  -7   62.76    1.02
  -5  -1   7   71.65    1.13
   5  -1  -7   54.28    0.88
   5  -1  -7   58.46    0.90
   5  -1  -6   71.92    1.09
   5  -1  -6   79.15    1.05
   5  -1  -6   73.41    1.06
  -5  -1   6   69.46    0.95
   5  -1  -6   69.80    1.08
  -5  -1   6   77.42    0.93
  -5  -1   6   71.12    1.06
  -5  -1   6   76.61    1.13
   5  -1  -5   55.00    0.91
   5  -1  -5   55.49    0.97
   5  -1  -5   53.51    0.77
  -5  -1   5   56.87    0.83
   5  -1  -5   52.13    0.89
  -5  -1   5   57.94    0.78
  -5  -1   5   53.11    0.87
  -5  -1   5   60.00    0.97
   5  -1  -5   55.03    0.79
  -5  -1   4   47.67    0.73
  -5  -1   4   49.57    0.72
  -5  -1   4   48.12    0.82
  -5  -1   4   49.19    0.81
  -5  -1   3  214.42    1.34
  -5  -1   3  217.35    1.52
  -5  -1   2  152.65    1.30
  -5  -1   2  152.42    1.14
  -5  -1   1   63.01    0.86
  -5  -1   1   61.59    0.74
  -5  -1   0  368.01    1.82
  -5  -1   0  368.85    1.73
  -5  -1  -1   43.92    0.58
  -5  -1  -1   42.14    0.66
  -5  -1  -2   30.86    0.50
  -5  -1  -2   30.50    0.59
  -5  -1  -2   29.77    0.55
  -5  -1  -3  360.80    2.09
  -5  -1  -3  346.72    1.77
  -5  -1  -3  348.19    1.84
  -5  -1  -3  366.72    1.62
  -5  -1  -3  373.68    2.08
  -5  -1  -4  407.56    2.41
  -5  -1  -4  327.62    1.84
  -5  -1  -4  357.37    2.15
  -5  -1  -4  363.82    1.91
  -5  -1  -4  353.86    1.67
   5  -1   4  379.23    2.19
   5  -1   4  365.02    2.08
  -5  -1  -4  351.83    1.92
  -5  -1  -4  347.30    2.09
   5  -1   5   86.78    1.01
  -5  -1  -5  134.85    1.50
  -5  -1  -5  109.79    1.15
  -5  -1  -5  113.39    1.14
   5  -1   5  106.65    1.25
  -5  -1  -5  113.54    1.31
   5  -1   5  103.95    1.21
  -5  -1  -5  112.63    1.05
  -5  -1  -5  111.81    1.27
  -5  -1  -6   77.33    1.13
   5  -1   6   64.39    0.98
  -5  -1  -6   76.64    1.17
   5  -1   6   77.30    1.16
   5  -1   6   72.16    1.06
  -5  -1  -6   86.88    1.12
  -5  -1  -7   26.40    0.74
   5  -1   7   27.88    0.70
  -5  -1  -7   25.83    0.77
  -5  -1  -7   24.76    0.71
  -5  -1  -7   23.05    0.59
   5  -1   7   28.75    0.76
  -5  -1  -7   25.88    0.69
  -5  -1  -8   33.30    0.81
  -5  -1  -8   30.82    0.83
  -5  -1  -8   29.40    0.77
   5  -1   8   33.52    0.77
  -5  -1  -8   29.38    0.73
  -5  -1  -9   13.93    0.59
  -5  -1  -9   13.00    0.65
  -5  -1  -9   13.89    0.57
   5  -1   9   14.83    0.57
  -5  -1  -9   12.22    0.58
  -5  -1 -10    8.12    0.50
  -5  -1 -10    7.64    0.52
  -5  -1 -10    7.19    0.50
  -5  -1 -10    7.24    0.43
  -5  -1 -10    8.05    0.47
  -5  -1 -11    0.84    0.31
  -5  -1 -11    0.92    0.35
  -5  -1 -11    1.00    0.39
  -5  -1 -11    1.03    0.38
   5  -1  11    1.15    0.31
  -5  -1 -11    1.11    0.36
  -5  -1 -12   15.24    0.48
  -5  -1 -12   16.01    0.52
  -5  -1 -12   15.55    0.51
  -5  -1 -12   14.70    0.44
  -5  -1 -12   14.92    0.50
  -5  -1 -12   14.30    0.41
  -5  -1 -13    3.48    0.27
  -5  -1 -13    3.74    0.32
  -5  -1 -13    3.70    0.31
  -5  -1 -13    3.40    0.27
  -5  -1 -13    3.21    0.27
  -5  -1 -14    2.47    0.19
   5   0 -16    1.02    0.20
   5   0 -16    1.16    0.20
   5   0 -16    0.99    0.19
   5   0 -15    0.45    0.29
   5   0 -15    0.40    0.27
   5   0 -15    0.40    0.24
   5   0 -15    0.40    0.29
   5   0 -14    1.96    0.37
   5   0 -14    2.41    0.34
   5   0 -14    2.29    0.37
   5   0 -14    2.12    0.38
   5   0 -13    0.01    0.38
   5   0 -13    0.02    0.34
   5   0 -13    0.24    0.40
   5   0 -13   -0.07    0.37
   5   0 -12    2.15    0.44
   5   0 -12    2.51    0.45
   5   0 -12    2.06    0.35
   5   0 -12    2.49    0.41
   5   0 -12    2.32    0.44
   5   0 -12    2.23    0.44
   5   0 -11  174.47    1.89
   5   0 -11  173.88    1.87
   5   0 -11  171.87    1.61
   5   0 -11  172.42    1.69
   5   0 -11  176.22    1.95
   5   0 -11  168.53    1.82
   5   0 -10  225.52    2.16
   5   0 -10  216.75    2.06
   5   0 -10  226.27    1.94
   5   0 -10  214.06    2.10
   5   0 -10  217.51    1.94
   5   0 -10  213.05    2.13
   5   0 -10  223.90    2.14
   5   0  -9  134.12    1.68
   5   0  -9  136.63    1.57
   5   0  -9  124.14    1.55
   5   0  -9  132.60    1.55
   5   0  -9  127.21    1.61
   5   0  -9  126.59    1.62
   5   0  -9  128.38    1.51
   5   0  -9  128.13    1.64
   5   0  -9  138.34    1.70
   5   0  -8  270.70    1.99
   5   0  -8  276.21    2.19
   5   0  -8  270.09    2.21
  -5   0   8  282.48    2.09
   5   0  -8  257.09    2.07
   5   0  -8  268.30    2.18
   5   0  -8  270.94    2.04
  -5   0   8  269.68    1.96
   5   0  -8  287.51    2.24
   5   0  -7   15.67    0.55
   5   0  -7   14.86    0.61
  -5   0   7   16.58    0.56
   5   0  -7   15.31    0.57
   5   0  -7   15.15    0.60
  -5   0   7   15.17    0.48
  -5   0   7   15.64    0.52
   5   0  -7   15.72    0.61
   5   0  -6   64.30    0.94
   5   0  -6   63.02    0.97
   5   0  -6   64.62    1.00
   5   0  -6   62.50    0.92
  -5   0   6   64.77    0.83
  -5   0   6   66.97    0.94
   5   0  -6   67.81    1.00
  -5   0   6   70.74    1.00
  -5   0   6   74.76    1.14
  -5   0   5  422.64    2.21
   5   0  -5  392.40    2.33
   5   0  -5  396.04    2.43
  -5   0   5  438.29    2.13
  -5   0   5  428.94    2.23
  -5   0   5  430.28    2.45
   5   0  -4  353.14    2.01
  -5   0   4  353.05    1.87
  -5   0   4  369.80    2.03
  -5   0   4  358.08    1.99
  -5   0   4  335.47    2.03
  -5   0   4  336.29    1.41
  -5   0   3  140.66    1.18
  -5   0   3  138.69    1.28
  -5   0   3  140.67    1.14
  -5   0   3  140.12    0.92
  -5   0   2  237.12    1.55
  -5   0   2  235.91    1.18
  -5   0   1   39.37    0.62
  -5   0   1   40.46    0.66
  -5   0   0   53.71    0.61
  -5   0   0   58.56    0.78
  -5   0  -1  252.48    1.33
  -5   0  -1  259.91    1.58
  -5   0  -2    9.31    0.34
  -5   0  -2    9.58    0.38
  -5   0  -2    9.29    0.39
  -5   0  -3    0.29    0.24
  -5   0  -3    0.60    0.34
  -5   0  -3    0.21    0.26
  -5   0  -3    0.77    0.32
  -5   0  -3    0.25    0.24
   5   0   4    5.27    0.36
  -5   0  -4    4.76    0.36
  -5   0  -4    4.49    0.34
  -5   0  -4    4.63    0.39
   5   0   4    4.98    0.38
   5   0   4    5.02    0.42
   5   0   4    4.91    0.38
  -5   0  -4    3.96    0.36
   5   0   5    1.66    0.30
  -5   0  -5    1.43    0.36
   5   0   5    1.35    0.36
  -5   0  -5    1.12    0.28
   5   0   5    1.76    0.38
  -5   0  -5    1.20    0.30
   5   0   5    1.68    0.33
  -5   0  -5    1.39    0.35
   5   0   6   24.31    0.66
  -5   0  -6   26.84    0.70
  -5   0  -6   23.18    0.62
   5   0   6   25.31    0.72
   5   0   6   24.69    0.67
   5   0   6   26.28    0.65
  -5   0  -6   24.22    0.63
   5   0   7   19.07    0.63
  -5   0  -7   19.20    0.66
  -5   0  -7   18.76    0.64
   5   0   7   18.15    0.65
   5   0   7   18.76    0.68
   5   0   7   18.79    0.62
  -5   0  -8   13.40    0.62
  -5   0  -8   12.72    0.58
   5   0   8   13.37    0.59
  -5   0  -8   12.29    0.50
  -5   0  -8   14.07    0.61
  -5   0  -9   26.02    0.76
  -5   0  -9   23.04    0.68
   5   0   9   25.65    0.71
  -5   0  -9   22.68    0.60
  -5   0  -9   24.42    0.70
  -5   0 -10   31.63    0.81
  -5   0 -10   29.58    0.72
   5   0  10   31.73    0.73
  -5   0 -10   31.97    0.75
  -5   0 -11    1.61    0.42
   5   0  11    1.96    0.35
  -5   0 -11    1.79    0.38
  -5   0 -11    1.67    0.31
  -5   0 -11    2.03    0.42
  -5   0 -12    1.39    0.29
  -5   0 -12    1.82    0.36
   5   0  12    1.93    0.31
  -5   0 -12    1.67    0.36
  -5   0 -12    1.94    0.35
  -5   0 -12    1.75    0.37
  -5   0 -13    0.19    0.28
  -5   0 -13    0.24    0.27
  -5   0 -13    0.17    0.28
  -5   0 -13    0.04    0.28
   5   1 -16    8.84    0.28
   5   1 -16    8.50    0.27
   5   1 -15    1.16    0.30
   5   1 -15    1.15    0.30
   5   1 -15    0.99    0.27
   5   1 -15    0.95    0.28
   5   1 -14    3.15    0.31
   5   1 -14    3.64    0.34
   5   1 -14    3.98    0.41
   5   1 -14    3.93    0.40
   5   1 -14    3.01    0.39
   5   1 -13    0.99    0.33
   5   1 -13    1.07    0.33
   5   1 -13    0.81    0.35
   5   1 -13    1.25    0.42
   5   1 -13    1.18    0.39
   5   1 -12    0.65    0.35
   5   1 -12    0.70    0.36
   5   1 -12    1.05    0.38
   5   1 -12    0.87    0.45
   5   1 -12    1.04    0.41
   5   1 -12    0.95    0.40
   5   1 -11    7.04    0.55
   5   1 -11    6.35    0.46
   5   1 -11    7.35    0.57
   5   1 -11    6.89    0.57
   5   1 -11    6.91    0.58
   5   1 -11    6.98    0.58
   5   1 -11    5.89    0.50
   5   1 -10    7.80    0.61
   5   1 -10    7.86    0.62
   5   1 -10    8.54    0.65
   5   1 -10    7.93    0.57
   5   1 -10    7.30    0.65
   5   1 -10    7.86    0.65
   5   1 -10    8.05    0.66
   5   1 -10    6.64    0.56
   5   1  -9   76.01    1.32
   5   1  -9   78.32    1.24
   5   1  -9   79.47    1.30
   5   1  -9   80.60    1.24
  -5   1   9   69.97    1.28
   5   1  -9   86.55    1.44
   5   1  -9   74.54    1.28
   5   1  -9   80.81    1.32
   5   1  -9   78.55    1.33
   5   1  -9   77.97    1.34
  -5   1   9   68.56    1.31
   5   1  -8   28.82    0.86
   5   1  -8   28.59    0.78
   5   1  -8   29.32    0.83
   5   1  -8   28.67    0.77
  -5   1   8   31.06    0.84
   5   1  -8   30.27    0.91
   5   1  -8   26.35    0.81
   5   1  -8   28.05    0.83
   5   1  -8   26.62    0.83
   5   1  -8   27.61    0.85
  -5   1   8   31.44    0.90
   5   1  -7   68.36    1.15
   5   1  -7   68.07    1.06
   5   1  -7   67.26    1.13
   5   1  -7   68.43    1.08
  -5   1   7   63.40    1.08
   5   1  -7   72.35    1.24
   5   1  -7   65.24    1.10
   5   1  -7   66.73    1.15
   5   1  -7   69.17    1.16
  -5   1   7   63.74    1.12
   5   1  -6   65.09    1.05
   5   1  -6   64.42    0.99
   5   1  -6   66.83    1.10
   5   1  -6   65.24    1.03
   5   1  -6   62.98    1.01
   5   1  -6   66.10    1.08
  -5   1   6   76.71    1.13
   5   1  -6   71.06    1.15
   5   1  -6   66.56    1.07
  -5   1   6   72.95    1.10
  -5   1   6   69.73    0.94
   5   1  -5   49.75    0.87
   5   1  -5   53.47    0.91
   5   1  -5   51.42    0.92
   5   1  -5   52.27    0.90
   5   1  -5   54.14    0.95
   5   1  -5   48.91    0.88
  -5   1   5   54.44    0.68
   5   1  -5   51.18    0.93
   5   1  -5   50.93    0.89
  -5   1   5   55.94    0.72
  -5   1   5   55.02    0.91
  -5   1   5   51.03    0.78
  -5   1   4   47.64    0.84
  -5   1   4   48.54    0.67
  -5   1   4   48.48    0.68
  -5   1   3  219.20    1.61
  -5   1   3  220.32    1.36
  -5   1   3  219.95    1.34
  -5   1   2  144.30    1.31
  -5   1   2  140.02    1.10
  -5   1   1   79.86    0.67
  -5   1   1   76.19    0.81
  -5   1   0  387.03    1.53
  -5   1   0  384.87    1.88
  -5   1   0  386.53    1.84
  -5   1  -1   29.83    0.50
  -5   1  -1   29.69    0.60
  -5   1  -1   31.22    0.57
   5   1   2   33.97    0.64
  -5   1  -2   40.35    0.61
  -5   1  -3  327.57    1.94
  -5   1  -3  395.36    2.22
   5   1   3  395.43    2.08
   5   1   3  362.29    2.02
  -5   1  -3  343.03    2.03
  -5   1  -3  335.60    1.77
   5   1   3  355.36    2.10
  -5   1  -3  336.65    1.90
   5   1   3  383.95    2.08
  -5   1  -3  346.00    1.82
  -5   1  -3  318.22    1.95
   5   1   3  372.14    2.09
  -5   1  -4  360.92    2.05
   5   1   4  339.95    2.04
   5   1   4  361.23    2.08
  -5   1  -4  357.87    2.14
  -5   1  -4  345.35    1.94
  -5   1  -4  352.87    2.06
   5   1   4  359.44    2.10
  -5   1  -4  369.43    1.99
   5   1   4  362.47    2.13
  -5   1  -4  357.32    1.93
  -5   1  -5   97.47    1.17
  -5   1  -5  100.68    1.24
  -5   1  -5   99.26    1.14
  -5   1  -5  105.19    1.23
   5   1   5  110.56    1.23
  -5   1  -5  104.61    1.20
   5   1   5  113.99    1.28
  -5   1  -5   99.83    1.12
  -5   1  -6   73.48    0.99
  -5   1  -6   68.01    1.04
   5   1   6   77.99    1.12
  -5   1  -6   70.12    1.12
  -5   1  -6   74.63    1.14
   5   1   6   77.22    1.12
  -5   1  -6   65.47    0.99
  -5   1  -7   28.53    0.75
   5   1   7   25.91    0.75
  -5   1  -7   27.96    0.77
  -5   1  -7   31.45    0.86
   5   1   7   23.12    0.72
  -5   1  -7   29.97    0.74
  -5   1  -7   30.29    0.81
   5   1   7   26.10    0.73
  -5   1  -7   26.29    0.73
  -5   1  -8   29.54    0.81
  -5   1  -8   31.45    0.84
  -5   1  -8   33.68    0.86
  -5   1  -8   32.00    0.73
   5   1   8   30.89    0.79
   5   1   8   31.73    0.76
  -5   1  -8   29.27    0.76
  -5   1  -9   14.96    0.61
  -5   1  -9   14.41    0.64
  -5   1  -9   12.16    0.65
  -5   1  -9   14.13    0.55
   5   1   9   13.26    0.59
   5   1   9   13.11    0.54
  -5   1  -9   14.69    0.61
  -5   1 -10   10.78    0.59
  -5   1 -10   10.01    0.50
  -5   1 -10    9.60    0.48
  -5   1 -11    0.85    0.38
  -5   1 -11    1.17    0.32
   5   1  11    0.84    0.34
  -5   1 -12   14.95    0.54
  -5   1 -12   14.87    0.44
  -5   1 -12   14.49    0.46
   5   1  12   15.67    0.48
  -5   1 -12   15.27    0.52
  -5   1 -13    3.77    0.32
   5   1  13    3.38    0.27
  -5   1 -13    3.50    0.26
  -5   1 -13    3.73    0.32
   5   2 -15    0.54    0.25
   5   2 -15    0.49    0.24
   5   2 -15    0.49    0.23
   5   2 -14    1.45    0.30
   5   2 -14    1.43    0.35
   5   2 -14    1.59    0.34
   5   2 -14    1.30    0.34
   5   2 -13   15.17    0.55
   5   2 -13   16.04    0.61
   5   2 -13   16.81    0.60
   5   2 -13   16.52    0.55
   5   2 -13   14.40    0.60
   5   2 -12    1.08    0.40
   5   2 -12    1.21    0.45
   5   2 -12    1.30    0.43
   5   2 -12    1.29    0.38
   5   2 -12    1.31    0.43
   5   2 -11   33.92    0.93
   5   2 -11   34.07    0.79
   5   2 -11   37.55    0.92
   5   2 -11   36.19    0.89
   5   2 -11   32.58    0.92
   5   2 -11   33.68    0.87
   5   2 -10   41.32    0.93
   5   2 -10   42.59    1.03
   5   2 -10   43.75    1.02
   5   2 -10   40.60    0.98
   5   2  -9   13.48    0.70
   5   2  -9   15.10    0.69
   5   2  -9   14.21    0.63
   5   2  -9   15.76    0.75
   5   2  -9   15.76    0.74
   5   2  -9   14.51    0.73
   5   2  -8  161.05    1.78
   5   2  -8  161.61    1.66
   5   2  -8  157.05    1.79
  -5   2   8  160.80    1.95
   5   2  -8  163.21    1.87
   5   2  -8  162.74    1.79
   5   2  -7   45.21    1.02
   5   2  -7   49.61    1.02
   5   2  -7   50.09    0.97
   5   2  -7   49.13    1.05
  -5   2   7   44.61    1.05
   5   2  -7   49.07    1.06
   5   2  -7   47.45    1.06
  -5   2   7   41.49    0.84
   5   2  -7   48.44    1.01
   5   2  -6   67.49    1.08
  -5   2   6   67.28    0.96
   5   2  -6   67.30    1.15
   5   2  -6   66.58    1.07
   5   2  -6   71.19    1.18
   5   2  -6   68.34    1.17
  -5   2   6   63.49    0.95
   5   2  -6   66.76    1.11
  -5   2   6   70.83    1.25
   5   2  -5   35.70    0.79
  -5   2   5   33.00    0.83
  -5   2   5   31.78    0.70
   5   2  -5   35.69    0.83
   5   2  -5   34.94    0.80
   5   2  -5   34.49    0.82
   5   2  -5   37.01    0.85
   5   2  -5   35.70    0.85
   5   2  -4  113.87    1.24
  -5   2   4  116.80    1.15
   5   2  -4  118.87    1.36
   5   2  -4  117.28    1.28
   5   2  -4  114.20    1.31
   5   2  -4  123.72    1.40
   5   2  -4  121.61    1.35
  -5   2   4  125.80    1.42
   5   2  -4  119.81    1.38
  -5   2   3   37.43    0.70
   5   2  -3   39.18    0.80
  -5   2   3   36.93    0.78
   5   2  -3   36.98    0.76
   5   2  -3   35.84    0.75
  -5   2   3   38.71    0.61
   5   2  -3   37.60    0.78
   5   2  -3   38.12    0.80
  -5   2   3   36.04    0.68
   5   2  -2  281.58    1.93
  -5   2   2  279.62    1.69
   5   2  -2  290.27    1.94
  -5   2   2  287.64    1.62
  -5   2   2  272.13    1.64
  -5   2   2  291.31    2.02
   5   2  -2  275.62    1.89
   5   2  -1   43.81    0.81
   5   2  -1   46.71    0.64
  -5   2   1   44.30    0.74
   5   2  -1   43.27    0.80
   5   2  -1   45.37    0.77
  -5   2   1   48.43    0.73
   5   2   0   18.77    0.47
  -5   2   0   19.07    0.52
   5   2   0   18.69    0.54
   5   2   0   18.78    0.54
  -5   2   0   19.40    0.44
  -5   2  -1   80.19    0.98
   5   2   1   48.06    0.74
  -5   2  -1   63.46    0.90
   5   2   1   60.08    0.92
   5   2   1   47.25    0.81
  -5   2  -1   81.03    0.97
  -5   2  -1   66.58    0.91
   5   2   1   45.93    0.82
   5   2   1   47.75    0.82
   5   2   2  722.55    2.85
   5   2   2  721.26    3.09
  -5   2  -2  737.86    2.93
   5   2   2  727.41    2.95
   5   2   2  728.14    2.83
   5   2   2  705.70    3.07
   5   2   2  712.05    3.05
   5   2   2  720.93    3.03
  -5   2  -3  598.81    2.62
  -5   2  -3  587.70    2.56
   5   2   3  605.29    2.41
   5   2   3  589.39    2.71
   5   2   3  585.08    2.82
  -5   2  -3  566.95    2.71
  -5   2  -3  582.73    2.62
   5   2   3  593.08    2.69
   5   2   3  567.88    2.80
   5   2   3  592.97    2.69
   5   2   3  573.74    2.86
   5   2   3  580.66    2.78
  -5   2  -4  128.67    1.33
   5   2   4  138.98    1.44
   5   2   4  136.80    1.43
  -5   2  -4  118.95    1.33
   5   2   4  136.92    1.35
   5   2   4  140.41    1.19
   5   2   4  130.05    1.40
   5   2   4  147.07    1.44
  -5   2  -4  116.43    1.30
  -5   2  -4  125.61    1.29
  -5   2  -5  206.51    1.76
   5   2   5  215.32    1.90
  -5   2  -5  211.93    1.82
   5   2   5  220.03    1.49
   5   2   5  202.79    1.78
   5   2   5  203.32    1.72
  -5   2  -5  206.00    1.73
  -5   2  -5  208.11    1.85
   5   2   5  205.67    1.80
  -5   2  -5  210.99    1.73
  -5   2  -6  145.06    1.52
  -5   2  -6  155.20    1.70
  -5   2  -6  153.96    1.62
   5   2   6  146.78    1.27
   5   2   6  121.74    1.43
   5   2   6  127.96    1.44
  -5   2  -6  153.30    1.65
  -5   2  -6  139.92    1.49
   5   2   6  135.57    1.52
  -5   2  -6  149.04    1.51
  -5   2  -7    0.49    0.41
  -5   2  -7    0.36    0.43
  -5   2  -7    0.69    0.48
   5   2   7    1.00    0.37
   5   2   7    0.87    0.41
  -5   2  -7    0.51    0.50
   5   2   7    0.72    0.41
  -5   2  -7    0.62    0.46
  -5   2  -8    1.53    0.42
  -5   2  -8    1.55    0.42
  -5   2  -8    1.39    0.48
   5   2   8    0.72    0.40
  -5   2  -8    1.63    0.50
   5   2   8    0.64    0.39
  -5   2  -8    1.53    0.43
  -5   2  -9   17.14    0.66
  -5   2  -9   17.85    0.65
  -5   2  -9   18.04    0.66
  -5   2  -9   17.64    0.65
   5   2   9   18.75    0.63
  -5   2  -9   17.58    0.66
  -5   2 -10   28.37    0.76
  -5   2 -10   27.52    0.73
  -5   2 -10   28.05    0.70
  -5   2 -10   27.09    0.63
  -5   2 -10   27.69    0.73
  -5   2 -11   17.81    0.60
  -5   2 -11   17.40    0.52
  -5   2 -11   19.04    0.58
   5   2  11   18.89    0.56
  -5   2 -11   18.30    0.58
  -5   2 -12    6.89    0.41
   5   2  12    7.59    0.38
  -5   2 -12    6.59    0.39
  -5   2 -13    0.05    0.22
   5   2  13   -0.02    0.19
   5   3 -14    3.97    0.29
   5   3 -14    3.63    0.29
   5   3 -13   16.49    0.55
   5   3 -13   17.12    0.55
   5   3 -12   25.57    0.71
   5   3 -12   25.02    0.72
   5   3 -12   26.22    0.64
   5   3 -12   25.78    0.73
   5   3 -11   24.19    0.77
   5   3 -11   25.98    0.80
   5   3 -11   25.31    0.70
  -5   3  11   27.57    0.70
   5   3 -11   24.90    0.79
   5   3 -10   12.21    0.68
   5   3 -10   12.99    0.70
   5   3 -10   13.05    0.62
  -5   3  10    9.94    0.60
   5   3 -10   12.05    0.70
  -5   3  10    9.74    0.58
   5   3  -9   27.97    0.92
   5   3  -9   27.94    0.91
  -5   3   9   34.03    0.77
   5   3  -9   27.08    0.82
  -5   3   9   33.35    0.91
   5   3  -9   25.03    0.89
  -5   3   9   33.28    0.83
   5   3  -8  409.57    2.90
   5   3  -8  385.21    2.82
  -5   3   8  404.93    2.31
   5   3  -8  387.84    2.53
   5   3  -8  392.14    2.38
   5   3  -8  394.55    2.67
  -5   3   8  399.49    2.66
   5   3  -8  376.51    2.83
  -5   3   8  397.53    2.29
   5   3  -7  135.45    1.73
   5   3  -7  122.10    1.65
  -5   3   7  121.99    1.38
   5   3  -7  133.77    1.58
   5   3  -7  132.25    1.49
   5   3  -7  132.82    1.63
  -5   3   7  122.98    1.55
  -5   3   7  113.11    1.31
   5   3  -6  125.10    1.62
   5   3  -6  115.49    1.57
  -5   3   6  121.64    1.40
   5   3  -6  125.02    1.52
   5   3  -6  120.91    1.44
   5   3  -6  122.21    1.55
  -5   3   6  121.94    1.52
   5   3  -6  114.65    1.31
   5   3  -5   87.51    1.32
   5   3  -5   82.59    1.31
  -5   3   5   89.80    1.20
   5   3  -5   89.95    1.29
   5   3  -5   85.89    1.22
   5   3  -5   89.37    1.42
  -5   3   5   86.83    1.31
   5   3  -5   87.84    1.28
  -5   3   5   84.74    1.39
   5   3  -5   84.69    1.36
  -5   3   5   81.20    1.06
  -5   3   4   93.94    1.36
   5   3  -4   90.94    1.31
  -5   3   4   99.42    1.24
   5   3  -4   93.84    1.28
   5   3  -4   92.84    1.24
   5   3  -4   97.01    1.39
   5   3  -4   96.90    1.30
  -5   3   4  101.15    1.33
   5   3  -4   93.45    1.36
  -5   3   4   90.97    1.11
   5   3  -3    9.64    0.56
  -5   3   3    7.89    0.53
  -5   3   3    9.08    0.55
   5   3  -3   11.88    0.56
   5   3  -3    9.92    0.53
   5   3  -3   10.06    0.61
  -5   3   3   10.27    0.60
   5   3  -3    9.42    0.55
  -5   3   3   11.14    0.53
   5   3  -2   16.75    0.61
   5   3  -2   16.78    0.62
   5   3  -2   17.80    0.66
  -5   3   2   16.08    0.65
   5   3  -2   17.08    0.65
  -5   3   2   14.86    0.58
   5   3  -1   60.26    1.02
   5   3  -1   57.31    0.98
  -5   3   1   67.84    1.07
   5   3  -1   63.52    0.99
   5   3  -1   60.79    1.02
  -5   3   1   65.19    0.94
   5   3  -1   60.91    0.94
   5   3   0   69.68    1.07
  -5   3   0   68.42    1.03
  -5   3   0   67.94    1.06
   5   3   0   70.43    1.06
   5   3   0   69.52    1.06
   5   3   0   71.21    1.03
   5   3   0   67.86    1.02
  -5   3  -1   26.11    0.71
   5   3   1   28.66    0.64
   5   3   1   27.46    0.74
  -5   3  -1   28.04    0.75
   5   3   1   29.31    0.74
   5   3   1   28.63    0.70
  -5   3  -1   28.66    0.76
   5   3   1   29.09    0.75
   5   3   1   27.47    0.70
   5   3   1   28.23    0.74
   5   3   1   28.30    0.72
   5   3   2   25.24    0.65
   5   3   2   25.31    0.68
   5   3   2   24.77    0.73
   5   3   2   25.90    0.73
   5   3   2   26.76    0.71
  -5   3  -2   26.57    0.76
   5   3   2   25.05    0.71
  -5   3  -2   27.10    0.77
   5   3   3   98.05    1.26
   5   3   3  105.06    1.34
  -5   3  -3  107.67    1.38
   5   3   3  105.80    1.31
   5   3   3  102.04    1.22
  -5   3  -3  103.21    1.27
   5   3   3   96.58    1.13
   5   3   3   97.46    1.27
   5   3   4  315.39    2.30
   5   3   4  328.12    2.25
   5   3   4  319.07    1.93
   5   3   4  334.65    2.31
   5   3   4  326.50    2.21
   5   3   5    8.97    0.58
   5   3   5    9.36    0.49
   5   3   5   10.19    0.57
   5   3   5   10.44    0.58
  -5   3  -5    8.69    0.68
  -5   3  -5    8.83    0.64
   5   3   5   11.98    0.62
   5   3   5   10.57    0.57
  -5   3  -5    8.24    0.58
  -5   3  -6    1.59    0.45
   5   3   6    0.69    0.35
   5   3   6    0.93    0.37
   5   3   6    2.82    0.46
  -5   3  -6    2.00    0.52
  -5   3  -6    2.10    0.57
   5   3   6    1.21    0.48
  -5   3  -6    2.22    0.44
  -5   3  -7    0.85    0.42
  -5   3  -7    0.88    0.49
   5   3   7    0.68    0.34
   5   3   7    0.96    0.33
   5   3   7    1.24    0.40
  -5   3  -7    0.83    0.53
   5   3   7    1.25    0.45
  -5   3  -7    0.68    0.42
  -5   3  -8   15.99    0.61
  -5   3  -8   15.88    0.68
   5   3   8   16.18    0.62
   5   3   8   15.28    0.52
  -5   3  -8   16.96    0.68
   5   3   8   16.46    0.56
   5   3   8   16.29    0.63
  -5   3  -8   15.78    0.61
  -5   3  -9   19.58    0.61
  -5   3  -9   20.61    0.68
   5   3   9   19.16    0.63
  -5   3  -9   20.66    0.66
  -5   3  -9   20.54    0.66
  -5   3 -10    9.18    0.48
  -5   3 -10    9.05    0.48
   5   3  10    8.38    0.47
  -5   3 -10    9.29    0.48
  -5   3 -10    9.19    0.50
   5   3  11    2.09    0.35
  -5   3 -11    2.57    0.34
  -5   3 -11    2.26    0.32
   5   3  11    2.02    0.31
  -5   3 -11    2.25    0.30
  -5   3 -11    2.43    0.35
   5   3  12    1.90    0.24
  -5   3 -12    1.15    0.24
  -5   3 -12    1.16    0.26
   5   4 -13    1.51    0.30
   5   4 -13    5.14    0.25
  -5   4  12    4.41    0.34
   5   4 -12    4.05    0.35
   5   4 -11    4.77    0.47
   5   4 -11    5.55    0.42
  -5   4  11    5.69    0.43
   5   4 -11    5.26    0.43
   5   4 -10    4.06    0.49
   5   4 -10    4.74    0.46
  -5   4  10    4.21    0.42
   5   4 -10    3.39    0.53
  -5   4  10    3.76    0.47
   5   4 -10    4.53    0.47
  -5   4  10    3.84    0.45
   5   4  -9   12.91    0.70
   5   4  -9   15.35    0.65
  -5   4   9   14.99    0.60
  -5   4   9   13.51    0.66
   5   4  -9   14.75    0.69
  -5   4   9   15.06    0.61
   5   4  -8   13.68    0.72
   5   4  -8   14.27    0.68
  -5   4   8   14.80    0.65
  -5   4   8   13.14    0.71
   5   4  -8   13.86    0.70
  -5   4   8   14.32    0.67
   5   4  -7   13.61    0.70
  -5   4   7   20.07    0.74
  -5   4   7   18.62    0.79
   5   4  -7   13.01    0.70
   5   4  -6    2.96    0.53
   5   4  -6    2.89    0.44
  -5   4   6    3.78    0.59
   5   4  -6    3.13    0.52
  -5   4   6    3.55    0.52
   5   4  -5    1.62    0.52
   5   4  -5    1.69    0.49
  -5   4   5    1.38    0.53
   5   4  -5    1.45    0.43
  -5   4   5    1.20    0.54
   5   4  -5    1.61    0.48
  -5   4   5    1.30    0.46
  -5   4   4   93.24    1.31
   5   4  -4   95.28    1.32
   5   4  -4   93.44    1.44
  -5   4   4   92.44    1.40
   5   4  -3  193.05    1.82
   5   4  -3  197.55    1.96
  -5   4   3  196.02    1.66
  -5   4   2   13.74    0.69
   5   4  -2   15.24    0.65
   5   4  -2   14.59    0.67
   5   4  -2   14.41    0.72
  -5   4   2   14.77    0.75
   5   4  -2   14.00    0.70
  -5   4   2   15.29    0.68
  -5   4   1   76.13    1.14
   5   4  -1   71.89    1.17
  -5   4   1   82.44    1.15
   5   4  -1   69.86    1.17
   5   4  -1   66.47    1.12
  -5   4   1   80.18    1.26
   5   4  -1   68.27    1.21
   5   4   0   63.38    1.10
   5   4   0   61.44    1.09
   5   4   0   61.25    1.09
  -5   4  -1   30.80    0.81
   5   4   1   38.03    0.86
   5   4   1   36.27    0.86
  -5   4  -1   31.96    0.86
  -5   4  -1   33.49    0.88
   5   4   1   39.73    0.87
   5   4   2   44.59    0.94
   5   4   2   44.44    0.86
  -5   4  -2   43.10    0.98
  -5   4  -2   41.98    0.99
   5   4   2   44.02    0.90
  -5   4  -3   18.62    0.76
   5   4   3   20.78    0.64
   5   4   3   21.89    0.74
  -5   4  -3   17.35    0.70
  -5   4  -3   18.18    0.79
   5   4   3   20.86    0.68
   5   4   4   93.25    1.08
  -5   4  -4   91.95    1.35
  -5   4  -4   88.33    1.24
  -5   4  -4   90.85    1.35
   5   4   4   97.09    1.27
   5   4   4   94.74    1.27
  -5   4  -5    7.19    0.60
   5   4   5    5.21    0.49
   5   4   5    5.81    0.42
   5   4   5    5.01    0.43
  -5   4  -5    7.84    0.58
  -5   4  -5    7.58    0.64
   5   4   5    5.88    0.56
   5   4   5    5.09    0.48
  -5   4  -6    5.97    0.54
   5   4   6    7.97    0.47
   5   4   6    7.84    0.42
   5   4   6    7.39    0.45
  -5   4  -6    7.43    0.56
   5   4   6    8.45    0.55
   5   4   6    7.48    0.53
   5   4   7   21.24    0.53
  -5   4  -7   23.14    0.72
   5   4   7   19.51    0.59
  -5   4  -7   24.57    0.76
   5   4   7   21.96    0.63
   5   4   7   21.30    0.68
  -5   4  -7   21.42    0.61
   5   4   8    6.23    0.49
   5   4   8    5.62    0.35
  -5   4  -8    5.24    0.49
   5   4   8    6.52    0.43
   5   4   8    4.91    0.40
  -5   4  -8    4.92    0.41
  -5   4  -9    1.18    0.36
   5   4   9    1.04    0.32
  -5   4  -9    1.30    0.37
   5   4   9    0.99    0.31
  -5   4  -9    1.10    0.32
   5   4  10    1.12    0.27
  -5   4 -10    1.38    0.30
  -5   4 -10    1.15    0.28
   5   4  11    4.06    0.27
   5   4  11    3.71    0.24
  -5   4 -11    2.93    0.23
  -5   4 -11    2.84    0.23
   5   5 -11    0.81    0.27
   5   5 -11    1.49    0.21
  -5   5  10    0.66    0.31
   5   5 -10    0.36    0.32
  -5   5  10    0.62    0.34
   5   5 -10    0.68    0.28
  -5   5   9    1.64    0.36
   5   5  -9    1.16    0.39
   5   5  -9    1.73    0.35
  -5   5   9    1.34    0.39
  -5   5   9    1.46    0.40
  -5   5   8    6.01    0.49
  -5   5   8    6.26    0.51
   5   5  -8    5.18    0.50
   5   5  -8    5.73    0.44
  -5   5   7    6.91    0.52
   5   5  -7    7.44    0.55
  -5   5   7    6.37    0.54
   5   5  -7    6.74    0.51
  -5   5   7    6.92    0.53
  -5   5   6    1.31    0.49
   5   5  -6    1.42    0.47
  -5   5   6    1.22    0.51
   5   5  -6    1.55    0.43
  -5   5   6    1.71    0.47
   5   5  -5   15.57    0.54
   5   5  -5   17.80    0.74
  -5   5   5   17.01    0.75
   5   5  -5   16.77    0.70
  -5   5   5   17.46    0.67
   5   5  -4   24.50    0.67
   5   5  -4   25.81    0.81
  -5   5   4   27.30    0.76
  -5   5   4   25.79    0.85
  -5   5   3   18.32    0.72
   5   5  -3   20.02    0.65
   5   5  -3   20.23    0.76
  -5   5   3   18.63    0.66
  -5   5   2    3.87    0.54
   5   5  -2    3.27    0.45
   5   5  -2    2.80    0.44
  -5   5   2    3.73    0.48
  -5   5   1   39.95    0.89
   5   5  -1   38.27    0.87
   5   5  -1   38.35    0.79
  -5   5   0   71.92    1.08
  -5   5   0   69.41    1.12
   5   5   0   70.31    1.13
  -5   5   0   68.56    1.07
   5   5   0   69.92    1.05
  -5   5  -1   40.10    0.85
   5   5   1   46.37    0.89
  -5   5  -1   40.02    0.89
  -5   5  -1   37.18    0.89
   5   5   1   45.48    0.91
   5   5   1   45.63    0.94
   5   5   2   59.91    0.94
  -5   5  -2   50.63    0.90
  -5   5  -2   54.76    0.96
  -5   5  -2   54.60    1.01
   5   5   2   59.05    0.99
   5   5   3   13.35    0.52
   5   5   3   14.25    0.52
  -5   5  -3   13.85    0.57
  -5   5  -3   15.83    0.63
  -5   5  -3   14.95    0.67
   5   5   3   13.21    0.57
   5   5   3   15.89    0.65
   5   5   3   13.39    0.52
   5   5   4   10.54    0.50
   5   5   4   11.87    0.56
  -5   5  -4   10.44    0.55
   5   5   4   11.97    0.47
  -5   5  -4   11.78    0.58
  -5   5  -4   11.03    0.62
   5   5   4   11.53    0.57
   5   5   5   12.05    0.50
   5   5   5   12.53    0.46
   5   5   5   11.19    0.51
  -5   5  -5   11.43    0.54
  -5   5  -5   10.87    0.60
   5   5   6   12.72    0.51
  -5   5  -6   10.65    0.52
   5   5   6   12.48    0.43
  -5   5  -6   10.20    0.54
   5   5   6   13.20    0.53
   5   5   7    3.96    0.32
   5   5   7    4.67    0.39
  -5   5  -7    3.71    0.39
  -5   5  -7    3.52    0.41
   5   5   7    4.68    0.38
   5   5   8    6.85    0.38
   5   5   8    6.73    0.34
   5   5   9    8.14    0.33
   5   5   9    7.42    0.27
   5   5  10    1.08    0.17
  -5   6   9    1.37    0.26
   5   6  -9    0.59    0.19
  -5   6   9    1.29    0.26
  -5   6   8    0.65    0.30
   5   6  -8    0.32    0.25
  -5   6   8    0.87    0.30
  -5   6   7    2.74    0.37
   5   6  -7    2.04    0.32
  -5   6   7    2.60    0.37
   5   6  -6    3.00    0.37
  -5   6   6    2.10    0.39
  -5   6   5    3.65    0.45
   5   6  -5    4.85    0.43
  -5   6   5    3.33    0.42
  -5   6   4   46.12    0.85
   5   6  -4   50.56    0.86
  -5   6   3   29.55    0.72
   5   6  -3   29.68    0.59
  -5   6   3   28.81    0.75
  -5   6   2    3.59    0.47
   5   6  -2    5.20    0.45
   5   6  -2    4.66    0.38
  -5   6   2    3.42    0.47
  -5   6   1    3.61    0.44
   5   6  -1    3.58    0.41
   5   6  -1    3.13    0.36
  -5   6   1    3.59    0.45
   5   6  -1    3.45    0.35
   5   6   0    0.49    0.35
   5   6   0    0.12    0.33
  -5   6   0    0.35    0.38
   5   6   0    0.48    0.33
   5   6   1    6.69    0.43
  -5   6  -1    7.92    0.47
   5   6   1    7.76    0.43
   5   6   2    3.82    0.38
  -5   6  -2    3.59    0.41
  -5   6  -2    2.72    0.35
   5   6   2    4.26    0.39
   5   6   3    1.07    0.33
  -5   6  -3    1.06    0.35
  -5   6  -3    0.88    0.33
   5   6   3    1.40    0.35
  -5   6  -4    1.65    0.33
  -5   6  -4    1.09    0.32
   5   6   4    1.57    0.33
  -5   6  -5    0.84    0.30
   5   6   5    0.99    0.29
   5   6   6    0.38    0.22
   5   6   6    0.23    0.22
  -5   6  -6    0.33    0.26
  -5   6  -7    6.94    0.29
   5   6   7    8.88    0.28
  -5   7   5    2.09    0.21
   5   7  -4    9.15    0.24
  -5   7   4    8.12    0.30
   5   7  -3    1.79    0.21
  -5   7   3    1.10    0.26
   5   7  -2    5.61    0.26
  -5   7   2    5.38    0.31
   5   7  -1   16.82    0.34
  -5   7   1   15.76    0.39
  -5   7   0   12.74    0.35
   5   7   0   13.73    0.32
   5   7   1    7.80    0.26
  -5   7  -1    5.13    0.25
   5   7   2    0.66    0.18
   5   7   3    0.84    0.15
   6  -5 -10    0.01    0.19
  -6  -5  -6    1.38    0.26
  -6  -5  -6    1.36    0.23
  -6  -5  -7    1.14    0.19
   6  -4 -11    1.76    0.25
   6  -4 -10    1.24    0.28
  -6  -4  -2  110.02    1.21
  -6  -4  -3   61.83    1.14
  -6  -4  -7    8.06    0.43
  -6  -4  -7    7.78    0.38
  -6  -4  -8    5.44    0.33
  -6  -4  -8    5.55    0.31
  -6  -4  -9    1.39    0.24
  -6  -4 -10    4.25    0.21
   6  -3 -14    0.50    0.15
   6  -3 -13    1.29    0.26
   6  -3 -13    1.20    0.25
   6  -3 -13    1.23    0.26
   6  -3 -12    5.04    0.36
   6  -3 -12    4.02    0.37
   6  -3 -12    5.06    0.37
   6  -3 -12    5.01    0.34
   6  -3 -11   19.10    0.60
   6  -3 -11   21.18    0.63
   6  -3 -11   19.71    0.57
   6  -3 -10   42.94    0.84
   6  -3 -10   45.01    0.84
   6  -3  -9    4.84    0.47
   6  -3  -9    5.47    0.51
   6  -3  -9    4.66    0.47
   6  -3  -8   43.91    0.93
   6  -3  -8   48.26    1.03
   6  -3  -7    7.29    0.54
   6  -3  -7    7.81    0.59
   6  -3  -6   13.14    0.59
   6  -3  -6   15.13    0.69
   6  -3  -5   16.07    0.69
  -6  -3   4   16.39    0.67
  -6  -3   4   16.08    0.61
  -6  -3   4   16.40    0.68
  -6  -3   3   83.93    1.23
  -6  -3   3   81.54    1.18
  -6  -3   3   86.14    1.33
  -6  -3   2   39.28    0.84
  -6  -3   2   38.51    0.86
  -6  -3   2   41.88    0.94
  -6  -3   2   40.29    0.92
  -6  -3   1   14.49    0.58
  -6  -3   1   14.41    0.57
  -6  -3   1   14.53    0.60
   6  -3  -1   16.46    0.62
  -6  -3   1   14.94    0.60
  -6  -3   1   14.85    0.60
  -6  -3   0  105.69    1.26
  -6  -3   0  110.27    1.31
  -6  -3   0  106.72    1.31
  -6  -3   0  107.42    1.31
  -6  -3  -1   17.11    0.60
  -6  -3  -1   17.13    0.60
  -6  -3  -1   16.55    0.58
  -6  -3  -1   17.85    0.64
  -6  -3  -2   11.68    0.54
  -6  -3  -2   12.23    0.53
  -6  -3  -2   12.67    0.56
  -6  -3  -3   38.06    0.92
  -6  -3  -3   32.27    0.75
  -6  -3  -4  273.43    1.91
   6  -3   4  273.07    1.97
  -6  -3  -5   17.16    0.58
   6  -3   5   15.20    0.60
  -6  -3  -6   18.23    0.59
  -6  -3  -6   18.03    0.55
  -6  -3  -7    0.78    0.33
  -6  -3  -7    0.97    0.37
  -6  -3  -8    5.00    0.35
  -6  -3  -8    5.26    0.44
  -6  -3  -8    5.24    0.38
  -6  -3  -9   13.36    0.49
  -6  -3  -9   14.72    0.45
  -6  -3 -10   12.07    0.41
  -6  -3 -10   11.49    0.37
  -6  -3 -10   12.27    0.37
  -6  -3 -11    7.11    0.28
  -6  -3 -11    6.65    0.26
   6  -2 -14   12.14    0.32
   6  -2 -14   14.58    0.43
   6  -2 -14   11.98    0.33
   6  -2 -14   14.90    0.41
   6  -2 -14   12.68    0.35
   6  -2 -14   11.58    0.32
   6  -2 -13    1.03    0.34
   6  -2 -13    1.23    0.30
   6  -2 -13    1.25    0.32
   6  -2 -13    1.45    0.30
   6  -2 -13    1.36    0.33
   6  -2 -13    1.12    0.30
   6  -2 -12   15.12    0.58
   6  -2 -12   15.26    0.53
   6  -2 -12   16.17    0.62
   6  -2 -12   16.17    0.55
   6  -2 -12   16.97    0.58
   6  -2 -12   14.54    0.50
   6  -2 -11    0.42    0.36
   6  -2 -11    0.47    0.40
   6  -2 -11    0.30    0.35
   6  -2 -11    0.36    0.38
   6  -2 -11    0.24    0.33
   6  -2 -10    2.33    0.48
   6  -2 -10    2.35    0.44
   6  -2 -10    2.65    0.46
   6  -2 -10    2.73    0.41
   6  -2 -10    2.52    0.46
   6  -2  -9   18.11    0.73
   6  -2  -9   19.13    0.77
   6  -2  -9   18.86    0.70
   6  -2  -9   19.10    0.73
   6  -2  -9   17.51    0.62
   6  -2  -8    0.58    0.45
   6  -2  -8    0.47    0.48
   6  -2  -8    0.50    0.46
   6  -2  -8    0.63    0.45
   6  -2  -7   45.52    1.00
   6  -2  -7   45.95    1.10
   6  -2  -7   44.87    0.98
   6  -2  -7   45.24    1.03
   6  -2  -6  133.61    1.45
  -6  -2   6  144.61    1.54
   6  -2  -6  148.48    1.68
   6  -2  -6  146.46    1.80
   6  -2  -6  140.67    1.69
  -6  -2   6  156.05    1.81
   6  -2  -5  107.07    1.25
   6  -2  -5  112.28    1.39
   6  -2  -5  120.18    1.59
   6  -2  -5  119.41    1.50
  -6  -2   5  121.78    1.34
  -6  -2   5  124.22    1.59
  -6  -2   5  117.92    1.44
   6  -2  -4   57.12    0.86
   6  -2  -4   68.62    1.19
   6  -2  -4   63.29    1.02
  -6  -2   4   60.30    1.02
   6  -2  -4   67.52    1.15
  -6  -2   4   60.70    0.94
  -6  -2   4   57.85    1.06
   6  -2  -3   85.34    1.07
   6  -2  -3   90.15    1.29
   6  -2  -2   22.81    0.70
  -6  -2   2   23.83    0.68
  -6  -2   2   22.42    0.61
  -6  -2   1   38.71    0.83
  -6  -2   1   37.65    0.71
   6  -2  -1   36.24    0.85
  -6  -2   1   37.35    0.78
  -6  -2   1   38.02    0.83
  -6  -2   1   38.66    0.76
  -6  -2   0   42.29    0.86
   6  -2   0   43.82    0.92
  -6  -2   0   41.71    0.73
  -6  -2   0   41.27    0.78
   6  -2   0   41.59    0.83
  -6  -2   0   39.96    0.79
  -6  -2   0   40.25    0.75
  -6  -2  -1   66.51    1.07
  -6  -2  -1   66.74    0.88
   6  -2   1   69.79    1.10
  -6  -2  -1   65.14    0.95
   6  -2   1   63.30    0.99
  -6  -2  -1   70.63    1.08
  -6  -2  -1   68.57    0.98
  -6  -2  -2   51.68    0.78
  -6  -2  -2   52.33    0.99
  -6  -2  -2   51.44    0.86
  -6  -2  -2   53.16    0.99
  -6  -2  -3  133.43    1.55
  -6  -2  -3  114.11    1.27
  -6  -2  -3  118.80    1.18
  -6  -2  -3  125.32    1.46
  -6  -2  -3  127.36    1.33
  -6  -2  -3  116.68    1.26
  -6  -2  -3  125.64    1.48
  -6  -2  -4  247.29    1.97
  -6  -2  -4  232.11    1.62
   6  -2   4  231.12    1.88
  -6  -2  -4  241.76    1.74
  -6  -2  -4  246.68    2.09
  -6  -2  -5  325.03    2.26
  -6  -2  -5  310.06    2.23
  -6  -2  -6   36.86    0.82
  -6  -2  -6   35.18    0.85
   6  -2   6   35.58    0.79
  -6  -2  -7    7.63    0.50
  -6  -2  -7    7.74    0.51
   6  -2   7    6.13    0.44
  -6  -2  -7    7.33    0.51
  -6  -2  -8    1.08    0.37
  -6  -2  -8    1.14    0.37
  -6  -2  -8    1.26    0.40
   6  -2   8    1.37    0.33
  -6  -2  -8    1.27    0.36
  -6  -2  -9    1.68    0.37
  -6  -2  -9    1.68    0.36
  -6  -2  -9    1.71    0.35
  -6  -2 -10   20.13    0.52
  -6  -2 -10   19.72    0.53
  -6  -2 -10   20.09    0.54
  -6  -2 -11    3.33    0.29
  -6  -2 -11    2.94    0.27
  -6  -2 -11    3.51    0.30
   6  -1 -15    2.02    0.21
   6  -1 -15    2.65    0.23
   6  -1 -15    2.25    0.22
   6  -1 -15    2.27    0.22
   6  -1 -14    2.13    0.28
   6  -1 -14    1.98    0.30
   6  -1 -14    1.77    0.22
   6  -1 -14    2.48    0.32
   6  -1 -14    2.57    0.31
   6  -1 -14    2.36    0.33
   6  -1 -14    1.97    0.30
   6  -1 -13    2.21    0.34
   6  -1 -13    2.14    0.36
   6  -1 -13    2.47    0.31
   6  -1 -13    2.66    0.39
   6  -1 -13    2.49    0.36
   6  -1 -13    2.30    0.37
   6  -1 -13    2.34    0.35
   6  -1 -12    2.66    0.39
   6  -1 -12    2.55    0.40
   6  -1 -12    2.23    0.36
   6  -1 -12    2.80    0.43
   6  -1 -12    2.74    0.43
   6  -1 -12    2.66    0.43
   6  -1 -12    2.44    0.39
   6  -1 -11    1.03    0.39
   6  -1 -11    1.26    0.39
   6  -1 -11    1.21    0.42
   6  -1 -11    1.08    0.40
   6  -1 -11    1.00    0.38
   6  -1 -10   66.95    1.12
   6  -1 -10   67.46    1.09
   6  -1 -10   69.87    1.26
   6  -1 -10   67.22    1.13
   6  -1  -9   47.62    1.00
   6  -1  -9   49.96    1.09
   6  -1  -9   50.07    1.07
   6  -1  -9   48.48    1.12
   6  -1  -9   47.69    1.00
   6  -1  -8   51.85    1.01
   6  -1  -8   54.43    1.14
   6  -1  -8   51.71    1.18
   6  -1  -8   54.22    1.11
   6  -1  -8   52.75    1.15
  -6  -1   8   68.00    1.23
   6  -1  -8   52.67    1.02
  -6  -1   8   70.30    1.34
   6  -1  -7   23.10    0.84
   6  -1  -7   25.37    0.82
  -6  -1   7   22.61    0.67
   6  -1  -7   23.39    0.83
  -6  -1   7   23.60    0.76
  -6  -1   7   24.08    0.80
   6  -1  -6   51.57    0.97
   6  -1  -6   54.59    1.07
   6  -1  -6   51.39    1.10
   6  -1  -6   51.70    1.01
  -6  -1   6   57.35    0.95
   6  -1  -6   50.72    1.04
  -6  -1   6   60.97    1.08
  -6  -1   6   58.79    1.09
   6  -1  -5    3.51    0.40
   6  -1  -5    3.21    0.47
   6  -1  -5    3.38    0.45
   6  -1  -5    3.27    0.47
  -6  -1   5    7.83    0.47
   6  -1  -5    3.12    0.47
  -6  -1   5    7.85    0.50
  -6  -1   5    7.52    0.47
   6  -1  -4  303.01    2.07
   6  -1  -4  279.13    2.06
   6  -1  -4  301.26    2.06
   6  -1  -4  275.35    2.18
   6  -1  -4  285.61    2.07
  -6  -1   4  298.87    2.06
   6  -1  -4  280.29    2.16
  -6  -1   4  286.21    2.07
  -6  -1   4  291.12    1.73
   6  -1  -3   48.55    0.85
   6  -1  -3   47.16    0.87
   6  -1  -3   47.89    0.86
   6  -1  -3   46.97    0.89
  -6  -1   3   54.04    0.89
   6  -1  -3   45.61    0.92
   6  -1  -3   45.52    0.93
  -6  -1   3   56.60    0.96
  -6  -1   3   56.11    0.79
   6  -1  -2   41.02    0.74
   6  -1  -2   40.87    0.78
   6  -1  -2   41.62    0.79
   6  -1  -2   40.09    0.84
  -6  -1   2   35.80    0.72
   6  -1  -2   41.85    0.86
  -6  -1   2   38.80    0.80
   6  -1  -2   41.71    0.83
  -6  -1   2   37.97    0.65
   6  -1  -1  151.48    1.33
   6  -1  -1  147.01    1.49
   6  -1  -1  147.88    1.48
   6  -1  -1  147.53    1.44
  -6  -1   1  154.50    1.47
  -6  -1   1  155.55    1.25
  -6  -1   0   64.62    1.03
   6  -1   0   65.80    1.03
  -6  -1   0   62.43    0.89
   6  -1   0   66.71    1.00
   6  -1   0   67.16    0.98
  -6  -1   0   65.67    0.99
  -6  -1   0   61.53    0.81
  -6  -1  -1   37.00    0.66
  -6  -1  -1   41.09    0.85
   6  -1   1   52.51    0.94
  -6  -1  -1   37.65    0.74
   6  -1   1   51.50    0.92
   6  -1   1   50.18    0.87
  -6  -1  -1   38.66    0.77
  -6  -1  -2  124.20    1.16
  -6  -1  -2  141.05    1.50
  -6  -1  -2  141.69    1.34
   6  -1   2  153.87    1.55
  -6  -1  -2  130.40    1.28
   6  -1   2  160.98    1.58
   6  -1   2  153.10    1.42
  -6  -1  -3  310.76    1.93
  -6  -1  -3  320.96    2.28
  -6  -1  -3  316.02    2.04
   6  -1   3  328.45    2.22
  -6  -1  -3  305.09    2.03
   6  -1   3  316.17    2.04
   6  -1   4  102.21    1.20
  -6  -1  -4  111.28    1.28
  -6  -1  -4  114.37    1.26
  -6  -1  -4  113.13    1.42
   6  -1   4  128.85    1.48
   6  -1   4  125.44    1.39
  -6  -1  -4  106.30    1.26
   6  -1   4  123.67    1.31
  -6  -1  -4  115.99    1.41
  -6  -1  -5   81.36    1.24
  -6  -1  -5   83.52    1.21
   6  -1   5   71.27    1.10
  -6  -1  -5   74.42    1.09
  -6  -1  -5   79.27    1.22
   6  -1   5   86.36    1.23
  -6  -1  -5   80.39    1.12
   6  -1   5   78.88    1.17
  -6  -1  -5   77.20    1.14
  -6  -1  -6   21.72    0.73
  -6  -1  -6   23.69    0.78
  -6  -1  -6   22.60    0.66
   6  -1   6   28.92    0.78
   6  -1   6   27.80    0.73
  -6  -1  -7    3.68    0.46
  -6  -1  -7    3.49    0.49
   6  -1   7    4.17    0.43
  -6  -1  -8    9.31    0.53
  -6  -1  -8    8.81    0.55
  -6  -1  -8    8.50    0.52
  -6  -1  -8    7.89    0.51
  -6  -1  -9   16.06    0.58
  -6  -1  -9   15.90    0.62
  -6  -1  -9   15.81    0.55
   6  -1   9   14.66    0.52
  -6  -1  -9   15.32    0.57
  -6  -1 -10    6.14    0.44
  -6  -1 -10    6.06    0.45
  -6  -1 -10    6.23    0.41
  -6  -1 -10    5.01    0.32
  -6  -1 -10    6.02    0.44
  -6  -1 -11    2.13    0.32
  -6  -1 -11    2.27    0.34
  -6  -1 -11    2.03    0.33
   6  -1  11    1.77    0.25
  -6  -1 -11    1.73    0.25
  -6  -1 -11    2.07    0.33
  -6  -1 -12    9.98    0.33
  -6  -1 -12   10.65    0.38
  -6  -1 -12   10.16    0.35
  -6  -1 -12   10.09    0.35
   6   0 -15    1.36    0.24
   6   0 -15    0.98    0.18
   6   0 -15    1.23    0.19
   6   0 -15    1.50    0.24
   6   0 -15    1.20    0.23
   6   0 -14   -0.02    0.28
   6   0 -14   -0.09    0.26
   6   0 -14   -0.03    0.27
   6   0 -14   -0.04    0.30
   6   0 -14   -0.04    0.28
   6   0 -13    0.94    0.36
   6   0 -13    0.74    0.34
   6   0 -13    0.83    0.27
   6   0 -13    0.69    0.34
   6   0 -13    0.74    0.37
   6   0 -13    0.85    0.35
   6   0 -13    0.65    0.34
   6   0 -12    7.38    0.50
   6   0 -12    6.50    0.49
   6   0 -12    6.56    0.42
   6   0 -12    8.17    0.55
   6   0 -12    7.96    0.52
   6   0 -12    7.28    0.53
   6   0 -12    6.72    0.49
   6   0 -11    5.52    0.52
   6   0 -11    5.00    0.49
   6   0 -11    5.30    0.45
   6   0 -11    5.69    0.54
   6   0 -11    5.34    0.53
   6   0 -11    5.45    0.53
   6   0 -11    5.26    0.51
   6   0 -10    0.50    0.50
   6   0 -10    0.47    0.51
   6   0 -10    0.35    0.49
   6   0 -10    0.93    0.50
   6   0 -10    0.57    0.54
   6   0 -10    0.27    0.51
   6   0 -10    0.55    0.51
   6   0  -9   74.26    1.28
   6   0  -9   71.20    1.28
   6   0  -9   71.10    1.19
   6   0  -9   71.03    1.31
   6   0  -9   72.40    1.29
   6   0  -8   32.45    0.90
   6   0  -8   33.27    0.89
   6   0  -8   30.96    0.82
   6   0  -8   31.52    0.93
   6   0  -8   30.70    0.91
   6   0  -8   33.29    0.91
  -6   0   8   34.97    1.00
   6   0  -7  115.45    1.47
   6   0  -7  114.67    1.48
   6   0  -7  110.31    1.42
   6   0  -7  112.79    1.58
   6   0  -7  113.37    1.53
   6   0  -7  116.45    1.48
   6   0  -6   95.55    1.29
   6   0  -6   98.82    1.38
   6   0  -6   96.11    1.38
   6   0  -6   96.00    1.34
  -6   0   6  101.29    1.14
  -6   0   6  101.91    1.24
   6   0  -6   98.74    1.30
  -6   0   6   98.67    1.37
   6   0  -5    0.35    0.34
   6   0  -5    0.82    0.39
   6   0  -5    0.27    0.40
   6   0  -5    0.37    0.40
   6   0  -5    0.28    0.36
   6   0  -5    0.22    0.41
  -6   0   5    0.36    0.28
  -6   0   5    0.37    0.31
   6   0  -5    0.17    0.40
  -6   0   5    1.90    0.29
   6   0  -4    3.23    0.42
   6   0  -4    2.17    0.37
   6   0  -4    2.52    0.38
   6   0  -4    2.51    0.43
   6   0  -4    2.66    0.41
   6   0  -4    2.62    0.43
  -6   0   4    3.86    0.35
   6   0  -4    2.57    0.41
   6   0  -3    5.29    0.43
   6   0  -3    4.93    0.43
   6   0  -3    5.14    0.45
   6   0  -3    5.06    0.44
  -6   0   3    4.77    0.34
   6   0  -3    4.52    0.43
  -6   0   3    5.44    0.36
   6   0  -3    4.61    0.44
  -6   0   2   79.73    0.78
   6   0  -2   77.63    1.06
   6   0  -2   82.01    1.06
   6   0  -2   77.29    1.07
  -6   0   2   78.94    0.96
   6   0  -2   76.87    1.11
  -6   0   2   81.72    1.01
  -6   0   1   21.30    0.42
   6   0  -1   25.57    0.65
   6   0  -1   25.27    0.64
   6   0  -1   22.88    0.66
  -6   0   1   23.24    0.58
   6   0  -1   23.67    0.67
  -6   0   1   25.48    0.62
  -6   0   0   57.81    0.72
   6   0   0   58.80    0.89
  -6   0   0   59.54    0.96
   6   0   0   61.34    0.89
   6   0   0   56.99    0.95
   6   0   0   57.37    0.93
   6   0   0   60.47    0.95
  -6   0   0   60.07    0.87
  -6   0  -1   35.84    0.62
   6   0   1   37.19    0.73
  -6   0  -1   36.32    0.80
   6   0   1   35.90    0.77
   6   0   1   35.01    0.75
   6   0   1   36.02    0.75
  -6   0  -1   36.67    0.74
  -6   0  -2    6.74    0.49
   6   0   2    5.59    0.37
  -6   0  -2    6.93    0.39
   6   0   2    6.96    0.44
  -6   0  -2    7.17    0.46
  -6   0  -2    9.30    0.45
   6   0   2    6.79    0.45
   6   0   2   10.73    0.51
  -6   0  -2    8.80    0.46
  -6   0  -2    5.98    0.40
  -6   0  -3   15.51    0.64
   6   0   3   15.12    0.54
  -6   0  -3   15.21    0.51
  -6   0  -3   11.87    0.55
  -6   0  -3   17.71    0.59
   6   0   3   11.75    0.55
   6   0   3   19.75    0.63
  -6   0  -3   17.07    0.56
   6   0   3   12.41    0.56
   6   0   3   12.32    0.53
  -6   0  -3   12.53    0.53
  -6   0  -4    6.82    0.47
  -6   0  -4    8.83    0.59
  -6   0  -4    5.34    0.49
  -6   0  -4    5.73    0.40
  -6   0  -4    4.27    0.47
   6   0   4    4.63    0.46
  -6   0  -4    4.94    0.43
   6   0   4    7.26    0.46
  -6   0  -4    6.04    0.45
  -6   0  -5    1.25    0.42
  -6   0  -5    2.50    0.38
  -6   0  -5    1.36    0.40
   6   0   5    1.38    0.40
   6   0   5    1.25    0.39
  -6   0  -5    2.18    0.43
   6   0   6    4.12    0.47
  -6   0  -6    4.70    0.47
   6   0   6    4.40    0.45
   6   0   6    4.54    0.41
  -6   0  -6    3.50    0.44
  -6   0  -7   60.42    1.02
  -6   0  -7   57.63    0.95
   6   0   7   59.15    1.03
   6   0   7   57.14    0.97
   6   0   7   58.42    0.92
  -6   0  -8   -0.06    0.37
  -6   0  -8    0.13    0.37
   6   0   8    0.20    0.37
  -6   0  -8    0.29    0.40
  -6   0  -9    3.02    0.41
  -6   0  -9    2.68    0.38
   6   0   9    2.96    0.38
  -6   0 -10    0.34    0.37
  -6   0 -10    0.37    0.33
   6   0  10    0.16    0.30
  -6   0 -11    5.69    0.40
  -6   0 -11    5.69    0.36
   6   0  11    6.02    0.34
  -6   0 -11    5.64    0.39
  -6   0 -12    1.55    0.28
  -6   0 -12    1.55    0.26
  -6   0 -12    1.46    0.25
   6   0  12    1.51    0.22
  -6   0 -12    1.50    0.28
   6   1 -15    3.01    0.25
   6   1 -15    0.04    0.20
   6   1 -14    2.18    0.25
   6   1 -14    2.73    0.34
   6   1 -14    2.78    0.33
   6   1 -14    2.16    0.25
   6   1 -13    2.55    0.41
   6   1 -13    1.90    0.33
   6   1 -13    2.44    0.34
   6   1 -13    2.62    0.41
   6   1 -13    2.55    0.39
   6   1 -13    1.99    0.39
   6   1 -12    2.43    0.44
   6   1 -12    2.34    0.39
   6   1 -12    2.35    0.32
   6   1 -12    2.43    0.39
   6   1 -12    2.84    0.43
   6   1 -12    2.88    0.44
   6   1 -12    2.63    0.43
   6   1 -11    1.32    0.44
   6   1 -11    1.15    0.41
   6   1 -11    1.13    0.34
   6   1 -11    1.35    0.40
   6   1 -11    1.05    0.44
   6   1 -11    1.47    0.42
   6   1 -11    1.03    0.43
   6   1 -10   72.32    1.28
   6   1 -10   67.85    1.22
   6   1 -10   68.54    1.07
   6   1 -10   74.08    1.28
   6   1 -10   71.13    1.27
   6   1 -10   71.28    1.27
   6   1 -10   67.80    1.23
   6   1  -9   45.92    1.10
   6   1  -9   44.12    1.04
   6   1  -9   45.39    0.97
   6   1  -9   48.67    1.11
   6   1  -9   44.65    1.08
   6   1  -9   45.25    1.09
   6   1  -9   46.52    1.10
   6   1  -8   64.83    1.23
   6   1  -8   60.52    1.17
   6   1  -8   61.34    1.12
  -6   1   8   57.22    1.18
   6   1  -8   63.97    1.26
   6   1  -8   61.02    1.19
   6   1  -8   63.76    1.23
   6   1  -8   65.41    1.24
   6   1  -8   66.37    1.13
   6   1  -7   22.06    0.80
   6   1  -7   20.07    0.74
   6   1  -7   22.33    0.73
  -6   1   7   24.33    0.80
   6   1  -7   22.98    0.81
   6   1  -7   20.96    0.77
   6   1  -7   21.34    0.77
   6   1  -7   23.34    0.82
   6   1  -7   23.50    0.76
   6   1  -6   54.44    1.08
   6   1  -6   54.07    1.07
   6   1  -6   51.53    1.00
   6   1  -6   51.18    1.02
   6   1  -6   53.26    1.08
   6   1  -6   58.41    1.09
  -6   1   6   57.96    1.13
   6   1  -6   56.51    1.07
   6   1  -6   55.07    1.11
   6   1  -5    7.26    0.53
  -6   1   5    3.07    0.41
   6   1  -5    7.28    0.53
   6   1  -5    7.59    0.55
   6   1  -5    6.59    0.51
  -6   1   5    3.46    0.31
   6   1  -5    7.97    0.56
   6   1  -5    7.38    0.50
   6   1  -5    7.94    0.52
   6   1  -4  276.10    2.09
  -6   1   4  302.56    1.85
   6   1  -4  278.90    2.19
  -6   1   4  289.68    2.14
  -6   1   4  285.79    1.77
   6   1  -4  265.93    2.13
   6   1  -4  282.21    2.05
   6   1  -4  293.97    2.15
   6   1  -3   52.85    0.94
   6   1  -3   55.34    0.98
   6   1  -3   54.32    0.94
   6   1  -3   52.54    0.98
  -6   1   3   51.79    0.78
   6   1  -3   50.03    0.95
   6   1  -3   56.52    0.98
  -6   1   3   50.54    0.78
  -6   1   3   53.06    0.85
   6   1  -2   36.65    0.78
   6   1  -2   39.16    0.65
   6   1  -2   38.97    0.82
   6   1  -2   37.53    0.80
  -6   1   2   42.71    0.75
   6   1  -2   36.13    0.81
  -6   1   2   40.77    0.72
   6   1  -2   34.89    0.79
   6   1  -2   38.17    0.80
  -6   1   2   42.27    0.69
   6   1  -1  163.89    1.32
   6   1  -1  158.08    1.50
  -6   1   1  142.19    1.45
   6   1  -1  162.54    1.48
  -6   1   1  146.00    1.32
   6   1  -1  154.30    1.52
  -6   1   1  144.49    1.31
   6   1  -1  150.64    1.51
   6   1  -1  158.75    1.49
  -6   1   1  148.15    1.27
  -6   1   0   74.48    0.99
   6   1   0   70.05    0.92
   6   1   0   65.94    0.99
  -6   1   0   67.27    1.01
   6   1   0   66.30    0.97
  -6   1   0   65.49    0.93
   6   1   0   61.71    1.00
  -6   1   0   65.89    0.94
   6   1   0   64.96    0.98
  -6   1   0   68.87    0.91
  -6   1  -1   57.69    0.99
   6   1   1   40.47    0.76
   6   1   1   39.48    0.81
  -6   1  -1   50.22    0.91
  -6   1  -1   48.10    0.69
   6   1   1   39.99    0.78
   6   1   1   37.54    0.80
  -6   1  -1   45.60    0.81
   6   1   1   43.50    0.84
  -6   1  -1   45.09    0.83
  -6   1  -1   54.83    0.84
  -6   1  -1   47.78    0.80
   6   1   2  132.92    1.34
   6   1   2  136.15    1.42
  -6   1  -2  150.33    1.49
   6   1   2  138.05    1.33
  -6   1  -2  147.95    1.25
   6   1   2  131.44    1.44
   6   1   2  141.93    1.43
  -6   1  -2  160.95    1.40
   6   1   2  135.45    1.43
  -6   1  -2  145.96    1.40
  -6   1  -3  338.35    2.16
   6   1   3  316.03    2.13
   6   1   3  318.81    2.12
  -6   1  -3  313.60    2.18
  -6   1  -3  316.78    1.96
   6   1   3  321.08    2.11
  -6   1  -3  290.38    2.05
  -6   1  -3  337.58    2.04
   6   1   3  320.76    2.17
  -6   1  -3  329.86    1.97
  -6   1  -4  117.21    1.33
   6   1   4  112.84    1.37
   6   1   4  113.69    1.32
  -6   1  -4  118.54    1.38
  -6   1  -4  119.88    1.39
  -6   1  -4  115.71    1.28
   6   1   4  109.07    1.30
   6   1   4  115.57    1.37
  -6   1  -4  121.28    1.29
  -6   1  -5   74.56    1.12
  -6   1  -5   78.01    1.21
  -6   1  -5   82.22    1.20
   6   1   5   74.44    1.11
   6   1   5   80.78    1.19
  -6   1  -5   76.67    1.09
  -6   1  -6   27.08    0.74
  -6   1  -6   27.72    0.79
  -6   1  -6   28.07    0.80
   6   1   6   22.70    0.71
   6   1   6   23.89    0.71
  -6   1  -6   25.23    0.71
  -6   1  -7    3.80    0.49
  -6   1  -7    3.90    0.47
  -6   1  -7    4.03    0.47
   6   1   7    3.63    0.44
  -6   1  -7    4.17    0.39
  -6   1  -7    4.33    0.50
   6   1   7    3.81    0.42
  -6   1  -7    3.72    0.49
  -6   1  -8    9.93    0.55
  -6   1  -8    8.96    0.58
  -6   1  -8    9.93    0.53
  -6   1  -8    9.52    0.44
   6   1   8    8.69    0.46
  -6   1  -8    9.37    0.52
  -6   1  -9   14.57    0.58
  -6   1  -9   13.84    0.62
  -6   1  -9   14.16    0.56
  -6   1  -9   13.41    0.46
   6   1   9   15.35    0.55
   6   1   9   14.91    0.50
  -6   1  -9   14.13    0.56
  -6   1 -10    6.37    0.46
  -6   1 -10    6.37    0.46
  -6   1 -10    6.18    0.40
  -6   1 -10    6.35    0.37
   6   1  10    6.02    0.41
  -6   1 -10    6.54    0.47
  -6   1 -11    1.68    0.34
  -6   1 -11    1.59    0.27
   6   1  11    1.93    0.30
   6   1  12   10.47    0.32
   6   2 -14   13.63    0.44
   6   2 -14   12.71    0.42
   6   2 -13    1.17    0.36
   6   2 -13    1.73    0.36
   6   2 -13    1.59    0.30
   6   2 -12   15.74    0.64
   6   2 -12   15.78    0.60
   6   2 -12   16.26    0.58
   6   2 -11    0.16    0.34
   6   2 -11    0.11    0.41
   6   2 -11    0.12    0.34
   6   2 -11    0.21    0.41
   6   2 -11    0.18    0.38
   6   2 -10    2.41    0.42
   6   2 -10    2.77    0.44
   6   2 -10    2.97    0.42
   6   2 -10    2.52    0.38
   6   2 -10    2.93    0.50
   6   2 -10    3.28    0.48
   6   2 -10    2.94    0.51
   6   2  -9   14.39    0.63
   6   2  -9   14.91    0.67
   6   2  -9   15.18    0.61
   6   2  -9   15.65    0.73
   6   2  -9   16.18    0.73
   6   2  -9   15.03    0.65
   6   2  -9   14.88    0.74
   6   2  -8    0.36    0.43
   6   2  -8    0.84    0.48
   6   2  -8    0.85    0.46
   6   2  -8    0.62    0.51
   6   2  -8    0.91    0.45
   6   2  -8    0.76    0.49
   6   2  -8    0.85    0.51
   6   2  -7   46.41    0.97
   6   2  -7   45.50    1.03
   6   2  -7   44.20    0.97
   6   2  -7   49.54    1.07
   6   2  -7   46.71    1.06
   6   2  -7   47.32    1.09
   6   2  -7   47.26    1.12
  -6   2   6  144.08    1.40
   6   2  -6  145.08    1.70
   6   2  -6  141.19    1.59
   6   2  -6  157.24    1.81
   6   2  -6  141.00    1.66
   6   2  -6  153.36    1.78
   6   2  -6  157.27    1.87
  -6   2   6  162.04    1.99
   6   2  -5  114.45    1.53
  -6   2   5  118.63    1.29
   6   2  -5  110.66    1.46
   6   2  -5  106.85    1.39
   6   2  -5  115.03    1.52
  -6   2   5  117.18    1.56
   6   2  -5  109.40    1.43
   6   2  -5  117.18    1.54
   6   2  -5  123.09    1.59
   6   2  -5  120.56    1.54
   6   2  -4   58.78    1.11
  -6   2   4   68.55    1.02
   6   2  -4   57.36    1.06
   6   2  -4   64.54    1.14
   6   2  -4   55.61    1.02
  -6   2   4   68.87    1.22
   6   2  -4   58.22    1.06
   6   2  -4   57.07    1.05
   6   2  -4   60.36    1.11
   6   2  -4   60.91    1.11
   6   2  -4   61.30    1.02
   6   2  -3   92.96    1.30
  -6   2   3   91.74    1.16
   6   2  -3   87.99    1.24
   6   2  -3   93.83    1.23
   6   2  -3   96.33    1.31
  -6   2   3   91.17    1.06
  -6   2   3   95.42    1.18
   6   2  -3   92.93    1.31
   6   2  -3   93.41    1.27
   6   2  -3   94.88    1.23
   6   2  -2   22.93    0.71
  -6   2   2   22.63    0.70
   6   2  -2   21.23    0.68
   6   2  -2   23.35    0.71
   6   2  -2   22.24    0.66
   6   2  -2   23.41    0.73
  -6   2   2   22.47    0.61
  -6   2   2   21.09    0.58
  -6   2   2   24.92    0.71
   6   2  -2   21.63    0.68
   6   2  -2   22.57    0.67
   6   2  -2   25.87    0.71
   6   2  -1   37.80    0.85
  -6   2   1   34.88    0.81
   6   2  -1   38.38    0.85
  -6   2   1   34.74    0.75
  -6   2   1   34.43    0.73
  -6   2   1   37.02    0.80
   6   2  -1   35.67    0.81
   6   2  -1   36.69    0.78
   6   2  -1   37.95    0.82
   6   2   0   42.32    0.76
   6   2   0   41.15    0.88
  -6   2   0   42.55    0.82
   6   2   0   41.50    0.88
   6   2   0   43.39    0.88
  -6   2   0   41.03    0.82
  -6   2   0   39.18    0.78
  -6   2   0   44.43    0.82
   6   2   0   38.30    0.85
   6   2   0   40.46    0.80
   6   2   0   42.01    0.87
   6   2   1   73.59    1.02
   6   2   1   67.22    1.10
  -6   2  -1   64.18    1.02
   6   2   1   70.17    1.09
  -6   2  -1   62.92    0.99
   6   2   1   68.16    1.00
  -6   2  -1   66.98    1.01
   6   2   1   62.62    1.06
   6   2   1   63.71    1.03
   6   2   1   69.80    1.10
   6   2   2   52.00    0.92
   6   2   2   52.32    1.00
  -6   2  -2   58.41    1.00
   6   2   2   54.12    0.98
  -6   2  -2   53.58    0.94
   6   2   2   49.11    0.93
   6   2   2   53.76    0.95
  -6   2  -2   62.22    1.02
   6   2   2   49.10    0.98
   6   2   2   49.75    0.96
  -6   2  -3  126.05    1.36
   6   2   3  122.52    1.43
   6   2   3  123.40    1.49
  -6   2  -3  126.15    1.42
   6   2   3  123.87    1.39
  -6   2  -3  112.24    1.37
   6   2   3  126.75    1.42
  -6   2  -3  132.93    1.47
   6   2   3  117.48    1.42
  -6   2  -4  235.59    1.88
  -6   2  -4  240.31    1.99
   6   2   4  238.62    1.79
   6   2   4  232.09    1.94
   6   2   4  239.93    1.92
  -6   2  -4  235.26    1.92
  -6   2  -4  234.31    1.83
  -6   2  -5  270.19    1.99
  -6   2  -5  275.25    2.09
   6   2   5  285.95    2.17
  -6   2  -5  262.94    2.14
   6   2   5  293.77    2.12
  -6   2  -5  279.27    2.06
   6   2   5  298.86    2.20
  -6   2  -5  264.84    1.93
  -6   2  -6   34.05    0.83
  -6   2  -6   36.73    0.85
  -6   2  -6   37.92    0.97
   6   2   6   33.96    0.82
  -6   2  -6   35.67    0.92
   6   2   6   34.55    0.85
   6   2   6   33.99    0.83
  -6   2  -6   34.39    0.80
  -6   2  -7    5.96    0.52
  -6   2  -7    6.25    0.46
  -6   2  -7    7.28    0.55
   6   2   7    7.52    0.51
  -6   2  -7    6.66    0.58
   6   2   7    7.72    0.45
   6   2   7    7.91    0.50
  -6   2  -7    6.44    0.48
  -6   2  -8    1.11    0.39
  -6   2  -8    1.29    0.38
  -6   2  -8    1.19    0.39
   6   2   8    1.22    0.38
  -6   2  -8    1.06    0.44
   6   2   8    1.10    0.33
  -6   2  -8    1.43    0.40
  -6   2  -9    1.39    0.39
  -6   2  -9    1.51    0.35
   6   2   9    1.71    0.36
  -6   2  -9    1.23    0.38
  -6   2  -9    1.16    0.37
   6   2   9    1.60    0.33
  -6   2  -9    1.26    0.38
  -6   2 -10   20.18    0.59
  -6   2 -10   21.17    0.56
  -6   2 -10   19.98    0.55
  -6   2 -10   19.86    0.56
  -6   2 -11    3.45    0.34
  -6   2 -11    3.47    0.29
  -6   2 -11    3.53    0.34
  -6   2 -12    0.98    0.21
   6   2  12    0.69    0.19
  -6   2 -12    0.86    0.22
   6   3 -14    0.62    0.16
   6   3 -14   -0.03    0.17
   6   3 -13    1.81    0.32
   6   3 -13    1.48    0.30
   6   3 -12    5.18    0.43
   6   3 -12    5.12    0.36
   6   3 -12    4.47    0.42
   6   3 -11   20.34    0.70
   6   3 -11   21.02    0.61
   6   3 -11   18.98    0.67
   6   3 -10   46.08    1.01
   6   3 -10   43.69    0.86
   6   3  -9    4.85    0.57
   6   3  -9    4.17    0.43
   6   3  -9    4.51    0.41
   6   3  -9    4.53    0.61
   6   3  -9    4.89    0.49
   6   3  -8   51.71    1.13
  -6   3   8   47.77    0.86
   6   3  -8   50.59    0.96
   6   3  -8   50.13    0.94
   6   3  -8   50.35    1.16
   6   3  -8   50.72    1.03
  -6   3   8   47.92    0.93
   6   3  -8   48.12    1.11
   6   3  -7    9.65    0.68
  -6   3   7    8.11    0.58
   6   3  -7    8.88    0.57
   6   3  -7    9.49    0.57
   6   3  -7    9.51    0.71
   6   3  -7    9.24    0.60
  -6   3   7    7.71    0.59
   6   3  -7    9.75    0.58
   6   3  -7    9.06    0.66
  -6   3   7    7.14    0.60
   6   3  -6   11.49    0.68
  -6   3   6   15.35    0.65
   6   3  -6   11.44    0.60
   6   3  -6   11.13    0.61
   6   3  -6   11.80    0.70
   6   3  -6   12.01    0.65
  -6   3   6   15.41    0.68
   6   3  -6   11.44    0.61
   6   3  -6   10.92    0.67
   6   3  -5   16.72    0.73
  -6   3   5   16.40    0.68
   6   3  -5   17.11    0.68
   6   3  -5   16.86    0.66
  -6   3   5   16.84    0.73
   6   3  -5   19.24    0.78
   6   3  -5   19.08    0.71
   6   3  -5   17.34    0.76
   6   3  -4   15.27    0.72
  -6   3   4   14.37    0.69
   6   3  -4   15.41    0.67
   6   3  -4   15.16    0.66
   6   3  -4   15.58    0.74
  -6   3   4   16.36    0.72
   6   3  -4   16.83    0.70
   6   3  -4   15.31    0.72
  -6   3   3   80.04    1.20
   6   3  -3   78.36    1.24
   6   3  -3   78.17    1.21
   6   3  -3   80.12    1.27
   6   3  -3   83.00    1.26
   6   3  -3   82.88    1.34
  -6   3   2   41.24    0.93
   6   3  -2   38.45    0.91
   6   3  -2   38.91    0.92
   6   3  -2   41.52    0.94
   6   3  -2   40.22    0.96
   6   3  -2   41.07    0.89
   6   3  -1   13.82    0.63
  -6   3   1   18.16    0.66
   6   3  -1   14.55    0.64
   6   3  -1   15.96    0.64
  -6   3   1   19.72    0.77
   6   3  -1   14.44    0.64
   6   3  -1   14.55    0.64
   6   3  -1   15.62    0.65
   6   3   0  105.82    1.30
   6   3   0  107.36    1.42
  -6   3   0  107.27    1.37
   6   3   0  111.72    1.38
  -6   3   0  108.52    1.37
   6   3   0  109.36    1.40
   6   3   0  108.77    1.40
   6   3   0  109.63    1.37
   6   3   1   15.93    0.67
   6   3   1   18.27    0.71
   6   3   1   17.72    0.62
  -6   3  -1   18.77    0.70
   6   3   1   18.64    0.67
  -6   3  -1   20.01    0.73
   6   3   1   17.94    0.69
   6   3   1   17.15    0.65
   6   3   2   12.27    0.62
  -6   3  -2   12.37    0.66
   6   3   2   11.81    0.51
   6   3   2   12.42    0.59
  -6   3  -2   13.33    0.66
   6   3   2   11.80    0.60
   6   3   3   34.28    0.85
  -6   3  -3   35.49    0.94
   6   3   3   32.03    0.69
   6   3   3   35.14    0.85
   6   3   3   33.61    0.79
   6   3   3   33.15    0.85
   6   3   4  274.40    1.64
   6   3   4  288.10    2.01
   6   3   4  286.83    2.11
   6   3   4  278.32    2.00
  -6   3  -4  288.13    2.11
   6   3   4  277.68    2.15
   6   3   5   18.03    0.60
  -6   3  -5   13.95    0.70
   6   3   5   17.38    0.52
   6   3   5   18.80    0.66
   6   3   5   18.42    0.64
  -6   3  -5   16.89    0.71
  -6   3  -5   15.40    0.74
   6   3   5   18.05    0.68
  -6   3  -6   19.49    0.61
   6   3   6   18.42    0.53
   6   3   6   18.55    0.48
   6   3   6   19.43    0.63
  -6   3  -6   19.85    0.75
   6   3   6   19.81    0.63
  -6   3  -6   18.17    0.58
  -6   3  -7    0.58    0.34
  -6   3  -7    0.77    0.42
   6   3   7    0.73    0.29
   6   3   7    0.82    0.35
  -6   3  -7    0.77    0.45
   6   3   7    0.72    0.36
  -6   3  -7    0.52    0.34
  -6   3  -8    4.69    0.39
  -6   3  -8    4.76    0.45
   6   3   8    5.22    0.41
  -6   3  -8    4.91    0.48
   6   3   8    5.02    0.36
   6   3   8    5.02    0.42
  -6   3  -8    4.89    0.40
  -6   3  -9   11.54    0.44
  -6   3  -9   11.81    0.52
   6   3   9   13.36    0.49
  -6   3  -9   12.21    0.49
  -6   3  -9   12.07    0.47
  -6   3 -10   10.86    0.39
  -6   3 -10   11.06    0.41
   6   3  10   12.17    0.41
  -6   3 -10   10.84    0.37
  -6   3 -10   10.84    0.40
   6   3  11    8.27    0.30
   6   3  11    7.63    0.28
  -6   3 -11    7.60    0.29
   6   4 -12    0.63    0.24
   6   4 -11    2.09    0.32
   6   4 -10    1.58    0.42
  -6   4  10    1.88    0.36
   6   4 -10    1.65    0.37
   6   4  -9   13.47    0.60
  -6   4   9   11.55    0.50
   6   4  -9   11.31    0.60
  -6   4   9   11.67    0.55
   6   4  -9   11.89    0.59
   6   4  -8   19.30    0.71
  -6   4   8   19.50    0.62
   6   4  -8   17.89    0.74
  -6   4   8   19.71    0.68
   6   4  -8   17.18    0.70
  -6   4   7   50.72    0.92
   6   4  -7   46.29    0.81
   6   4  -7   47.37    1.05
  -6   4   7   51.20    1.00
   6   4  -6   24.62    0.67
   6   4  -6   24.96    0.70
   6   4  -6   24.62    0.83
  -6   4   6   26.58    0.82
  -6   4   6   26.00    0.77
  -6   4   5    3.00    0.53
   6   4  -5    3.60    0.42
   6   4  -5    4.08    0.46
   6   4  -5    3.59    0.53
  -6   4   5    2.91    0.55
   6   4  -5    3.58    0.51
  -6   4   5    2.68    0.50
  -6   4   4   18.86    0.75
   6   4  -4   21.14    0.69
   6   4  -4   21.62    0.71
   6   4  -4   21.33    0.78
  -6   4   4   19.66    0.78
   6   4  -4   20.76    0.77
   6   4  -3   37.94    0.89
   6   4  -3   37.16    0.92
   6   4  -3   38.50    0.94
   6   4  -3   37.35    0.96
   6   4  -2   35.50    0.86
   6   4  -2   35.28    0.89
   6   4  -2   35.94    0.91
   6   4  -2   34.78    0.93
   6   4  -1   31.90    0.84
   6   4  -1   32.73    0.86
   6   4  -1   33.16    0.84
  -6   4   1   33.36    0.94
  -6   4   0   48.27    0.99
   6   4   0   50.11    1.01
   6   4   0   50.12    0.94
  -6   4   0   47.82    0.92
  -6   4   0   50.98    1.02
   6   4   0   49.56    0.91
   6   4   1   21.02    0.74
   6   4   1   19.76    0.63
  -6   4  -1   19.87    0.70
  -6   4  -1   20.29    0.74
  -6   4  -1   18.75    0.75
   6   4   1   20.85    0.65
   6   4   2  106.84    1.36
   6   4   2  102.18    1.13
  -6   4  -2  103.39    1.30
  -6   4  -2   98.05    1.35
  -6   4  -2   99.27    1.32
   6   4   2  105.57    1.28
   6   4   3   39.16    0.88
  -6   4  -3   37.61    0.88
   6   4   3   38.60    0.71
  -6   4  -3   37.14    0.94
   6   4   3   39.81    0.85
   6   4   4    9.91    0.52
  -6   4  -4   15.09    0.68
   6   4   4   10.10    0.44
  -6   4  -4   15.64    0.72
   6   4   4   11.36    0.59
   6   4   4    9.90    0.53
   6   4   5    3.99    0.39
  -6   4  -5    4.12    0.50
   6   4   5    3.82    0.34
   6   4   5    4.31    0.48
   6   4   5    4.01    0.44
  -6   4  -6    8.16    0.54
   6   4   6    9.11    0.41
   6   4   6    9.58    0.37
   6   4   6    9.47    0.42
   6   4   6   10.09    0.50
   6   4   6    9.63    0.52
   6   4   7    8.39    0.46
   6   4   7    7.66    0.34
  -6   4  -7    6.45    0.47
   6   4   7    7.48    0.38
  -6   4  -7    7.17    0.49
   6   4   7    8.35    0.42
   6   4   8    5.79    0.39
   6   4   8    5.28    0.33
  -6   4  -8    4.83    0.41
   6   4   8    5.16    0.33
   6   4   9    1.53    0.28
  -6   4  -9    1.58    0.28
   6   4   9    1.17    0.23
  -6   4  -9    1.62    0.28
   6   5 -10    0.05    0.24
  -6   5  10    0.11    0.23
   6   5 -10    0.18    0.22
  -6   5   9    4.53    0.35
  -6   5   9    4.90    0.36
   6   5  -9    3.92    0.34
  -6   5   8    1.21    0.36
  -6   5   8    1.20    0.36
   6   5  -8    1.08    0.33
  -6   5   7    4.79    0.45
  -6   5   7    4.33    0.45
   6   5  -7    4.41    0.43
  -6   5   6    1.49    0.43
   6   5  -6    1.28    0.29
  -6   5   6    1.70    0.44
   6   5  -6    1.34    0.39
  -6   5   5    3.76    0.50
   6   5  -5    4.29    0.47
   6   5  -5    4.07    0.38
  -6   5   5    3.48    0.51
   6   5  -5    4.23    0.48
   6   5  -4    8.85    0.47
   6   5  -4    9.43    0.59
  -6   5   4    9.26    0.59
  -6   5   3    9.24    0.59
   6   5  -3    9.61    0.57
   6   5  -3    9.39    0.51
  -6   5   3    9.20    0.60
  -6   5   2    9.99    0.60
   6   5  -2    8.83    0.53
   6   5  -2    8.33    0.51
  -6   5   2    9.61    0.59
   6   5  -2    7.24    0.46
  -6   5   1    3.75    0.52
   6   5  -1    3.62    0.44
   6   5  -1    3.87    0.45
  -6   5   1    3.92    0.51
   6   5  -1    3.51    0.41
   6   5   0   19.43    0.66
  -6   5   0   18.94    0.63
   6   5   0   19.82    0.62
   6   5   1    9.57    0.48
  -6   5  -1   10.37    0.55
   6   5   1    8.83    0.53
   6   5   2   25.20    0.68
   6   5   2   27.07    0.59
  -6   5  -2   23.25    0.61
  -6   5  -2   23.18    0.71
   6   5   2   27.57    0.70
   6   5   2   26.42    0.59
   6   5   3   10.41    0.49
  -6   5  -3    8.59    0.46
   6   5   3   10.52    0.43
  -6   5  -3    9.73    0.54
  -6   5  -3    9.55    0.55
   6   5   3   10.88    0.53
   6   5   4    4.46    0.37
  -6   5  -4    4.21    0.38
   6   5   4    4.90    0.39
   6   5   4    4.69    0.34
  -6   5  -4    5.18    0.45
  -6   5  -4    4.57    0.46
   6   5   5    2.70    0.33
  -6   5  -5    1.73    0.35
   6   5   5    2.71    0.33
   6   5   5    2.80    0.28
  -6   5  -5    2.37    0.40
  -6   5  -5    2.03    0.40
   6   5   5    2.82    0.38
   6   5   6    1.54    0.30
   6   5   6    1.50    0.25
  -6   5  -6    0.78    0.30
  -6   5  -6    1.00    0.34
   6   5   6    1.47    0.31
   6   5   7    1.28    0.26
   6   5   7    1.35    0.26
   6   5   8    2.72    0.22
   6   6  -8    1.56    0.18
  -6   6   7    0.78    0.26
   6   6  -7    0.80    0.23
  -6   6   6    1.41    0.32
   6   6  -6    1.39    0.27
  -6   6   6    1.66    0.31
   6   6  -5    0.83    0.29
  -6   6   5    0.60    0.34
  -6   6   4    0.84    0.39
   6   6  -4    0.84    0.23
  -6   6   4    0.65    0.36
   6   6  -3    8.88    0.37
   6   6  -2    4.18    0.34
   6   6  -1    1.48    0.31
  -6   6   1    1.41    0.36
   6   6   0    2.23    0.30
   6   6   0    2.34    0.31
   6   6   0    2.55    0.31
   6   6   1    2.25    0.29
   6   6   1    2.18    0.31
  -6   6  -1    2.46    0.36
   6   6   1    2.45    0.31
   6   6   2    4.07    0.28
   6   6   2    3.93    0.32
  -6   6  -2    4.21    0.36
   6   6   2    4.92    0.34
   6   6   3    3.02    0.25
  -6   6  -3    3.25    0.32
  -6   6  -3    2.70    0.27
   6   6   3    2.97    0.30
   6   6   4    1.12    0.21
  -6   6  -4    0.78    0.23
   6   6   4    0.99    0.25
   6   6   5    1.58    0.19
   7  -5  -8    0.16    0.19
  -7  -5   1    3.33    0.32
  -7  -5  -5    0.68    0.20
  -7  -5  -5    0.71    0.19
   7  -4 -11    0.33    0.19
   7  -4 -11    0.27    0.19
   7  -4 -10    1.11    0.24
   7  -4  -9    1.21    0.30
   7  -4  -8   10.21    0.43
   7  -4  -7    7.28    0.42
   7  -4  -6    2.12    0.35
   7  -4  -5    4.27    0.37
   7  -4  -5    4.50    0.42
   7  -4  -4    3.92    0.42
   7  -4  -3   31.00    0.71
  -7  -4  -1   49.09    0.83
  -7  -4  -1   44.10    0.69
  -7  -4  -2    8.19    0.63
   7  -4   2    4.55    0.44
  -7  -4  -3    9.37    0.43
   7  -4   3    8.66    0.46
  -7  -4  -4   22.13    0.50
  -7  -4  -6    6.29    0.35
  -7  -4  -6    5.73    0.34
  -7  -4  -7    1.71    0.26
  -7  -4  -7    1.56    0.24
  -7  -4  -8    3.26    0.22
  -7  -4  -8    2.35    0.19
   7  -3 -12    5.73    0.28
   7  -3 -12    5.49    0.29
   7  -3 -12    5.65    0.28
   7  -3 -12    5.16    0.30
   7  -3 -11    1.73    0.30
   7  -3 -11    1.84    0.30
   7  -3 -10    7.46    0.41
   7  -3 -10    7.18    0.43
   7  -3 -10    7.49    0.42
   7  -3  -9    1.18    0.34
   7  -3  -9    1.02    0.36
   7  -3  -9    1.33    0.37
   7  -3  -8    4.60    0.42
   7  -3  -8    5.09    0.46
   7  -3  -8    4.99    0.46
   7  -3  -7   55.11    0.92
   7  -3  -7   58.14    0.96
   7  -3  -6   27.68    0.72
   7  -3  -6   30.60    0.81
   7  -3  -5   15.05    0.59
   7  -3  -5   16.70    0.65
   7  -3  -4   19.15    0.61
  -7  -3   4   20.61    0.66
   7  -3  -4   19.25    0.70
  -7  -3   3   28.79    0.75
   7  -3  -3   27.75    0.77
  -7  -3   2    4.25    0.45
   7  -3  -2    4.15    0.47
  -7  -3   1   44.60    0.90
   7  -3  -1   41.02    0.85
  -7  -3   0   19.26    0.62
  -7  -3  -1   68.27    1.01
  -7  -3  -1   69.89    1.00
  -7  -3  -2    7.47    0.56
  -7  -3  -2    6.36    0.44
  -7  -3  -2    6.31    0.45
  -7  -3  -3   15.71    0.51
  -7  -3  -3   15.71    0.58
  -7  -3  -4   40.74    0.76
   7  -3   4   38.30    0.77
  -7  -3  -5   46.35    0.76
   7  -3   5   45.38    0.77
  -7  -3  -6   15.52    0.51
  -7  -3  -6   15.19    0.49
   7  -3   6   15.03    0.49
  -7  -3  -6   15.64    0.55
  -7  -3  -7    4.14    0.33
  -7  -3  -7    4.45    0.36
  -7  -3  -8    0.12    0.27
  -7  -3  -9    3.69    0.26
  -7  -3  -9    3.61    0.26
  -7  -3 -10    0.64    0.16
   7  -2 -13    0.06    0.23
   7  -2 -13    0.05    0.22
   7  -2 -13    0.11    0.23
   7  -2 -13    0.18    0.23
   7  -2 -13   -0.05    0.21
   7  -2 -12    8.43    0.41
   7  -2 -12    7.86    0.39
   7  -2 -12    8.46    0.43
   7  -2 -12    7.81    0.35
   7  -2 -12    8.87    0.42
   7  -2 -12    7.86    0.39
   7  -2 -11    2.18    0.36
   7  -2 -11    1.97    0.36
   7  -2 -11    2.22    0.39
   7  -2 -11    2.37    0.34
   7  -2 -11    2.42    0.36
   7  -2 -10    3.49    0.43
   7  -2 -10    3.73    0.40
   7  -2 -10    3.50    0.42
   7  -2 -10    3.41    0.44
   7  -2  -9    6.29    0.50
   7  -2  -9    6.62    0.53
   7  -2  -9    6.40    0.48
   7  -2  -9    6.83    0.51
   7  -2  -8   49.60    1.08
   7  -2  -8   47.39    0.96
   7  -2  -8   48.74    0.97
   7  -2  -8   48.89    0.94
   7  -2  -8   51.34    1.03
   7  -2  -7   72.79    1.17
   7  -2  -7   74.96    1.18
   7  -2  -7   78.95    1.31
   7  -2  -7   74.79    1.16
   7  -2  -7   78.51    1.26
   7  -2  -6   36.54    0.88
   7  -2  -6   38.15    0.90
   7  -2  -6   38.28    0.98
   7  -2  -6   40.49    0.92
   7  -2  -6   39.79    0.96
   7  -2  -5    7.48    0.52
   7  -2  -5    7.56    0.54
   7  -2  -5    8.23    0.59
   7  -2  -5    8.14    0.57
   7  -2  -4   15.13    0.62
   7  -2  -4   15.71    0.71
   7  -2  -4   14.85    0.64
   7  -2  -3   10.35    0.54
   7  -2  -3   11.76    0.62
   7  -2  -3   10.87    0.61
  -7  -2   2   10.03    0.58
   7  -2  -2    8.97    0.56
   7  -2  -2    8.18    0.57
   7  -2  -2    8.28    0.56
  -7  -2   2    9.17    0.48
  -7  -2   1   16.83    0.67
   7  -2  -1   17.31    0.69
   7  -2  -1   17.09    0.67
  -7  -2   1   16.67    0.61
   7  -2   0   60.22    1.07
  -7  -2   0   58.64    1.10
  -7  -2  -1    1.12    0.45
  -7  -2  -1    0.75    0.43
   7  -2   1    0.92    0.44
   7  -2   1    0.75    0.38
  -7  -2  -2   36.26    0.92
  -7  -2  -2   35.08    0.88
  -7  -2  -2   34.66    0.81
  -7  -2  -3  118.63    1.52
  -7  -2  -3  100.80    1.34
  -7  -2  -3   96.96    1.18
   7  -2   3   99.52    1.24
   7  -2   3  113.43    1.35
  -7  -2  -4   36.95    0.85
  -7  -2  -4   35.67    0.74
   7  -2   4   35.61    0.81
  -7  -2  -5  120.17    1.35
  -7  -2  -5  118.05    1.37
  -7  -2  -6   38.80    0.81
  -7  -2  -6   39.61    0.79
   7  -2   6   37.26    0.73
  -7  -2  -7    0.94    0.37
  -7  -2  -7    0.78    0.34
  -7  -2  -7    1.19    0.39
   7  -2   7    1.13    0.32
  -7  -2  -7    0.77    0.37
  -7  -2  -8    0.73    0.25
  -7  -2  -8    1.02    0.31
  -7  -2  -8    0.95    0.32
  -7  -2  -8    0.83    0.34
   7  -2   8    1.09    0.29
  -7  -2  -8    0.86    0.33
  -7  -2  -9    0.91    0.28
  -7  -2  -9    0.72    0.27
  -7  -2  -9    0.62    0.29
  -7  -2  -9    0.64    0.28
  -7  -2 -10    1.66    0.22
  -7  -2 -10    1.69    0.23
  -7  -2 -10    1.46    0.24
  -7  -2 -10    1.76    0.25
   7  -1 -14    1.02    0.20
   7  -1 -14    1.37    0.21
   7  -1 -14    1.23    0.20
   7  -1 -14    1.45    0.22
   7  -1 -13    0.63    0.23
   7  -1 -13    0.65    0.24
   7  -1 -13    0.69    0.28
   7  -1 -13    0.86    0.28
   7  -1 -13    0.72    0.29
   7  -1 -13    0.69    0.24
   7  -1 -12    2.60    0.32
   7  -1 -12    2.68    0.33
   7  -1 -12    2.79    0.37
   7  -1 -12    3.10    0.36
   7  -1 -12    3.21    0.39
   7  -1 -12    2.49    0.31
   7  -1 -12    2.57    0.31
   7  -1 -11    1.67    0.34
   7  -1 -11    1.54    0.37
   7  -1 -11    1.43    0.37
   7  -1 -11    1.51    0.39
   7  -1 -11    1.92    0.40
   7  -1 -11    1.39    0.33
   7  -1 -11    1.56    0.34
   7  -1 -10    1.68    0.37
   7  -1 -10    1.51    0.42
   7  -1 -10    1.53    0.43
   7  -1 -10    1.90    0.41
   7  -1 -10    1.55    0.43
   7  -1 -10    1.62    0.36
   7  -1  -9    4.83    0.47
   7  -1  -9    4.52    0.51
   7  -1  -9    4.83    0.54
   7  -1  -9    5.41    0.54
   7  -1  -9    5.07    0.56
   7  -1  -9    4.62    0.45
   7  -1  -8   46.94    1.05
   7  -1  -8   48.67    1.09
   7  -1  -8   49.12    1.04
   7  -1  -8   48.91    1.09
   7  -1  -7    4.69    0.54
   7  -1  -7    4.53    0.54
   7  -1  -7    4.37    0.55
   7  -1  -7    6.34    0.56
   7  -1  -7    4.96    0.55
   7  -1  -6    4.74    0.53
   7  -1  -6    5.17    0.55
   7  -1  -6    4.99    0.53
   7  -1  -6    5.34    0.55
   7  -1  -6    5.04    0.57
   7  -1  -5   67.07    1.19
   7  -1  -5   67.43    1.18
   7  -1  -5   68.89    1.17
   7  -1  -5   67.07    1.24
   7  -1  -5   70.08    1.20
  -7  -1   5   68.75    1.14
   7  -1  -5   70.38    1.26
  -7  -1   5   71.01    1.22
   7  -1  -4   97.82    1.35
   7  -1  -4   97.92    1.34
   7  -1  -4  101.90    1.35
   7  -1  -4   96.00    1.43
   7  -1  -4  103.39    1.43
  -7  -1   4  103.37    1.36
   7  -1  -4  102.08    1.48
  -7  -1   4  104.76    1.43
   7  -1  -3    8.22    0.53
   7  -1  -3    9.41    0.57
   7  -1  -3    9.51    0.60
  -7  -1   3    8.46    0.51
   7  -1  -3    9.97    0.60
   7  -1  -3    8.66    0.56
  -7  -1   3    8.64    0.52
   7  -1  -2   75.73    1.10
   7  -1  -2   77.24    1.11
   7  -1  -2   80.32    1.29
  -7  -1   2   80.40    1.16
   7  -1  -2   81.56    1.27
   7  -1  -2   77.89    1.22
  -7  -1   2   81.19    1.18
  -7  -1   1   23.42    0.59
  -7  -1   1   24.78    0.79
   7  -1  -1   26.92    0.80
   7  -1  -1   27.93    0.79
   7  -1  -1   25.18    0.78
  -7  -1   1   25.86    0.77
  -7  -1   0   28.60    0.65
  -7  -1   0   31.22    0.85
  -7  -1   0   31.81    0.78
   7  -1   0   36.10    0.90
  -7  -1   0   31.71    0.76
   7  -1   0   37.08    0.87
   7  -1   0   34.21    0.86
  -7  -1   0   29.85    0.80
  -7  -1  -1  116.21    1.24
  -7  -1  -1  129.71    1.56
   7  -1   1  141.99    1.60
  -7  -1  -1  119.73    1.41
   7  -1   1  145.77    1.61
  -7  -1  -1  122.64    1.40
   7  -1   1  136.87    1.48
  -7  -1  -1  125.48    1.54
  -7  -1  -2   10.01    0.58
  -7  -1  -2    9.55    0.50
  -7  -1  -2   10.47    0.60
  -7  -1  -2    9.72    0.57
   7  -1   2    8.11    0.55
  -7  -1  -2   10.24    0.56
   7  -1   2    8.01    0.56
   7  -1   2    6.72    0.51
  -7  -1  -2   10.00    0.54
  -7  -1  -3    8.45    0.55
  -7  -1  -3   10.86    0.56
   7  -1   3    6.11    0.49
   7  -1   3    8.12    0.55
   7  -1   3    5.33    0.46
  -7  -1  -4    2.77    0.48
   7  -1   4    2.08    0.42
   7  -1   4    1.70    0.41
  -7  -1  -4    2.66    0.45
   7  -1   4    1.96    0.37
  -7  -1  -5   26.28    0.77
  -7  -1  -5   27.47    0.81
  -7  -1  -5   25.32    0.70
   7  -1   5   24.54    0.71
   7  -1   5   22.07    0.66
  -7  -1  -5   24.55    0.71
  -7  -1  -6   42.18    0.89
  -7  -1  -6   43.92    0.92
  -7  -1  -6   40.27    0.80
   7  -1   6   45.54    0.87
   7  -1   6   40.17    0.80
  -7  -1  -6   38.70    0.82
  -7  -1  -7    6.51    0.47
  -7  -1  -7    5.85    0.50
  -7  -1  -7    6.75    0.45
   7  -1   7    6.46    0.41
  -7  -1  -7    5.72    0.44
  -7  -1  -8   15.53    0.56
  -7  -1  -8   14.65    0.59
  -7  -1  -8   14.08    0.51
   7  -1   8   15.82    0.50
  -7  -1  -9    0.43    0.32
  -7  -1  -9    0.40    0.31
  -7  -1  -9    0.19    0.29
   7  -1   9    0.15    0.27
  -7  -1 -10    4.70    0.33
  -7  -1 -10    4.40    0.34
  -7  -1 -10    4.33    0.31
   7  -1  10    5.05    0.27
  -7  -1 -10    4.38    0.34
  -7  -1 -11    6.00    0.26
  -7  -1 -11    6.99    0.29
  -7  -1 -11    6.93    0.28
  -7  -1 -11    6.25    0.25
  -7  -1 -11    6.83    0.28
   7   0 -14    0.14    0.20
   7   0 -14    0.11    0.19
   7   0 -14    0.21    0.19
   7   0 -14    0.15    0.21
   7   0 -14    0.11    0.21
   7   0 -14    0.14    0.19
   7   0 -13    0.63    0.28
   7   0 -13    0.56    0.27
   7   0 -13    0.48    0.27
   7   0 -13    0.67    0.31
   7   0 -13    0.56    0.29
   7   0 -13    0.56    0.27
   7   0 -13    0.36    0.22
   7   0 -12    0.68    0.34
   7   0 -12    0.34    0.33
   7   0 -12    0.72    0.33
   7   0 -12    0.47    0.34
   7   0 -12    0.54    0.29
   7   0 -12    0.47    0.35
   7   0 -12    0.51    0.32
   7   0 -11    4.17    0.43
   7   0 -11    4.07    0.43
   7   0 -11    3.80    0.41
   7   0 -11    4.95    0.46
   7   0 -11    4.48    0.48
   7   0 -11    3.97    0.42
   7   0 -11    4.18    0.37
   7   0 -10    4.89    0.49
   7   0 -10    4.47    0.51
   7   0 -10    5.20    0.49
   7   0 -10    5.54    0.53
   7   0 -10    5.14    0.51
   7   0 -10    4.67    0.47
   7   0 -10    4.50    0.43
   7   0  -9  112.53    1.44
   7   0  -9  107.97    1.40
   7   0  -9  116.84    1.59
   7   0  -9  114.31    1.51
   7   0  -9  108.66    1.38
   7   0  -9  110.16    1.38
   7   0  -8    5.18    0.55
   7   0  -8    4.67    0.56
   7   0  -8    6.70    0.58
   7   0  -8    4.93    0.58
   7   0  -8    6.24    0.53
   7   0  -8    5.31    0.55
   7   0  -7   56.38    1.08
   7   0  -7   54.33    1.14
   7   0  -7   55.16    1.16
   7   0  -7   56.94    1.12
   7   0  -7   52.91    1.00
   7   0  -7   55.51    1.08
   7   0  -6    0.45    0.45
   7   0  -6    0.37    0.45
   7   0  -6    0.50    0.45
   7   0  -6    0.81    0.45
   7   0  -6    0.43    0.48
   7   0  -6    0.58    0.43
   7   0  -6    0.67    0.45
   7   0  -5    0.65    0.41
   7   0  -5    0.61    0.42
   7   0  -5    0.56    0.42
   7   0  -5    0.78    0.43
   7   0  -5    0.42    0.47
  -7   0   5    0.71    0.34
   7   0  -5    0.43    0.42
   7   0  -5    0.94    0.44
   7   0  -4   76.47    1.16
   7   0  -4   76.75    1.26
   7   0  -4   79.50    1.23
   7   0  -4   72.80    1.23
  -7   0   4   76.07    1.12
   7   0  -4   74.19    1.26
   7   0  -4   71.04    1.17
  -7   0   4   76.30    1.13
   7   0  -3   91.87    1.33
   7   0  -3   95.17    1.31
  -7   0   3   91.92    1.22
   7   0  -3   91.43    1.35
   7   0  -3   87.16    1.28
  -7   0   3   96.55    1.28
  -7   0   2    0.85    0.34
   7   0  -2    0.98    0.40
  -7   0   2    0.61    0.38
  -7   0   2    0.59    0.33
   7   0  -2    0.89    0.43
   7   0  -2    0.79    0.42
   7   0  -1   45.84    0.91
  -7   0   1   44.24    0.94
   7   0  -1   46.90    0.91
  -7   0   1   42.76    0.87
   7   0  -1   43.53    0.96
  -7   0   1   44.51    0.88
   7   0  -1   45.61    0.94
   7   0  -1   44.84    0.94
  -7   0   1   45.96    0.88
   7   0   0  173.99    1.62
  -7   0   0  168.44    1.71
   7   0   0  172.15    1.54
  -7   0   0  170.20    1.64
   7   0   0  166.83    1.70
   7   0   0  171.93    1.72
   7   0   0  171.52    1.67
  -7   0   0  177.45    1.68
  -7   0  -1    9.17    0.57
   7   0   1    8.22    0.48
   7   0   1    9.17    0.49
  -7   0  -1    8.98    0.56
   7   0   1    9.15    0.53
   7   0   1    8.93    0.55
   7   0   1    9.88    0.56
  -7   0  -1    8.87    0.51
  -7   0  -2    0.38    0.33
  -7   0  -2    0.41    0.43
   7   0   2    0.22    0.33
   7   0   2    0.50    0.35
  -7   0  -2    1.89    0.42
  -7   0  -2    0.73    0.40
  -7   0  -2    0.67    0.31
   7   0   2    0.30    0.35
   7   0   2    1.67    0.43
  -7   0  -2    2.04    0.39
   7   0   2    0.65    0.38
   7   0   2    0.28    0.38
  -7   0  -3    0.48    0.46
  -7   0  -3    0.40    0.40
  -7   0  -3    0.32    0.40
   7   0   3    0.54    0.37
   7   0   3    0.77    0.40
   7   0   3    0.57    0.42
   7   0   3    0.51    0.37
  -7   0  -3    0.43    0.41
  -7   0  -4    2.32    0.45
  -7   0  -4    2.26    0.43
  -7   0  -4    1.79    0.44
   7   0   4    2.26    0.41
   7   0   4    2.26    0.40
  -7   0  -4    2.42    0.43
  -7   0  -5   44.80    0.91
  -7   0  -5   44.89    0.99
   7   0   5   47.84    0.92
  -7   0  -5   47.51    0.93
   7   0   5   46.13    0.86
  -7   0  -5   43.63    0.82
  -7   0  -6    0.70    0.40
  -7   0  -6    0.64    0.39
   7   0   6    0.77    0.36
  -7   0  -6    0.87    0.37
   7   0   6    0.46    0.37
   7   0   6    0.66    0.33
  -7   0  -6    0.46    0.40
  -7   0  -7    6.09    0.46
  -7   0  -7    5.44    0.41
   7   0   7    6.12    0.43
   7   0   7    5.70    0.38
  -7   0  -7    5.87    0.46
  -7   0  -8    4.94    0.39
  -7   0  -8    4.65    0.36
   7   0   8    4.84    0.40
  -7   0  -8    4.72    0.43
  -7   0  -9    0.55    0.28
   7   0   9    0.51    0.29
  -7   0  -9    0.69    0.34
  -7   0 -10    1.70    0.32
  -7   0 -10    1.56    0.26
   7   0  10    1.91    0.26
  -7   0 -11    0.09    0.22
  -7   0 -11    0.07    0.19
   7   0  11    0.16    0.17
   7   1 -14    1.23    0.22
   7   1 -14    1.31    0.23
   7   1 -14    1.13    0.20
   7   1 -14    1.13    0.21
   7   1 -13    0.79    0.31
   7   1 -13    0.85    0.25
   7   1 -13    0.13    0.25
   7   1 -13    0.74    0.23
   7   1 -13    0.97    0.31
   7   1 -13    0.99    0.29
   7   1 -13    0.89    0.29
   7   1 -12    3.62    0.42
   7   1 -12    3.06    0.36
   7   1 -12    2.89    0.29
   7   1 -12    3.13    0.34
   7   1 -12    3.41    0.42
   7   1 -12    3.46    0.40
   7   1 -12    2.97    0.38
   7   1 -11    1.85    0.41
   7   1 -11    1.51    0.39
   7   1 -11    1.75    0.34
   7   1 -11    1.98    0.38
   7   1 -11    2.34    0.41
   7   1 -11    1.95    0.42
   7   1 -11    1.92    0.40
   7   1 -10    1.89    0.47
   7   1 -10    1.84    0.42
   7   1 -10    1.54    0.40
   7   1 -10    1.52    0.39
   7   1 -10    2.05    0.48
   7   1 -10    1.91    0.46
   7   1 -10    1.74    0.43
   7   1  -9    5.80    0.58
   7   1  -9    5.15    0.55
   7   1  -9    5.11    0.51
   7   1  -9    5.34    0.54
   7   1  -9    5.11    0.59
   7   1  -9    6.27    0.59
   7   1  -9    5.34    0.55
   7   1  -8   56.21    1.15
   7   1  -8   51.76    1.10
   7   1  -8   54.13    1.04
   7   1  -8   56.01    1.14
   7   1  -8   52.74    1.12
   7   1  -8   55.03    1.15
   7   1  -8   53.95    1.10
   7   1  -8   54.01    0.98
   7   1  -7    6.88    0.61
   7   1  -7    5.13    0.56
   7   1  -7    5.09    0.55
   7   1  -7    5.32    0.56
   7   1  -7    6.87    0.61
   7   1  -7    6.12    0.56
   7   1  -7    5.98    0.52
   7   1  -6    5.29    0.57
   7   1  -6    4.23    0.49
   7   1  -6    4.69    0.52
   7   1  -6    4.51    0.53
   7   1  -6    4.36    0.51
   7   1  -6    4.31    0.51
   7   1  -5   64.86    1.19
   7   1  -5   61.99    1.17
   7   1  -5   60.62    1.16
   7   1  -5   63.34    1.11
   7   1  -5   63.31    1.14
   7   1  -4  100.93    1.40
   7   1  -4   97.52    1.41
   7   1  -4   94.97    1.34
  -7   1   4  103.15    1.25
   7   1  -4   93.03    1.37
  -7   1   4   99.34    1.21
   7   1  -4   91.44    1.35
   7   1  -4   96.43    1.34
   7   1  -3    8.29    0.59
   7   1  -3    8.74    0.58
   7   1  -3    8.48    0.60
  -7   1   3    8.36    0.47
   7   1  -3    7.73    0.53
   7   1  -3    8.22    0.54
  -7   1   3    9.16    0.52
   7   1  -3    7.94    0.55
   7   1  -2   83.51    1.25
  -7   1   2   76.60    1.21
   7   1  -2   85.77    1.27
  -7   1   2   77.10    1.09
   7   1  -2   78.02    1.20
  -7   1   2   77.21    1.13
   7   1  -2   77.98    1.17
  -7   1   1   29.18    0.76
   7   1  -1   24.49    0.75
  -7   1   1   24.85    0.76
   7   1  -1   26.59    0.77
  -7   1   1   24.21    0.70
   7   1  -1   23.81    0.74
   7   1  -1   26.71    0.75
  -7   1   1   24.29    0.71
   7   1  -1   22.88    0.70
   7   1   0   30.33    0.73
   7   1   0   31.99    0.84
  -7   1   0   35.88    0.85
   7   1   0   29.25    0.78
   7   1   0   32.00    0.80
  -7   1   0   32.33    0.77
   7   1   0   34.59    0.85
  -7   1   0   33.94    0.82
   7   1   0   29.17    0.79
  -7   1   0   35.94    0.77
   7   1   1  122.98    1.40
   7   1   1  125.78    1.48
  -7   1  -1  135.75    1.53
   7   1   1  126.29    1.39
  -7   1  -1  129.94    1.38
   7   1   1  118.09    1.44
   7   1   1  127.69    1.42
  -7   1  -1  140.66    1.57
  -7   1  -1  140.17    1.47
  -7   1  -2    8.06    0.56
   7   1   2    9.56    0.53
   7   1   2    9.54    0.54
  -7   1  -2    7.32    0.56
   7   1   2    9.27    0.53
   7   1   2    9.98    0.56
  -7   1  -2    7.48    0.54
   7   1   2   10.66    0.57
  -7   1  -3    5.47    0.48
   7   1   3    7.59    0.49
  -7   1  -3    5.40    0.51
   7   1   3    7.50    0.53
   7   1   3    7.70    0.51
  -7   1  -3    5.43    0.44
  -7   1  -4    1.83    0.41
  -7   1  -4    1.78    0.45
  -7   1  -4    3.29    0.47
   7   1   4    2.26    0.43
   7   1   4    2.68    0.42
  -7   1  -4    1.66    0.39
  -7   1  -5   22.46    0.69
  -7   1  -5   21.63    0.73
  -7   1  -5   22.67    0.76
   7   1   5   25.92    0.71
   7   1   5   25.72    0.71
  -7   1  -5   21.73    0.66
  -7   1  -6   38.50    0.85
  -7   1  -6   39.59    0.86
  -7   1  -6   41.53    0.90
   7   1   6   41.26    0.84
   7   1   6   41.87    0.85
   7   1   6   42.62    0.83
  -7   1  -6   39.68    0.79
  -7   1  -7    6.58    0.48
  -7   1  -7    6.10    0.51
  -7   1  -7    6.25    0.51
   7   1   7    5.87    0.45
  -7   1  -7    6.45    0.48
   7   1   7    5.93    0.41
  -7   1  -7    6.20    0.48
  -7   1  -8   15.02    0.56
  -7   1  -8   15.45    0.58
  -7   1  -8   15.14    0.54
   7   1   8   13.55    0.46
  -7   1  -8   14.05    0.52
  -7   1  -9    0.41    0.33
  -7   1  -9    0.39    0.32
  -7   1  -9    0.17    0.30
   7   1   9    0.20    0.28
  -7   1  -9    0.25    0.33
  -7   1 -10    4.42    0.35
  -7   1 -10    5.03    0.35
   7   1  10    4.66    0.31
  -7   1 -10    4.35    0.33
  -7   1 -11    7.23    0.30
   7   1  11    6.78    0.25
  -7   1 -11    7.40    0.29
   7   2 -13    0.05    0.25
   7   2 -13    0.15    0.25
   7   2 -12    6.99    0.34
   7   2 -12    8.04    0.39
   7   2 -12    7.92    0.44
   7   2 -11    1.82    0.34
   7   2 -11    1.87    0.30
   7   2 -11    0.88    0.39
   7   2 -11    2.22    0.39
   7   2 -11    2.19    0.36
   7   2 -11    1.78    0.38
   7   2 -10    3.15    0.39
   7   2 -10    2.66    0.36
   7   2 -10    1.90    0.44
   7   2 -10    3.04    0.37
   7   2 -10    3.47    0.47
   7   2 -10    3.49    0.43
   7   2 -10    2.81    0.44
   7   2  -9    6.76    0.57
   7   2  -9    6.31    0.50
   7   2  -9    6.49    0.47
   7   2  -9    5.88    0.52
   7   2  -9    6.64    0.47
   7   2  -9    7.48    0.57
   7   2  -9    6.95    0.53
   7   2  -9    6.96    0.56
   7   2  -8   57.81    1.17
   7   2  -8   53.22    1.06
   7   2  -8   54.07    1.02
   7   2  -8   54.28    1.08
   7   2  -8   53.67    1.00
   7   2  -8   56.59    1.11
   7   2  -8   56.24    1.11
   7   2  -8   55.29    1.12
   7   2  -7   78.32    1.33
   7   2  -7   73.70    1.25
   7   2  -7   75.05    1.19
   7   2  -7   72.79    1.19
   7   2  -7   75.36    1.22
   7   2  -7   75.87    1.28
   7   2  -7   77.42    1.30
   7   2  -7   76.47    1.30
   7   2  -6   44.39    1.07
   7   2  -6   44.13    1.01
   7   2  -6   44.16    0.96
   7   2  -6   42.79    0.96
   7   2  -6   44.69    0.99
   7   2  -6   43.63    1.02
   7   2  -6   45.23    1.05
   7   2  -6   43.60    1.02
   7   2  -6   44.98    0.88
   7   2  -5    8.56    0.64
   7   2  -5    7.82    0.59
   7   2  -5    8.03    0.57
   7   2  -5    8.84    0.57
   7   2  -5    8.64    0.56
   7   2  -5    8.95    0.62
   7   2  -5    8.19    0.58
   7   2  -5    9.09    0.54
   7   2  -4   16.58    0.73
   7   2  -4   15.51    0.68
  -7   2   4   16.06    0.63
   7   2  -4   14.95    0.61
   7   2  -4   15.65    0.66
   7   2  -4   15.81    0.70
   7   2  -4   16.06    0.68
   7   2  -4   16.05    0.65
  -7   2   3   10.78    0.57
   7   2  -3   11.53    0.63
  -7   2   3   11.66    0.54
   7   2  -3   12.09    0.62
   7   2  -3   12.78    0.63
   7   2  -3   11.81    0.58
   7   2  -3   12.37    0.61
  -7   2   2    8.37    0.53
   7   2  -2    9.20    0.59
  -7   2   2    8.50    0.52
   7   2  -2    8.62    0.56
  -7   2   2    7.41    0.47
   7   2  -2    8.74    0.57
   7   2  -2    8.58    0.51
   7   2  -2    9.00    0.56
   7   2  -1   15.41    0.67
  -7   2   1   18.92    0.68
   7   2  -1   15.90    0.68
  -7   2   1   17.57    0.63
   7   2  -1   16.33    0.65
  -7   2   1   16.73    0.62
  -7   2   1   18.78    0.64
   7   2  -1   14.83    0.63
   7   2  -1   15.84    0.65
   7   2   0   55.73    1.07
  -7   2   0   58.15    1.02
   7   2   0   60.07    1.07
  -7   2   0   55.73    0.97
   7   2   0   56.31    1.05
  -7   2   0   58.09    0.98
   7   2   0   55.12    1.03
   7   2   0   54.47    1.02
   7   2   1    0.92    0.42
  -7   2  -1    1.34    0.44
  -7   2  -1    0.54    0.41
   7   2   1    1.42    0.42
   7   2   1    1.09    0.40
   7   2   1    1.55    0.40
  -7   2  -1    0.84    0.48
   7   2   1    1.51    0.44
   7   2   1    1.09    0.43
  -7   2  -2   46.73    0.94
   7   2   2   33.04    0.84
  -7   2  -2   48.77    0.92
   7   2   2   34.91    0.80
   7   2   2   33.44    0.82
   7   2   2   34.83    0.80
  -7   2  -2   53.36    0.98
   7   2   2   34.11    0.85
   7   2   2   33.27    0.83
  -7   2  -3  102.34    1.20
   7   2   3   99.24    1.28
  -7   2  -3  103.94    1.28
   7   2   3   95.34    1.16
  -7   2  -3   96.32    1.30
   7   2   3   97.97    1.29
   7   2   3   97.62    1.23
  -7   2  -3  101.32    1.30
  -7   2  -4   36.29    0.80
  -7   2  -4   36.44    0.82
   7   2   4   35.07    0.83
   7   2   4   36.41    0.83
  -7   2  -5  106.29    1.23
  -7   2  -5  111.29    1.27
   7   2   5  112.69    1.34
   7   2   5  114.59    1.31
   7   2   5  116.24    1.35
  -7   2  -5  103.02    1.14
  -7   2  -6   37.54    0.78
  -7   2  -6   36.76    0.77
  -7   2  -6   36.44    0.88
   7   2   6   40.31    0.81
  -7   2  -6   37.59    0.85
   7   2   6   38.87    0.81
  -7   2  -6   35.10    0.71
  -7   2  -7    1.17    0.38
  -7   2  -7    1.16    0.35
  -7   2  -7    1.27    0.39
   7   2   7    1.01    0.35
  -7   2  -7    1.24    0.43
   7   2   7    0.98    0.33
  -7   2  -7    1.33    0.36
  -7   2  -8    0.74    0.32
  -7   2  -8    0.95    0.31
  -7   2  -8    0.94    0.36
   7   2   8    1.00    0.33
  -7   2  -8    0.90    0.37
   7   2   8    0.94    0.29
  -7   2  -8    0.94    0.32
  -7   2  -9    0.77    0.30
  -7   2  -9    1.14    0.29
  -7   2  -9    0.88    0.30
   7   2   9    0.56    0.27
  -7   2  -9    0.72    0.28
  -7   2 -10    1.56    0.25
  -7   2 -10    1.16    0.22
   7   2  10    1.51    0.24
  -7   2 -10    1.45    0.25
   7   3 -12    2.44    0.30
   7   3 -11    2.56    0.38
   7   3 -11    2.15    0.35
   7   3 -10    6.92    0.37
   7   3 -10    5.88    0.47
   7   3 -10    6.78    0.48
   7   3  -9    1.51    0.45
   7   3  -9    1.33    0.33
   7   3  -9    1.16    0.42
   7   3  -9    1.43    0.34
   7   3  -9    1.28    0.40
   7   3  -8    4.09    0.52
   7   3  -8    4.21    0.43
   7   3  -8    4.13    0.43
   7   3  -8    3.50    0.51
   7   3  -8    4.24    0.41
   7   3  -8    4.01    0.50
   7   3  -7   62.68    1.17
  -7   3   7   60.20    0.91
   7   3  -7   59.08    1.02
   7   3  -7   61.70    1.03
   7   3  -7   57.38    1.08
   7   3  -7   57.21    0.95
   7   3  -7   59.84    1.12
  -7   3   6   29.43    0.76
   7   3  -6   31.15    0.81
   7   3  -6   32.76    0.85
   7   3  -6   31.68    0.85
   7   3  -6   30.77    0.77
   7   3  -6   32.15    0.88
   7   3  -5   19.11    0.70
   7   3  -5   19.13    0.70
   7   3  -5   19.68    0.69
  -7   3   5   17.44    0.63
   7   3  -5   18.70    0.65
   7   3  -5   19.46    0.74
  -7   3   4   20.98    0.73
   7   3  -4   20.78    0.74
   7   3  -4   20.63    0.73
   7   3  -4   21.40    0.71
  -7   3   4   22.42    0.73
   7   3  -4   20.77    0.68
   7   3  -4   21.09    0.73
   7   3  -3   29.23    0.84
   7   3  -3   31.59    0.78
   7   3  -3   29.09    0.77
  -7   3   3   31.45    0.82
   7   3  -3   29.81    0.80
   7   3  -3   29.77    0.82
   7   3  -3   31.01    0.75
   7   3  -2    3.46    0.50
   7   3  -2    3.69    0.46
   7   3  -2    3.91    0.45
  -7   3   2    4.54    0.55
   7   3  -2    3.92    0.48
   7   3  -2    3.26    0.47
   7   3  -2    4.09    0.45
   7   3  -1   44.26    0.98
   7   3  -1   44.71    0.85
   7   3  -1   46.75    1.01
  -7   3   1   45.90    0.91
   7   3  -1   45.39    0.89
  -7   3   1   46.13    0.91
   7   3  -1   44.41    0.94
   7   3  -1   45.88    0.92
   7   3   0   19.27    0.73
   7   3   0   18.23    0.59
  -7   3   0   19.59    0.70
   7   3   0   19.46    0.66
  -7   3   0   20.14    0.72
   7   3   0   19.30    0.69
   7   3   0   19.77    0.68
   7   3   1   70.66    1.13
  -7   3  -1   67.65    1.13
   7   3   1   66.21    0.88
   7   3   1   69.15    1.07
  -7   3  -1   73.57    1.12
   7   3   1   70.02    1.11
   7   3   2    5.82    0.52
   7   3   2    7.08    0.51
  -7   3  -2    5.29    0.54
   7   3   2    6.23    0.37
   7   3   2    7.12    0.49
  -7   3  -2    5.84    0.58
   7   3   2    6.79    0.51
   7   3   3   16.43    0.59
  -7   3  -3   18.21    0.72
   7   3   3   16.28    0.60
   7   3   3   15.96    0.55
  -7   3  -3   19.09    0.72
   7   3   3   16.66    0.64
   7   3   4   38.58    0.73
  -7   3  -4   38.32    0.91
   7   3   4   42.60    0.85
   7   3   4   40.69    0.75
  -7   3  -4   40.11    0.89
   7   3   4   42.69    0.88
   7   3   5   44.98    0.69
  -7   3  -5   42.40    0.91
   7   3   5   48.16    0.80
  -7   3  -5   44.27    0.92
   7   3   5   50.61    0.88
   7   3   6   16.10    0.52
   7   3   6   16.64    0.53
  -7   3  -7    4.45    0.41
   7   3   7    3.82    0.35
  -7   3  -7    4.65    0.44
   7   3   7    4.05    0.34
   7   3   7    3.94    0.36
  -7   3  -8    0.44    0.31
   7   3   8    0.25    0.26
  -7   3  -8    0.27    0.32
  -7   3  -9    3.80    0.29
   7   3   9    3.68    0.26
  -7   3  -9    3.67    0.26
   7   3  10    0.72    0.17
   7   4 -11    0.30    0.22
   7   4 -11    0.37    0.20
   7   4 -10    0.92    0.30
   7   4  -9    1.17    0.34
   7   4  -8   10.38    0.41
   7   4  -8   10.40    0.51
   7   4  -8   10.03    0.53
  -7   4   7    8.13    0.49
   7   4  -7    9.52    0.42
   7   4  -7    9.44    0.45
   7   4  -7    8.11    0.52
  -7   4   7    8.27    0.48
   7   4  -7    8.94    0.53
  -7   4   6    2.85    0.47
   7   4  -6    2.48    0.35
   7   4  -6    2.75    0.38
   7   4  -6    2.50    0.44
  -7   4   6    2.51    0.43
   7   4  -6    2.59    0.44
  -7   4   5    4.82    0.50
   7   4  -5    4.62    0.41
   7   4  -5    4.91    0.46
  -7   4   5    4.90    0.48
   7   4  -5    4.01    0.46
   7   4  -5    4.59    0.46
  -7   4   4    4.38    0.53
   7   4  -4    4.19    0.43
   7   4  -4    4.61    0.46
   7   4  -4    4.31    0.45
  -7   4   4    3.97    0.50
   7   4  -4    4.13    0.47
   7   4  -3   37.48    0.84
   7   4  -3   37.50    0.87
   7   4  -3   37.07    0.82
  -7   4   3   35.52    0.82
   7   4  -3   36.94    0.86
   7   4  -2   49.81    0.95
   7   4  -2   50.89    0.99
   7   4  -2   49.60    0.89
  -7   4   2   49.73    0.92
   7   4  -1    7.13    0.51
   7   4  -1    7.80    0.49
  -7   4   1    7.79    0.57
   7   4  -1    6.96    0.42
   7   4   0    3.35    0.45
   7   4   0    3.39    0.40
  -7   4   0    4.41    0.43
  -7   4   0    5.88    0.53
  -7   4   0    5.04    0.54
   7   4   0    3.61    0.39
   7   4   1   46.58    0.88
   7   4   1   44.55    0.72
  -7   4  -1   44.07    0.83
  -7   4  -1   47.55    0.95
   7   4   1   45.15    0.81
   7   4   2    5.08    0.46
  -7   4  -2    3.93    0.46
   7   4   2    5.12    0.36
  -7   4  -2    4.75    0.50
  -7   4  -2    3.86    0.53
   7   4   2    5.15    0.42
  -7   4  -3    7.11    0.50
   7   4   3    8.31    0.37
  -7   4  -3    8.47    0.54
  -7   4  -3    7.55    0.57
   7   4   3    8.60    0.47
   7   4   3    8.30    0.46
   7   4   4   20.68    0.54
  -7   4  -4   20.59    0.63
   7   4   4   20.50    0.44
  -7   4  -4   23.01    0.67
  -7   4  -4   21.04    0.68
   7   4   4   22.58    0.62
   7   4   4   21.81    0.60
  -7   4  -5   20.34    0.60
   7   4   5   19.81    0.47
   7   4   5   20.30    0.41
   7   4   5   22.12    0.57
   7   4   5   21.80    0.59
   7   4   6    5.95    0.37
  -7   4  -6    5.56    0.39
  -7   4  -6    5.69    0.43
   7   4   6    5.98    0.37
  -7   4  -7    1.56    0.29
  -7   4  -7    1.90    0.32
   7   4   7    1.54    0.26
   7   4   8    3.16    0.25
  -7   4  -8    3.02    0.26
   7   5  -9    0.22    0.19
   7   5  -8    0.20    0.24
  -7   5   8    0.08    0.22
   7   5  -7    2.50    0.31
  -7   5   7    2.86    0.33
   7   5  -6    2.23    0.35
   7   5  -6    1.98    0.26
  -7   5   6    2.42    0.35
   7   5  -5    4.30    0.34
   7   5  -5    4.32    0.39
  -7   5   5    4.16    0.41
   7   5  -4   12.31    0.47
   7   5  -4   12.34    0.49
  -7   5   4   11.93    0.52
   7   5  -3    8.91    0.45
   7   5  -3    8.60    0.44
  -7   5   3    7.41    0.47
   7   5  -2    0.63    0.32
   7   5  -2    0.69    0.34
  -7   5   2    0.10    0.39
   7   5  -2    0.54    0.34
   7   5  -1    3.00    0.37
   7   5  -1    3.21    0.34
  -7   5   1    2.28    0.42
   7   5  -1    3.04    0.38
   7   5   0    2.89    0.33
  -7   5   0    2.46    0.41
  -7   5   0    1.97    0.37
   7   5   0    2.84    0.38
   7   5   1    5.67    0.33
  -7   5  -1    4.70    0.44
  -7   5  -1    4.38    0.42
   7   5   1    5.90    0.42
   7   5   2   13.39    0.47
   7   5   2   13.25    0.38
  -7   5  -2   13.96    0.51
   7   5   2   13.29    0.48
   7   5   3    6.67    0.36
  -7   5  -3    6.36    0.33
   7   5   3    7.07    0.31
  -7   5  -3    6.35    0.42
   7   5   3    7.23    0.39
  -7   5  -4    4.93    0.30
   7   5   4    5.31    0.26
  -7   5  -4    4.93    0.36
  -7   5  -5    0.86    0.23
  -7   5  -5    0.84    0.28
   7   5   5    0.68    0.25
  -7   5  -6    0.30    0.21
   7   5   6    0.52    0.19
   7   6  -5    2.56    0.19
   7   6  -4    2.21    0.21
  -7   6   4    1.75    0.25
   7   6  -3   10.28    0.30
  -7   6   3    9.84    0.35
   7   6  -2    6.20    0.27
   7   6  -2    5.71    0.26
  -7   6   2    6.08    0.33
   7   6  -1    0.22    0.21
  -7   6   1    0.39    0.27
   7   6  -1    0.30    0.20
   7   6   0    2.45    0.21
   7   6   0    2.12    0.23
   7   6   1    5.65    0.22
  -8  -5   6    1.54    0.17
  -8  -5   5    2.87    0.22
  -8  -5   5    2.35    0.20
  -8  -5   4    6.02    0.27
  -8  -5   4    4.99    0.24
  -8  -5   3    8.00    0.30
  -8  -5   3    6.14    0.24
   8  -5  -2    8.37    0.33
  -8  -5  -3    1.75    0.17
   8  -4  -9    0.17    0.16
   8  -4  -9    0.18    0.19
   8  -4  -8    2.82    0.23
   8  -4  -8    2.74    0.27
   8  -4  -7    0.78    0.23
   8  -4  -7    1.01    0.28
   8  -4  -6    3.93    0.34
   8  -4  -5    0.66    0.28
   8  -4  -4    0.70    0.30
  -8  -4   1    3.29    0.39
  -8  -4   1    2.75    0.33
  -8  -4   0   14.57    0.53
  -8  -4   0   11.06    0.39
  -8  -4  -1    4.81    0.50
   8  -4   1    2.22    0.35
  -8  -4  -2   10.61    0.39
   8  -4   2   10.52    0.42
  -8  -4  -3   11.73    0.36
  -8  -4  -4    7.56    0.33
  -8  -4  -5    9.04    0.32
  -8  -4  -5    8.64    0.31
  -8  -4  -6    2.83    0.21
  -8  -4  -6    2.85    0.20
   8  -3 -11    0.13    0.18
   8  -3 -11    0.11    0.17
  -8  -3  10    0.76    0.21
   8  -3 -10    0.57    0.22
   8  -3 -10    0.55    0.21
   8  -3  -9    3.81    0.33
  -8  -3   9    3.56    0.29
   8  -3  -9    3.64    0.30
   8  -3  -9    3.72    0.33
  -8  -3   8    0.87    0.29
   8  -3  -8    0.61    0.30
   8  -3  -8    1.06    0.31
   8  -3  -8    0.72    0.34
   8  -3  -7   21.25    0.56
   8  -3  -7   23.11    0.60
   8  -3  -7   21.89    0.63
  -8  -3   6    0.86    0.32
   8  -3  -6    0.50    0.33
   8  -3  -6    1.24    0.36
   8  -3  -6    0.59    0.36
   8  -3  -5    2.77    0.35
  -8  -3   5    3.42    0.37
   8  -3  -5    3.03    0.39
   8  -3  -5    2.92    0.40
  -8  -3   4    4.03    0.38
   8  -3  -4    3.90    0.40
   8  -3  -4    3.48    0.42
  -8  -3   3    3.51    0.40
   8  -3  -3    3.71    0.42
  -8  -3   2   20.85    0.60
   8  -3  -2   17.72    0.58
  -8  -3   1   38.92    0.76
  -8  -3   1   39.91    0.76
  -8  -3   0   10.63    0.49
  -8  -3   0    9.64    0.50
  -8  -3  -1   13.19    0.49
  -8  -3  -1   13.02    0.48
  -8  -3  -2   11.36    0.46
  -8  -3  -2   10.11    0.42
   8  -3   2   11.48    0.50
  -8  -3  -3   13.40    0.53
  -8  -3  -3   12.88    0.46
  -8  -3  -4   15.07    0.46
   8  -3   4   15.93    0.48
  -8  -3  -5   43.41    0.66
   8  -3   5   43.90    0.64
  -8  -3  -6   20.59    0.45
  -8  -3  -6   19.97    0.46
  -8  -3  -7    4.48    0.28
  -8  -3  -7    4.91    0.28
   8  -2 -12    1.11    0.20
   8  -2 -12    1.02    0.20
   8  -2 -12    0.97    0.20
   8  -2 -12    1.06    0.19
   8  -2 -11    3.17    0.29
   8  -2 -11    3.56    0.30
   8  -2 -11    3.46    0.28
   8  -2 -11    3.17    0.30
   8  -2 -10    0.07    0.27
   8  -2 -10    0.11    0.29
   8  -2 -10    0.01    0.29
   8  -2 -10    0.30    0.30
   8  -2  -9    4.21    0.38
   8  -2  -9    3.63    0.39
   8  -2  -9    4.52    0.40
   8  -2  -9    3.70    0.40
   8  -2  -9    4.55    0.42
   8  -2  -8    0.50    0.35
   8  -2  -8    0.48    0.39
   8  -2  -8    0.37    0.36
   8  -2  -8    0.53    0.38
   8  -2  -7    4.42    0.43
   8  -2  -7    4.41    0.47
   8  -2  -7    4.58    0.49
   8  -2  -7    4.99    0.47
   8  -2  -6   15.81    0.61
   8  -2  -6   17.47    0.67
   8  -2  -6   17.40    0.64
   8  -2  -6   16.72    0.65
   8  -2  -5   52.75    0.89
  -8  -2   5   59.75    1.04
   8  -2  -5   51.11    0.91
   8  -2  -5   58.30    1.03
   8  -2  -5   56.93    1.00
   8  -2  -5   53.79    1.02
  -8  -2   4   17.28    0.67
   8  -2  -4   15.08    0.58
   8  -2  -4   16.45    0.66
   8  -2  -4   17.29    0.63
   8  -2  -4   16.67    0.67
  -8  -2   3   60.57    1.04
   8  -2  -3   57.66    1.05
   8  -2  -3   61.06    1.02
  -8  -2   2    1.97    0.42
   8  -2  -2    2.28    0.43
   8  -2  -2    2.38    0.43
   8  -2  -2    2.19    0.42
  -8  -2   1    3.76    0.47
  -8  -2   1    3.20    0.44
   8  -2  -1    6.52    0.49
   8  -2  -1    5.82    0.46
  -8  -2   0    8.13    0.53
  -8  -2   0    7.38    0.50
   8  -2   0    7.65    0.46
  -8  -2  -1    0.35    0.37
  -8  -2  -1    0.73    0.39
   8  -2   1    0.08    0.35
   8  -2   1    0.25    0.34
  -8  -2  -2   49.36    1.02
  -8  -2  -2   42.52    0.88
  -8  -2  -2   41.00    0.79
   8  -2   2   42.72    0.81
   8  -2   2   35.63    0.79
   8  -2   2   35.37    0.70
  -8  -2  -3    3.34    0.50
  -8  -2  -3    2.96    0.42
  -8  -2  -3    2.71    0.38
   8  -2   3    2.34    0.37
   8  -2   3    1.93    0.39
  -8  -2  -4    1.88    0.40
  -8  -2  -4    1.65    0.40
  -8  -2  -4    1.42    0.33
   8  -2   4    1.12    0.34
  -8  -2  -4    1.23    0.40
  -8  -2  -5   34.29    0.71
  -8  -2  -5   33.90    0.70
  -8  -2  -6   31.45    0.62
  -8  -2  -6   31.74    0.64
  -8  -2  -6   30.68    0.65
   8  -2   6   27.98    0.55
  -8  -2  -6   28.71    0.60
  -8  -2  -7    3.65    0.34
  -8  -2  -7    3.63    0.32
  -8  -2  -7    3.69    0.33
   8  -2   7    3.43    0.29
  -8  -2  -8    0.48    0.24
  -8  -2  -8    0.56    0.22
  -8  -2  -8    0.48    0.23
  -8  -2  -9    0.23    0.15
  -8  -2  -9    0.21    0.17
   8  -1 -13    0.44    0.15
   8  -1 -13    0.53    0.16
   8  -1 -12    4.95    0.31
   8  -1 -12    4.65    0.28
   8  -1 -12    4.03    0.23
   8  -1 -11    1.33    0.30
   8  -1 -11    1.12    0.29
   8  -1 -11    1.39    0.32
   8  -1 -11    1.34    0.31
   8  -1 -11    1.09    0.28
   8  -1 -10    0.68    0.34
   8  -1 -10    0.56    0.31
   8  -1 -10    0.91    0.36
   8  -1 -10    0.63    0.34
   8  -1 -10    0.59    0.32
   8  -1  -9    8.71    0.51
   8  -1  -9   10.83    0.53
   8  -1  -9   10.79    0.56
   8  -1  -9    8.98    0.51
   8  -1  -8   18.26    0.67
   8  -1  -8   18.03    0.65
   8  -1  -8   18.40    0.70
   8  -1  -8   20.72    0.68
   8  -1  -8   19.53    0.72
   8  -1  -8   19.64    0.69
   8  -1  -7   30.92    0.82
   8  -1  -7   30.15    0.80
   8  -1  -7   32.22    0.86
   8  -1  -7   33.32    0.86
   8  -1  -7   30.99    0.84
   8  -1  -6   10.75    0.59
   8  -1  -6   10.97    0.60
   8  -1  -6   11.09    0.62
   8  -1  -6   11.92    0.63
   8  -1  -6   10.80    0.64
   8  -1  -5   35.24    0.85
   8  -1  -5   37.29    0.86
   8  -1  -5   36.93    0.94
   8  -1  -4    9.68    0.54
  -8  -1   4    9.51    0.58
   8  -1  -4    9.91    0.56
   8  -1  -4   10.16    0.60
   8  -1  -4   10.21    0.61
   8  -1  -3   27.64    0.73
  -8  -1   3   27.87    0.84
   8  -1  -3   28.14    0.74
   8  -1  -3   29.42    0.81
   8  -1  -3   29.11    0.83
   8  -1  -2    3.83    0.40
  -8  -1   2    3.95    0.50
   8  -1  -2    3.44    0.41
   8  -1  -2    3.67    0.47
  -8  -1   2    3.21    0.47
   8  -1  -2    4.22    0.48
   8  -1  -2    3.41    0.47
  -8  -1   1   14.19    0.66
   8  -1  -1   15.75    0.63
   8  -1  -1   16.20    0.65
   8  -1  -1   14.75    0.61
  -8  -1   0    6.79    0.55
  -8  -1   0    6.41    0.56
   8  -1   0    6.36    0.50
  -8  -1   0    6.46    0.49
   8  -1   0    7.24    0.51
   8  -1   0    6.25    0.49
  -8  -1  -1   28.89    0.80
  -8  -1  -1   25.21    0.79
  -8  -1  -1   24.39    0.70
   8  -1   1   27.39    0.74
   8  -1   1   26.07    0.73
   8  -1   1   28.32    0.76
   8  -1   1   26.73    0.71
  -8  -1  -2    9.79    0.56
  -8  -1  -2    9.67    0.50
   8  -1   2   11.08    0.53
   8  -1   2   10.40    0.49
  -8  -1  -3    3.15    0.51
  -8  -1  -3    2.08    0.42
  -8  -1  -3    1.84    0.41
   8  -1   3    3.48    0.40
   8  -1   3    3.28    0.38
  -8  -1  -3    2.05    0.41
  -8  -1  -4   20.76    0.71
  -8  -1  -4   18.50    0.60
   8  -1   4   23.87    0.64
   8  -1   4   21.81    0.63
   8  -1   4   21.59    0.56
  -8  -1  -4   18.94    0.59
  -8  -1  -5    0.53    0.38
  -8  -1  -5    0.66    0.36
   8  -1   5    0.34    0.32
   8  -1   5    0.28    0.32
  -8  -1  -5    0.38    0.36
  -8  -1  -6    5.75    0.46
  -8  -1  -6    6.16    0.47
  -8  -1  -6    5.62    0.39
  -8  -1  -6    5.79    0.40
   8  -1   6    6.60    0.40
  -8  -1  -6    5.58    0.41
  -8  -1  -7    4.16    0.38
  -8  -1  -7    3.90    0.39
  -8  -1  -7    4.17    0.34
   8  -1   7    4.64    0.34
  -8  -1  -7    3.34    0.37
  -8  -1  -8    1.37    0.30
  -8  -1  -8    1.35    0.28
  -8  -1  -8    1.44    0.26
   8  -1   8    1.79    0.26
  -8  -1  -8    1.31    0.29
  -8  -1  -9    1.30    0.24
  -8  -1  -9    1.19    0.23
  -8  -1  -9    0.93    0.19
   8  -1   9    1.35    0.18
   8   0 -13    0.60    0.17
   8   0 -13    0.73    0.17
   8   0 -12    1.23    0.23
   8   0 -12    1.31    0.27
   8   0 -12    1.12    0.24
   8   0 -12    1.36    0.26
   8   0 -12    1.72    0.31
   8   0 -12    1.16    0.22
   8   0 -11    2.80    0.32
   8   0 -11    2.92    0.33
   8   0 -11    3.16    0.36
   8   0 -11    3.72    0.37
   8   0 -11    2.80    0.30
   8   0 -11    2.67    0.26
   8   0 -10    4.02    0.39
   8   0 -10    3.67    0.38
   8   0 -10    3.79    0.41
   8   0 -10    4.55    0.43
   8   0 -10    3.49    0.34
   8   0 -10    3.44    0.35
   8   0  -9    1.96    0.40
   8   0  -9    2.01    0.43
   8   0  -9    1.74    0.41
   8   0  -9    1.96    0.41
   8   0  -9    2.27    0.44
   8   0  -9    1.58    0.38
   8   0  -8    3.68    0.44
   8   0  -8    3.32    0.50
   8   0  -8    3.45    0.50
   8   0  -8    3.59    0.49
   8   0  -8    3.46    0.51
   8   0  -8    3.09    0.45
   8   0  -7    9.59    0.54
   8   0  -7    8.77    0.58
   8   0  -7    9.01    0.56
  -8   0   7    9.06    0.46
   8   0  -7    9.22    0.60
   8   0  -7   10.70    0.63
   8   0  -7    9.94    0.62
   8   0  -7    9.66    0.58
   8   0  -6   18.55    0.65
   8   0  -6   16.38    0.70
   8   0  -6   17.75    0.70
  -8   0   6   17.64    0.61
   8   0  -6   17.31    0.74
   8   0  -6   18.16    0.73
   8   0  -6   17.43    0.69
   8   0  -5    4.00    0.50
   8   0  -5    3.83    0.50
  -8   0   5    3.78    0.46
   8   0  -5    4.14    0.52
   8   0  -5    4.25    0.51
   8   0  -4   33.54    0.85
  -8   0   4   34.47    0.87
   8   0  -4   34.30    0.85
  -8   0   4   34.35    0.80
   8   0  -4   34.19    0.88
   8   0  -4   33.28    0.87
   8   0  -3    0.69    0.39
  -8   0   3    0.90    0.44
  -8   0   3    0.75    0.38
   8   0  -3    0.89    0.42
   8   0  -3    0.68    0.42
   8   0  -3    0.48    0.40
   8   0  -2   75.44    1.15
  -8   0   2   78.44    1.21
   8   0  -2   76.46    1.12
  -8   0   2   76.15    1.10
   8   0  -2   75.16    1.19
  -8   0   1    3.82    0.49
   8   0  -1    3.88    0.44
  -8   0   1    4.08    0.51
   8   0  -1    3.65    0.43
  -8   0   1    4.18    0.46
   8   0  -1    3.42    0.47
   8   0  -1    4.36    0.46
   8   0  -1    3.33    0.46
  -8   0   0    0.81    0.46
   8   0   0    0.97    0.35
  -8   0   0    0.56    0.43
  -8   0   0    0.43    0.35
   8   0   0    0.68    0.40
   8   0   0    0.59    0.39
   8   0   0    0.68    0.39
   8   0   0    0.63    0.40
  -8   0  -1    4.58    0.68
   8   0   1    2.65    0.37
  -8   0  -1    3.00    0.46
   8   0   1    2.45    0.44
   8   0   1    2.79    0.43
   8   0   1    2.77    0.44
   8   0   1    3.05    0.42
  -8   0  -1    3.44    0.40
  -8   0  -2    1.37    0.49
  -8   0  -2    1.16    0.43
  -8   0  -2    0.87    0.38
   8   0   2    0.92    0.35
   8   0   2    1.14    0.39
   8   0   2    0.86    0.40
   8   0   2    0.78    0.38
  -8   0  -2    1.11    0.35
  -8   0  -3   26.03    0.74
  -8   0  -3   25.92    0.75
  -8   0  -3   25.45    0.70
   8   0   3   25.91    0.68
   8   0   3   24.83    0.68
   8   0   3   25.66    0.66
  -8   0  -3   23.64    0.62
  -8   0  -4   24.15    0.70
  -8   0  -4   26.13    0.75
  -8   0  -4   24.64    0.70
   8   0   4   24.49    0.66
   8   0   4   24.33    0.67
   8   0   4   23.48    0.62
  -8   0  -4   23.31    0.60
  -8   0  -5    3.63    0.41
  -8   0  -5    3.86    0.45
  -8   0  -5    3.54    0.42
  -8   0  -5    3.51    0.36
   8   0   5    3.27    0.38
   8   0   5    3.52    0.35
  -8   0  -5    3.37    0.38
  -8   0  -6    0.95    0.38
  -8   0  -6    0.97    0.37
  -8   0  -6    0.80    0.35
  -8   0  -6    0.84    0.29
   8   0   6    0.93    0.28
  -8   0  -6    1.00    0.36
  -8   0  -7   14.95    0.50
  -8   0  -7   13.91    0.53
  -8   0  -7   14.01    0.48
   8   0   7   13.70    0.47
  -8   0  -7   13.74    0.48
   8   0   8    7.92    0.34
  -8   0  -8    6.80    0.38
   8   0   9    5.27    0.25
  -8   0  -9    5.05    0.30
   8   1 -12    5.84    0.33
   8   1 -12    5.29    0.30
   8   1 -12    5.08    0.25
   8   1 -12    4.50    0.25
   8   1 -12    5.38    0.30
   8   1 -11    1.51    0.33
   8   1 -11    1.27    0.30
   8   1 -11    1.35    0.28
   8   1 -11    1.33    0.28
   8   1 -11    1.46    0.33
   8   1 -11    1.52    0.29
   8   1 -10    0.39    0.34
   8   1 -10    0.52    0.33
   8   1 -10    0.52    0.31
   8   1 -10    0.50    0.31
   8   1 -10    0.55    0.34
   8   1 -10    0.45    0.31
   8   1  -9   11.79    0.56
   8   1  -9   11.18    0.58
   8   1  -9   10.13    0.53
   8   1  -9   12.09    0.56
   8   1  -9   12.44    0.61
   8   1  -9   10.88    0.51
   8   1  -9   10.86    0.44
   8   1  -8   18.41    0.68
   8   1  -8   16.36    0.68
   8   1  -8   17.38    0.67
   8   1  -8   17.99    0.69
   8   1  -8   18.36    0.73
   8   1  -8   17.45    0.62
   8   1  -8   16.02    0.55
   8   1  -7   35.76    0.88
   8   1  -7   34.10    0.85
   8   1  -7   35.08    0.89
   8   1  -7   35.46    0.93
   8   1  -7   32.87    0.76
   8   1  -7   32.89    0.77
   8   1  -6   12.92    0.65
   8   1  -6   12.94    0.65
   8   1  -6   13.54    0.67
   8   1  -6   12.11    0.58
   8   1  -5   39.39    0.94
  -8   1   5   37.93    0.91
   8   1  -5   39.70    0.94
  -8   1   5   37.63    0.75
   8   1  -5   39.78    0.95
   8   1  -5   40.40    0.96
   8   1  -5   38.05    0.87
   8   1  -4    7.94    0.58
  -8   1   4   10.72    0.52
  -8   1   4   10.71    0.60
   8   1  -4    8.35    0.59
   8   1  -4    8.74    0.60
   8   1  -4    8.85    0.59
   8   1  -4    8.92    0.57
   8   1  -3   26.83    0.78
  -8   1   3   29.57    0.82
   8   1  -3   27.67    0.79
  -8   1   3   29.47    0.73
   8   1  -3   27.23    0.80
   8   1  -3   26.86    0.78
   8   1  -2    3.78    0.46
  -8   1   2    3.85    0.48
   8   1  -2    4.05    0.49
  -8   1   2    3.52    0.47
   8   1  -2    3.39    0.46
   8   1  -2    4.06    0.44
   8   1  -2    3.06    0.47
   8   1  -1   14.15    0.61
  -8   1   1   15.97    0.65
   8   1  -1   14.52    0.60
  -8   1   1   14.31    0.60
   8   1  -1   13.36    0.59
   8   1  -1   15.25    0.59
   8   1  -1   13.88    0.62
  -8   1   0    8.08    0.56
   8   1   0    6.31    0.48
  -8   1   0    7.09    0.51
   8   1   0    6.94    0.47
  -8   1   0    6.21    0.51
   8   1   0    6.75    0.52
   8   1   0    6.91    0.49
  -8   1  -1   27.22    0.71
   8   1   1   23.87    0.69
  -8   1  -1   26.53    0.77
   8   1   1   24.20    0.63
  -8   1  -1   24.39    0.71
   8   1   1   23.82    0.72
   8   1   1   25.55    0.70
  -8   1  -2   10.53    0.52
   8   1   2    8.83    0.48
  -8   1  -2   10.19    0.56
   8   1   2    9.59    0.52
   8   1   2    8.97    0.53
  -8   1  -3    3.13    0.41
  -8   1  -3    3.34    0.44
   8   1   3    2.25    0.40
   8   1   3    1.99    0.40
  -8   1  -4   22.00    0.62
  -8   1  -4   22.72    0.69
  -8   1  -4   21.71    0.72
   8   1   4   20.02    0.62
   8   1   4   19.28    0.59
  -8   1  -4   20.74    0.56
  -8   1  -5    0.52    0.35
  -8   1  -5    0.28    0.36
  -8   1  -5    0.63    0.40
   8   1   5    0.65    0.36
   8   1   5    0.49    0.32
  -8   1  -5    0.40    0.33
  -8   1  -6    6.60    0.44
  -8   1  -6    6.91    0.47
  -8   1  -6    6.71    0.48
   8   1   6    5.79    0.41
  -8   1  -6    6.59    0.47
   8   1   6    5.78    0.37
  -8   1  -6    6.36    0.40
  -8   1  -7    4.45    0.38
  -8   1  -7    4.83    0.40
  -8   1  -7    3.88    0.38
   8   1   7    4.07    0.35
   8   1   7    3.97    0.31
  -8   1  -7    4.67    0.37
  -8   1  -8    1.67    0.30
  -8   1  -8    1.77    0.30
  -8   1  -8    1.53    0.29
  -8   1  -8    1.66    0.27
  -8   1  -9    1.31    0.24
  -8   1  -9    1.47    0.24
  -8   1  -9    1.35    0.22
   8   2 -12    1.40    0.22
   8   2 -11    3.62    0.35
   8   2 -11    3.05    0.27
   8   2 -11    2.68    0.23
   8   2 -11    3.19    0.28
   8   2 -11    2.93    0.31
   8   2 -10    0.28    0.33
   8   2 -10    0.12    0.27
   8   2 -10    0.22    0.27
   8   2 -10    0.09    0.29
   8   2 -10    0.28    0.30
   8   2  -9    4.56    0.46
   8   2  -9    4.03    0.40
   8   2  -9    4.06    0.38
   8   2  -9    4.01    0.35
   8   2  -9    4.31    0.41
   8   2  -9    3.81    0.40
   8   2  -8    0.60    0.43
   8   2  -8    0.50    0.38
   8   2  -8    0.46    0.39
   8   2  -8    0.45    0.34
   8   2  -8    0.49    0.40
   8   2  -8    0.42    0.38
   8   2  -7    6.30    0.57
   8   2  -7    5.25    0.51
  -8   2   7    4.65    0.41
   8   2  -7    5.91    0.53
   8   2  -7    5.37    0.46
   8   2  -7    5.62    0.51
   8   2  -7    4.97    0.47
   8   2  -6   15.53    0.68
  -8   2   6   16.35    0.56
   8   2  -6   15.77    0.67
   8   2  -6   15.47    0.61
   8   2  -6   16.00    0.68
   8   2  -6   15.59    0.61
   8   2  -6   15.27    0.54
   8   2  -5   57.30    1.07
   8   2  -5   56.77    1.00
   8   2  -5   59.07    1.07
   8   2  -5   57.04    0.96
   8   2  -5   58.78    0.95
  -8   2   4   15.89    0.57
   8   2  -4   15.57    0.67
   8   2  -4   16.57    0.64
   8   2  -4   16.95    0.67
   8   2  -4   16.10    0.59
   8   2  -4   17.26    0.63
  -8   2   3   56.23    0.96
   8   2  -3   59.72    1.08
  -8   2   3   55.87    0.89
   8   2  -3   56.36    1.02
   8   2  -3   57.03    1.04
   8   2  -3   57.55    1.01
   8   2  -2    1.53    0.42
  -8   2   2    2.06    0.40
  -8   2   2    1.91    0.39
   8   2  -2    1.54    0.44
   8   2  -2    1.72    0.40
   8   2  -2    1.60    0.43
   8   2  -2    1.47    0.42
   8   2  -1    3.62    0.45
  -8   2   1    5.82    0.45
   8   2  -1    3.59    0.45
  -8   2   1    5.95    0.49
   8   2  -1    3.76    0.45
   8   2  -1    3.45    0.46
   8   2  -1    4.26    0.45
   8   2   0    6.88    0.51
  -8   2   0    8.59    0.48
   8   2   0    7.64    0.51
  -8   2   0    7.94    0.54
   8   2   0    7.85    0.49
   8   2   0    7.14    0.54
   8   2   0    7.67    0.52
   8   2   1    0.17    0.38
  -8   2  -1    0.22    0.33
  -8   2  -1    0.10    0.40
   8   2   1    0.10    0.36
   8   2   1    0.27    0.37
   8   2   1    0.17    0.33
  -8   2  -1    0.19    0.41
   8   2   1    0.20    0.41
   8   2   1    0.42    0.38
   8   2   2   40.79    0.82
  -8   2  -2   37.50    0.78
   8   2   2   39.26    0.74
  -8   2  -2   37.58    0.84
   8   2   2   40.71    0.86
   8   2   2   40.43    0.76
   8   2   2   41.67    0.84
  -8   2  -3    2.13    0.36
  -8   2  -3    1.98    0.36
  -8   2  -3    1.73    0.46
   8   2   3    2.92    0.41
   8   2   3    2.82    0.38
  -8   2  -4    1.01    0.34
  -8   2  -4    1.38    0.35
   8   2   4    1.61    0.34
   8   2   4    1.37    0.36
   8   2   4    1.55    0.39
  -8   2  -5   28.23    0.62
  -8   2  -5   29.60    0.64
   8   2   5   32.40    0.69
   8   2   5   32.06    0.66
  -8   2  -5   29.03    0.73
   8   2   5   32.57    0.67
  -8   2  -6   26.86    0.58
  -8   2  -6   28.94    0.59
  -8   2  -6   27.80    0.66
   8   2   6   30.46    0.61
  -8   2  -6   27.97    0.66
   8   2   6   28.80    0.52
   8   2   6   30.35    0.60
  -8   2  -7    2.82    0.30
  -8   2  -7    2.75    0.29
  -8   2  -7    2.67    0.34
   8   2   7    3.86    0.32
  -8   2  -7    2.49    0.34
   8   2   7    3.68    0.30
  -8   2  -8    0.54    0.23
  -8   2  -8    0.40    0.21
  -8   2  -8    0.40    0.25
   8   2   8    0.39    0.21
   8   2   9    0.22    0.17
   8   2   9    0.26    0.15
   8   3 -11    0.00    0.19
   8   3 -10    0.33    0.23
   8   3 -10    0.62    0.26
   8   3  -9    3.58    0.31
   8   3  -9    3.24    0.29
   8   3  -9    3.53    0.35
   8   3  -8    0.79    0.31
   8   3  -8    0.68    0.32
   8   3  -8    0.86    0.31
   8   3  -8    0.94    0.28
   8   3  -8    0.99    0.34
   8   3  -7   27.29    0.68
   8   3  -7   26.59    0.60
   8   3  -7   26.33    0.69
   8   3  -6    1.11    0.38
   8   3  -6    0.66    0.36
   8   3  -6    1.17    0.39
   8   3  -6    0.96    0.34
   8   3  -6    0.73    0.37
   8   3  -5    3.28    0.43
   8   3  -5    3.34    0.45
   8   3  -5    3.21    0.38
   8   3  -5    3.56    0.39
   8   3  -5    3.16    0.40
   8   3  -4    4.02    0.44
   8   3  -4    4.01    0.39
   8   3  -4    4.08    0.42
   8   3  -4    3.75    0.41
   8   3  -3    3.68    0.48
   8   3  -3    3.33    0.35
   8   3  -3    3.69    0.43
   8   3  -3    3.28    0.36
   8   3  -2   20.45    0.70
   8   3  -2   21.27    0.69
   8   3  -2   19.30    0.57
  -8   3   2   20.04    0.60
   8   3  -2   20.93    0.65
   8   3  -2   19.49    0.59
   8   3  -1   38.77    0.85
  -8   3   1   37.58    0.76
   8   3  -1   37.59    0.74
  -8   3   1   38.75    0.76
   8   3  -1   38.42    0.82
   8   3  -1   37.69    0.78
   8   3   0   10.13    0.55
  -8   3   0   10.04    0.53
   8   3   0   10.77    0.48
  -8   3   0   11.47    0.56
   8   3   0   10.71    0.53
   8   3   1   12.43    0.53
  -8   3  -1   13.40    0.60
   8   3   1   13.74    0.52
  -8   3  -1   14.45    0.58
   8   3   1   13.66    0.56
   8   3   2   10.34    0.45
  -8   3  -2   11.00    0.56
   8   3   2   11.27    0.48
  -8   3  -2   12.39    0.56
   8   3   2   11.65    0.52
   8   3   3   11.82    0.43
  -8   3  -3   13.50    0.57
   8   3   3   13.29    0.49
   8   3   3   13.21    0.53
  -8   3  -4   15.08    0.58
  -8   3  -4   15.14    0.60
   8   3   4   15.48    0.53
  -8   3  -5   41.61    0.76
  -8   3  -5   43.11    0.77
   8   3   5   41.10    0.64
   8   3   6   18.74    0.41
  -8   3  -6   18.53    0.52
   8   3   6   18.41    0.41
  -8   3  -7    4.26    0.30
   8   3   7    4.53    0.23
  -8   3  -7    3.95    0.30
   8   3   8    2.08    0.19
  -8   3  -8    1.85    0.19
   8   4  -8    2.74    0.22
   8   4  -8    2.63    0.30
   8   4  -7    1.12    0.23
   8   4  -7    1.16    0.28
   8   4  -7    0.78    0.29
   8   4  -7    1.05    0.30
   8   4  -6    4.66    0.33
   8   4  -6    4.59    0.36
   8   4  -6    4.20    0.34
   8   4  -5    1.02    0.30
   8   4  -5    0.92    0.31
   8   4  -5    0.94    0.33
  -8   4   5    0.57    0.31
   8   4  -4    1.29    0.33
   8   4  -4    1.13    0.31
   8   4  -4    0.94    0.35
  -8   4   4    0.58    0.34
   8   4  -3    8.01    0.46
   8   4  -3    7.14    0.46
   8   4  -3    7.37    0.37
  -8   4   3    7.19    0.44
   8   4  -2   17.78    0.58
   8   4  -2   16.33    0.45
  -8   4   2   17.09    0.55
   8   4  -1    2.32    0.38
   8   4  -1    2.95    0.30
  -8   4   1    2.71    0.41
  -8   4   1    2.29    0.43
   8   4   0   11.89    0.49
   8   4   0   11.23    0.35
  -8   4   0   11.01    0.50
  -8   4   0   10.46    0.53
   8   4   0   11.87    0.43
   8   4   1    2.58    0.35
  -8   4  -1    1.97    0.33
  -8   4  -1    2.42    0.40
  -8   4  -1    1.80    0.43
   8   4   1    2.77    0.32
   8   4   2    9.74    0.40
  -8   4  -2    9.16    0.42
  -8   4  -2   10.37    0.48
  -8   4  -2    9.62    0.51
   8   4   2   10.34    0.40
   8   4   3   10.31    0.36
  -8   4  -3   10.03    0.42
  -8   4  -3   11.13    0.49
   8   4   3   10.90    0.44
   8   4   3   11.46    0.41
  -8   4  -4    8.36    0.39
  -8   4  -4    8.29    0.43
   8   4   4    7.91    0.36
  -8   4  -5    7.83    0.34
   8   4   5    8.17    0.32
  -8   4  -6    2.62    0.23
  -8   4  -6    2.71    0.25
   8   5  -5    2.60    0.21
   8   5  -5    2.34    0.21
   8   5  -4    5.61    0.29
   8   5  -4    5.38    0.26
  -8   5   4    5.61    0.30
   8   5  -3    6.89    0.32
   8   5  -3    6.89    0.28
  -8   5   3    6.77    0.35
   8   5  -2    9.43    0.35
   8   5  -2    9.92    0.30
  -8   5   2   10.26    0.39
   8   5  -1    0.16    0.20
  -8   5   1   -0.07    0.29
   8   5  -1   -0.05    0.25
   8   5   0    0.52    0.18
  -8   5   0    0.62    0.29
   8   5   0    0.48    0.26
   8   5   1    0.58    0.22
  -8   5  -1    0.73    0.23
   8   5   1    0.55    0.25
   8   5   2    0.38    0.19
  -8   5  -2    0.10    0.22
   8   5   2    0.19    0.22
  -9  -4   6    1.52    0.20
  -9  -4   6    1.37    0.17
  -9  -4   5    2.21    0.23
  -9  -4   5    1.84    0.20
  -9  -4   4    0.25    0.23
  -9  -4   4    0.17    0.19
  -9  -4   3    0.43    0.24
  -9  -4   3    0.38    0.19
  -9  -4   2    9.11    0.28
   9  -4  -2    8.45    0.35
  -9  -4   1    2.38    0.20
   9  -4  -1    2.46    0.27
  -9  -4   0    0.11    0.20
   9  -4   0    0.05    0.20
  -9  -4  -1    3.93    0.21
  -9  -4  -1    3.83    0.24
  -9  -4  -2    2.57    0.20
   9  -3  -9    0.64    0.16
   9  -3  -8    1.83    0.21
  -9  -3   8    2.30    0.20
   9  -3  -8    2.05    0.23
  -9  -3   7    0.30    0.21
  -9  -3   7    0.22    0.21
   9  -3  -7    0.21    0.20
   9  -3  -7    0.21    0.24
  -9  -3   6    1.46    0.25
  -9  -3   6    1.61    0.26
   9  -3  -6    1.31    0.28
  -9  -3   5    3.76    0.29
   9  -3  -5    3.23    0.31
  -9  -3   4    2.32    0.28
  -9  -3   4    2.21    0.29
   9  -3  -4    1.46    0.29
  -9  -3   3    1.82    0.28
  -9  -3   3    1.62    0.28
   9  -3  -3    1.45    0.29
  -9  -3   2    2.27    0.33
  -9  -3   2    2.08    0.29
  -9  -3   2    2.02    0.31
   9  -3  -2    2.08    0.30
  -9  -3   1    1.89    0.35
  -9  -3   1    1.35    0.27
  -9  -3   1    1.24    0.29
   9  -3  -1    0.75    0.31
  -9  -3   0    4.45    0.32
  -9  -3   0    3.67    0.31
   9  -3   0    3.70    0.35
  -9  -3  -1    7.50    0.34
  -9  -3  -1    6.75    0.33
   9  -3   1    6.77    0.37
  -9  -3  -2    3.08    0.32
  -9  -3  -2    2.93    0.26
  -9  -3  -2    2.86    0.26
   9  -3   2    2.42    0.29
  -9  -3  -2    2.95    0.30
  -9  -3  -3    3.00    0.27
   9  -3   3    2.91    0.27
  -9  -3  -3    2.55    0.28
  -9  -3  -4    2.62    0.25
  -9  -3  -4    2.72    0.26
   9  -3   4    2.16    0.22
  -9  -3  -4    2.59    0.25
  -9  -3  -5   10.62    0.28
  -9  -3  -5   11.64    0.28
  -9  -2  10    0.19    0.18
   9  -2 -10    0.11    0.18
   9  -2 -10    0.02    0.17
   9  -2 -10    0.27    0.18
   9  -2  -9    0.56    0.18
  -9  -2   9    0.82    0.23
  -9  -2   9    0.84    0.19
   9  -2  -9    0.68    0.23
   9  -2  -9    0.74    0.23
   9  -2  -9    0.68    0.18
   9  -2  -9    0.63    0.23
   9  -2  -8    2.49    0.26
  -9  -2   8    4.40    0.33
   9  -2  -8    3.03    0.31
  -9  -2   8    4.21    0.29
   9  -2  -8    3.36    0.32
   9  -2  -8    3.25    0.29
  -9  -2   7   24.10    0.56
   9  -2  -7   19.89    0.51
  -9  -2   7   22.80    0.53
   9  -2  -7   21.59    0.57
   9  -2  -7   21.75    0.51
  -9  -2   6   19.45    0.58
   9  -2  -6   16.20    0.50
  -9  -2   6   19.24    0.53
   9  -2  -6   18.35    0.57
   9  -2  -6   18.47    0.52
   9  -2  -6   16.80    0.57
  -9  -2   5    3.30    0.38
   9  -2  -5    2.77    0.34
  -9  -2   5    3.05    0.35
   9  -2  -5    3.21    0.38
   9  -2  -5    3.41    0.37
   9  -2  -5    2.84    0.38
  -9  -2   4    2.71    0.39
  -9  -2   4    2.51    0.38
   9  -2  -4    2.14    0.36
   9  -2  -4    2.05    0.35
   9  -2  -4    1.49    0.36
  -9  -2   3    4.54    0.41
   9  -2  -3    5.04    0.41
   9  -2  -3    4.63    0.40
  -9  -2   2    0.64    0.38
  -9  -2   2    0.72    0.36
  -9  -2   2    0.52    0.35
   9  -2  -2    0.64    0.33
   9  -2  -2    0.66    0.32
  -9  -2   1   20.48    0.66
  -9  -2   1   18.87    0.59
  -9  -2   1   17.26    0.54
   9  -2  -1   17.86    0.55
   9  -2  -1   15.35    0.51
  -9  -2   0   11.89    0.51
  -9  -2   0   11.46    0.48
   9  -2   0   11.69    0.47
   9  -2   0   10.57    0.44
  -9  -2  -1   10.88    0.48
  -9  -2  -1    9.61    0.45
   9  -2   1    9.67    0.45
   9  -2   1    9.50    0.40
  -9  -2  -2    2.27    0.34
  -9  -2  -2    1.80    0.31
   9  -2   2    1.93    0.32
  -9  -2  -2    1.73    0.33
  -9  -2  -3    9.13    0.43
  -9  -2  -3    9.48    0.42
  -9  -2  -3    8.06    0.37
   9  -2   3    9.20    0.40
  -9  -2  -3    8.25    0.39
  -9  -2  -4    3.90    0.33
  -9  -2  -4    3.99    0.33
  -9  -2  -4    3.91    0.28
  -9  -2  -4    4.34    0.33
   9  -2   4    5.05    0.32
  -9  -2  -4    3.76    0.32
  -9  -2  -5    2.26    0.29
  -9  -2  -5    2.37    0.27
  -9  -2  -5    2.41    0.27
   9  -2   5    2.20    0.25
  -9  -2  -5    2.13    0.26
  -9  -2  -6    4.53    0.27
  -9  -2  -6    4.29    0.24
  -9  -2  -6    4.45    0.23
   9  -2   6    3.63    0.21
  -9  -2  -6    4.58    0.26
   9  -1 -11    0.32    0.16
   9  -1 -11    0.39    0.17
   9  -1 -11    0.44    0.16
   9  -1 -10    0.64    0.22
   9  -1 -10    0.76    0.24
   9  -1 -10    0.57    0.20
   9  -1  -9    0.07    0.26
   9  -1  -9    0.06    0.28
   9  -1  -9    0.03    0.27
   9  -1  -9    0.16    0.27
   9  -1  -9   -0.02    0.26
   9  -1  -8    3.99    0.35
   9  -1  -8    4.18    0.38
  -9  -1   8    4.27    0.30
   9  -1  -8    4.31    0.40
   9  -1  -8    4.81    0.39
   9  -1  -8    4.18    0.38
   9  -1  -7   10.87    0.48
   9  -1  -7   10.77    0.49
  -9  -1   7   11.58    0.43
   9  -1  -7   11.43    0.53
   9  -1  -7   12.26    0.52
   9  -1  -7   10.50    0.52
   9  -1  -6    6.89    0.43
   9  -1  -6    6.58    0.46
  -9  -1   6    7.07    0.43
   9  -1  -6    7.31    0.49
   9  -1  -6    7.57    0.47
   9  -1  -6    7.05    0.47
   9  -1  -5    3.13    0.38
   9  -1  -5    3.15    0.41
  -9  -1   5    3.27    0.41
   9  -1  -5    3.44    0.44
   9  -1  -5    3.29    0.42
   9  -1  -4   32.32    0.68
   9  -1  -4   32.36    0.69
  -9  -1   4   34.45    0.72
   9  -1  -4   33.83    0.79
   9  -1  -4   34.52    0.77
   9  -1  -4   33.35    0.77
   9  -1  -3   22.16    0.57
  -9  -1   3   23.23    0.71
   9  -1  -3   21.37    0.58
  -9  -1   3   23.31    0.69
   9  -1  -3   23.48    0.67
   9  -1  -3   23.80    0.66
   9  -1  -3   21.48    0.66
  -9  -1   2   11.09    0.53
  -9  -1   2   10.61    0.55
  -9  -1   2    9.58    0.50
   9  -1  -2    7.87    0.48
   9  -1  -2    8.90    0.50
   9  -1  -2    7.48    0.49
  -9  -1   1   10.73    0.58
  -9  -1   1   10.87    0.55
   9  -1  -1    9.09    0.48
   9  -1  -1    8.73    0.51
   9  -1  -1    9.87    0.50
   9  -1  -1    8.42    0.49
  -9  -1   0    8.54    0.52
  -9  -1   0    7.55    0.46
   9  -1   0    6.89    0.44
   9  -1   0    6.72    0.46
   9  -1   0    7.72    0.46
   9  -1   0    6.28    0.42
  -9  -1   0    7.18    0.40
  -9  -1  -1    3.37    0.50
  -9  -1  -1    2.66    0.41
  -9  -1  -1    2.95    0.38
   9  -1   1    2.42    0.36
   9  -1   1    2.41    0.36
   9  -1   1    2.37    0.35
  -9  -1  -1    2.58    0.34
  -9  -1  -2    1.87    0.38
  -9  -1  -2    2.09    0.37
  -9  -1  -2    1.81    0.35
   9  -1   2    2.46    0.34
   9  -1   2    2.33    0.36
   9  -1   2    2.33    0.32
  -9  -1  -2    1.62    0.32
  -9  -1  -3    4.73    0.41
  -9  -1  -3    5.00    0.44
  -9  -1  -3    4.41    0.38
   9  -1   3    5.16    0.37
   9  -1   3    4.82    0.33
  -9  -1  -3    4.52    0.36
  -9  -1  -4    0.46    0.31
  -9  -1  -4    0.72    0.34
  -9  -1  -4    0.73    0.30
   9  -1   4    0.34    0.26
  -9  -1  -4    0.38    0.27
  -9  -1  -4    0.75    0.30
  -9  -1  -5    4.88    0.35
  -9  -1  -5    4.32    0.32
  -9  -1  -5    4.13    0.27
   9  -1   5    3.94    0.30
  -9  -1  -5    4.25    0.33
  -9  -1  -6    0.37    0.27
   9  -1   6    0.29    0.21
  -9  -1  -6    0.35    0.23
  -9  -1  -7    2.27    0.24
  -9  -1  -7    2.42    0.24
   9  -1   7    2.18    0.19
  -9   0  11    0.44    0.18
   9   0 -11    0.30    0.18
   9   0 -11    0.51    0.18
   9   0 -10    1.94    0.26
  -9   0  10    2.03    0.27
   9   0 -10    1.86    0.26
   9   0 -10    1.95    0.27
   9   0 -10    1.31    0.19
   9   0  -9   -0.02    0.27
  -9   0   9   -0.06    0.28
   9   0  -9    0.21    0.28
   9   0  -9   -0.04    0.29
   9   0  -9    0.09    0.25
   9   0  -8    5.54    0.41
  -9   0   8    6.78    0.44
   9   0  -8    5.82    0.42
   9   0  -8    6.34    0.44
   9   0  -8    7.11    0.44
   9   0  -8    5.94    0.39
   9   0  -7    2.28    0.38
  -9   0   7    2.91    0.42
   9   0  -7    2.46    0.39
  -9   0   7    2.58    0.31
   9   0  -7    2.74    0.42
   9   0  -7    2.97    0.42
   9   0  -7    2.74    0.38
   9   0  -6    9.08    0.51
  -9   0   6   10.99    0.53
   9   0  -6   10.46    0.53
  -9   0   6   10.24    0.44
   9   0  -6    9.81    0.55
   9   0  -6   10.30    0.53
   9   0  -6    9.82    0.51
   9   0  -5   26.89    0.70
  -9   0   5   29.15    0.76
   9   0  -5   26.45    0.70
  -9   0   5   26.92    0.64
   9   0  -5   26.44    0.60
   9   0  -5   28.38    0.74
   9   0  -5   26.89    0.72
  -9   0   4    6.60    0.45
   9   0  -4    5.32    0.44
  -9   0   4    6.54    0.50
   9   0  -4    5.42    0.45
  -9   0   4    5.58    0.43
   9   0  -4    5.64    0.41
   9   0  -4    5.62    0.46
   9   0  -4    4.91    0.47
  -9   0   3    0.57    0.36
   9   0  -3    0.53    0.34
  -9   0   3    0.75    0.42
  -9   0   3    0.82    0.36
   9   0  -3    0.45    0.35
   9   0  -3    0.70    0.35
   9   0  -3    0.54    0.38
  -9   0   2    0.11    0.41
   9   0  -2    0.23    0.33
  -9   0   2    0.08    0.39
  -9   0   2    0.04    0.36
   9   0  -2    0.03    0.32
   9   0  -2    0.26    0.35
   9   0  -2    0.14    0.36
   9   0  -2    0.01    0.36
  -9   0   1    3.37    0.60
   9   0  -1    2.03    0.34
  -9   0   1    2.44    0.44
   9   0  -1    2.17    0.33
  -9   0   1    2.00    0.42
   9   0  -1    2.35    0.38
   9   0  -1    1.99    0.39
   9   0  -1    2.14    0.39
   9   0  -1    2.04    0.40
  -9   0   0   42.47    0.87
   9   0   0   35.07    0.67
  -9   0   0   41.56    0.89
  -9   0   0   35.69    0.78
   9   0   0   35.27    0.78
   9   0   0   37.59    0.76
   9   0   0   36.37    0.77
   9   0   0   36.96    0.77
  -9   0  -1   34.00    0.73
   9   0   1   32.45    0.72
   9   0   1   32.80    0.70
   9   0   1   32.35    0.71
  -9   0  -2    8.60    0.45
  -9   0  -2    8.79    0.50
  -9   0  -2    8.25    0.47
   9   0   2    7.72    0.43
   9   0   2    8.46    0.46
   9   0   2    7.81    0.44
  -9   0  -3    7.43    0.44
  -9   0  -3    7.57    0.49
  -9   0  -3    7.15    0.45
   9   0   3    7.12    0.41
   9   0   3    7.13    0.42
   9   0   3    7.05    0.39
  -9   0  -3    6.53    0.37
  -9   0  -4    0.05    0.31
  -9   0  -4    0.10    0.34
  -9   0  -4    0.26    0.33
   9   0   4    0.10    0.26
   9   0   4    0.00    0.28
   9   0   4   -0.05    0.25
  -9   0  -4    0.04    0.28
  -9   0  -5    5.66    0.38
  -9   0  -5    5.68    0.40
  -9   0  -5    5.88    0.37
   9   0   5    6.06    0.34
   9   0   5    5.57    0.29
  -9   0  -5    5.48    0.33
  -9   0  -6    7.86    0.37
  -9   0  -6    7.84    0.38
  -9   0  -6    7.17    0.34
  -9   0  -6    7.30    0.32
  -9   0  -7    1.01    0.24
  -9   0  -7    0.99    0.24
  -9   0  -7    0.97    0.20
   9   1 -11    0.42    0.17
   9   1 -11    0.63    0.17
   9   1 -10    0.77    0.23
  -9   1  10    0.72    0.21
   9   1 -10    0.82    0.23
   9   1 -10    0.83    0.22
   9   1 -10    0.94    0.25
  -9   1   9    0.00    0.25
   9   1  -9    0.29    0.28
   9   1  -9   -0.03    0.26
   9   1  -9    0.14    0.30
  -9   1   8    4.94    0.36
   9   1  -8    4.38    0.39
   9   1  -8    4.51    0.39
   9   1  -8    4.51    0.41
   9   1  -8    4.22    0.33
   9   1  -7   11.30    0.53
  -9   1   7   11.69    0.50
   9   1  -7   12.26    0.54
   9   1  -7   12.44    0.54
   9   1  -7   11.56    0.47
   9   1  -6    6.97    0.49
  -9   1   6    7.92    0.47
   9   1  -6    6.55    0.50
   9   1  -6    6.58    0.49
   9   1  -6    7.12    0.51
   9   1  -6    7.44    0.46
   9   1  -5    2.75    0.43
  -9   1   5    3.41    0.43
   9   1  -5    3.28    0.44
  -9   1   5    3.46    0.35
   9   1  -5    3.06    0.44
   9   1  -5    3.02    0.44
   9   1  -5    2.77    0.41
   9   1  -4   32.12    0.76
   9   1  -4   32.36    0.76
  -9   1   4   34.23    0.68
   9   1  -4   33.36    0.79
   9   1  -4   31.81    0.77
   9   1  -3   23.35    0.68
  -9   1   3   24.21    0.69
   9   1  -3   24.34    0.68
  -9   1   3   22.99    0.62
   9   1  -3   22.88    0.69
   9   1  -3   23.10    0.68
   9   1  -2    9.42    0.49
  -9   1   2    9.04    0.48
   9   1  -2    9.64    0.48
  -9   1   2    8.74    0.49
   9   1  -2   10.22    0.54
   9   1  -2    9.93    0.44
   9   1  -2   10.25    0.53
   9   1  -1    9.57    0.47
  -9   1   1    9.89    0.50
   9   1  -1    9.36    0.46
  -9   1   1    8.98    0.51
   9   1  -1    9.27    0.51
   9   1  -1    9.79    0.44
   9   1  -1    8.81    0.52
  -9   1   0    6.49    0.40
   9   1   0    7.28    0.42
  -9   1   0    7.19    0.48
   9   1   0    8.00    0.41
  -9   1   0    6.57    0.45
   9   1   0    7.91    0.48
   9   1   0    7.49    0.41
   9   1   0    8.04    0.47
  -9   1  -1    2.73    0.35
   9   1   1    2.62    0.34
  -9   1  -1    2.77    0.40
  -9   1  -1    2.78    0.41
   9   1   1    2.72    0.37
   9   1   1    2.79    0.35
  -9   1  -2    2.40    0.35
  -9   1  -2    2.51    0.39
   9   1   2    1.87    0.33
   9   1   2    1.60    0.33
  -9   1  -3    5.40    0.38
  -9   1  -3    5.39    0.41
   9   1   3    5.04    0.37
   9   1   3    4.59    0.36
  -9   1  -4    0.42    0.29
  -9   1  -4    0.38    0.30
  -9   1  -4    0.33    0.32
   9   1   4    0.38    0.28
  -9   1  -4    0.54    0.36
   9   1   4    0.54    0.27
  -9   1  -5    4.52    0.33
  -9   1  -5    4.13    0.35
  -9   1  -5    3.78    0.37
   9   1   5    4.69    0.32
  -9   1  -5    3.93    0.35
   9   1   5    4.19    0.29
  -9   1  -6    0.13    0.25
  -9   1  -6    0.26    0.25
  -9   1  -6    0.20    0.25
   9   1   6    0.35    0.21
   9   1   6    0.24    0.19
  -9   1  -7    1.94    0.21
  -9   1  -7    2.11    0.22
   9   1   7    2.12    0.20
   9   2 -10    0.21    0.18
   9   2 -10    0.16    0.17
   9   2  -9    0.86    0.25
   9   2  -9    0.98    0.24
   9   2  -9    1.05    0.24
   9   2  -8    3.85    0.34
   9   2  -8    4.36    0.35
   9   2  -8    4.13    0.29
   9   2  -8    5.06    0.35
   9   2  -7   24.52    0.61
   9   2  -7   24.53    0.62
   9   2  -7   23.86    0.55
   9   2  -6   18.54    0.61
   9   2  -6   19.54    0.55
   9   2  -6   18.51    0.48
   9   2  -5    3.28    0.42
   9   2  -5    3.37    0.38
   9   2  -5    3.23    0.41
   9   2  -5    3.14    0.35
  -9   2   4    2.34    0.33
   9   2  -4    2.63    0.40
   9   2  -4    2.55    0.36
   9   2  -4    2.44    0.39
   9   2  -4    2.46    0.35
   9   2  -3    3.83    0.41
  -9   2   3    5.18    0.37
   9   2  -3    4.59    0.44
  -9   2   3    4.94    0.38
   9   2  -3    4.08    0.40
   9   2  -3    4.32    0.42
   9   2  -3    4.23    0.39
   9   2  -2    0.48    0.36
  -9   2   2    0.46    0.29
  -9   2   2    0.57    0.33
   9   2  -2    0.59    0.36
   9   2  -2    0.60    0.34
   9   2  -2    0.63    0.37
   9   2  -2    0.61    0.33
   9   2  -1   17.68    0.58
  -9   2   1   17.34    0.51
   9   2  -1   17.39    0.55
  -9   2   1   17.85    0.57
   9   2  -1   17.13    0.56
   9   2  -1   18.67    0.62
   9   2  -1   18.28    0.58
   9   2   0   11.28    0.49
  -9   2   0   11.07    0.45
   9   2   0   11.78    0.47
  -9   2   0   10.78    0.52
   9   2   0   11.68    0.49
   9   2   0   11.82    0.52
  -9   2  -1   10.84    0.44
   9   2   1    9.71    0.39
  -9   2  -1   10.60    0.51
   9   2   1   10.61    0.47
   9   2   1   10.66    0.47
  -9   2  -2    2.30    0.31
  -9   2  -2    2.21    0.37
   9   2   2    1.93    0.32
   9   2   2    1.90    0.29
   9   2   2    1.73    0.32
  -9   2  -3   10.79    0.40
  -9   2  -3   10.19    0.49
   9   2   3    8.83    0.40
   9   2   3    9.10    0.36
  -9   2  -3   10.02    0.50
  -9   2  -4    5.56    0.32
   9   2   4    3.80    0.29
  -9   2  -4    5.08    0.41
   9   2   4    4.28    0.32
  -9   2  -5    2.19    0.24
   9   2   5    2.26    0.24
  -9   2  -5    2.32    0.33
   9   2   5    2.20    0.25
  -9   2  -6    3.95    0.28
   9   2   6    3.82    0.21
   9   2   6    4.10    0.23
   9   3  -8    2.03    0.22
   9   3  -8    2.29    0.24
   9   3  -7    0.29    0.25
   9   3  -7    0.13    0.26
   9   3  -6    1.51    0.30
   9   3  -6    1.67    0.31
   9   3  -6    1.56    0.25
   9   3  -5    3.57    0.34
   9   3  -5    3.62    0.31
   9   3  -4    2.03    0.35
   9   3  -4    2.36    0.32
   9   3  -3    1.74    0.33
   9   3  -3    1.92    0.34
   9   3  -3    1.86    0.28
   9   3  -2    1.97    0.35
   9   3  -2    2.17    0.28
   9   3  -2    2.02    0.31
  -9   3   1    0.96    0.29
   9   3  -1    1.20    0.32
   9   3  -1    1.40    0.28
   9   3  -1    1.53    0.30
   9   3   0    3.93    0.33
  -9   3   0    4.04    0.35
   9   3   0    4.29    0.33
   9   3   0    4.26    0.34
   9   3   1    6.69    0.34
  -9   3  -1    6.36    0.39
   9   3   1    7.41    0.35
  -9   3  -1    6.59    0.45
   9   3   1    7.07    0.38
   9   3   2    2.54    0.24
  -9   3  -2    2.38    0.33
   9   3   2    3.04    0.31
  -9   3  -3    2.63    0.31
   9   3   3    2.66    0.30
   9   3   3    2.86    0.27
  -9   3  -4    1.98    0.27
  -9   3  -4    1.97    0.32
   9   3   4    2.23    0.26
   9   3   4    2.46    0.24
  -9   3  -5   10.88    0.33
  -9   3  -5   10.44    0.32
   9   4  -6    1.39    0.19
   9   4  -5    1.93    0.22
   9   4  -4    0.30    0.22
   9   4  -3    0.09    0.22
   9   4  -2    9.84    0.36
   9   4  -2    7.44    0.33
   9   4  -1    2.77    0.27
  -9   4   1    2.35    0.30
   9   4  -1    2.06    0.28
   9   4   0   -0.02    0.22
  -9   4   0   -0.02    0.27
   9   4   0   -0.10    0.26
   9   4   1    3.67    0.23
  -9   4  -1    3.82    0.31
   9   4   1    3.12    0.27
  -9   4  -2    2.14    0.25
 -10  -3   4    0.18    0.15
  10  -3  -4   -0.01    0.15
 -10  -3   3    0.71    0.18
 -10  -3   2    0.74    0.17
 -10  -3   1    4.90    0.23
  10  -3  -1    3.31    0.21
 -10  -3   0    1.33    0.17
  10  -3   0    0.99    0.17
  10  -2  -7    1.54    0.19
 -10  -2   6    4.08    0.28
 -10  -2   6    3.42    0.24
 -10  -2   6    2.92    0.22
  10  -2  -6    2.28    0.21
  10  -2  -6    2.06    0.21
  10  -2  -6    2.57    0.24
 -10  -2   5    5.33    0.27
  10  -2  -5    4.30    0.25
  10  -2  -5    4.87    0.28
  10  -2  -5    4.57    0.28
 -10  -2   4    2.80    0.30
 -10  -2   4    2.46    0.26
 -10  -2   4    2.20    0.26
  10  -2  -4    2.06    0.23
  10  -2  -4    2.24    0.27
  10  -2  -4    2.17    0.25
  10  -2  -3    4.43    0.27
  10  -2  -3    3.86    0.29
  10  -2  -3    3.88    0.28
 -10  -2   2    5.09    0.29
 -10  -2   2    4.59    0.31
  10  -2  -2    4.24    0.26
  10  -2  -2    3.96    0.29
  10  -2  -2    4.09    0.27
 -10  -2   1    0.46    0.25
 -10  -2   1    0.27    0.22
 -10  -2   1    0.27    0.24
  10  -2  -1    0.08    0.23
  10  -2  -1    0.22    0.19
 -10  -2   0    0.55    0.24
 -10  -2   0    0.48    0.23
 -10  -2   0    0.47    0.23
 -10  -2  -1    3.74    0.26
 -10  -2  -1    3.42    0.26
 -10  -2  -2    1.40    0.21
  10  -2   2    1.25    0.20
  10  -2   3    1.01    0.16
  10  -1  -8    0.76    0.18
  10  -1  -8    0.94    0.19
  10  -1  -8    0.85    0.18
 -10  -1   7    0.28    0.17
  10  -1  -7    0.29    0.21
  10  -1  -7    0.29    0.22
  10  -1  -7    0.32    0.21
  10  -1  -7    0.28    0.22
  10  -1  -6   15.00    0.42
  10  -1  -6   14.98    0.40
 -10  -1   5    1.55    0.40
 -10  -1   5    1.07    0.26
  10  -1  -5    0.86    0.25
  10  -1  -5    1.02    0.29
  10  -1  -5    0.99    0.25
  10  -1  -5    1.05    0.28
 -10  -1   4   10.86    0.40
  10  -1  -4   10.57    0.41
  10  -1  -4    9.59    0.38
  10  -1  -4   11.58    0.41
  10  -1  -4    9.62    0.42
 -10  -1   3    8.33    0.40
  10  -1  -3    7.98    0.38
  10  -1  -3    7.48    0.36
  10  -1  -3    7.78    0.37
  10  -1  -3    7.06    0.38
 -10  -1   2    0.67    0.33
 -10  -1   2    0.59    0.29
 -10  -1   2    0.42    0.28
  10  -1  -2    0.39    0.26
  10  -1  -2    0.46    0.27
  10  -1  -2    0.46    0.27
 -10  -1   1    0.36    0.30
 -10  -1   1    0.43    0.27
  10  -1  -1    0.48    0.25
  10  -1  -1    0.32    0.27
  10  -1  -1    0.31    0.25
 -10  -1   0    2.77    0.30
 -10  -1   0    2.58    0.32
 -10  -1   0    2.32    0.30
  10  -1   0    2.69    0.27
  10  -1   0    2.45    0.29
  10  -1   0    2.49    0.27
 -10  -1  -1    0.16    0.26
 -10  -1  -1    0.13    0.27
 -10  -1  -1    0.00    0.26
  10  -1   1    0.15    0.22
  10  -1   1   -0.05    0.24
  10  -1   1    0.15    0.21
 -10  -1  -2    5.01    0.30
 -10  -1  -2    5.70    0.32
 -10  -1  -2    4.95    0.30
  10  -1   2    4.84    0.26
  10  -1   2    4.27    0.27
  10  -1   2    4.28    0.23
 -10  -1  -3    3.74    0.27
 -10  -1  -3    3.67    0.27
 -10  -1  -3    3.28    0.26
 -10  -1  -4    1.18    0.19
 -10  -1  -4    1.19    0.20
  10   0  -8    0.56    0.19
 -10   0   8    0.97    0.21
  10   0  -8    0.72    0.21
  10   0  -8    0.75    0.20
  10   0  -8    0.66    0.21
  10   0  -8    0.52    0.17
  10   0  -7    0.03    0.22
 -10   0   7   -0.08    0.24
  10   0  -7    0.01    0.23
  10   0  -7    0.10    0.23
  10   0  -7    0.15    0.24
  10   0  -7   -0.01    0.22
  10   0  -6    0.02    0.25
 -10   0   6    0.23    0.27
 -10   0   6    0.17    0.21
  10   0  -6   -0.13    0.26
  10   0  -6    0.03    0.27
  10   0  -6   -0.03    0.26
  10   0  -5   13.83    0.42
  10   0  -5   13.81    0.43
 -10   0   5   14.35    0.40
  10   0  -5   14.66    0.48
  10   0  -5   13.68    0.45
  10   0  -4    2.02    0.30
 -10   0   4    2.33    0.33
  10   0  -4    1.86    0.30
 -10   0   4    2.32    0.31
  10   0  -4    2.28    0.33
  10   0  -4    2.14    0.32
 -10   0   3    0.27    0.25
  10   0  -3    0.18    0.25
 -10   0   3    0.16    0.31
 -10   0   3    0.20    0.29
  10   0  -3    0.06    0.25
  10   0  -3    0.17    0.29
  10   0  -3    0.37    0.25
  10   0  -3    0.25    0.29
 -10   0   2    2.26    0.28
 -10   0   2    2.52    0.33
 -10   0   2    2.23    0.33
  10   0  -2    2.15    0.30
  10   0  -2    2.01    0.28
  10   0  -2    2.38    0.33
 -10   0   1    5.61    0.33
 -10   0   1    5.72    0.36
 -10   0   1    5.18    0.37
  10   0  -1    5.22    0.34
  10   0  -1    5.20    0.32
  10   0  -1    5.10    0.35
 -10   0   0    0.01    0.26
 -10   0   0    0.13    0.29
 -10   0   0    0.00    0.30
  10   0   0   -0.03    0.25
  10   0   0   -0.01    0.25
  10   0   0    0.04    0.25
 -10   0  -1    0.01    0.25
 -10   0  -1   -0.02    0.28
  10   0   1    0.10    0.23
  10   0   1    0.04    0.23
  10   0   1    0.00    0.23
 -10   0  -2    0.28    0.24
 -10   0  -2    0.23    0.27
 -10   0  -2    0.15    0.26
  10   0   2    0.30    0.21
  10   0   2    0.11    0.22
  10   0   2    0.33    0.21
 -10   0  -3    0.15    0.22
 -10   0  -3    0.36    0.24
 -10   0  -3    0.24    0.25
  10   0   3    0.16    0.20
  10   0   3    0.16    0.18
 -10   0  -4    0.81    0.20
 -10   0  -4    1.26    0.22
 -10   0  -4    0.82    0.21
  10   0   4    0.75    0.17
  10   1  -8    0.84    0.19
  10   1  -8    0.87    0.17
  10   1  -8    1.19    0.20
  10   1  -7    0.27    0.23
 -10   1   7    0.23    0.20
  10   1  -7    0.24    0.23
  10   1  -7    0.32    0.22
  10   1  -7    0.32    0.24
  10   1  -7    0.19    0.18
  10   1  -6   16.46    0.44
 -10   1   6   17.05    0.41
  10   1  -6   17.30    0.44
  10   1  -6   17.10    0.43
  10   1  -6   15.71    0.39
  10   1  -5    1.06    0.29
 -10   1   5    1.27    0.28
  10   1  -5    0.95    0.28
  10   1  -5    1.00    0.29
  10   1  -5    0.86    0.27
  10   1  -4   10.50    0.41
 -10   1   4   11.99    0.41
  10   1  -4   10.48    0.40
 -10   1   4   11.51    0.38
  10   1  -4   10.64    0.43
  10   1  -4   10.64    0.41
  10   1  -3    7.57    0.37
 -10   1   3    8.30    0.38
  10   1  -3    7.89    0.36
 -10   1   3    8.12    0.37
  10   1  -3    7.91    0.38
  10   1  -3    8.36    0.39
  10   1  -2    0.62    0.26
 -10   1   2    0.52    0.27
 -10   1   2    0.30    0.29
  10   1  -2    0.52    0.25
  10   1  -2    0.62    0.26
  10   1  -2    0.61    0.28
 -10   1   1    0.51    0.27
 -10   1   1    0.39    0.28
  10   1  -1    0.39    0.25
  10   1  -1    0.28    0.26
 -10   1   0    3.20    0.31
 -10   1   0    2.88    0.33
  10   1   0    2.21    0.28
 -10   1  -1    0.07    0.25
 -10   1  -1    0.20    0.29
  10   1   1    0.06    0.20
  10   1   1    0.12    0.24
 -10   1  -2    4.42    0.34
  10   1   2    4.59    0.24
  10   1   2    4.73    0.29
  10   1   3    3.07    0.21
 -10   1  -3    3.42    0.29
  10   1   3    3.10    0.23
 -10   1  -4    0.90    0.21
  10   2  -6    3.01    0.26
  10   2  -6    3.30    0.26
  10   2  -5    5.36    0.31
  10   2  -5    5.26    0.31
  10   2  -5    5.07    0.25
  10   2  -5    5.91    0.31
  10   2  -4    2.17    0.27
  10   2  -4    2.14    0.27
  10   2  -4    2.18    0.24
  10   2  -4    1.97    0.23
  10   2  -3    4.80    0.31
  10   2  -3    4.58    0.30
  10   2  -3    4.65    0.28
  10   2  -3    4.67    0.28
  10   2  -2    4.16    0.28
 -10   2   2    4.51    0.28
  10   2  -2    4.37    0.28
  10   2  -2    4.87    0.29
 -10   2   1    0.31    0.25
  10   2  -1    0.20    0.20
  10   2  -1    0.32    0.22
  10   2  -1    0.26    0.23
 -10   2   0    0.55    0.26
  10   2   0    0.52    0.22
  10   2   0    0.53    0.23
 -10   2  -1    3.31    0.28
  10   2   1    3.54    0.25
  10   2   1    3.31    0.25
 -10   2  -2    1.47    0.24
 -10   2  -2    1.37    0.27
 -10   2  -3    1.30    0.21
  10   3  -4    0.16    0.17
  10   3  -3    0.45    0.18
  10   3  -2    0.48    0.17
 -10   3   1    3.24    0.26
  10   3  -1    2.75    0.23
 -10   3   0    1.02    0.23
   0   0   0    0.00    0.00


TITL P20161228a in P2(1)
REM P2(1) (#4 in standard setting)
CELL 1.54184   8.574359   6.436053  13.571385  90.0000  97.6815  90.0000
ZERR    2.00   0.000146   0.000178   0.000268   0.0000   0.0017   0.0000
LATT -1
SYMM -x, y+1/2,-z
SFAC C H N
UNIT 36.00 36.00 4.00
TREF
HKLF 4
END
_computing_structure_solution     'SHELXT 2014/5 (Sheldrick, 2014)'
;
_shelx_hkl_checksum              40373
_shelx_shelxl_version_number     2014/7
_olex2_submission_special_instructions 'No special instructions were received'
_oxdiff_exptl_absorpt_empirical_details
;
Empirical correction (ABSPACK) includes:
- Absorption correction using spherical harmonics
- Frame scaling
- Detector area scaling
;
_oxdiff_exptl_absorpt_empirical_full_max 1.526
_oxdiff_exptl_absorpt_empirical_full_min 0.604
loop_
_space_group_symop_operation_xyz
'x, y, z'
'-x, y+1/2, -z'
loop_
_atom_site_label
_atom_site_type_symbol
_atom_site_fract_x
_atom_site_fract_y
_atom_site_fract_z
_atom_site_U_iso_or_equiv
_atom_site_adp_type
_atom_site_occupancy
_atom_site_site_symmetry_order
_atom_site_calc_flag
_atom_site_refinement_flags_posn
H4 H -0.7594 -0.3409 -0.2804 0.109 Uiso 1 1 calc R
H5 H -0.8925 -0.5370 -0.1766 0.130 Uiso 1 1 calc R
H6 H -0.9734 -0.8683 -0.2178 0.130 Uiso 1 1 calc R
H7 H -0.9273 -1.0168 -0.3658 0.116 Uiso 1 1 calc R
H8A H -0.8735 -1.0295 -0.5891 0.105 Uiso 1 1 calc R
H8B H -0.6959 -1.0821 -0.5493 0.105 Uiso 1 1 calc R
H9A H -0.8073 -0.8241 -0.7095 0.114 Uiso 1 1 calc R
H9B H -0.6491 -0.9513 -0.6955 0.114 Uiso 1 1 calc R
H10 H -0.5137 -0.6978 -0.6098 0.089 Uiso 1 1 calc R
H11A H -0.5939 -0.3614 -0.6608 0.093 Uiso 1 1 calc R
H11B H -0.7594 -0.4466 -0.7057 0.093 Uiso 1 1 calc R
H12A H -0.4739 -0.5237 -0.7810 0.124 Uiso 1 1 calc R
H12B H -0.6264 -0.6503 -0.8185 0.124 Uiso 1 1 calc R
H14 H -0.4561 -0.1601 -0.8288 0.106 Uiso 1 1 calc R
H15 H -0.5292 0.0940 -0.9433 0.148 Uiso 1 1 calc R
H16 H -0.7550 0.0653 -1.0501 0.165 Uiso 1 1 calc R
H17 H -0.9127 -0.2195 -1.0425 0.167 Uiso 1 1 calc R
H18 H -0.8381 -0.4870 -0.9307 0.124 Uiso 1 1 calc R
C1 C -0.6878(2) -0.6319(3) -0.52692(14) 0.0671(5) Uani 1 1 d .
C2 C -0.8124(2) -0.7657(4) -0.41067(15) 0.0729(5) Uani 1 1 d .
C3 C -0.7602(2) -0.5629(4) -0.38696(15) 0.0724(5) Uani 1 1 d .
C4 C -0.7915(3) -0.4754(5) -0.29787(17) 0.0907(7) Uani 1 1 d .
C5 C -0.8712(3) -0.5932(7) -0.23653(18) 0.1081(11) Uani 1 1 d .
C6 C -0.9204(3) -0.7931(7) -0.2615(2) 0.1087(12) Uani 1 1 d .
C7 C -0.8931(3) -0.8828(5) -0.3488(2) 0.0966(9) Uani 1 1 d .
C8 C -0.7685(3) -0.9722(4) -0.5734(2) 0.0875(6) Uani 1 1 d .
C9 C -0.7165(4) -0.8615(4) -0.66230(18) 0.0953(7) Uani 1 1 d .
C10 C -0.6261(2) -0.6649(4) -0.62326(15) 0.0742(5) Uani 1 1 d .
C11 C -0.6482(3) -0.4804(4) -0.69315(16) 0.0773(6) Uani 1 1 d .
C12 C -0.5879(4) -0.5172(5) -0.7921(2) 0.1030(9) Uani 1 1 d .
C13 C -0.6373(2) -0.3521(4) -0.86712(14) 0.0746(6) Uani 1 1 d .
C14 C -0.5485(3) -0.1759(5) -0.87252(16) 0.0879(7) Uani 1 1 d .
C15 C -0.5927(6) -0.0226(6) -0.9408(2) 0.1234(13) Uani 1 1 d .
C16 C -0.7259(6) -0.0390(9) -1.0038(3) 0.1374(16) Uani 1 1 d .
C17 C -0.8188(4) -0.2094(10) -0.9997(3) 0.1389(17) Uani 1 1 d .
C18 C -0.7750(3) -0.3697(6) -0.9320(2) 0.1032(9) Uani 1 1 d .
N1 N -0.76501(19) -0.8031(3) -0.50220(13) 0.0723(5) Uani 1 1 d .
N2 N -0.6811(2) -0.4808(3) -0.46170(12) 0.0738(5) Uani 1 1 d .
loop_
_atom_site_aniso_label
_atom_site_aniso_U_11
_atom_site_aniso_U_22
_atom_site_aniso_U_33
_atom_site_aniso_U_23
_atom_site_aniso_U_13
_atom_site_aniso_U_12
C1 0.0694(9) 0.0512(10) 0.0788(10) 0.0050(8) 0.0029(7) -0.0013(8)
C2 0.0644(8) 0.0709(14) 0.0803(10) 0.0159(9) -0.0016(8) -0.0011(9)
C3 0.0711(9) 0.0706(14) 0.0728(10) 0.0070(9) -0.0006(7) 0.0021(9)
C4 0.0903(12) 0.102(2) 0.0766(11) -0.0030(13) -0.0004(9) 0.0083(14)
C5 0.0865(13) 0.164(4) 0.0719(12) 0.0097(17) 0.0045(10) 0.0095(19)
C6 0.0801(12) 0.158(4) 0.0863(14) 0.0369(19) 0.0036(10) -0.0107(17)
C7 0.0829(11) 0.103(2) 0.1003(15) 0.0339(16) -0.0016(10) -0.0142(13)
C8 0.1041(15) 0.0552(12) 0.0995(14) -0.0024(11) -0.0003(11) -0.0068(12)
C9 0.1287(19) 0.0666(15) 0.0887(14) -0.0113(12) 0.0080(12) -0.0027(14)
C10 0.0774(10) 0.0624(13) 0.0822(11) 0.0039(10) 0.0087(8) 0.0085(9)
C11 0.0850(11) 0.0685(13) 0.0803(11) 0.0077(10) 0.0184(8) 0.0146(10)
C12 0.132(2) 0.090(2) 0.0940(14) 0.0087(14) 0.0407(14) 0.0349(17)
C13 0.0805(10) 0.0771(15) 0.0697(9) -0.0034(10) 0.0224(8) 0.0037(10)
C14 0.0956(13) 0.095(2) 0.0767(11) -0.0186(12) 0.0243(10) -0.0155(13)
C15 0.203(4) 0.087(2) 0.0938(17) -0.0044(16) 0.069(2) -0.016(2)
C16 0.211(5) 0.118(3) 0.0865(17) 0.016(2) 0.031(2) 0.045(3)
C17 0.117(2) 0.195(5) 0.0971(19) -0.006(3) -0.0140(16) 0.052(3)
C18 0.0868(13) 0.114(2) 0.1083(16) -0.0191(18) 0.0126(11) -0.0120(15)
N1 0.0759(8) 0.0539(10) 0.0852(9) 0.0047(8) 0.0041(7) -0.0050(7)
N2 0.0830(9) 0.0593(10) 0.0777(9) 0.0002(8) 0.0056(7) -0.0061(8)
loop_
_atom_type_symbol
_atom_type_description
_atom_type_scat_dispersion_real
_atom_type_scat_dispersion_imag
_atom_type_scat_source
C C 0.0181 0.0091 'International Tables Vol C Tables 4.2.6.8 and 6.1.1.4'
H H 0.0000 0.0000 'International Tables Vol C Tables 4.2.6.8 and 6.1.1.4'
N N 0.0311 0.0180 'International Tables Vol C Tables 4.2.6.8 and 6.1.1.4'
loop_
_geom_angle_atom_site_label_1
_geom_angle_atom_site_label_2
_geom_angle_atom_site_label_3
_geom_angle
N1 C1 C10 110.19(19)
N2 C1 C10 135.2(2)
N2 C1 N1 114.60(18)
C7 C2 C3 122.6(3)
N1 C2 C3 104.22(19)
N1 C2 C7 133.2(3)
C4 C3 C2 118.8(2)
C4 C3 N2 130.3(2)
N2 C3 C2 110.9(2)
C3 C4 H4 120.9
C5 C4 H4 120.9
C5 C4 C3 118.2(3)
C4 C5 H5 119.1
C4 C5 C6 121.7(3)
C6 C5 H5 119.1
C5 C6 H6 119.2
C7 C6 H6 119.2
C7 C6 C5 121.6(3)
C2 C7 H7 121.5
C6 C7 H7 121.5
C6 C7 C2 117.0(3)
H8A C8 H8B 109.3
C9 C8 H8A 111.5
C9 C8 H8B 111.5
N1 C8 H8A 111.5
N1 C8 H8B 111.5
N1 C8 C9 101.23(19)
H9A C9 H9B 108.5
C8 C9 H9A 110.2
C8 C9 H9B 110.2
C8 C9 C10 107.45(18)
C10 C9 H9A 110.2
C10 C9 H9B 110.2
C1 C10 H10 108.9
C1 C10 C9 101.38(19)
C1 C10 C11 114.09(19)
C9 C10 H10 108.9
C11 C10 H10 108.9
C11 C10 C9 114.41(17)
H11A C11 H11B 107.7
C10 C11 H11A 108.8
C10 C11 H11B 108.8
C10 C11 C12 113.7(2)
C12 C11 H11A 108.8
C12 C11 H11B 108.8
H12A C12 H12B 107.8
C11 C12 H12A 109.0
C11 C12 H12B 109.0
C13 C12 H12A 109.0
C13 C12 H12B 109.0
C13 C12 C11 113.1(2)
C14 C13 C12 121.0(2)
C14 C13 C18 117.8(3)
C18 C13 C12 121.1(3)
C13 C14 H14 119.2
C15 C14 H14 119.2
C15 C14 C13 121.7(3)
C14 C15 H15 119.7
C16 C15 H15 119.7
C16 C15 C14 120.7(4)
C15 C16 H16 120.2
C15 C16 C17 119.5(4)
C17 C16 H16 120.2
C16 C17 H17 119.5
C16 C17 C18 120.9(3)
C18 C17 H17 119.5
C13 C18 H18 120.3
C13 C18 C17 119.3(3)
C17 C18 H18 120.3
C1 N1 C2 107.13(19)
C1 N1 C8 114.40(18)
C2 N1 C8 138.4(2)
C1 N2 C3 103.18(18)
loop_
_geom_bond_atom_site_label_1
_geom_bond_atom_site_label_2
_geom_bond_distance
C1 C10 1.490(3)
C2 C3 1.403(4)
C2 C7 1.381(3)
C3 C4 1.392(3)
C4 H4 0.9300
C4 C5 1.373(4)
C5 H5 0.9300
C5 C6 1.382(6)
C6 H6 0.9300
C6 C7 1.366(5)
C7 H7 0.9300
C8 H8A 0.9700
C8 H8B 0.9700
C8 C9 1.519(4)
C9 H9A 0.9700
C9 H9B 0.9700
C9 C10 1.540(4)
C10 H10 0.9800
C10 C11 1.516(3)
C11 H11A 0.9700
C11 H11B 0.9700
C11 C12 1.520(3)
C12 H12A 0.9700
C12 H12B 0.9700
C12 C13 1.493(4)
C13 C14 1.373(4)
C13 C18 1.380(3)
C14 H14 0.9300
C14 C15 1.372(5)
C15 H15 0.9300
C15 C16 1.336(6)
C16 H16 0.9300
C16 C17 1.361(7)
C17 H17 0.9300
C17 C18 1.399(6)
C18 H18 0.9300
N1 C1 1.350(3)
N1 C2 1.379(3)
N1 C8 1.453(3)
N2 C1 1.311(3)
N2 C3 1.397(3)
loop_
_geom_torsion_atom_site_label_1
_geom_torsion_atom_site_label_2
_geom_torsion_atom_site_label_3
_geom_torsion_atom_site_label_4
_geom_torsion
C1 C10 C11 C12 -178.8(2)
C1 N1 C2 C3 1.2(2)
C1 N1 C2 C7 -179.2(2)
C1 N1 C8 C9 -14.1(3)
C1 N2 C3 C2 0.1(2)
C1 N2 C3 C4 -180.0(2)
C2 C3 C4 C5 0.7(3)
C2 N1 C1 C10 177.29(16)
C2 N1 C1 N2 -1.2(2)
C2 N1 C8 C9 169.9(2)
C3 C2 C7 C6 -0.3(3)
C3 C4 C5 C6 -0.3(4)
C3 N2 C1 C10 -177.4(2)
C3 N2 C1 N1 0.7(2)
C4 C5 C6 C7 -0.4(4)
C5 C6 C7 C2 0.7(4)
C7 C2 C3 C4 -0.4(3)
C7 C2 C3 N2 179.52(19)
C8 C9 C10 C1 -22.2(3)
C8 C9 C10 C11 -145.4(2)
C8 N1 C1 C10 0.1(2)
C8 N1 C1 N2 -178.43(17)
C8 N1 C2 C3 177.3(2)
C8 N1 C2 C7 -3.1(4)
C9 C10 C11 C12 -62.7(3)
C10 C11 C12 C13 169.0(2)
C11 C12 C13 C14 88.0(3)
C11 C12 C13 C18 -90.7(3)
C12 C13 C14 C15 -179.8(2)
C12 C13 C18 C17 178.6(3)
C13 C14 C15 C16 1.0(4)
C14 C13 C18 C17 -0.2(4)
C14 C15 C16 C17 0.2(6)
C15 C16 C17 C18 -1.4(6)
C16 C17 C18 C13 1.4(5)
C18 C13 C14 C15 -1.0(3)
N1 C1 C10 C9 13.8(2)
N1 C1 C10 C11 137.25(19)
N1 C2 C3 C4 179.25(18)
N1 C2 C3 N2 -0.8(2)
N1 C2 C7 C6 -179.8(2)
N1 C8 C9 C10 22.1(3)
N2 C1 C10 C9 -168.1(2)
N2 C1 C10 C11 -44.7(3)
N2 C3 C4 C5 -179.2(2)
