#------------------------------------------------------------------------------
#$Date: 2019-11-26 00:03:58 +0200 (Tue, 26 Nov 2019) $
#$Revision: 242124 $
#$URL: file:///home/coder/svn-repositories/cod/cif/4/13/20/4132082.cif $
#------------------------------------------------------------------------------
#
# This file is available in the Crystallography Open Database (COD),
# http://www.crystallography.net/
#
# All data on this site have been placed in the public domain by the
# contributors.
#
data_4132082
loop_
_publ_author_name
'Purdum, Geoffrey E.'
'Telesz, Nicholas G.'
'Jarolimek, Karol'
'Ryno, Sean M.'
'Gessner, Thomas'
'Davy, Nicholas C.'
'Petty, 2nd, Anthony J'
'Zhen, Yonggang'
'Shu, Ying'
'Facchetti, Antonio'
'Collis, Gavin E.'
'Hu, Wenping'
'Wu, Chao'
'Anthony, John E.'
'Weitz, R. Thomas'
'Risko, Chad'
'Loo, Yueh-Lin'
_publ_section_title
;
 Presence of Short Intermolecular Contacts Screens for Kinetic Stability
 in Packing Polymorphs.
;
_journal_issue                   24
_journal_name_full               'Journal of the American Chemical Society'
_journal_page_first              7519
_journal_page_last               7525
_journal_paper_doi               10.1021/jacs.8b01421
_journal_volume                  140
_journal_year                    2018
_chemical_formula_moiety         'C22 H6 Br2 F14 N2 O4'
_chemical_formula_sum            'C22 H6 Br2 F14 N2 O4'
_chemical_formula_weight         788.11
_space_group_crystal_system      triclinic
_space_group_IT_number           2
_space_group_name_Hall           '-P 1'
_space_group_name_H-M_alt        'P -1'
_atom_sites_solution_hydrogens   difmap
_atom_sites_solution_primary     direct
_atom_sites_solution_secondary   difmap
_audit_creation_method           'SHELXL-2017 and CIFFIX/1'
_cell_angle_alpha                94.542(1)
_cell_angle_beta                 95.570(1)
_cell_angle_gamma                108.608(1)
_cell_formula_units_Z            1
_cell_length_a                   5.1899(3)
_cell_length_b                   6.6276(4)
_cell_length_c                   18.7943(11)
_cell_measurement_reflns_used    9946
_cell_measurement_temperature    90.0(2)
_cell_measurement_theta_max      74.77
_cell_measurement_theta_min      4.76
_cell_volume                     605.60(6)
_computing_cell_refinement       '<i>APEX3</i> (Bruker-AXS, 2016)'
_computing_data_collection       '<i>APEX3</i> (Bruker-AXS, 2016)'
_computing_data_reduction        '<i>APEX3</i> (Bruker-AXS, 2016)'
_computing_molecular_graphics    '<i>XP in SHELXTL</i> (Sheldrick, 2008)'
_computing_publication_material
'<i>SHELX</i> (Sheldrick, 2008) and <i>CIFFIX</i> (Parkin, 2013)'
_computing_structure_refinement  '<i>SHELXL-2017/1</i> (Sheldrick, 2015b)'
_computing_structure_solution    '<i>SHELXT</i> (Sheldrick, 2015a)'
_diffrn_ambient_temperature      90.0(2)
_diffrn_detector_area_resol_mean 5.6
_diffrn_measured_fraction_theta_full 0.962
_diffrn_measured_fraction_theta_max 0.956
_diffrn_measurement_device_type  'Bruker D8 Venture dual source'
_diffrn_measurement_method       '\f and \w scans'
_diffrn_radiation_type           CuK\a
_diffrn_radiation_wavelength     1.54178
_diffrn_reflns_av_R_equivalents  0.0373
_diffrn_reflns_av_unetI/netI     0.0275
_diffrn_reflns_Laue_measured_fraction_full 0.962
_diffrn_reflns_Laue_measured_fraction_max 0.956
_diffrn_reflns_limit_h_max       6
_diffrn_reflns_limit_h_min       -5
_diffrn_reflns_limit_k_max       8
_diffrn_reflns_limit_k_min       -8
_diffrn_reflns_limit_l_max       23
_diffrn_reflns_limit_l_min       -23
_diffrn_reflns_number            12245
_diffrn_reflns_point_group_measured_fraction_full 0.962
_diffrn_reflns_point_group_measured_fraction_max 0.956
_diffrn_reflns_theta_full        67.679
_diffrn_reflns_theta_max         74.756
_diffrn_reflns_theta_min         4.761
_diffrn_source                   microsource
_exptl_absorpt_coefficient_mu    5.633
_exptl_absorpt_correction_T_max  0.754
_exptl_absorpt_correction_T_min  0.502
_exptl_absorpt_correction_type   multi-scan
_exptl_absorpt_process_details   '<i>SADABS</i> (Krause et al., 2015)'
_exptl_crystal_colour            yellow
_exptl_crystal_density_diffrn    2.161
_exptl_crystal_description       flake
_exptl_crystal_F_000             380
_exptl_crystal_size_max          0.200
_exptl_crystal_size_mid          0.140
_exptl_crystal_size_min          0.050
_refine_diff_density_max         1.423
_refine_diff_density_min         -0.520
_refine_diff_density_rms         0.094
_refine_ls_extinction_coef       0.0077(12)
_refine_ls_extinction_expression Fc^*^=kFc[1+0.001xFc^2^\l^3^/sin(2\q)]^-1/4^
_refine_ls_extinction_method     'SHELXL-2017/1 (Sheldrick, 2015b)'
_refine_ls_goodness_of_fit_ref   1.142
_refine_ls_hydrogen_treatment    constr
_refine_ls_matrix_type           full
_refine_ls_number_parameters     200
_refine_ls_number_reflns         2392
_refine_ls_number_restraints     0
_refine_ls_restrained_S_all      1.142
_refine_ls_R_factor_all          0.0329
_refine_ls_R_factor_gt           0.0328
_refine_ls_shift/su_max          0.000
_refine_ls_shift/su_mean         0.000
_refine_ls_structure_factor_coef Fsqd
_refine_ls_weighting_details
'w=1/[\s^2^(Fo^2^)+2.2631P] where P=(Fo^2^+2Fc^2^)/3'
_refine_ls_weighting_scheme      calc
_refine_ls_wR_factor_gt          0.0823
_refine_ls_wR_factor_ref         0.0823
_reflns_Friedel_coverage         0.000
_reflns_number_gt                2380
_reflns_number_total             2392
_reflns_threshold_expression     'I > 2\s(I)'
_cod_data_source_file            ja8b01421_si_005.cif
_cod_data_source_block           c17068
_cod_database_code               4132082
_shelx_shelxl_version_number     2017/1
_shelx_space_group_comment
; 
The symmetry employed for this shelxl refinement is uniquely defined 
by the following loop, which should always be used as a source of 
symmetry information in preference to the above space-group names. 
They are only intended as comments. 
;
_shelx_estimated_absorpt_t_min   0.399
_shelx_estimated_absorpt_t_max   0.766
_exptl_absorpt_special_details
; 
In addition to absorption, multi-scan techniques also correct other slowly 
varying changes in scale factor over reciprocal space, such as those caused 
by x-ray beam inhomogeneity, goniometer imperfection, crystal decomposition, 
crystal longer than the x-ray beam cross section, absorption by the crystal 
mount etc.  These account, by and large, for much of the difference between 
estimated values of Tmin and Tmax and the _exptl_absorpt_correction_ values. 
;
_shelx_res_file
; 
TITL c17068 : space group P-1 
    c17068.res 
    created by SHELXL-2017/1 at 11:05:45 on 26-Aug-2017 
CELL  1.54178   5.1899   6.6276  18.7943   94.542   95.570  108.608 
ZERR    1.000   0.0003   0.0004   0.0011    0.001    0.001    0.001 
LATT  1 
SFAC C H N O F BR 
UNIT 22 6 2 4 14 2 
TEMP -183 
SIZE 0.20 0.14 0.05 
REM FORM flake 
REM COLR yellow 
L.S. 10 
BOND $H 
LIST 4 
ACTA 
CONF 
HTAB 
FMAP 2 
PLAN 10 
WGHT    0.000000    2.263100 
EXTI    0.007691 
FVAR       1.26337 
N1    3    0.705468    0.512644    0.686084    11.00000    0.01480    0.01429 = 
         0.01374    0.00326    0.00135    0.00678 
O1    4    0.963520    0.304588    0.658191    11.00000    0.01913    0.02274 = 
         0.01755    0.00426    0.00085    0.01278 
O2    4    0.455376    0.726599    0.713367    11.00000    0.02518    0.02078 = 
         0.01641    0.00199    0.00342    0.01307 
BR1   6    0.189008    0.953254    0.619750    11.00000    0.01440    0.01249 = 
         0.01659    0.00212    0.00353    0.00717 
C1    1    0.598140    0.187476    0.921663    11.00000    0.03036    0.03355 = 
         0.02151    0.01010    0.00495    0.01146 
C2    1    0.725807    0.381740    0.881249    11.00000    0.02606    0.02570 = 
         0.01781    0.00334    0.00324    0.01188 
C3    1    0.639898    0.350885    0.799420    11.00000    0.01805    0.01966 = 
         0.01859    0.00389    0.00104    0.00652 
C4    1    0.811512    0.534117    0.762508    11.00000    0.01815    0.01964 = 
         0.01368    0.00276    0.00056    0.00888 
AFIX  23 
H4A   2    0.809959    0.672069    0.786547    11.00000   -1.20000 
H4B   2    1.003629    0.535240    0.767123    11.00000   -1.20000 
AFIX   0 
C5    1    0.801538    0.392708    0.637914    11.00000    0.01278    0.01173 = 
         0.01751    0.00385    0.00343    0.00404 
C6    1    0.699316    0.380125    0.560710    11.00000    0.00899    0.01075 = 
         0.01764    0.00503    0.00312    0.00222 
C7    1    0.770556    0.249713    0.511777    11.00000    0.01270    0.01024 = 
         0.02024    0.00528    0.00365    0.00461 
AFIX  43 
H7A   2    0.874844    0.164266    0.528438    11.00000   -1.20000 
AFIX   0 
C8    1    0.537650    0.504662    0.537396    11.00000    0.00981    0.00945 = 
         0.01724    0.00290    0.00259    0.00263 
C9    1    0.457340    0.635798    0.588512    11.00000    0.01030    0.00978 = 
         0.01644    0.00231    0.00305    0.00243 
C10   1    0.306817    0.760722    0.562392    11.00000    0.00937    0.01058 = 
         0.01955    0.00321    0.00430    0.00274 
C11   1    0.532454    0.632313    0.666827    11.00000    0.01465    0.00983 = 
         0.01804    0.00280    0.00274    0.00490 
F1    5    0.661575    0.162492    0.773068    11.00000    0.05152    0.01678 = 
         0.02109    0.00253    0.00736    0.00849 
F2    5    0.999190    0.432693    0.893866    11.00000    0.02441    0.05042 = 
         0.02436    0.01266   -0.00518    0.00558 
F3    5    0.694098    0.030754    0.904514    11.00000    0.06943    0.03973 = 
         0.04300    0.02328    0.01941    0.03167 
F4    5    0.662465    0.243841    0.991575    11.00000    0.07555    0.05383 = 
         0.01779    0.01322    0.00707    0.01272 
F5    5    0.329864    0.114825    0.906142    11.00000    0.03211    0.06417 = 
         0.05344    0.03865    0.01070    0.00813 
F6    5    0.657683    0.547396    0.909736    11.00000    0.07124    0.03228 = 
         0.02663    0.00324    0.01917    0.02559 
F7    5    0.371902    0.330640    0.787101    11.00000    0.01537    0.04978 = 
         0.03517    0.02422    0.00188    0.00638 
 
HKLF 4 
 
 
 
 
REM  c17068 : space group P-1 
REM R1 =  0.0328 for    2380 Fo > 4sig(Fo)  and  0.0329 for all    2392 data 
REM    200 parameters refined using      0 restraints 
 
END 
 
WGHT      0.0000      2.2631 
 
REM Instructions for potential hydrogen bonds 
EQIV $2 x+1, y, z 
HTAB C4 O2_$2 
EQIV $3 x+1, y-1, z 
HTAB C7 Br1_$3 
 
REM Highest difference peak  1.423,  deepest hole -0.520,  1-sigma level  0.094 
Q1    1   0.1589  0.9362  0.5680  11.00000  0.05    1.42 
Q2    1   0.2081  0.9587  0.6718  11.00000  0.05    1.30 
Q3    1   0.3316  1.0625  0.6020  11.00000  0.05    0.47 
Q4    1   0.7392  0.4567  0.7865  11.00000  0.05    0.47 
Q5    1   0.7484  0.3927  0.5995  11.00000  0.05    0.44 
Q6    1   0.6839  0.3477  0.8394  11.00000  0.05    0.44 
Q7    1   0.4841  0.6252  0.6262  11.00000  0.05    0.42 
Q8    1   0.4202  0.7227  0.5788  11.00000  0.05    0.39 
Q9    1   0.7506  0.2714  0.4763  11.00000  0.05    0.38 
Q10   1   0.6673  0.2954  0.9026  11.00000  0.05    0.38 
;
_shelx_res_checksum              35913
_shelx_hkl_file
;
  -3   0   0 178.402 10.3508   3
  -3   0   0 144.547 9.05834  20
   3   0   0 150.694 8.34592  15
  -4   0   0 123.591 8.54348  21
  -4   0   0 141.084 9.09971  20
  -4   0   0 124.095 10.2979   3
   4   0   0 145.069 15.9306   4
   4   0   0 146.747 9.48822  10
   4   0   0 136.152 9.88636   8
   4   0   0 148.366 15.8588   5
  -5   0   0 776.350 42.0882  20
  -5   0   0 761.204 41.5489  21
  -5   0   0 799.551 44.3181   3
   5   0   0 857.840 50.8487   4
   5   0   0 818.061 70.2019  16
   6  -1   0 89.5644 16.8056  16
   6  -1   0 101.006 10.4800   4
  -5   1   0 296.969 16.5570  20
  -5   1   0 295.879 18.3744   3
   4  -1   0 83.0172 6.52539  10
   4  -1   0 82.2206 7.44608  18
   4  -1   0 75.0679 9.72116   1
   4  -1   0 70.2360 9.98899  12
   4  -1   0 77.8541 4.69301  15
   4  -1   0 94.0550 20.3570  16
   4  -1   0 81.5154 7.34652  14
   4  -1   0 75.7459 11.0729   4
  -4   1   0 66.1283 5.96779   3
  -4   1   0 77.4181 5.32938  20
   3  -1   0 1587.86 80.5927  17
   3  -1   0 1642.82 86.8991   5
   3  -1   0 1554.25 78.3129  15
  -3   1   0 1456.86 78.1008   7
  -3   1   0 1582.74 79.1091  11
   0   1   0 779.548 39.4917   5
  -3  -1   0 2449.26 117.930  20
  -3  -1   0 2229.96 117.223  21
  -3  -1   0 2317.75 119.705   3
   3   1   0 2323.19 124.801   5
  -4  -1   0 366.036 23.2930  21
  -4  -1   0 393.454 25.1384   3
  -4  -1   0 425.770 23.1969  20
  -4  -1   0 393.701 21.2430  13
   4   1   0 456.608 31.4113   4
  -5  -1   0 827.868 45.3724   3
  -5  -1   0 810.370 41.4502  13
  -5  -1   0 755.388 43.0701  20
  -5  -1   0 845.204 42.4934  21
   5   1   0 885.563 50.2231   4
   5   1   0 781.632 66.3738  16
   6  -2   0 90.6789 10.0303   4
   6  -2   0 89.6691 17.5465  16
   5  -2   0 1609.79 89.2070  12
   5  -2   0 1651.76 87.7029   1
   5  -2   0 1572.52 89.1734   4
   5  -2   0 1638.37 82.9084  14
   5  -2   0 1601.61 81.5654  10
   5  -2   0 1538.44 112.394  16
   5  -2   0 1507.18 83.0837  18
   4  -2   0 1707.87 84.3822  15
   4  -2   0 1742.12 91.9060   1
   4  -2   0 1615.26 93.3700  12
   4  -2   0 1688.48 86.9326  14
   4  -2   0 1588.53 93.0288   4
   4  -2   0 1606.40 87.4274  18
   4  -2   0 1712.32 94.2159   5
   4  -2   0 1703.79 85.9604  10
   4  -2   0 1755.51 114.685  16
   3  -2   0 1836.27 91.3794  15
   3  -2   0 1778.74 93.2897  17
   3  -2   0 1748.18 96.8524   5
   3  -2   0 1811.25 93.5267   6
  -3   2   0 1952.60 92.8882  11
   1  -2   0 86.8785 5.64285   6
   1  -2   0 94.7788 5.65208  17
   1  -2   0 74.7156 4.50409  15
  -1   2   0 78.2040 5.22091  11
   0   2   0 1948.19 98.4319   5
  -2  -2   0 1017.66 50.7948  20
  -2  -2   0 861.797 50.1153  21
  -2  -2   0 972.980 52.4962   3
   2   2   0 1074.75 55.8354   5
  -3  -2   0 1376.25 74.9551  13
  -3  -2   0 1459.95 79.2213   3
  -3  -2   0 1471.56 74.8390   9
  -3  -2   0 1570.80 77.0244  20
  -3  -2   0 1539.35 76.1808  21
   3   2   0 1447.67 83.8310   4
   3   2   0 1572.61 84.2872   5
  -4  -2   0 253.706 18.7466   3
  -4  -2   0 295.168 16.9465  20
  -5  -2   0 128.613 6.46432  13
  -5  -2   0 112.546 7.22661  21
   5   2   0 117.451 11.0994   4
   5   2   0 98.9874 17.7556  16
   6  -3   0 44.8430 12.5871  16
   6  -3   0 41.2356 6.39636   4
   5  -3   0 1386.46 72.4568  14
   5  -3   0 1441.44 81.9716  12
   5  -3   0 1424.01 74.0767  18
   5  -3   0 1331.05 79.3677   4
   5  -3   0 1316.33 77.5753   1
   4  -3   0 1774.67 100.505  12
   4  -3   0 1679.40 97.7096   4
   4  -3   0 1830.88 94.1801   6
   4  -3   0 1790.53 90.4841  15
   4  -3   0 1804.83 91.9733  10
   4  -3   0 1844.76 122.903  16
   4  -3   0 1805.48 93.0056  14
   4  -3   0 1802.02 93.9956  18
   4  -3   0 1914.92 98.1977   1
   4  -3   0 1757.30 92.0212   8
   3  -3   0 68.9666 5.69084  17
   3  -3   0 61.5506 4.19948  15
   3  -3   0 70.1657 6.24880   6
   1  -3   0 41.7989 3.94457   6
  -1   3   0 37.0550 3.92685   3
  -1   3   0 34.5702 3.37529  11
   0   3   0 2194.85 99.2069  11
   0   3   0 1958.36 98.0517  20
   0   3   0 1692.36 98.6092   5
   0   3   0 1933.48 99.4035   3
  -1  -3   0 824.747 46.3714   6
  -1  -3   0 798.550 46.8005  21
  -1  -3   0 955.237 46.5730  20
  -1  -3   0 956.130 48.9170   3
   1   3   0 923.695 50.5537  19
   1   3   0 872.026 46.0348  20
   1   3   0 919.900 46.0265  11
   1   3   0 895.780 48.8578   5
   1   3   0 903.533 48.6357   3
  -2  -3   0 729.086 37.8253  20
  -2  -3   0 755.125 40.3627   3
  -2  -3   0 727.144 37.0001  21
  -2  -3   0 644.969 36.0319  13
   2   3   0 671.172 36.5651   2
   2   3   0 704.199 42.1737   5
  -3  -3   0 1722.52 84.6934  21
  -3  -3   0 1813.08 89.1507   3
  -3  -3   0 1685.61 83.1404   9
  -3  -3   0 1710.56 85.7163  20
  -3  -3   0 1634.44 83.2746  13
   3   3   0 1480.34 91.8365   5
   3   3   0 1549.81 90.7627   4
  -4  -3   0 562.614 29.4275  21
  -4  -3   0 583.911 28.2624  13
  -4  -3   0 533.722 28.0243   9
  -4  -3   0 519.732 32.3643   3
   4   3   0 554.718 34.6072   4
   5  -4   0 218.088 19.6936  12
   5  -4   0 224.599 14.1626  14
   5  -4   0 202.197 17.7843   1
   5  -4   0 192.263 29.6646  16
   5  -4   0 225.015 13.0975  10
   5  -4   0 230.269 15.1817  18
   4  -4   0 1890.48 132.221  16
   4  -4   0 2117.12 110.983   1
   4  -4   0 2272.21 104.836  10
   4  -4   0 1985.64 105.066  14
   4  -4   0 2022.60 106.792   6
   4  -4   0 2015.71 106.263  18
   4  -4   0 2049.10 113.495  12
  -4   4   0 1998.71 103.924   3
   3  -4   0 32.6243 4.34847   8
   3  -4   0 28.3520 5.16138  18
   3  -4   0 21.7881 6.44867   1
   3  -4   0 27.3314 4.28233   6
   3  -4   0 31.8155 16.8661  16
   2  -4   0 3656.68 184.240  17
   1  -4   0 1655.00 84.2489  17
   1  -4   0 1563.91 84.1486   6
  -1   4   0 1629.71 82.5338  21
  -1   4   0 1523.71 83.2832  11
  -1   4   0 1664.36 84.7198   3
  -1   4   0 1734.60 82.9617  20
   0  -4   0 611.507 33.7675   6
   0   4   0 599.144 32.9330  11
   0   4   0 609.858 32.3324  21
   0   4   0 621.142 32.7849  20
   0   4   0 643.922 34.7343   3
  -1  -4   0 2164.52 108.348   9
  -1  -4   0 2005.99 108.348  13
  -1  -4   0 2244.48 113.116   3
  -1  -4   0 2235.19 110.584  20
  -1  -4   0 2186.63 110.854   6
   1   4   0 2113.85 110.077   2
   1   4   0 2298.50 109.736  21
   1   4   0 2183.35 108.293  13
   1   4   0 2046.98 108.301   9
   1   4   0 2192.98 116.406  19
  -2  -4   0 388.933 23.0744  20
  -2  -4   0 429.292 23.2732  21
  -2  -4   0 393.841 20.6590   9
  -2  -4   0 391.669 20.7621  13
  -2  -4   0 387.257 25.3860   3
   2   4   0 400.393 21.6660   2
  -3  -4   0 681.085 33.8427  13
  -3  -4   0 609.778 36.0888  20
  -3  -4   0 654.740 33.6887   9
  -3  -4   0 649.285 38.4346   3
  -3  -4   0 699.845 37.0580  21
   3   4   0 681.402 34.4624   2
  -4  -4   0 454.885 21.1088   9
  -4  -4   0 415.885 21.0637  13
   4   4   0 368.166 34.2164  16
   5  -5   0 89.2535 6.91367   8
   5  -5   0 89.5681 10.6597   1
   5  -5   0 106.523 7.97951  14
   5  -5   0 106.035 8.93270  18
   5  -5   0 113.472 12.6870  12
   5  -5   0 105.696 6.90969  10
   4  -5   0 1724.08 92.3342   8
   4  -5   0 1914.43 99.8780   1
   4  -5   0 1803.92 93.1734  14
   4  -5   0 1725.89 91.6234  10
   4  -5   0 1849.90 101.368  12
   4  -5   0 1827.65 94.6116  18
  -4   5   0 1826.95 93.1672   3
  -4   5   0 1784.61 102.788  19
  -4   5   0 1791.77 91.3468  20
   3  -5   0 304.201 24.7530  12
   3  -5   0 365.268 25.2579  18
   3  -5   0 321.538 19.4859  14
   3  -5   0 306.463 20.5843   6
   3  -5   0 317.148 19.3617   8
  -3   5   0 323.361 20.0167   3
  -3   5   0 313.726 17.8732  21
   2  -5   0 2395.49 133.230  12
   2  -5   0 2385.82 123.189   6
   2  -5   0 2422.51 121.411   8
   2  -5   0 2171.14 119.505   2
  -2   5   0 2548.16 121.062  20
  -2   5   0 2598.76 123.689   3
  -2   5   0 2140.79 119.622  13
  -2   5   0 2419.16 120.547  21
   1  -5   0 1562.97 81.6504  17
   1  -5   0 1603.67 85.7662   6
   1  -5   0 1427.14 78.9346   2
   1  -5   0 1545.41 80.4496   8
  -1   5   0 1647.53 79.7985  21
  -1   5   0 1555.74 82.4937   3
  -1   5   0 1501.22 78.4915  13
  -1   5   0 1653.13 80.3457  20
  -1   5   0 1527.93 78.2705   9
  -1   5   0 1589.76 89.3185  19
   0  -5   0 193.572 18.9111  17
   0   5   0 164.268 12.9722   3
  -1  -5   0 1093.40 53.5496   9
  -1  -5   0 1123.08 54.7479   2
  -1  -5   0 1074.67 53.4682  13
   1   5   0 921.809 63.8981  19
   1   5   0 1097.01 53.5086   9
  -2  -5   0 317.755 18.8567   2
  -2  -5   0 350.082 18.0934   9
  -2  -5   0 365.685 18.1389  13
   2   5   0 365.549 19.0793   2
   2   5   0 340.849 17.8199   9
  -3  -5   0 180.447 10.3902  13
  -3  -5   0 206.237 10.5175   9
   3   5   0 213.756 11.0754   2
   5  -6   0 168.845 13.9595  12
   5  -6   0 164.896 13.3263   1
   5  -6   0 150.681 9.84355  14
   5  -6   0 163.226 11.0587  18
   4  -6   0 437.445 23.4387  14
   4  -6   0 450.572 24.9966  18
   4  -6   0 404.160 28.3447  12
   4  -6   0 411.534 22.9147   8
  -4   6   0 411.467 22.1191  21
  -4   6   0 410.273 22.3491  20
  -4   6   0 367.460 24.1214   3
  -4   6   0 400.027 31.4628  19
   3  -6   0 1725.06 89.6858  18
   3  -6   0 1701.42 87.8842   8
   3  -6   0 1557.42 95.5207  12
   3  -6   0 1710.15 88.1752  14
  -3   6   0 1605.27 85.8675  13
  -3   6   0 1769.60 87.1588  21
  -3   6   0 1836.57 90.4162   3
  -3   6   0 1775.82 87.6632  20
   2  -6   0 21.1085 3.87694   8
  -2   6   0 15.0112 4.26484   3
  -2   6   0 14.3954 3.19036  20
  -2   6   0 18.0957 2.18711  13
  -2   6   0 19.8236 3.40406  21
  -2   6   0 14.9180 6.41742  19
  -2   6   0 17.3514 1.80381   9
  -1   6   0 5907.58 280.064  21
  -1   6   0 5623.27 280.760  20
  -1   6   0 5431.46 290.184  19
  -1   6   0 5400.85 278.354   9
   0   6   0 41.4585 3.25345  13
   0   6   0 51.7651 3.34376   9
  -1  -6   0 1449.02 72.9748   2
  -1  -6   0 1450.32 72.0141   9
   1   6   0 1450.53 72.0192   9
   1   6   0 1398.69 73.0429   2
  -2  -6   0 484.073 24.8023   9
   2   6   0 495.675 25.5533   2
   5  -7   0 42.2985 4.71384   1
   5  -7   0 49.9502 4.23567  18
   4  -7   0 430.988 22.8655  18
   4  -7   0 384.924 25.3463   1
  -4   7   0 394.268 21.3258  21
  -4   7   0 399.822 20.5812  13
  -4   7   0 398.984 23.2135   3
   3  -7   0 489.223 33.0008   1
   3  -7   0 547.001 29.9822  18
   3  -7   0 523.219 27.9871  14
  -3   7   0 521.474 26.7768  13
  -3   7   0 500.071 30.0540   3
  -3   7   0 532.134 26.5035   9
  -3   7   0 522.230 27.8174  21
  -3   7   0 561.316 43.6640  19
  -3   7   0 506.760 30.3001  20
   2  -7   0 108.102 8.41158  18
   2  -7   0 116.067 6.59658   2
  -2   7   0 94.6382 7.82032  20
  -2   7   0 111.071 7.59500  21
  -2   7   0 117.374 6.57003  13
  -2   7   0 121.542 6.29508   9
   1  -7   0 51.7088 3.85613   2
   1  -7   0 44.5859 4.70015  18
  -1   7   0 43.8807 4.26141  21
  -1   7   0 51.2384 3.24765   9
  -1   7   0 48.4156 3.41622  13
   0  -7   0 666.899 33.4622   2
   0   7   0 599.494 65.9014   2
  -1  -7   0 257.994 14.2155   2
   1   7   0 242.600 13.4492   2
   3  -8   0 409.587 25.7744   1
  -3   8   0 448.651 23.5199  21
  -3   8   0 494.533 22.8915  13
   2  -8   0 13.3582 3.28044   1
  -2   8   0 13.6239 1.69910  13
   1  -8   0 2395.64 117.634   2
  -1   8   0 2323.33 117.545   9
  -1   8  -1 202.944 10.3926   9
   1  -8   1 194.611 10.3657   2
  -2   8  -1 73.2915 4.11119  13
   2  -8   1 69.2044 6.95704   1
  -3   8  -1 370.230 18.9980  21
  -3   8  -1 393.244 18.4264  13
   3  -8   1 313.018 21.3439   1
   1   7  -1 95.2029 6.04528   2
   1   7  -1 86.3458 4.83846   9
  -1  -7   1 89.4789 5.49507   2
   0   7  -1 1374.15 71.6748   2
   0   7  -1 1455.59 70.9672   9
   0  -7   1 1416.61 71.5689   2
  -1   7  -1 152.404 10.0278  21
  -1   7  -1 155.603 12.1934   3
  -1   7  -1 164.665 9.12015  13
  -1   7  -1 175.660 9.02341   9
   1  -7   1 185.718 9.69157   2
  -2   7  -1 642.248 38.4183   3
  -2   7  -1 667.416 34.2522  21
  -2   7  -1 664.909 32.8586   9
  -2   7  -1 651.577 33.1000  13
  -2   7  -1 615.683 34.7659  20
   2  -7   1 674.527 33.2345   2
   2  -7   1 621.547 38.2573  18
  -3   7  -1 1176.72 60.1665   9
  -3   7  -1 1155.01 63.8650   3
  -3   7  -1 1317.50 64.9676  20
  -3   7  -1 1173.84 61.4237  21
  -3   7  -1 1147.29 73.2402  19
  -3   7  -1 1195.69 60.4445  13
   3  -7   1 1243.70 67.6581   1
  -4   7  -1 33.7815 4.27136   3
  -4   7  -1 39.4928 2.70224  13
  -4   7  -1 39.4442 3.39131  21
   4  -7   1 44.6061 4.51814  18
   4  -7   1 44.6196 3.97111  14
   4  -7   1 34.7129 5.90033   1
   2   6  -1 1263.92 64.9623   2
  -2  -6   1 1187.12 64.2080   9
  -2  -6   1 1400.31 65.2019   2
   1   6  -1 84.0591 5.76127   2
   1   6  -1 71.5201 4.67806   9
  -1  -6   1 85.9301 4.76981   9
  -1  -6   1 80.4201 5.60661   2
   0   6  -1 804.005 39.4235   9
   0   6  -1 721.890 39.3895  13
   0   6  -1 871.671 40.7546   2
   0   6  -1 700.780 40.3766  21
   0  -6   1 744.081 39.2602   9
   0  -6   1 823.314 40.4264   2
  -1   6  -1 556.876 29.5167  20
  -1   6  -1 535.156 27.4385  13
  -1   6  -1 523.178 37.5161  19
  -1   6  -1 526.476 27.1946   9
  -1   6  -1 514.651 31.5237   3
  -1   6  -1 593.633 28.9252  21
   1  -6   1 474.381 27.8468   2
  -2   6  -1 302.809 15.3650  13
  -2   6  -1 284.410 17.0499  20
  -2   6  -1 267.763 25.0523  19
  -2   6  -1 322.169 15.1002   9
  -2   6  -1 272.854 16.4799  21
   2  -6   1 274.616 18.1286  18
  -3   6  -1 1997.55 100.036  20
  -3   6  -1 1806.70 98.2542  13
  -3   6  -1 1892.44 111.529  19
  -3   6  -1 1986.69 99.5380  21
  -3   6  -1 2046.97 102.583   3
   3  -6   1 2084.64 107.897   1
   3  -6   1 1964.10 101.075  14
   3  -6   1 1874.10 100.128   8
   3  -6   1 2032.37 102.121  18
   3  -6   1 1932.03 108.138  12
  -4   6  -1 1001.08 53.6325   3
  -4   6  -1 943.938 50.8091  21
  -4   6  -1 944.879 51.0679  20
  -4   6  -1 924.003 61.1857  19
   4  -6   1 1020.24 57.8910  12
   4  -6   1 983.441 51.5078   8
   4  -6   1 1079.62 58.4560   1
   4  -6   1 992.669 52.3923  14
   4  -6   1 1036.27 53.4764  18
   5  -6   1 428.010 23.2072  18
   5  -6   1 401.388 22.3506  14
   5  -6   1 392.075 25.7726   1
   3   5  -1 98.2050 5.56160   2
  -3  -5   1 84.9604 4.94964   9
  -3  -5   1 78.6078 4.89902  13
   2   5  -1 1897.60 94.1035   9
   2   5  -1 1948.61 95.3719   2
  -2  -5   1 1936.07 94.3237   9
  -2  -5   1 1844.28 94.2962  13
  -2  -5   1 1873.53 95.2263   2
  -2  -5   1 1803.43 96.1265  21
   1   5  -1 541.597 27.5166  13
   1   5  -1 549.361 27.5910   9
  -1  -5   1 547.505 27.6393   9
  -1  -5   1 516.784 28.6070   2
  -1  -5   1 545.806 27.5745  13
   0   5  -1 3194.52 157.842   3
   0   5  -1 3019.60 163.427  19
   0   5  -1 3017.86 153.406   9
   0   5  -1 3195.37 154.752  21
   0   5  -1 3135.68 153.590  13
   0   5  -1 3082.69 155.449  20
   0  -5   1 2883.55 159.285  17
   0  -5   1 3171.96 157.283   6
   0  -5   1 3011.67 154.403   2
   0  -5   1 3035.91 153.368   9
  -1   5  -1 720.827 39.6791  13
  -1   5  -1 800.221 43.8051   3
  -1   5  -1 805.056 39.5522   9
  -1   5  -1 701.811 48.8117  19
  -1   5  -1 806.803 40.9554  21
  -1   5  -1 823.900 41.5448  20
   1  -5   1 810.812 40.3308   2
  -2   5  -1 320.534 17.9317  20
  -2   5  -1 296.869 16.8361  13
  -2   5  -1 296.378 17.4487  21
  -2   5  -1 326.542 19.8974   3
   2  -5   1 320.983 16.6674   2
   2  -5   1 303.132 19.8308   6
   2  -5   1 320.513 18.3663   8
  -3   5  -1 712.756 40.1347   3
  -3   5  -1 752.108 38.1194  21
   3  -5   1 694.314 39.1402   8
   3  -5   1 756.763 38.4522  10
   3  -5   1 676.441 45.3228  12
   3  -5   1 663.731 41.0074   6
   3  -5   1 840.630 43.0389  18
  -4   5  -1 1132.41 63.1317  21
  -4   5  -1 1269.89 64.7046   3
  -4   5  -1 1209.71 62.8336  20
   4  -5   1 1240.09 72.1002  12
   4  -5   1 1243.27 65.0737  14
   4  -5   1 1229.67 65.8707  18
   4  -5   1 1385.98 71.5784   1
   4  -5   1 1164.36 63.6559   8
   4  -5   1 1216.41 63.4618  10
   5  -5   1 336.402 23.7576   1
   5  -5   1 309.504 18.3175  10
   5  -5   1 343.332 25.0505  12
   5  -5   1 344.152 20.4459  18
   5  -5   1 335.097 19.7517  14
   4   4  -1 742.196 54.2754  16
  -4  -4   1 810.146 38.5452   9
  -4  -4   1 786.409 38.6255  13
  -4  -4   1 728.195 39.3325  21
   3   4  -1 254.558 13.0022   2
  -3  -4   1 209.463 14.4565  20
  -3  -4   1 244.064 12.4042  13
  -3  -4   1 206.451 16.1390   3
  -3  -4   1 224.190 13.5145  21
  -3  -4   1 233.384 12.1738   9
  -2  -4   1 659.664 34.6148  13
  -2  -4   1 693.818 39.7192   3
  -2  -4   1 688.724 35.9996  21
  -2  -4   1 682.588 37.1560  20
  -2  -4   1 669.150 34.5243   9
   1   4  -1 1208.20 62.3355  13
   1   4  -1 1287.85 63.3988  21
   1   4  -1 1117.10 62.4863   9
   1   4  -1 1246.97 69.7825  19
  -1  -4   1 1252.17 62.4068   9
  -1  -4   1 1216.23 64.9286   6
  -1  -4   1 1295.99 64.0596   2
  -1  -4   1 1371.54 65.6502  20
  -1  -4   1 1256.97 66.7454   3
  -1  -4   1 1172.22 62.6064  13
   0   4  -1 92.5556 6.26620  21
   0   4  -1 85.3126 10.2209  19
   0   4  -1 105.809 9.98096   5
   0   4  -1 94.6159 6.58992  20
   0   4  -1 89.6832 7.84624   3
   0   4  -1 88.2510 7.53703  11
   0  -4   1 85.4549 7.16037   6
  -1   4  -1 1720.81 87.4537  21
  -1   4  -1 1803.98 89.6782   3
  -1   4  -1 1801.88 87.8349  20
  -1   4  -1 1620.77 88.3790  11
   1  -4   1 1690.11 89.2466   6
   1  -4   1 1736.97 88.5613  17
  -2   4  -1 1258.45 62.1821   3
   2  -4   1 1085.12 60.5113  17
   2  -4   1 1233.47 59.5832  15
   2  -4   1 1149.65 62.3123   6
  -3   4  -1 1302.39 66.3039   3
  -3   4  -1 1357.17 64.8566  20
   3  -4   1 1185.55 65.6646   8
   3  -4   1 1177.14 88.4684  16
   3  -4   1 1272.12 67.7427   6
   3  -4   1 1406.27 68.3561  14
   3  -4   1 1267.52 64.2982  15
   3  -4   1 1278.84 67.5548  18
   3  -4   1 1246.58 71.2400   1
   3  -4   1 1240.45 65.5432  10
  -4   4  -1 2457.95 119.137  20
  -4   4  -1 2382.22 119.283   3
   4  -4   1 2480.99 126.283   1
   4  -4   1 2314.26 120.577  14
   4  -4   1 2335.92 119.325  10
   4  -4   1 2386.52 121.506  18
   4  -4   1 2142.98 146.909  16
   4  -4   1 2286.98 117.954  15
   4  -4   1 2311.33 122.132   6
   4  -4   1 2401.32 128.779  12
   5  -4   1 74.3938 9.99579   1
   5  -4   1 72.2815 7.12845  14
   5  -4   1 73.2696 10.8318  12
   5  -4   1 63.8732 17.6246  16
   5  -4   1 70.8883 6.00617  10
   5  -4   1 73.9795 7.57627  18
   6  -4   1 670.522 34.7861  10
   4   3  -1 1105.23 52.9822   2
   4   3  -1 959.767 60.0267   4
  -4  -3   1 1000.40 56.7743   3
  -4  -3   1 1067.64 52.4869  13
  -4  -3   1 1024.72 55.1262  20
  -4  -3   1 1043.09 52.2667   9
  -4  -3   1 1071.29 53.7139  21
   3   3  -1 111.649 7.26276   2
  -3  -3   1 131.162 9.12623  20
  -3  -3   1 119.562 8.20503  21
  -3  -3   1 118.018 6.64672   9
  -3  -3   1 96.0029 6.72182  13
   2   3  -1 179.265 15.7637   5
   2   3  -1 182.128 11.5778   2
  -2  -3   1 165.902 13.3932   3
  -2  -3   1 207.860 11.4026  21
  -2  -3   1 203.741 12.0862  20
   1   3  -1 4355.94 229.010  20
   1   3  -1 4393.57 232.605   5
   1   3  -1 4811.45 229.077  11
   1   3  -1 4699.49 234.005  19
   1   3  -1 4702.54 231.036   3
  -1  -3   1 4512.30 229.479  20
   0   3  -1 912.476 48.6097   5
   0   3  -1 893.265 47.2953  11
   0   3  -1 929.853 47.1914  20
   0   3  -1 963.792 48.5765   3
   0  -3   1 907.335 47.8557   6
  -2   3  -1 70.4860 4.78038  20
  -2   3  -1 77.9157 5.95389  11
   2  -3   1 74.8046 4.55624  15
   2  -3   1 87.9093 6.47182   6
  -3   3  -1 536.729 29.2611  11
  -3   3  -1 530.154 26.9946  20
   3  -3   1 502.902 28.4953  17
   3  -3   1 524.651 29.7040   6
   3  -3   1 548.961 27.1795  15
   4  -3   1 2934.23 146.861   1
   4  -3   1 2649.24 142.480   6
   4  -3   1 2907.33 142.654  18
   4  -3   1 2546.48 146.449   4
   4  -3   1 2848.78 139.119  15
   4  -3   1 2642.80 140.387   8
   4  -3   1 2859.01 149.580  12
   4  -3   1 2719.28 171.880  16
   4  -3   1 2848.89 141.868  14
   4  -3   1 2827.59 140.685  10
   5  -3   1 787.504 51.8043   1
   5  -3   1 810.563 48.7681   4
   6  -3   1 345.317 22.0241   4
   6  -3   1 305.740 31.3851  16
   6  -3   1 350.053 18.4307  10
   5   2  -1 232.477 16.7210   4
   5   2  -1 200.318 25.3081  16
  -5  -2   1 189.406 14.1248   3
  -5  -2   1 213.826 12.1267  21
  -5  -2   1 224.216 11.2755  13
   4   2  -1 1098.89 64.9387   4
  -4  -2   1 1147.80 60.9523   3
  -4  -2   1 1088.03 56.2309  13
  -4  -2   1 1078.99 57.8858  20
  -4  -2   1 1102.22 57.0230  21
   3   2  -1 1981.52 105.311   5
   3   2  -1 1798.48 103.672   4
  -3  -2   1 1918.13 96.2289  21
  -3  -2   1 1981.45 99.6484   3
  -3  -2   1 1893.71 95.0049   9
  -3  -2   1 1924.28 97.1080  20
  -3  -2   1 1784.54 95.1115  13
   2   2  -1 2941.07 144.672   5
  -2  -2   1 2472.20 138.381  21
  -2  -2   1 2695.80 140.742   3
  -2  -2   1 2931.27 139.207  20
   1   2  -1 865.730 41.5905  11
   1   2  -1 812.117 44.2482  19
   1   2  -1 782.069 44.4001   5
  -1  -2   1 821.425 42.0528  20
  -1  -2   1 818.133 43.2679   3
  -1  -2   1 813.347 41.6998  11
   0   2  -1 14.5306 2.46950   5
   0  -2   1 14.1727 1.83293   6
   0  -2   1 14.2879 1.69973  11
  -3   2  -1 322.891 17.3483  11
  -3   2  -1 289.376 15.6808   7
   3  -2   1 304.637 17.3864  17
   3  -2   1 293.499 17.6411   6
   4  -2   1 567.378 37.6827  12
   4  -2   1 576.718 36.2321   1
   4  -2   1 574.064 37.8821   5
   4  -2   1 600.955 32.2128  14
   4  -2   1 567.264 54.1283  16
   4  -2   1 574.825 32.4700  18
   4  -2   1 535.645 37.4961   4
   5  -2   1 155.640 15.2984   1
   5  -2   1 170.501 12.6548  14
   5  -2   1 188.916 11.6888  10
   5  -2   1 174.102 18.8084   4
   6  -2   1 515.844 30.5172   4
   6  -2   1 427.347 40.3642  16
   5   1  -1 656.241 57.2991  16
   5   1  -1 680.656 41.2346   4
  -5  -1   1 601.456 33.6330  21
  -5  -1   1 633.385 36.4265   3
   4   1  -1 1853.96 96.5404   8
   4   1  -1 1887.20 104.602   4
   4   1  -1 1907.24 106.046   5
  -4  -1   1 1966.29 96.1312  20
  -4  -1   1 1953.89 98.6113   3
  -4  -1   1 1686.93 94.0598  13
   3   1  -1 227.851 18.5539   5
  -3  -1   1 214.020 12.0142  20
  -3  -1   1 175.412 13.0631   3
  -3  -1   1 179.536 11.3659  21
   2   1  -1 367.554 21.7684   5
  -2  -1   1 302.672 16.4896   7
  -2  -1   1 311.351 18.2650   3
  -2  -1   1 309.370 17.2166  20
  -3   1  -1 3576.96 188.463  11
  -3   1  -1 4285.28 189.061  11
  -3   1  -1 3437.36 187.721  20
  -4   1  -1 330.006 17.8434  20
  -4   1  -1 318.660 19.5214   3
   4  -1   1 331.586 18.8875  10
   4  -1   1 345.144 23.8116   1
   4  -1   1 349.489 40.6690  16
   4  -1   1 324.758 26.0193   4
   4  -1   1 332.443 17.1865  15
   4  -1   1 349.504 26.3728   5
   4  -1   1 319.798 19.7923  14
   4  -1   1 309.872 24.1374  12
   4  -1   1 304.449 19.9313  18
  -5   1  -1 1219.02 65.8512  20
  -5   1  -1 1357.19 68.2351   3
   5  -1   1 1266.28 104.557  16
   5  -1   1 1315.02 68.3263  10
   6  -1   1 26.2597 6.05197   4
   6  -1   1 27.2662 10.1516  16
   5   0  -1 93.6119 20.9357  16
  -5   0   1 72.1540 7.48265   3
  -5   0   1 74.8805 5.73942  21
  -5   0   1 87.3544 6.37342  20
   4   0  -1 395.811 22.0428  10
   4   0  -1 382.380 22.7580   8
   4   0  -1 400.449 29.7543   4
   4   0  -1 416.090 30.3623   5
   4   0  -1 437.636 45.3606  16
  -4   0   1 370.699 23.4080   3
  -4   0   1 409.240 21.8430  20
  -4   0   1 354.755 21.2033  21
   2   0  -1 168.023 9.05206  15
   2   0  -1 188.783 13.1516   5
   2   0  -1 164.871 10.5562  17
  -2   0   1 186.184 9.18219   7
   1   0  -1 78.2500 4.94302  17
   1   0  -1 87.3765 4.89264   6
   1   0  -1 79.4841 6.09631   5
   1   0  -1 76.7430 4.34141   7
   1   0  -1 79.5818 4.13600  15
  -1   0   1 82.9003 4.27805   7
  -2   0  -1 2072.28 103.592  20
  -3   0  -1 6481.07 323.134  11
  -4   0  -1 3265.31 163.996  20
  -4   0  -1 3092.79 163.245  21
  -4   0  -1 3344.02 166.048   3
   4   0   1 3411.34 201.011  16
   4   0   1 3364.85 175.703   4
   4   0   1 3171.62 173.309   5
   4   0   1 3122.64 163.878  10
  -5   0  -1 600.030 33.3828   3
  -5   0  -1 563.588 31.0712  20
  -5   0  -1 586.119 30.6468  21
   5   0   1 631.864 39.7245   4
   5   0   1 516.344 54.8219  16
   6   0   1 31.4565 8.89175  16
   6  -1  -1 409.786 40.0424  16
   6  -1  -1 515.276 30.1391   4
   5  -1  -1 561.631 31.0103  10
   5  -1  -1 587.273 40.7902   4
   5  -1  -1 606.894 57.8333  16
  -5   1   1 501.642 29.6920  20
  -5   1   1 542.461 31.3997   3
   4  -1  -1 156.521 11.1419  14
   4  -1  -1 167.130 10.4204  10
   4  -1  -1 154.139 14.2734   1
   4  -1  -1 138.497 10.4588   8
   4  -1  -1 161.477 25.9867  16
  -4   1   1 167.941 9.30087  20
   2  -1  -1 48.2306 3.70320   6
   2  -1  -1 38.2061 3.67348  17
   2  -1  -1 39.5945 5.19398   5
   2  -1  -1 42.3077 2.48247  15
  -2   1   1 39.9857 2.63690   7
  -2   1   1 39.4462 2.86639  11
   0  -1  -1 389.928 21.1383   5
   0  -1  -1 439.217 21.1706  11
   0  -1  -1 451.106 21.2021   6
   0   1   1 366.370 21.0970   5
   0   1   1 423.904 21.0868  11
  -1  -1  -1 30.2505 2.21699  11
  -1  -1  -1 26.7567 2.58449  20
   1   1   1 33.4794 2.37387  11
   1   1   1 32.1485 4.19323  19
   1   1   1 35.4878 4.09954   5
   1   1   1 31.6721 1.91786   7
  -2  -1  -1 997.396 46.5238  20
  -2  -1  -1 895.608 47.6100   3
  -2  -1  -1 906.286 45.9893  11
   2   1   1 930.925 45.5280  15
   2   1   1 817.163 45.6629   7
   2   1   1 899.089 50.4763   5
  -3  -1  -1 2511.01 129.013  21
  -3  -1  -1 2748.78 129.728  20
  -3  -1  -1 2778.83 131.880   3
   3   1   1 2419.86 137.296   4
   3   1   1 2421.24 127.912  15
   3   1   1 2511.62 136.159   5
  -4  -1  -1 719.299 38.3325  20
  -4  -1  -1 660.962 36.3878  13
  -4  -1  -1 766.781 41.1008   3
  -4  -1  -1 701.601 37.6165  21
   4   1   1 730.434 46.8958   4
   4   1   1 698.110 46.8142   5
  -5  -1  -1 1047.38 55.0301   3
  -5  -1  -1 1011.97 50.9487  13
  -5  -1  -1 931.967 52.4492  20
  -5  -1  -1 994.775 51.9260  21
   5   1   1 1060.80 59.6381   4
   6  -2  -1 1015.14 52.3991   4
   6  -2  -1 782.477 64.6383  16
   5  -2  -1 1831.22 103.731   1
   5  -2  -1 1828.58 99.9655  18
   5  -2  -1 1918.82 106.016   4
   5  -2  -1 1971.77 98.4109  10
   5  -2  -1 1973.86 131.193  16
   5  -2  -1 2036.63 99.7606  14
   5  -2  -1 1941.56 106.148  12
   4  -2  -1 281.390 16.1982  10
   4  -2  -1 272.916 14.6148  15
   4  -2  -1 300.974 22.7717   4
   4  -2  -1 273.138 16.9337  14
   4  -2  -1 251.035 17.4617  18
   4  -2  -1 270.326 16.5142   8
   4  -2  -1 281.511 21.0336   1
   4  -2  -1 262.098 22.3239  12
   4  -2  -1 293.712 35.1608  16
   3  -2  -1 1864.46 103.527   5
   3  -2  -1 1972.57 100.526   6
   3  -2  -1 1957.83 100.444  17
   3  -2  -1 2063.86 98.3238  15
  -3   2   1 1781.40 98.5036   7
  -3   2   1 2150.50 100.466  11
   2  -2  -1 274.194 15.6271  17
   2  -2  -1 279.347 14.2642  15
   2  -2  -1 282.345 15.7845   6
   2  -2  -1 268.047 17.0613   5
  -2   2   1 281.190 15.1539  11
   1  -2  -1 1030.35 50.8764  17
   1  -2  -1 969.238 50.3276  11
  -1   2   1 964.171 49.7431  20
   0   2   1 1601.17 80.5081  20
  -1  -2  -1 1433.46 71.8217  11
  -1  -2  -1 1359.30 71.6328   6
  -1  -2  -1 1436.96 72.2328  20
  -1  -2  -1 1446.08 73.3750   3
  -2  -2  -1 2072.94 104.383   6
  -2  -2  -1 2205.24 107.442   3
  -2  -2  -1 2198.27 105.358  20
  -2  -2  -1 2082.32 104.695  21
   2   2   1 1880.74 103.490  15
   2   2   1 2019.94 109.459   5
  -3  -2  -1 1714.52 84.5464   3
  -3  -2  -1 1609.45 79.5130   9
  -3  -2  -1 1522.63 79.6450  13
  -3  -2  -1 1635.34 80.9428  21
  -3  -2  -1 1659.44 81.7138  20
   3   2   1 1528.89 88.6994   4
   3   2   1 1542.89 87.9486   5
   3   2   1 1462.86 79.9395   2
  -4  -2  -1 3.99885 2.82224   3
  -4  -2  -1 4.10111 1.10219   9
  -5  -2  -1 831.678 40.4930  21
  -5  -2  -1 869.456 39.6103  13
   5   2   1 712.356 48.6274   4
   5   2   1 719.310 57.2724  16
   6  -3  -1 168.608 23.9002  16
   6  -3  -1 233.111 18.2217   4
   5  -3  -1 2754.66 123.681  10
   5  -3  -1 2315.72 128.251   1
   5  -3  -1 2503.90 133.475  12
   5  -3  -1 2441.69 124.569  18
   5  -3  -1 2485.82 123.561  14
   5  -3  -1 2081.82 122.019   8
   5  -3  -1 2357.53 136.447   4
   5  -3  -1 2324.45 155.600  16
   4  -3  -1 39.4786 14.7421  16
   4  -3  -1 49.5059 8.00112   1
   4  -3  -1 41.9464 7.75490   4
   4  -3  -1 37.7092 3.08823  15
   4  -3  -1 42.5054 5.95074  18
   4  -3  -1 39.6178 5.21373  14
   4  -3  -1 41.3574 9.36464  12
   4  -3  -1 35.3636 4.89911  17
   4  -3  -1 46.5728 5.59844   6
   3  -3  -1 2757.16 131.736  15
   3  -3  -1 2563.35 134.395   6
  -3   3   1 2564.09 132.143   7
  -3   3   1 2751.58 133.646  11
  -3   3   1 2536.41 131.561  20
   2  -3  -1 1491.07 73.5887  17
   2  -3  -1 1482.58 71.7248  15
   2  -3  -1 1367.21 73.7121   6
  -2   3   1 1350.68 73.1634   3
  -2   3   1 1396.20 73.0471  11
  -2   3   1 1494.77 72.0977  20
   1  -3  -1 1166.58 58.5905  17
   1  -3  -1 1085.81 58.0171   6
  -1   3   1 1088.82 58.2386   3
  -1   3   1 1196.88 57.1222  20
  -1   3   1 1071.54 57.3562  11
   0  -3  -1 3107.89 156.289  20
  -1  -3  -1 512.159 28.3421  21
  -1  -3  -1 532.127 28.9912  20
  -1  -3  -1 546.530 32.7369   3
  -1  -3  -1 511.545 28.7439   6
   1   3   1 489.749 30.6500   5
   1   3   1 613.744 28.7550  11
   1   3   1 620.887 33.7617  19
   1   3   1 503.342 28.5154  20
  -2  -3  -1 176.662 10.4948  13
  -2  -3  -1 204.864 11.7658  21
  -2  -3  -1 187.566 10.4064   9
  -2  -3  -1 191.453 14.7495   3
  -2  -3  -1 206.425 12.5358  20
   2   3   1 180.053 11.1508   2
   2   3   1 202.304 15.8520   5
  -3  -3  -1 1419.74 75.3540   3
  -3  -3  -1 1408.36 69.7384   9
  -3  -3  -1 1347.05 69.8312  13
  -3  -3  -1 1397.86 71.2076  21
  -3  -3  -1 1363.99 72.1729  20
   3   3   1 1377.36 77.9410   4
   4   3   1 9.24782 1.52446   2
   5  -4  -1 1032.95 53.0290  14
   5  -4  -1 1045.83 54.5780  18
   5  -4  -1 886.298 76.2897  16
   5  -4  -1 989.771 58.0694   1
   5  -4  -1 1034.36 52.0161  10
   5  -4  -1 1026.52 60.8331  12
   5  -4  -1 995.846 52.1768   8
   4  -4  -1 906.859 55.9057  12
   4  -4  -1 987.069 48.2975  10
   4  -4  -1 862.862 47.2132  14
   4  -4  -1 866.774 52.4549   1
   4  -4  -1 859.019 46.8608   8
   4  -4  -1 856.436 72.1964  16
   4  -4  -1 873.735 48.7746  18
   4  -4  -1 892.087 48.9981   6
  -4   4   1 848.395 46.2742   3
   3  -4  -1 2559.27 134.560   6
   3  -4  -1 2989.32 135.764  14
   3  -4  -1 2435.31 133.338  17
   3  -4  -1 2617.55 164.989  16
   3  -4  -1 2491.97 134.565  18
   3  -4  -1 2522.36 138.381   1
  -3   4   1 2677.66 131.896  20
  -3   4   1 2689.78 133.526   3
   2  -4  -1 2423.81 122.826  17
   2  -4  -1 2390.67 123.392   6
  -2   4   1 2414.69 123.206   3
  -1   4   1 21.6068 2.94505  20
  -1   4   1 18.0467 2.93074  21
  -1   4   1 18.6106 2.83637  11
   0  -4  -1 1655.66 87.9064   6
   0   4   1 1711.39 89.0422   3
   0   4   1 1777.13 86.7194  21
   0   4   1 1657.47 87.2450  11
   0   4   1 1728.02 87.1054  20
   0   4   1 1724.27 93.6024  19
  -1  -4  -1 761.372 37.4777   9
  -1  -4  -1 719.207 39.4553  20
  -1  -4  -1 732.924 39.4796   6
  -1  -4  -1 705.788 38.9327  21
  -1  -4  -1 770.327 42.0436   3
  -1  -4  -1 705.531 37.4569  13
   1   4   1 739.772 45.2508  19
   1   4   1 765.480 38.5753   2
   1   4   1 746.327 37.4008   9
  -2  -4  -1 105.890 10.6609   3
  -2  -4  -1 101.566 7.64938   2
  -2  -4  -1 123.477 6.85718   9
  -2  -4  -1 111.060 9.12103  20
  -2  -4  -1 126.994 6.99197  13
   2   4   1 131.929 8.00529   2
   2   4   1 118.231 6.55365   9
  -3  -4  -1 799.459 46.1600   3
  -3  -4  -1 833.985 41.1746   9
  -3  -4  -1 802.598 43.9615  21
  -3  -4  -1 765.353 43.6594  20
  -3  -4  -1 819.391 41.3067  13
   3   4   1 861.965 42.0158   2
  -4  -4  -1 23.7133 1.91795  13
   4   4   1 21.3714 8.56645  16
   5  -5  -1 1240.43 63.0199  14
   5  -5  -1 1320.82 70.9909  12
   5  -5  -1 1305.65 64.8768  18
   5  -5  -1 1060.93 67.0761   1
   5  -5  -1 1147.71 61.8895  10
   4  -5  -1 348.541 27.6415   1
   4  -5  -1 431.175 25.2223  18
   4  -5  -1 414.284 30.5348  12
   4  -5  -1 386.741 22.8216   8
   4  -5  -1 406.818 21.8787  10
   4  -5  -1 427.991 23.3353  14
  -4   5   1 431.853 31.7017  19
  -4   5   1 416.492 21.7297  20
  -4   5   1 347.664 22.9464   3
   3  -5  -1 83.8545 8.22364   6
   3  -5  -1 87.9013 12.3656  12
   3  -5  -1 96.7469 7.76995  14
  -3   5   1 91.8014 8.12556   3
  -3   5   1 82.1251 6.34740  21
  -3   5   1 91.5270 12.9133  19
   2  -5  -1 2887.79 159.744   2
   2  -5  -1 2721.26 164.701  17
   2  -5  -1 3221.23 163.459   6
   2  -5  -1 3287.08 161.800   8
  -2   5   1 3475.46 161.460  20
  -2   5   1 3474.67 164.157   3
  -2   5   1 3366.88 160.960  21
  -2   5   1 3367.35 172.388  19
  -2   5   1 3126.67 159.673  13
  -2   5   1 3022.68 159.354   9
   1  -5  -1 1667.41 85.1215   8
   1  -5  -1 1609.50 83.6013   2
   1  -5  -1 1636.34 86.9707  17
  -1   5   1 1667.36 93.6546  19
  -1   5   1 1740.98 87.4488   3
  -1   5   1 1682.56 84.8180  20
  -1   5   1 1654.89 84.3095  21
  -1   5   1 1594.04 83.0446  13
  -1   5   1 1620.53 82.8107   9
   0  -5  -1 2382.47 117.746   6
   0  -5  -1 2207.39 114.235   9
   0  -5  -1 2320.36 115.415   2
   0  -5  -1 2035.56 118.996  17
   0   5   1 2403.68 115.782  21
   0   5   1 2321.01 124.568  19
   0   5   1 2361.71 114.397   9
   0   5   1 2298.29 114.479  13
   0   5   1 2428.93 119.192   3
   0   5   1 2108.13 115.380   2
  -1  -5  -1 1091.95 55.7104  13
  -1  -5  -1 1154.84 55.8354   9
  -1  -5  -1 1103.78 56.9400   2
   1   5   1 1112.10 56.9954   2
   1   5   1 1040.11 65.3694  19
   1   5   1 1142.21 55.7773   9
  -2  -5  -1 668.497 35.4765  13
  -2  -5  -1 694.602 35.5023   9
  -2  -5  -1 725.831 36.5308   2
   2   5   1 709.761 36.5247   2
  -3  -5  -1 425.547 21.7560   9
   3   5   1 430.313 22.2944   2
   5  -6  -1 322.163 18.2875  14
   5  -6  -1 372.744 20.1956  18
   5  -6  -1 369.502 23.7340  12
   5  -6  -1 313.895 21.8379   1
   5  -6  -1 303.818 19.0953   8
   4  -6  -1 1394.80 77.0834  12
   4  -6  -1 1202.80 75.3974   1
   4  -6  -1 1408.91 70.4297   8
   4  -6  -1 1439.34 72.4957  18
   4  -6  -1 1324.32 70.1796  14
  -4   6   1 1402.60 72.3781   3
  -4   6   1 1346.67 69.6788  20
  -4   6   1 1409.71 84.3412  19
  -4   6   1 1341.44 69.4455  21
   3  -6  -1 55.4710 9.75985  12
  -3   6   1 58.4088 4.23686  13
   2  -6  -1 86.4695 5.70069   2
   2  -6  -1 90.4684 7.58192   8
  -2   6   1 90.1727 7.22935  20
  -2   6   1 81.8086 12.2896  19
  -2   6   1 81.5747 5.15528   9
  -2   6   1 92.6070 6.94460  21
  -2   6   1 95.9033 9.68684   3
  -2   6   1 83.6164 5.55988  13
   1  -6  -1 757.584 38.1523   2
  -1   6   1 737.292 38.9083  21
  -1   6   1 750.296 37.5583  13
  -1   6   1 725.704 47.8896  19
  -1   6   1 761.763 37.3455   9
  -1   6   1 704.947 44.7429   3
  -1   6   1 704.028 39.5127  20
   0  -6  -1 128.480 7.84353   2
   0   6   1 110.279 13.4002  19
   0   6   1 126.774 7.21991  13
   0   6   1 108.774 8.01222  21
   0   6   1 128.755 6.91430   9
  -1  -6  -1 1503.33 77.8552   2
  -1  -6  -1 1546.31 76.9351   9
   1   6   1 1544.79 78.0299   2
   1   6   1 1549.45 76.9319   9
  -2  -6  -1 408.524 21.6533   2
  -2  -6  -1 395.684 21.0749   9
   2   6   1 442.020 21.8879   2
   5  -7  -1 909.025 41.7673  18
   5  -7  -1 702.888 42.6007   1
   4  -7  -1 580.726 28.6371  18
   4  -7  -1 467.518 26.3767  14
   4  -7  -1 444.553 30.1928   1
  -4   7   1 500.641 28.6118   3
  -4   7   1 525.601 26.0424  13
  -4   7   1 536.910 26.7655  21
   3  -7  -1 86.1126 9.96044   1
   3  -7  -1 84.8270 7.56373  18
  -3   7   1 73.3420 5.89055  21
  -3   7   1 85.5237 4.99754  13
  -3   7   1 73.0282 6.25567  20
  -3   7   1 84.5129 4.68243   9
  -3   7   1 79.6637 7.69332   3
   2  -7  -1 2393.16 114.919   2
   2  -7  -1 2294.76 117.355  18
  -2   7   1 2294.49 114.523   9
  -2   7   1 2361.08 114.846  13
  -2   7   1 2283.35 120.069   3
  -2   7   1 2194.49 116.707  20
  -2   7   1 2369.12 116.081  21
  -2   7   1 2153.28 126.073  19
   1  -7  -1 7.05407 1.93173   2
  -1   7   1 5.75473 2.86613   3
  -1   7   1 9.16174 1.53808   9
  -1   7   1 6.50418 2.01364  21
  -1   7   1 8.90116 1.72803  13
   0  -7  -1 37.3872 4.00821   2
  -1  -7  -1 674.598 34.7814   2
   1   7   1 689.852 34.8927   2
   3  -8  -1 114.024 9.40300   1
  -3   8   1 133.672 8.64867  21
  -3   8   1 153.112 7.19334  13
   2  -8  -1 222.297 15.1868   1
  -2   8   1 230.910 12.4635  13
  -2   8   1 246.503 12.0068   9
   1  -8  -1 1266.59 65.3541   2
  -1   8   1 1344.25 65.1957   9
  -1   8  -2 409.077 19.4218   9
   1  -8   2 340.993 19.0592   2
  -2   8  -2 488.678 25.0041  13
  -2   8  -2 520.135 25.0424   9
  -2   8  -2 466.595 26.5155  21
   2  -8   2 502.123 28.6375   1
  -3   8  -2 120.120 5.91482  13
  -3   8  -2 107.661 6.51511  21
   3  -8   2 97.5857 8.39018   1
   1   7  -2 365.523 18.9466   9
  -1  -7   2 384.967 19.5607   2
   0   7  -2 1141.39 57.6172   9
   0   7  -2 1115.50 58.3974   2
   0  -7   2 1188.23 58.3155   2
  -1   7  -2 142.651 8.23182  13
  -1   7  -2 144.626 9.22290  21
   1  -7   2 163.677 8.82500   2
  -2   7  -2 1125.44 56.7963  13
  -2   7  -2 1059.63 58.4824  20
  -2   7  -2 1245.41 63.3310   3
  -2   7  -2 1144.25 57.9954  21
  -2   7  -2 1082.62 56.5565   9
   2  -7   2 1087.84 59.4433  18
   2  -7   2 1142.37 56.9601   2
  -3   7  -2 677.996 38.3043   3
  -3   7  -2 774.745 54.2497  19
  -3   7  -2 683.134 34.8074  13
  -3   7  -2 634.843 36.7303  20
  -3   7  -2 676.765 34.5703   9
  -3   7  -2 667.495 35.7955  21
   3  -7   2 628.256 36.5563  18
   3  -7   2 722.541 41.6138   1
   3  -7   2 706.062 37.0046  14
  -4   7  -2 59.2112 3.90632  13
  -4   7  -2 64.6688 4.54844  21
   4  -7   2 64.5469 5.28432  18
   4  -7   2 67.5507 7.71501   1
   2   6  -2 415.644 21.3689   2
  -2  -6   2 396.103 21.1889   2
  -2  -6   2 403.768 20.6282   9
   1   6  -2 162.464 9.27478   2
   1   6  -2 152.057 8.18163   9
  -1  -6   2 147.495 9.06065   2
  -1  -6   2 142.911 8.16013   9
   0   6  -2 3931.52 201.198  21
   0   6  -2 4113.03 200.097   9
   0   6  -2 4043.24 200.110  13
   0   6  -2 3823.47 201.095   2
   0  -6   2 4073.83 199.990   9
   0  -6   2 4097.70 201.022   2
  -1   6  -2 77.8649 4.67165   9
  -1   6  -2 66.8912 11.0131  19
  -1   6  -2 73.1179 6.06742  21
  -1   6  -2 82.6700 8.24993   3
  -1   6  -2 73.0291 6.47898  20
  -1   6  -2 79.1226 4.95601  13
  -2   6  -2 3265.43 160.519  20
  -2   6  -2 3078.01 158.491  13
  -2   6  -2 3532.69 163.570   3
  -2   6  -2 3069.89 158.267   9
  -2   6  -2 3030.11 171.525  19
  -2   6  -2 3225.31 159.817  21
   2  -6   2 3130.86 158.762   2
   2  -6   2 3051.72 161.389  18
  -3   6  -2 53.7878 3.97113  13
  -3   6  -2 44.4298 4.64788  20
  -3   6  -2 55.3630 4.73103  21
   3  -6   2 37.2337 8.29949   1
   3  -6   2 48.9684 6.09722  18
   3  -6   2 49.8860 5.01897   8
   3  -6   2 46.3886 6.34184  14
  -4   6  -2 25.9458 3.28090  20
  -4   6  -2 25.9914 3.13890  21
   4  -6   2 36.2071 3.66773   8
   4  -6   2 31.9544 6.89213  12
   4  -6   2 36.4720 7.23461   1
   5  -6   2 905.234 48.9090  10
   5  -6   2 1008.26 50.5786  18
   5  -6   2 989.532 53.7782   1
   5  -6   2 949.500 50.1391  14
   3   5  -2 524.684 26.2732   2
  -3  -5   2 492.558 25.6756  13
  -3  -5   2 503.516 25.6843   9
   2   5  -2 373.648 19.6084   2
   2   5  -2 342.812 18.3304   9
  -2  -5   2 372.148 18.6221  13
  -2  -5   2 329.831 19.3492   2
  -2  -5   2 374.429 18.6244   9
   1   5  -2 216.611 11.5684   2
  -1  -5   2 166.015 11.1197   2
   0   5  -2 556.110 33.0916   2
   0   5  -2 628.837 32.2047   9
   0   5  -2 629.340 36.1258   3
   0   5  -2 727.477 33.6733  21
   0   5  -2 645.270 41.4287  19
   0   5  -2 657.493 34.2263  20
   0   5  -2 658.548 32.3816  13
   0  -5   2 610.161 35.7452   6
   0  -5   2 624.404 32.1507   9
   0  -5   2 600.564 33.0825   2
  -1   5  -2 4750.68 236.815  13
  -1   5  -2 4770.43 236.616   9
   1  -5   2 4732.37 237.366   2
  -2   5  -2 1767.11 83.3244  20
  -2   5  -2 1556.63 81.5914  13
  -2   5  -2 1494.91 81.6193   9
  -2   5  -2 1700.51 82.7498  21
  -2   5  -2 1784.97 85.7352   3
   2  -5   2 1625.54 85.6237   6
   2  -5   2 1610.25 84.6572  18
   2  -5   2 1581.62 83.2833   8
   2  -5   2 1493.73 81.6610   2
  -3   5  -2 3592.30 167.722   3
  -3   5  -2 3227.42 164.764  21
   3  -5   2 3222.71 166.101   8
   3  -5   2 3269.01 174.195  12
   3  -5   2 3033.88 165.053  10
   3  -5   2 3270.91 168.687   6
   3  -5   2 3345.29 179.235   1
  -4   5  -2 703.860 36.8884   3
  -4   5  -2 633.910 35.0214  20
  -4   5  -2 621.504 34.9616  21
   4  -5   2 622.580 35.6430   8
   4  -5   2 675.784 43.5685  12
   4  -5   2 657.038 35.7728  10
   4  -5   2 693.654 38.0492  18
   4  -5   2 770.756 43.1628   1
   4  -5   2 681.098 37.6806  14
   5  -5   2 634.219 33.3666  18
   5  -5   2 584.453 32.8562  14
   5  -5   2 560.756 31.3567  10
   5  -5   2 615.343 38.2087  12
   5  -5   2 574.921 36.5568   1
   6  -5   2 582.179 30.5311  14
   4   4  -2 92.2212 14.5589  16
  -4  -4   2 109.363 5.74710   9
  -4  -4   2 110.622 5.87733  13
  -4  -4   2 109.019 6.73221  21
   3   4  -2 830.534 42.7065   2
  -3  -4   2 838.102 42.1750  13
  -3  -4   2 826.461 46.8646   3
  -3  -4   2 796.128 44.5438  20
  -3  -4   2 837.398 43.3595  21
  -3  -4   2 852.625 42.0196   9
   2   4  -2 1158.42 59.0050   2
  -2  -4   2 1176.36 59.4278  21
  -2  -4   2 1114.62 58.1520  13
  -2  -4   2 1167.55 63.1548   3
  -2  -4   2 1168.64 61.1857  20
  -2  -4   2 1130.82 58.0141   9
   1   4  -2 773.200 42.9939  21
   1   4  -2 772.119 42.1617  13
   1   4  -2 889.046 48.1040   5
   1   4  -2 911.427 42.7882   9
  -1  -4   2 827.131 45.3850  21
  -1  -4   2 759.872 44.6209   6
  -1  -4   2 892.722 46.7529   3
  -1  -4   2 847.386 42.2845   9
  -1  -4   2 884.909 45.3891  20
  -1  -4   2 826.117 43.3272   2
  -1  -4   2 831.034 42.8723  13
   0   4  -2 1062.63 56.1379   5
   0   4  -2 1049.98 55.5938   3
   0   4  -2 1077.87 53.8950  20
   0  -4   2 978.304 54.8390   6
  -1   4  -2 2334.03 122.624   5
  -1   4  -2 2485.62 120.663  21
  -1   4  -2 2370.11 121.742  11
  -2   4  -2 3006.71 153.121  21
   2  -4   2 3028.57 150.738  15
  -3   4  -2 4875.64 236.595   3
   3  -4   2 4884.97 241.721   1
   3  -4   2 4648.81 237.432  18
   3  -4   2 4850.72 245.930  12
   3  -4   2 4225.86 235.467   8
  -4   4  -2 177.075 11.5999   3
  -4   4  -2 185.580 10.5782  20
   4  -4   2 193.898 18.3465  12
   4  -4   2 210.531 14.0341  18
   4  -4   2 163.254 13.0714   8
   4  -4   2 188.246 28.6271  16
   4  -4   2 203.452 13.7406  14
   4  -4   2 195.817 16.8251   1
   4  -4   2 187.636 12.1151  10
   4  -4   2 176.323 14.0531   6
   5  -4   2 25.2808 12.2120  16
   5  -4   2 24.6027 7.10057  12
   5  -4   2 31.7852 5.07355  18
   5  -4   2 21.8081 6.38849   1
   5  -4   2 31.2293 4.15434  10
   5  -4   2 30.0413 5.07786  14
   6  -4   2 738.128 38.1751  10
   4   3  -2 855.837 41.4365   2
  -4  -3   2 802.396 46.3339   3
  -4  -3   2 818.089 41.1505   9
  -4  -3   2 817.285 42.5015  21
  -4  -3   2 843.323 41.3554  13
  -4  -3   2 752.910 43.3360  20
   2   3  -2 388.732 27.0527   5
  -2  -3   2 440.504 25.0702   3
  -2  -3   2 387.304 22.3470  20
  -2  -3   2 390.437 22.4197   6
  -2  -3   2 389.704 21.6876  21
   1   3  -2 159.064 12.2680   5
   1   3  -2 145.935 8.90801  20
   1   3  -2 145.225 8.73790  11
   1   3  -2 140.329 10.2912   3
   1   3  -2 142.718 12.0581  19
  -1  -3   2 170.418 9.54624  20
  -1  -3   2 130.500 9.35822   6
  -1  -3   2 158.589 10.9779   3
  -1   3  -2 1840.32 96.1188  11
  -1   3  -2 1930.73 96.6852   3
   1  -3   2 1920.65 95.5311  17
  -2   3  -2 2476.41 119.442  20
  -2   3  -2 2390.44 120.823  11
  -2   3  -2 2507.96 120.486   3
   2  -3   2 2157.33 119.565  17
  -3   3  -2 1734.62 86.2807  20
  -3   3  -2 1716.37 87.1081   3
  -3   3  -2 1740.86 88.7150  11
   3  -3   2 1611.94 87.3878  17
   3  -3   2 1758.88 86.3468  15
   3  -3   2 1756.27 89.2115   6
   4  -3   2 959.668 53.1736   1
   4  -3   2 835.233 48.8748   6
   4  -3   2 902.202 73.9961  16
   4  -3   2 915.924 48.7186  14
   4  -3   2 918.631 45.8166  15
   4  -3   2 910.968 47.4701  10
   4  -3   2 935.831 49.0668  18
   4  -3   2 896.390 54.9695  12
   4  -3   2 812.643 52.9630   4
   5  -3   2 1060.31 59.3452   1
   5  -3   2 912.471 58.2338   4
   5  -3   2 1104.33 67.8318  12
   5  -3   2 946.313 79.0019  16
   6  -3   2 129.505 19.6449  16
   6  -3   2 145.577 12.0377   4
   6  -3   2 157.903 9.18051  10
   5   2  -2 471.352 40.7111  16
   5   2  -2 495.575 29.5457   4
  -5  -2   2 468.013 23.5323  13
  -5  -2   2 409.095 26.4039   3
  -5  -2   2 456.352 24.3524  21
   4   2  -2 771.728 48.4026   4
   4   2  -2 811.635 47.4505   8
  -4  -2   2 837.582 41.3373  21
  -4  -2   2 786.961 42.0718  20
  -4  -2   2 766.099 44.6523   3
  -4  -2   2 729.847 39.8459  13
   3   2  -2 316.651 25.2926   5
   1   2  -2 15.2667 4.35876  19
   1   2  -2 15.9187 3.81638   5
  -1  -2   2 17.7853 2.36747  20
  -2   2  -2 1290.25 62.6864  11
   2  -2   2 1134.40 61.9721  17
   2  -2   2 1207.54 61.3185  15
   2  -2   2 1263.97 62.9259   6
  -3   2  -2 803.819 42.0659  11
  -3   2  -2 784.313 40.0506   7
   3  -2   2 761.156 42.2303   6
   3  -2   2 812.475 40.3645  15
   3  -2   2 821.712 46.3880   5
  -4   2  -2 1396.09 73.9250  20
   4  -2   2 1340.73 101.454  16
   4  -2   2 1520.16 75.7093  10
   4  -2   2 1463.29 83.1837   5
   4  -2   2 1410.31 83.2614   4
   4  -2   2 1491.98 77.0577  18
   4  -2   2 1468.57 73.8980  15
   4  -2   2 1505.75 76.8468  14
   4  -2   2 1591.13 81.6287   1
   4  -2   2 1481.45 82.9954  12
  -5   2  -2 56.7789 5.64272   3
  -5   2  -2 60.0761 4.36100  20
   5  -2   2 68.4584 11.5967   1
   5  -2   2 54.3381 10.0463  14
   5  -2   2 63.4680 23.6020  16
   6  -2   2 1444.85 73.8529   4
   6  -2   2 1233.38 83.9888  16
   5   1  -2 120.147 21.6956  16
  -5  -1   2 134.451 7.82584  21
  -5  -1   2 98.9753 9.32911   3
   4   1  -2 1790.79 100.192   5
   4   1  -2 1680.85 88.7224   8
   4   1  -2 1684.99 96.0963   4
  -4  -1   2 1771.90 90.4583   3
  -4  -1   2 1813.85 87.9142  20
  -4  -1   2 1525.80 85.8836  13
   3   1  -2 955.098 54.0067   5
  -3  -1   2 913.903 46.3394  20
  -3  -1   2 899.269 48.0572   3
  -3  -1   2 797.057 45.6930  21
   2   1  -2 807.448 47.1661   5
  -2  -1   2 806.305 42.2043   7
  -2  -1   2 866.539 44.1917   3
  -2  -1   2 875.707 42.9816  20
  -3   1  -2 1386.53 65.4288  11
  -3   1  -2 1174.23 63.7470  20
   3  -1   2 1229.12 70.0396   5
   3  -1   2 1276.51 63.5893  15
  -4   1  -2 1675.80 87.0617   3
  -4   1  -2 1721.53 85.5195  20
   4  -1   2 1639.59 87.4194  14
   4  -1   2 1593.62 115.556  16
   4  -1   2 1663.92 95.4199   4
   4  -1   2 1704.81 86.4812  10
   4  -1   2 1794.64 92.1696   1
   4  -1   2 1755.70 95.4137   5
   4  -1   2 1643.49 92.9081  12
  -5   1  -2 72.2977 5.81516  20
  -5   1  -2 81.8600 5.84874  21
  -5   1  -2 75.0384 7.15281   3
   5  -1   2 92.6389 12.5676   4
   5  -1   2 85.2130 21.3397  16
   6  -1   2 448.581 41.9359  16
   6  -1   2 511.219 30.4917   4
   6   0  -2 164.995 21.6083  16
   5   0  -2 452.972 46.5150  16
   5   0  -2 467.485 31.3671   4
  -5   0   2 398.734 25.2621   3
  -5   0   2 405.923 23.3312  20
  -5   0   2 409.298 22.9802  21
   4   0  -2 1143.87 60.7588  10
   4   0  -2 1128.65 69.5539   5
   4   0  -2 1159.20 69.3821   4
   4   0  -2 1149.58 62.0334   8
   4   0  -2 1310.49 89.5447  16
  -4   0   2 1092.14 60.1253  21
  -4   0   2 1248.11 60.8086  20
  -4   0   2 1193.95 62.5977   3
   3   0  -2 404.106 26.9287   5
  -3   0   2 349.824 21.0655   3
  -3   0   2 350.723 19.5251   7
  -3   0   2 422.665 20.3470  20
   2   0  -2 10.7362 0.90275  15
   2   0  -2 11.7881 2.42028  17
  -2   0   2 13.6431 1.19011   7
   0   0  -2 27.8775 1.73886  11
   0   0   2 28.9714 1.60619   7
  -2   0  -2 1278.03 64.1586  11
  -2   0  -2 1300.91 64.0634  20
   2   0   2 1192.53 67.6344   5
   2   0   2 1319.04 63.6397  15
  -3   0  -2 490.379 27.8772   3
  -3   0  -2 526.396 26.7427  20
   3   0   2 514.990 32.7210   5
   3   0   2 494.228 25.7790  15
  -4   0  -2 2640.78 133.501   3
  -4   0  -2 2545.17 130.636  21
   4   0   2 2597.37 140.930   5
  -5   0  -2 45.0734 4.64127  20
  -5   0  -2 52.7905 4.44635  21
  -5   0  -2 50.4918 7.32948   3
   5   0   2 45.0554 16.2345  16
   5   0   2 51.8915 9.51502   4
   6   0   2 245.961 16.1191   4
   6   0   2 191.146 19.9486  16
   6  -1  -2 746.874 59.8624  16
   6  -1  -2 857.839 46.9803   4
   5  -1  -2 111.803 22.7343  16
   5  -1  -2 112.547 9.21248  10
   4  -1  -2 2356.14 130.109  18
   4  -1  -2 2533.23 129.652  14
   4  -1  -2 2600.74 128.779  10
   4  -1  -2 2886.74 160.083  16
   4  -1  -2 2485.10 137.183   5
   4  -1  -2 2310.34 135.223  12
   4  -1  -2 2540.47 137.144   4
   4  -1  -2 2600.24 129.859   8
   4  -1  -2 2484.79 133.749   1
  -4   1   2 2664.81 127.877  20
  -4   1   2 2540.67 129.152   3
   3  -1  -2 425.817 19.8115  15
   3  -1  -2 368.927 24.0138  17
  -3   1   2 366.738 19.9223   7
   2  -1  -2 771.323 36.9873  15
   2  -1  -2 675.302 40.1997   5
   2  -1  -2 782.711 38.6644  17
   2  -1  -2 746.646 38.2792   6
  -2   1   2 768.987 37.4003  11
  -2   1   2 679.532 37.2283   7
   1  -1  -2 16.5260 2.41581   5
   1  -1  -2 17.4240 1.87085   6
   1  -1  -2 18.0204 2.41752  17
  -1   1   2 16.6021 1.46557  11
   2   1   2 4811.77 239.374   7
  -3  -1  -2 108.485 7.44730  20
  -3  -1  -2 94.8846 6.79560  21
  -3  -1  -2 108.794 8.83878   3
   3   1   2 96.3536 12.3245   4
   3   1   2 96.9571 5.68021  15
   3   1   2 109.221 11.9132   5
  -4  -1  -2 880.172 46.0818   3
  -4  -1  -2 708.784 40.7324   9
  -4  -1  -2 831.044 43.0767  20
  -4  -1  -2 826.664 42.3478  21
  -4  -1  -2 776.749 41.0571  13
   4   1   2 812.311 51.7366   4
  -5  -1  -2 268.902 13.3001  13
  -5  -1  -2 220.155 16.2830   3
  -5  -1  -2 263.049 14.3595  21
   5   1   2 238.746 31.7706  16
   5   1   2 258.838 20.9830   4
   6  -2  -2 1401.92 96.3109  16
   6  -2  -2 1552.01 80.6889   4
   5  -2  -2 58.2757 9.98327  12
   5  -2  -2 51.4903 7.55117   8
   5  -2  -2 59.2560 17.2094  16
   5  -2  -2 64.5146 6.84663  14
   5  -2  -2 69.3962 5.87167  10
   4  -2  -2 1345.88 67.7842  10
   4  -2  -2 1260.10 75.4575  12
   4  -2  -2 1330.82 68.4973   8
   4  -2  -2 1272.18 69.5372  18
   4  -2  -2 1304.12 68.4084  14
   4  -2  -2 1270.61 74.6591   4
   4  -2  -2 1280.58 72.9014   1
   4  -2  -2 1461.94 95.2893  16
   3  -2  -2 1506.87 70.4794  17
   3  -2  -2 1372.68 66.0932  15
   3  -2  -2 1212.53 71.0044   5
  -3   2   2 1170.41 66.3966   7
  -3   2   2 1322.59 67.0288  11
   2  -2  -2 8.03190 1.03040  15
   2  -2  -2 8.33755 1.94409   6
  -2   2   2 6.47109 1.40358  11
  -2  -2  -2 1561.73 80.3680  20
  -2  -2  -2 1577.03 79.4757  21
  -2  -2  -2 1592.62 82.1003   3
   2   2   2 1534.28 78.3494  15
  -3  -2  -2 9.15242 3.15545  21
  -3  -2  -2 9.70299 3.27157  20
  -3  -2  -2 10.6435 1.88214   9
   3   2   2 11.6358 5.90804   4
   3   2   2 11.4093 5.36415   5
  -4  -2  -2 184.476 14.4877   3
  -4  -2  -2 207.731 12.9512  20
  -4  -2  -2 183.482 10.1721   9
  -4  -2  -2 215.013 12.0413  21
  -4  -2  -2 191.631 10.5079  13
   4   2   2 162.669 10.1341   2
   4   2   2 179.691 17.4083   4
  -5  -2  -2 521.097 27.5690  21
  -5  -2  -2 540.637 26.7333  13
   5   2   2 541.505 31.5644   4
   5   2   2 502.624 42.9401  16
   6  -3  -2 737.970 41.2766   4
   6  -3  -2 593.840 52.1289  16
   5  -3  -2 100.594 15.3915   4
   5  -3  -2 117.558 14.8096  12
   5  -3  -2 98.2867 22.3450  16
   5  -3  -2 125.570 11.2276   8
   5  -3  -2 99.6838 8.56149  14
   5  -3  -2 109.349 10.4466  18
   4  -3  -2 80.4705 12.4656  12
   4  -3  -2 99.1080 8.61210   6
   4  -3  -2 105.025 7.92272   8
   4  -3  -2 102.478 11.0727   1
   4  -3  -2 112.827 8.28652  14
   4  -3  -2 83.6370 8.61843  18
   3  -3  -2 3456.11 171.499  17
  -3   3   2 3316.06 168.857  20
  -3   3   2 3454.08 170.492  11
  -3   3   2 3298.49 169.318   7
   2  -3  -2 1809.32 92.3396   6
   2  -3  -2 1803.31 92.3377  17
  -2   3   2 1734.28 91.6486   3
  -2   3   2 1874.42 90.6745  20
  -2   3   2 1783.67 91.3979  11
   0  -3  -2 2343.61 125.800  20
   0   3   2 2659.02 127.680   3
  -1  -3  -2 42.3567 3.58546   6
  -1  -3  -2 42.2888 5.17258   3
  -1  -3  -2 32.6660 4.02701  20
   1   3   2 42.8366 3.65521  11
   1   3   2 40.1738 6.35614  19
   1   3   2 42.5455 5.39195   5
   1   3   2 34.3367 3.56556  20
   1   3   2 41.8023 5.71361   3
  -2  -3  -2 1366.49 68.8619   9
  -2  -3  -2 1505.71 71.3524  20
  -2  -3  -2 1383.20 69.0325  13
  -2  -3  -2 1477.40 70.3474  21
  -2  -3  -2 1486.15 74.3975   3
   2   3   2 1228.15 68.5642   9
   2   3   2 1270.23 74.3925   5
   2   3   2 1248.18 69.6315   2
  -3  -3  -2 11.2231 4.09575  20
  -4  -3  -2 486.643 28.3090  20
  -4  -3  -2 462.778 23.5888  13
  -4  -3  -2 465.773 24.7940  21
  -4  -3  -2 449.817 27.6399   3
   4   3   2 461.006 29.2329   4
   4   3   2 425.218 23.3916   2
   5  -4  -2 672.708 34.8761  14
   5  -4  -2 584.403 38.9650   1
   5  -4  -2 635.654 33.8726  10
   5  -4  -2 676.917 36.6897  18
   5  -4  -2 620.266 34.3678   8
   5  -4  -2 623.379 57.7660  16
   5  -4  -2 666.337 42.9743  12
   4  -4  -2 1017.88 55.2217   6
   4  -4  -2 1021.94 62.5003  12
   4  -4  -2 1017.46 53.4189   8
   4  -4  -2 971.416 53.1831  14
   4  -4  -2 1065.72 80.8863  16
   4  -4  -2 1069.97 53.4113  10
   4  -4  -2 1005.20 55.3355  18
   4  -4  -2 917.030 54.2222  17
   4  -4  -2 988.549 58.4884   1
  -4   4   2 1018.26 52.9025   3
  -4   4   2 1011.14 60.8133  19
   3  -4  -2 1908.06 107.405  12
   3  -4  -2 1725.94 103.435   1
   3  -4  -2 1958.27 99.4301  14
   3  -4  -2 1861.66 100.279   6
   3  -4  -2 1973.28 100.859  18
   3  -4  -2 1912.12 99.7033  17
   3  -4  -2 1943.26 99.0439   8
  -3   4   2 1998.73 99.5817   3
  -3   4   2 2120.63 97.8992  20
   2  -4  -2 2374.16 123.062   6
   2  -4  -2 2548.97 128.883  17
  -2   4   2 2460.64 121.325  20
  -2   4   2 2512.46 123.332   3
  -2   4   2 2117.73 120.839  21
   1  -4  -2 70.8178 6.20577   6
   1  -4  -2 69.4291 7.14272  17
  -1   4   2 67.7312 5.66263  11
  -1   4   2 71.5238 6.83310   3
  -1   4   2 77.7497 9.82761  19
  -1   4   2 72.8974 6.15201  20
  -1   4   2 75.3188 5.56590  21
   0  -4  -2 4526.33 222.967   6
   0   4   2 4317.61 221.447  21
  -1  -4  -2 888.558 48.2904  21
  -1  -4  -2 880.751 49.1989  20
  -1  -4  -2 960.456 48.3509   2
  -1  -4  -2 890.466 47.2100  13
  -1  -4  -2 1028.19 52.3390   3
  -1  -4  -2 960.944 47.2216   9
   1   4   2 951.273 47.1560   9
   1   4   2 945.930 48.3086   2
   1   4   2 902.076 55.3933  19
  -2  -4  -2 2680.13 132.468   3
  -2  -4  -2 2561.42 126.601  13
  -2  -4  -2 2573.31 126.493   9
  -2  -4  -2 2373.59 127.492   2
  -2  -4  -2 2581.27 127.982  21
  -2  -4  -2 2469.02 129.094  20
   2   4   2 2491.23 126.213   9
   2   4   2 2500.75 127.498   2
  -3  -4  -2 436.471 29.9631   3
  -3  -4  -2 491.956 24.0261   9
  -3  -4  -2 451.841 26.9668  20
  -3  -4  -2 482.365 24.1765  13
  -3  -4  -2 478.011 25.3928  21
   3   4   2 465.707 24.7257   2
  -4  -4  -2 9.73166 1.15116   9
  -4  -4  -2 11.3928 1.54003  13
   4   4   2 12.9073 7.24441  16
   5  -5  -2 1492.50 87.2225   1
   5  -5  -2 1618.89 82.9091   8
   5  -5  -2 1712.08 85.1703  18
   5  -5  -2 1684.82 91.1988  12
   5  -5  -2 1593.51 82.8112  14
   4  -5  -2 217.814 15.7086  18
   4  -5  -2 218.489 20.7473  12
   4  -5  -2 205.134 17.9912   1
   4  -5  -2 213.653 13.4866  14
   4  -5  -2 231.231 13.9482   8
  -4   5   2 205.774 12.2487  20
  -4   5   2 208.157 20.0077  19
  -4   5   2 212.166 14.0515   3
  -4   5   2 196.459 12.3872  21
   3  -5  -2 195.122 14.4192   6
   3  -5  -2 191.748 13.1028  14
  -3   5   2 206.893 20.1651  19
  -3   5   2 184.731 12.0118  21
  -3   5   2 219.821 12.9010  20
  -3   5   2 218.576 14.4654   3
   2  -5  -2 2021.22 110.956  17
   2  -5  -2 1927.81 115.872  12
   2  -5  -2 1958.20 107.899   2
   2  -5  -2 2170.10 111.529   6
   2  -5  -2 2211.29 109.988   8
  -2   5   2 2400.42 109.791  20
  -2   5   2 2264.32 119.939  19
  -2   5   2 2269.52 112.228   3
  -2   5   2 2324.14 109.228  21
  -2   5   2 2085.81 107.792  13
  -2   5   2 2013.82 107.433   9
   1  -5  -2 834.005 48.1932   6
   1  -5  -2 841.427 42.1849   2
   1  -5  -2 839.517 43.7019   8
   1  -5  -2 745.143 45.5944  17
  -1   5   2 820.432 43.3186  20
  -1   5   2 801.608 51.1293  19
  -1   5   2 808.615 42.8310  21
  -1   5   2 789.821 41.5329  13
  -1   5   2 783.424 41.2748   9
  -1   5   2 893.367 46.2761   3
   0  -5  -2 2225.86 124.511  17
   0  -5  -2 2426.85 122.489   6
   0  -5  -2 2369.44 120.442   2
   0  -5  -2 2322.31 119.297   9
   0   5   2 2467.24 120.889  21
   0   5   2 2432.17 119.597  13
   0   5   2 2430.60 139.471  19
   0   5   2 2257.67 120.523   2
   0   5   2 2496.11 124.393   3
   0   5   2 2357.40 121.626  20
   0   5   2 2484.97 119.474   9
  -1  -5  -2 923.408 46.4606   2
  -1  -5  -2 842.050 45.0719  13
  -1  -5  -2 944.646 45.2831   9
   1   5   2 918.831 46.5240   2
   1   5   2 951.012 45.2362   9
   1   5   2 787.213 54.4098  19
  -2  -5  -2 481.665 25.8157   2
  -2  -5  -2 495.562 24.8983   9
  -2  -5  -2 479.557 24.8271  13
  -3  -5  -2 561.305 28.4314   9
   3   5   2 563.289 28.8980   2
   5  -6  -2 372.894 24.5494  12
   5  -6  -2 312.258 21.9175   1
   5  -6  -2 373.768 20.8386  18
   5  -6  -2 338.412 18.9852   8
   4  -6  -2 90.8063 8.51892  18
   4  -6  -2 76.6683 9.70936   1
   4  -6  -2 80.4218 10.8078  12
  -4   6   2 86.5656 14.4529  19
  -4   6   2 71.6264 5.60725  21
  -4   6   2 65.9062 9.21138   3
  -4   6   2 67.7507 5.67274  20
   3  -6  -2 2505.91 128.043   8
   3  -6  -2 2506.10 130.111  18
  -3   6   2 2498.08 127.152  21
  -3   6   2 2521.42 130.072   3
  -3   6   2 2536.58 127.580  20
   2  -6  -2 9.80035 2.01687   2
   2  -6  -2 12.1282 3.68869   8
  -2   6   2 9.29645 3.04180  20
  -2   6   2 8.45972 3.18638  21
  -2   6   2 8.46198 1.56373   9
  -2   6   2 6.79100 4.87157   3
  -2   6   2 9.74912 5.39629  19
  -2   6   2 8.79484 2.03533  13
   1  -6  -2 57.1920 4.70154   2
  -1   6   2 61.4179 5.69568  21
  -1   6   2 48.8943 7.63551   3
  -1   6   2 59.3865 3.96494   9
  -1   6   2 66.5112 4.40509  13
  -1   6   2 56.6075 10.0052  19
  -1   6   2 52.4222 5.80563  20
   0  -6  -2 733.666 37.7155   9
   0   6   2 870.349 38.6691   9
   0   6   2 682.906 46.9284  19
   0   6   2 691.757 38.8466  21
  -1  -6  -2 333.642 16.8490   9
  -1  -6  -2 300.742 17.6428   2
   1   6   2 319.724 17.8543   2
   1   6   2 344.955 16.8478   9
  -2  -6  -2 39.0364 2.54813   9
  -2  -6  -2 35.9122 2.94503   2
   2   6   2 44.6933 3.36777   2
   4  -7  -2 403.994 21.2722  18
   4  -7  -2 349.778 22.0072  12
   4  -7  -2 335.225 22.5850   1
  -4   7   2 336.833 22.7753   3
  -4   7   2 364.507 18.9357  13
  -4   7   2 372.234 19.4038  21
   3  -7  -2 475.780 30.4386   1
   3  -7  -2 505.618 28.1715  18
  -3   7   2 487.850 28.3742   3
  -3   7   2 473.803 25.7802  21
  -3   7   2 481.110 24.3917   9
  -3   7   2 481.383 24.7438  13
  -3   7   2 449.621 26.1888  20
   2  -7  -2 2874.22 141.049   2
   2  -7  -2 2894.89 143.883  18
  -2   7   2 2887.95 142.291  21
  -2   7   2 2779.87 145.238   3
  -2   7   2 2816.65 140.688   9
  -2   7   2 2903.84 140.978  13
  -2   7   2 2582.25 150.587  19
   1  -7  -2 64.7134 4.32186   2
  -1   7   2 55.6215 6.63973   3
  -1   7   2 56.0071 3.65174   9
  -1   7   2 49.6953 4.65198  21
  -1   7   2 56.1454 3.79123  13
   0  -7  -2 365.382 19.3247   2
   0   7   2 363.721 19.5906   2
   0   7   2 364.906 18.6992   9
  -1  -7  -2 345.855 18.2892   2
   1   7   2 359.751 18.4879   2
   3  -8  -2 11.7128 2.58258   1
  -3   8   2 13.8242 1.38145  13
   2  -8  -2 753.213 44.8785   1
  -2   8   2 852.076 42.3010  13
  -2   8   2 924.286 42.2912   9
  -1   8   2 172.389 8.93478   9
  -1   8  -3 636.113 30.8755   9
   1  -8   3 588.497 30.8876   2
  -2   8  -3 704.611 36.7137   9
  -2   8  -3 724.475 36.7073  13
   2  -8   3 762.776 40.8051   1
  -3   8  -3 64.9314 4.56712  21
  -3   8  -3 81.9803 4.02875  13
   3  -8   3 67.7718 6.26690   1
   1   7  -3 627.887 31.9625   9
  -1  -7   3 647.538 32.5726   2
   0   7  -3 392.015 20.4640   9
   0   7  -3 388.676 21.1954   2
   0  -7   3 419.959 21.1541   2
  -1   7  -3 966.538 47.1601   9
  -1   7  -3 931.683 47.2512  13
  -1   7  -3 847.327 50.6917   3
  -1   7  -3 932.555 48.2502  21
   1  -7   3 1005.16 47.8568   2
  -2   7  -3 906.872 49.7322  20
  -2   7  -3 857.881 54.7161   3
  -2   7  -3 1040.70 64.0932  19
  -2   7  -3 976.042 47.9879  13
  -2   7  -3 944.952 49.0948  21
  -2   7  -3 921.898 47.7335   9
   2  -7   3 996.852 48.1804   2
  -3   7  -3 21.6248 2.96760  21
  -3   7  -3 19.9660 3.19197  20
  -3   7  -3 27.5415 1.89235   9
  -3   7  -3 20.9739 3.88009   3
   3  -7   3 26.2063 5.81172   1
   3  -7   3 21.8247 3.39504  18
  -4   7  -3 714.675 37.8193  21
  -4   7  -3 703.695 37.4190  13
  -4   7  -3 689.858 40.5178   3
   4  -7   3 774.952 40.8429  18
   4  -7   3 752.856 38.8601  14
   4  -7   3 783.663 42.1832   1
   2   6  -3 118.704 6.78441   2
  -2  -6   3 102.746 6.47151   2
  -2  -6   3 106.548 5.95839   9
   1   6  -3 1192.99 60.9105   9
   1   6  -3 1226.40 62.0267   2
  -1  -6   3 1198.13 60.9289   9
  -1  -6   3 1240.36 61.8908   2
   0   6  -3 408.986 20.6941   9
   0   6  -3 410.671 21.8178  21
   0   6  -3 379.927 21.6527   2
   0   6  -3 392.105 31.4740  19
   0   6  -3 398.130 20.6716  13
   0  -6   3 412.040 21.6279   2
   0  -6   3 399.339 20.5299   9
  -1   6  -3 48.3433 9.47436  19
  -2   6  -3 1227.05 58.5748  21
  -2   6  -3 1117.96 57.1447  13
  -2   6  -3 1072.61 56.8727   9
  -2   6  -3 1143.36 61.7380   3
  -2   6  -3 1185.61 59.1596  20
   2  -6   3 1118.27 59.8007  18
   2  -6   3 1054.58 57.3301   2
  -3   6  -3 243.044 14.5360  13
  -3   6  -3 236.604 14.7660  20
  -3   6  -3 222.573 14.2234  21
  -3   6  -3 271.099 17.0567   3
   3  -6   3 280.099 20.8752   1
   3  -6   3 242.728 16.2940  18
  -4   6  -3 1678.93 88.7910  21
  -4   6  -3 1632.54 89.0805  20
  -4   6  -3 1893.89 94.0613   3
   4  -6   3 1735.60 94.9794  12
   4  -6   3 1618.74 88.8882  10
   4  -6   3 1892.25 95.6418   1
   4  -6   3 1748.90 91.0380  14
   4  -6   3 1855.49 91.0033  18
   5  -6   3 1139.37 61.3060  10
   5  -6   3 1267.32 65.8544   1
   5  -6   3 1304.60 62.7218  18
   5  -6   3 1131.90 62.4472  14
   3   5  -3 1429.84 68.9747   2
  -3  -5   3 1372.68 68.3989   9
  -3  -5   3 1297.13 68.3807  13
   2   5  -3 378.400 19.6142   2
   2   5  -3 349.632 18.3417   9
  -2  -5   3 357.898 18.5887   9
  -2  -5   3 344.842 18.5841  13
  -2  -5   3 364.729 19.4950   2
   1   5  -3 1547.95 76.0825   9
   1   5  -3 1559.95 77.3182   2
   1   5  -3 1415.84 75.8284  13
  -1  -5   3 1512.08 76.1210   9
  -1  -5   3 1536.60 77.2162   2
  -1  -5   3 1532.84 76.0693  13
   0   5  -3 222.456 13.8793  20
   0   5  -3 204.182 19.2452  19
   0   5  -3 239.722 13.4142  21
   0   5  -3 231.579 15.8115   3
   0   5  -3 226.203 13.1958   2
   0   5  -3 250.584 12.1856   9
   0   5  -3 226.034 12.2298  13
   0  -5   3 244.685 12.0802   9
   0  -5   3 240.657 13.1352   2
   0  -5   3 200.804 15.1813   6
  -1   5  -3 1015.31 51.2865   3
  -1   5  -3 949.659 48.7808  20
  -1   5  -3 890.499 46.7927   9
  -1   5  -3 877.941 46.9668  13
  -1   5  -3 947.202 48.1741  21
   1  -5   3 900.643 47.5201   2
   1  -5   3 920.192 50.9377   6
  -2   5  -3 2147.11 100.338   3
  -2   5  -3 2007.45 97.0250  21
  -2   5  -3 1767.52 95.5352   9
  -2   5  -3 2109.74 97.6671  20
  -2   5  -3 1815.41 95.7738  13
   2  -5   3 1931.92 100.241   6
   2  -5   3 1794.06 97.4230   8
   2  -5   3 1913.69 98.8306  18
   2  -5   3 1716.74 95.9131   2
  -3   5  -3 1156.56 59.7024  21
  -3   5  -3 1186.78 62.1875   3
  -3   5  -3 1190.48 60.1086  20
   3  -5   3 1115.57 63.4872   6
   3  -5   3 1202.66 66.9259   1
   3  -5   3 1099.05 59.0401  15
   3  -5   3 1095.89 61.2279   8
   3  -5   3 1268.47 63.7288  10
  -4   5  -3 87.6843 5.90193  21
  -4   5  -3 83.1084 5.92551  20
   4  -5   3 84.8865 8.68916  14
   4  -5   3 94.8393 8.27735  18
   4  -5   3 81.3712 6.73469  10
   4  -5   3 82.7862 11.3742  12
   4  -5   3 70.7327 9.99800   1
   5  -5   3 1327.57 67.4014  18
   5  -5   3 1233.10 67.4304  14
   5  -5   3 1224.92 65.8454  10
   5  -5   3 1359.30 71.3708   1
   6  -5   3 32.0448 3.40548  14
   4   4  -3 342.112 30.2901  16
  -4  -4   3 357.718 19.0461   9
  -4  -4   3 409.607 19.2053  13
  -4  -4   3 388.968 20.0273  21
   3   4  -3 44.8041 3.78433   2
  -3  -4   3 44.7701 3.17887   9
  -3  -4   3 49.2054 4.41422  21
  -3  -4   3 42.8487 5.12858  20
  -3  -4   3 39.5071 3.25106  13
   2   4  -3 1136.87 68.2052   5
   2   4  -3 1007.67 53.3013   2
  -2  -4   3 1020.07 52.3638   9
  -2  -4   3 1048.98 53.7455  21
  -2  -4   3 993.588 54.9139  20
  -2  -4   3 996.343 52.4597  13
  -2  -4   3 1068.20 57.5433   3
   1   4  -3 1649.48 88.0198  13
   1   4  -3 1708.13 89.0824  21
   1   4  -3 1907.88 95.1282   5
   1   4  -3 1783.96 88.5179   9
   1   4  -3 1683.25 94.9112  19
  -1  -4   3 1841.43 88.1807   9
  -1  -4   3 1693.09 89.1640   2
  -1  -4   3 1843.40 91.2814  20
  -1  -4   3 1846.78 92.7231   3
  -1  -4   3 1678.61 88.3008  13
  -1  -4   3 1741.08 91.0434   6
   0   4  -3 3244.62 172.084   5
   0   4  -3 3339.14 168.504  21
   0   4  -3 3487.84 171.035   3
   0   4  -3 3375.72 169.090  20
  -1   4  -3 11.0713 2.92643   3
  -1   4  -3 7.93470 2.32537  11
  -1   4  -3 13.8475 2.40047  20
  -1   4  -3 11.1325 2.34094  21
   1  -4   3 10.2251 2.70315   6
  -2   4  -3 257.318 17.6520   3
  -2   4  -3 326.041 16.6144  21
  -2   4  -3 337.245 16.8492  20
   2  -4   3 306.825 15.8354  15
   2  -4   3 274.374 18.4666   6
  -3   4  -3 1828.05 84.0336  20
  -3   4  -3 1759.76 85.6770   3
   3  -4   3 1735.63 90.2780   1
   3  -4   3 1553.48 91.3935  12
   3  -4   3 1479.76 85.0056  10
   3  -4   3 1732.36 87.3511   6
   3  -4   3 1460.38 84.3219   8
   3  -4   3 1695.92 86.3434  18
  -4   4  -3 6.31761 2.17610   3
  -4   4  -3 6.36014 1.71623  20
   4  -4   3 8.28366 3.75081  18
   4  -4   3 10.0400 9.42003  16
   4  -4   3 4.26656 4.55248   1
   4  -4   3 3.72627 2.44286  10
   4  -4   3 5.26129 4.74091  12
   4  -4   3 3.83917 1.38719  15
   5  -4   3 1262.44 69.1973   1
   5  -4   3 1255.87 65.0902  18
   5  -4   3 1256.66 63.7993  10
   5  -4   3 1144.32 64.7722  14
   6  -4   3 187.905 10.9117  10
   4   3  -3 116.625 8.94375   8
   4   3  -3 127.256 7.00882   2
  -4  -3   3 113.293 8.86109  20
  -4  -3   3 128.815 8.21136  21
  -4  -3   3 124.055 7.09776  13
  -4  -3   3 130.949 12.2999   3
  -4  -3   3 123.339 6.83187   9
   3   3  -3 6283.31 311.642   5
   3   3  -3 5859.48 307.262   4
  -3  -3   3 5552.66 299.066  13
  -3  -3   3 6198.42 300.499  21
  -3  -3   3 5929.23 298.962   9
  -3  -3   3 6209.40 301.578  20
   2   3  -3 40.8910 4.17906   2
   2   3  -3 46.3237 7.90105   5
  -2  -3   3 46.7827 5.84649   3
  -2  -3   3 40.3822 4.38283   6
  -2  -3   3 36.8352 3.98121  21
   1   3  -3 1087.93 61.0878   5
   1   3  -3 1142.33 56.8346  11
   1   3  -3 1043.61 56.9309  20
   1   3  -3 1155.72 60.0296   3
   1   3  -3 1154.01 61.7390  19
  -1  -3   3 1070.62 57.9172   6
  -1  -3   3 1105.80 57.4134  20
  -1  -3   3 1165.05 59.6904   3
   0   3  -3 2405.60 116.614  20
   0   3  -3 2315.33 117.853   3
   0   3  -3 2307.49 116.818  11
   0   3  -3 2135.47 118.821   5
   0  -3   3 2424.07 117.734  20
  -1   3  -3 541.851 30.1001  11
  -1   3  -3 577.678 30.5579   3
  -1   3  -3 592.615 29.4599  20
   1  -3   3 558.354 30.5999   6
   1  -3   3 566.703 28.7117  15
  -2   3  -3 68.4657 5.62683  11
  -2   3  -3 70.7214 4.44683  20
  -2   3  -3 62.9079 5.10307   3
   2  -3   3 68.0592 4.11474  15
   2  -3   3 67.6745 5.87181   6
  -3   3  -3 3018.46 148.901  20
  -3   3  -3 2944.00 150.188   3
   3  -3   3 2982.15 148.802  15
   3  -3   3 2962.46 151.760   6
  -4   3  -3 13.2428 2.19354   3
   4  -3   3 11.5928 10.3446  16
   4  -3   3 9.80519 4.93427   4
   4  -3   3 15.3300 4.24013   6
   4  -3   3 18.3923 3.76113  10
   4  -3   3 13.7585 4.32255  18
   4  -3   3 15.2886 4.72863  14
   4  -3   3 11.8025 1.93869  15
   4  -3   3 15.3450 6.73270  12
   5  -3   3 2453.20 118.647  10
   5  -3   3 2418.09 148.249  16
   5  -3   3 2319.06 119.655  18
   5  -3   3 2202.30 124.763   4
   5  -3   3 2357.19 123.910   1
   5  -3   3 2205.00 119.332  14
   6  -3   3 23.6793 5.87354   4
   6  -3   3 32.5461 3.53127  10
   5   2  -3 714.423 52.8124  16
   5   2  -3 721.680 41.4020   4
  -5  -2   3 679.912 36.1925  21
  -5  -2   3 706.185 35.2873  13
  -5  -2   3 665.543 38.5176   3
   4   2  -3 1272.52 72.4208   4
   4   2  -3 1211.10 66.3418   8
  -4  -2   3 1253.44 64.5793  21
  -4  -2   3 1173.72 63.2631  13
  -4  -2   3 1332.17 68.5450   3
  -4  -2   3 1290.11 65.5895  20
   3   2  -3 1767.97 101.192   4
   3   2  -3 1759.53 93.0919   2
   3   2  -3 2004.01 103.824   5
  -3  -2   3 2084.39 97.9263   3
  -3  -2   3 1863.56 94.7018  20
  -3  -2   3 1854.70 93.8699  21
  -3  -2   3 1743.58 92.5890   9
  -3  -2   3 1730.34 92.7667  13
   1   2  -3 2595.98 137.069  19
  -1  -2   3 2802.04 136.585   3
  -1  -2   3 2676.30 135.056  20
   0   2  -3 1563.89 78.5903  20
  -2   2  -3 2150.09 110.063  20
  -2   2  -3 2259.85 111.542  11
  -3   2  -3 1609.33 83.9409  20
  -3   2  -3 1783.14 86.1868  11
  -3   2  -3 1613.91 85.3426   3
   3  -2   3 1733.91 84.0855  15
   3  -2   3 1639.18 86.0031   6
  -4   2  -3 204.554 11.9761  20
   4  -2   3 217.441 14.5680  18
   4  -2   3 226.039 17.8947   1
   4  -2   3 194.159 18.9815   4
   4  -2   3 212.976 30.7095  16
   4  -2   3 219.791 13.5809  10
   4  -2   3 226.557 14.8060  14
   4  -2   3 213.782 18.9617  12
   4  -2   3 213.514 11.7643  15
  -5   2  -3 728.684 41.6778   3
   5  -2   3 843.876 41.9273  10
   5  -2   3 816.862 43.1892  14
   5  -2   3 731.639 65.5862  16
   5  -2   3 757.371 48.9701   4
   6  -2   3 1070.97 73.6801  16
   6  -2   3 1364.91 69.5697   4
   5   1  -3 1167.57 64.0195   4
   5   1  -3 1033.02 56.4312   8
   5   1  -3 1148.64 80.1227  16
  -5  -1   3 1081.12 58.9798   3
  -5  -1   3 1044.80 56.0891  21
   4   1  -3 37.4563 5.26086   8
   4   1  -3 34.3460 9.36596   5
   4   1  -3 27.3030 12.6740  16
  -3  -1   3 44.2981 5.11379   3
  -3  -1   3 42.6204 3.88411  21
   2   1  -3 1016.78 57.8201   5
  -2  -1   3 1129.38 53.3686  20
  -2  -1   3 1055.77 54.4659   3
  -2  -1   3 983.187 52.7530   7
  -2   1  -3 744.026 39.7924  20
   2  -1   3 804.823 39.8264  15
   2  -1   3 801.470 40.7040   6
   2  -1   3 816.751 44.0508   5
  -3   1  -3 2924.15 150.960  20
   3  -1   3 3109.45 150.713  15
  -4   1  -3 781.139 38.9037  20
  -4   1  -3 712.791 40.3549   3
   4  -1   3 732.570 48.3190   4
   4  -1   3 712.122 40.5005  14
   4  -1   3 757.550 47.8529   5
   4  -1   3 785.107 44.8464   1
   4  -1   3 762.344 39.7667  10
   4  -1   3 730.656 37.9565  15
   4  -1   3 718.927 65.4190  16
  -5   1  -3 293.039 17.9558  20
  -5   1  -3 334.353 20.1405   3
  -5   1  -3 326.795 17.9194  21
   5  -1   3 326.741 18.7820  10
   5  -1   3 333.184 26.4275   4
   5  -1   3 327.791 39.7237  16
   6  -1   3 306.054 26.4253  16
   6   0  -3 37.9071 10.6445  16
   5   0  -3 1203.46 86.5171  16
   5   0  -3 1210.08 68.4611   4
   5   0  -3 1135.78 60.1776   8
  -5   0   3 1154.60 61.9146   3
  -5   0   3 1095.98 59.6045  20
  -5   0   3 1134.06 59.2269  21
   4   0  -3 1286.65 71.0458  10
   4   0  -3 1560.92 99.6519  16
   4   0  -3 1389.58 80.8445   5
   4   0  -3 1367.17 79.7553   4
   4   0  -3 1337.71 72.6729   8
  -4   0   3 1437.66 73.1651   3
  -4   0   3 1256.46 70.4249  21
  -4   0   3 1464.15 71.1533  20
   3   0  -3 380.853 27.0407   5
   3   0  -3 419.128 23.0583  17
  -3   0   3 376.472 20.2475   7
  -3   0   3 391.714 22.0114   3
  -3   0   3 399.214 20.8686  20
   1   0  -3 93.1405 4.96117   7
   1   0  -3 87.8947 6.74939   5
  -1   0   3 86.6746 4.88612   7
  -2   0  -3 1574.86 84.4121   3
  -2   0  -3 1716.90 83.6450  11
   2   0   3 1744.66 82.9804  15
   2   0   3 1604.17 87.2743   5
  -3   0  -3 3803.95 185.713   3
  -3   0  -3 3533.67 183.660  21
  -4   0  -3 304.085 17.6773  21
  -4   0  -3 337.495 18.4595  20
  -4   0  -3 327.407 20.3979   3
   4   0   3 316.832 26.5961   4
   4   0   3 322.412 26.2848   5
   4   0   3 299.846 40.8425  16
  -5   0  -3 3.30375 1.83520  20
  -5   0  -3 3.45578 1.56237  21
  -5   0  -3 4.39892 2.46701   3
   5   0   3 2.61228 7.92874  16
   5   0   3 2.16577 3.56229   4
   6  -1  -3 422.634 39.2739  16
   6  -1  -3 432.555 27.6699   4
   5  -1  -3 1310.43 93.9583  16
   5  -1  -3 1401.57 77.1549   4
   5  -1  -3 1225.38 67.2886   8
  -5   1   3 1120.09 65.7579  20
  -5   1   3 1328.77 67.3985   3
   4  -1  -3 1635.95 82.3899   8
   4  -1  -3 1529.34 89.2464   5
   4  -1  -3 1544.34 80.9047  10
   4  -1  -3 1816.11 109.506  16
   4  -1  -3 1558.61 88.9447   4
   4  -1  -3 1447.07 87.5731  12
   4  -1  -3 1580.39 81.7933  14
   4  -1  -3 1475.77 82.3266  18
   4  -1  -3 1585.18 85.6924   1
  -4   1   3 1650.14 80.1198  20
  -4   1   3 1597.94 81.4603   3
   3  -1  -3 705.207 36.9953  17
   3  -1  -3 702.021 34.1997  15
  -3   1   3 662.598 34.5494   7
  -3   1   3 644.657 34.3338  20
   2  -1  -3 308.030 16.2810  17
   2  -1  -3 243.425 17.3973   5
   2  -1  -3 270.996 15.6983   6
   2  -1  -3 310.440 14.4160  15
  -2   1   3 282.730 14.6969  11
  -2   1   3 280.572 14.7869   7
  -2  -1  -3 80.0632 5.30097  11
  -2  -1  -3 66.3957 6.27146   3
  -2  -1  -3 91.1733 5.76351  20
   2   1   3 76.5262 8.11604   5
   2   1   3 81.5318 4.56572  15
  -3  -1  -3 368.437 21.3875   3
  -3  -1  -3 362.886 19.3215  20
   3   1   3 319.120 17.4591  15
   3   1   3 324.450 24.2989   5
   3   1   3 312.070 17.8876   2
  -4  -1  -3 332.755 18.1339  13
  -4  -1  -3 370.075 20.3487  20
  -4  -1  -3 305.344 17.8295   9
  -4  -1  -3 376.380 19.6341  21
   4   1   3 335.365 27.7219   4
  -5  -1  -3 20.1017 2.96138  21
  -5  -1  -3 15.2248 3.42502   3
  -5  -1  -3 22.2672 2.11858  13
   5   1   3 18.8728 9.22134   4
   6  -2  -3 531.312 32.7843   4
   6  -2  -3 522.002 45.9983  16
   5  -2  -3 122.493 10.1962  18
   5  -2  -3 145.163 14.6439   4
   5  -2  -3 121.751 12.3699   1
   5  -2  -3 147.190 25.5531  16
   5  -2  -3 117.668 14.3776  12
   5  -2  -3 151.224 10.3746  14
   5  -2  -3 117.530 10.3908   8
   4  -2  -3 1350.73 70.4252   8
   4  -2  -3 1337.41 70.0083  14
   4  -2  -3 1312.66 74.2795   1
   4  -2  -3 1334.58 76.4979   4
   4  -2  -3 1478.31 95.9910  16
   4  -2  -3 1391.47 69.4646  10
   4  -2  -3 1295.72 77.5618  12
   4  -2  -3 1291.86 71.3007  18
   4  -2  -3 1360.93 71.6553  17
   3  -2  -3 409.842 22.6903  17
   3  -2  -3 358.396 24.4979   5
   3  -2  -3 424.028 19.9437  15
   3  -2  -3 380.884 22.0644   6
  -3   2   3 359.613 20.3686   7
  -3   2   3 390.001 20.6483  11
   0  -2  -3 96.2057 6.04972   6
   0  -2  -3 89.7964 6.10005  20
   0   2   3 99.8905 8.63961  19
   0   2   3 101.340 6.04487  11
   0   2   3 107.649 7.62326   3
   0   2   3 99.0935 6.21264  20
  -1  -2  -3 183.840 10.9452  11
  -1  -2  -3 194.379 11.0345  20
  -1  -2  -3 171.943 12.1396   3
   1   2   3 206.583 14.6511  19
   1   2   3 186.245 10.7207  11
   1   2   3 182.669 10.6213  20
  -2  -2  -3 178.539 12.7844   3
  -2  -2  -3 185.175 10.6591  21
  -2  -2  -3 185.787 11.1744  20
   2   2   3 163.610 15.6807   5
   2   2   3 167.860 9.48293  15
  -3  -2  -3 308.029 17.1807  21
  -3  -2  -3 282.300 15.5266   9
  -3  -2  -3 288.736 15.7453  13
  -3  -2  -3 327.861 18.2369  20
  -3  -2  -3 324.243 20.6140   3
   3   2   3 269.899 16.0554   2
   3   2   3 283.847 23.9423   4
   3   2   3 275.256 22.4650   5
  -4  -2  -3 2582.42 132.154  20
  -4  -2  -3 2541.84 129.572   9
  -4  -2  -3 2598.51 129.867  13
  -4  -2  -3 2737.97 135.287   3
  -4  -2  -3 2612.98 131.197  21
   4   2   3 2677.73 139.881   4
   4   2   3 2410.02 129.611   2
  -5  -2  -3 28.9991 2.97975  21
   5   2   3 27.7325 9.43457  16
   5   2   3 30.3446 5.77858   4
   6  -3  -3 523.276 31.0703   4
   6  -3  -3 499.473 43.8500  16
   5  -3  -3 13.0293 5.19645   8
   5  -3  -3 8.01674 5.19272   1
   5  -3  -3 6.08562 2.66139  10
   5  -3  -3 5.94921 3.97215  18
   5  -3  -3 8.28799 9.83302  16
   4  -3  -3 7463.97 374.513  17
   4  -3  -3 7542.68 371.964  10
   4  -3  -3 7447.48 377.388   1
   4  -3  -3 7166.86 374.442  18
   4  -3  -3 7662.16 373.124   8
   4  -3  -3 7601.31 372.811  14
   4  -3  -3 7224.27 378.329   4
   3  -3  -3 932.565 47.9463  17
   3  -3  -3 888.592 49.3446   5
   3  -3  -3 889.227 47.6375   6
  -3   3   3 934.507 46.6072  11
  -3   3   3 913.936 45.3384  20
  -3   3   3 887.268 45.6106   7
  -3   3   3 771.910 46.1747   3
   2  -3  -3 3018.46 146.115  17
  -2   3   3 2844.77 145.195   3
  -2   3   3 2741.66 144.284  11
   1  -3  -3 123.347 9.42612  17
  -1   3   3 125.342 7.81853  20
  -1   3   3 118.508 11.2354  19
  -1   3   3 131.890 7.89598  11
   0  -3  -3 202.357 13.1337  20
   0  -3  -3 233.165 13.3914   6
   0   3   3 227.677 13.2547  20
   0   3   3 247.241 14.9364   3
   0   3   3 241.378 13.2771  11
   0   3   3 241.905 17.3979  19
  -1  -3  -3 1305.67 67.8522   3
  -1  -3  -3 1282.53 65.5769   6
  -1  -3  -3 1307.06 65.7179  20
  -1  -3  -3 1305.38 65.0309  21
   1   3   3 1280.02 65.3568  11
   1   3   3 1260.48 65.2718  20
   1   3   3 1236.39 67.3068   5
   1   3   3 1186.44 68.1066   3
   1   3   3 1299.46 71.1586  19
  -2  -3  -3 3116.27 156.537   9
  -2  -3  -3 3269.11 161.941   3
  -2  -3  -3 3269.77 158.091  21
  -2  -3  -3 3299.09 159.063  20
  -2  -3  -3 3116.13 156.709  13
   2   3   3 2929.50 157.405   2
   2   3   3 2951.06 162.512   5
  -3  -3  -3 30.6254 5.61186   3
  -3  -3  -3 29.0081 4.21318  21
  -3  -3  -3 30.5460 2.90114  13
  -3  -3  -3 28.9809 4.85178  20
  -3  -3  -3 29.2707 2.66737   9
   3   3   3 26.8074 3.15057   2
   3   3   3 26.5885 7.02672   4
  -4  -3  -3 839.638 41.2857   9
  -4  -3  -3 793.579 45.4839   3
  -4  -3  -3 851.820 42.6364  21
  -4  -3  -3 850.812 41.4641  13
   4   3   3 791.725 52.2438   4
   4   3   3 782.395 41.2163   2
   5  -4  -3 683.740 39.0097  18
   5  -4  -3 688.980 37.2203   8
   5  -4  -3 682.433 37.0233  14
   5  -4  -3 704.232 45.5224  12
   5  -4  -3 673.019 36.2475  10
   5  -4  -3 745.748 42.0788   1
   5  -4  -3 660.464 59.7073  16
   4  -4  -3 219.343 16.2205  18
   4  -4  -3 232.954 21.9564  12
   4  -4  -3 238.063 18.6191   1
   4  -4  -3 234.903 13.7257  10
   4  -4  -3 225.227 14.2564  14
   4  -4  -3 201.714 15.1942  17
   4  -4  -3 237.018 14.7828   8
   4  -4  -3 252.436 33.4287  16
  -4   4   3 230.079 14.2472   3
  -4   4   3 218.040 19.3364  19
  -4   4   3 212.802 12.6575  20
   3  -4  -3 6356.63 332.791  17
   3  -4  -3 6466.73 336.500   1
   3  -4  -3 6550.33 331.404  14
   3  -4  -3 6847.69 341.525  12
   3  -4  -3 6707.50 333.644  18
   3  -4  -3 6767.39 331.774   8
   2  -4  -3 2631.46 140.747  17
   2  -4  -3 2811.85 140.335   6
  -2   4   3 2648.02 146.091  19
  -2   4   3 3043.04 141.100   3
  -2   4   3 2802.36 138.561  20
  -2   4   3 2539.80 138.116  21
   1  -4  -3 4746.42 240.787  17
   0  -4  -3 110.942 9.20860   6
   0   4   3 123.621 6.87605  13
   0   4   3 114.222 9.67531   3
   0   4   3 113.845 6.65912   9
  -1  -4  -3 342.179 16.7927   9
  -1  -4  -3 328.381 16.7927  13
  -1  -4  -3 304.308 20.9409   3
  -1  -4  -3 359.044 18.1472  21
  -1  -4  -3 348.287 19.1135  20
  -1  -4  -3 274.042 17.5721   2
   1   4   3 315.090 16.6014  13
   1   4   3 315.352 16.6557   9
   1   4   3 276.094 17.6239   2
   1   4   3 327.734 24.8888  19
  -2  -4  -3 1024.59 49.9837  13
  -2  -4  -3 956.099 52.4837  20
  -2  -4  -3 975.379 55.3324   3
  -2  -4  -3 954.691 50.9158   2
  -2  -4  -3 996.968 51.2908  21
  -2  -4  -3 1016.37 49.8692   9
   2   4   3 998.557 50.9445   2
   2   4   3 953.132 49.5188   9
  -3  -4  -3 130.502 6.71423   9
  -3  -4  -3 96.9607 8.66657  20
  -3  -4  -3 121.778 6.81093  13
  -3  -4  -3 111.316 7.83195  21
  -3  -4  -3 108.302 10.1150   3
   3   4   3 131.307 7.49893   2
  -4  -4  -3 321.140 14.8457  13
  -4  -4  -3 296.347 14.8422   9
   4   4   3 256.588 25.2586  16
   5  -5  -3 57.4652 5.50151   8
   5  -5  -3 65.3391 5.28721  14
   5  -5  -3 47.4230 7.20962   1
   5  -5  -3 58.3242 6.89996  18
   5  -5  -3 57.4200 9.79261  12
   4  -5  -3 1056.14 57.0931  18
   4  -5  -3 1011.54 59.4714   1
   4  -5  -3 997.933 53.9181  14
   4  -5  -3 1054.79 54.7456   8
   4  -5  -3 1035.47 63.5248  12
  -4   5   3 1078.30 69.7289  19
  -4   5   3 1034.97 53.2549  21
  -4   5   3 993.850 55.0736   3
  -4   5   3 1026.58 53.1863  20
   3  -5  -3 10.3619 3.17567   6
   3  -5  -3 10.8912 8.44500  12
  -3   5   3 9.62246 5.29661  19
  -3   5   3 11.8686 2.64618  20
  -3   5   3 10.6289 3.26531   3
  -3   5   3 9.89975 2.62427  21
   2  -5  -3 403.007 30.6102  12
   2  -5  -3 438.252 25.0830   8
   2  -5  -3 480.552 29.2366  17
   2  -5  -3 447.957 26.3350   6
   2  -5  -3 396.690 23.0913   2
  -2   5   3 451.386 27.0978   3
  -2   5   3 464.103 32.9281  19
  -2   5   3 414.573 22.6289   9
  -2   5   3 425.438 22.9833  13
  -2   5   3 456.082 24.3791  21
  -2   5   3 468.547 24.7836  20
   1  -5  -3 1715.84 94.7971   2
   1  -5  -3 1926.87 97.6131   6
   1  -5  -3 1810.66 96.3184   8
  -1   5   3 1940.47 96.3682  20
  -1   5   3 1832.48 94.3349  13
  -1   5   3 2012.61 99.4801   3
  -1   5   3 1944.00 95.8418  21
  -1   5   3 1878.59 104.784  19
  -1   5   3 1842.15 94.0785   9
   0  -5  -3 443.865 21.8755   9
   0  -5  -3 418.629 26.9640  17
   0   5   3 416.630 26.4460   3
   0   5   3 450.935 23.5011  21
   0   5   3 408.466 24.0045  20
   0   5   3 398.551 23.0004   2
  -1  -5  -3 8.07046 2.37139   2
  -2  -5  -3 947.952 47.0927   9
  -2  -5  -3 942.491 47.9983   2
  -2  -5  -3 907.235 46.9507  13
  -3  -5  -3 96.5863 5.30697   9
   3   5   3 95.1663 5.73065   2
   5  -6  -3 545.336 32.1906  12
   5  -6  -3 413.462 25.3002  14
   5  -6  -3 476.593 28.8545   1
   5  -6  -3 525.983 27.9891  18
   5  -6  -3 492.501 26.1601   8
   4  -6  -3 738.380 40.7405  18
   4  -6  -3 748.535 42.9924   1
   4  -6  -3 726.099 38.6035   8
   4  -6  -3 735.492 45.2852  12
  -4   6   3 674.712 37.4190  21
  -4   6   3 638.874 45.2015  19
  -4   6   3 803.145 42.8864   3
  -4   6   3 674.256 37.6252  20
   3  -6  -3 3657.93 208.478  12
   3  -6  -3 3660.80 188.293   8
   3  -6  -3 4049.70 191.346  18
  -3   6   3 3800.24 187.459  21
  -3   6   3 3718.33 187.845  20
  -3   6   3 3841.61 190.761   3
  -3   6   3 3337.35 185.560   9
  -3   6   3 3734.40 198.625  19
   2  -6  -3 103.270 6.28129   2
   2  -6  -3 99.1225 8.15790   8
  -2   6   3 88.6902 7.37519  21
  -2   6   3 89.5200 7.65153  20
  -2   6   3 94.0539 6.13725  13
  -2   6   3 94.1236 5.71571   9
  -2   6   3 92.6814 12.8649  19
  -2   6   3 113.400 10.0454   3
   1  -6  -3 474.620 25.8864   2
  -1   6   3 470.314 27.4176  20
  -1   6   3 492.853 25.3268  13
  -1   6   3 507.988 26.8932  21
  -1   6   3 502.160 30.3594   3
  -1   6   3 479.569 25.0614   9
  -1   6   3 476.877 34.7546  19
   0  -6  -3 1184.19 53.2814   2
   0  -6  -3 1006.35 51.1062   9
   0   6   3 970.435 51.3217  13
   0   6   3 904.139 60.5766  19
  -1  -6  -3 90.4025 6.22686   2
  -1  -6  -3 94.1968 5.43119   9
   1   6   3 96.1938 5.46164   9
   1   6   3 96.9703 6.50214   2
  -2  -6  -3 305.978 16.4670   2
  -2  -6  -3 304.858 16.0402   9
   2   6   3 332.598 16.7538   2
   4  -7  -3 22.0505 4.14587   1
   4  -7  -3 17.4738 3.86894  12
  -4   7   3 14.6173 2.35406  21
   3  -7  -3 949.455 54.5814   1
   3  -7  -3 1052.95 53.5038  18
  -3   7   3 983.009 50.5108  21
  -3   7   3 939.103 53.0251   3
  -3   7   3 973.586 49.0214   9
  -3   7   3 956.173 53.3233  20
   2  -7  -3 503.656 25.3888   2
   2  -7  -3 507.580 28.3013  18
  -2   7   3 447.661 27.0829  20
  -2   7   3 530.884 25.0921   9
  -2   7   3 517.280 25.3899  13
  -2   7   3 455.147 29.0624   3
  -2   7   3 468.510 35.9313  19
  -2   7   3 493.053 26.6132  21
   1  -7  -3 140.887 7.74414   2
  -1   7   3 111.037 7.96524  21
  -1   7   3 129.245 7.06183   9
  -1   7   3 126.304 7.15125  13
   0  -7  -3 970.932 48.3539   2
   0   7   3 928.109 47.7124   9
  -1  -7  -3 3.22537 1.01043   2
   3  -8  -3 313.754 17.7651   1
  -3   8   3 308.018 15.8597  13
   2  -8  -3 727.301 39.9823   1
  -2   8   3 763.074 37.6267   9
  -2   8   3 761.916 37.6302  13
  -1   8  -4 842.409 41.0447   9
   1  -8   4 731.404 43.1369   1
   1  -8   4 883.005 41.2006   2
   2  -8   4 62.6587 6.03828   1
   2  -8   4 68.5515 5.49706  14
  -3   8  -4 667.788 29.9845  13
   3  -8   4 523.786 32.1261   1
   1   7  -4 1010.59 52.1702   9
  -1  -7   4 1079.03 52.7952   2
   0   7  -4 187.388 10.8118   2
   0   7  -4 175.699 10.1829   9
   0  -7   4 213.016 10.8908   2
  -1   7  -4 890.865 45.9446  21
  -1   7  -4 900.175 44.8841   9
  -1   7  -4 825.069 48.3893   3
  -1   7  -4 918.278 44.9692  13
   1  -7   4 920.785 45.5238   2
  -2   7  -4 7.22886 3.10109   3
  -2   7  -4 10.1622 2.93591  20
  -2   7  -4 7.89788 4.88260  19
  -3   7  -4 411.532 21.3688  13
  -3   7  -4 393.079 22.8502  20
  -3   7  -4 397.032 24.5027   3
  -3   7  -4 414.627 22.3400  21
  -3   7  -4 434.912 21.1268   9
   3  -7   4 429.855 26.9117   1
   3  -7   4 424.895 24.0060  14
  -4   7  -4 1477.90 74.0947  21
   4  -7   4 1546.36 77.9816   1
   4  -7   4 1368.63 75.0900  14
   4  -7   4 1474.58 74.3995  18
   2   6  -4 229.688 12.2297   2
  -2  -6   4 211.874 12.0622   2
  -2  -6   4 224.709 11.5370   9
   1   6  -4 871.649 44.5480   2
   1   6  -4 867.091 43.4483   9
  -1  -6   4 838.263 43.4745   9
  -1  -6   4 873.542 44.3920   2
   0   6  -4 30.7011 7.04395  19
   0   6  -4 33.9074 3.74543   2
   0  -6   4 29.4174 2.64783   9
  -1   6  -4 3004.01 146.998   9
  -1   6  -4 3016.56 155.481   3
  -1   6  -4 2727.74 158.795  19
  -1   6  -4 2902.62 149.167  20
  -1   6  -4 2995.83 148.450  21
  -1   6  -4 2959.46 147.158  13
   1  -6   4 3006.63 147.760   2
  -2   6  -4 426.824 22.8009   9
  -2   6  -4 467.178 25.0885  20
  -2   6  -4 454.697 24.3493  21
  -2   6  -4 453.597 23.1110  13
   2  -6   4 421.296 25.1853  18
   2  -6   4 446.754 23.3541   2
  -3   6  -4 285.147 16.7678   9
  -3   6  -4 332.804 18.8347  20
  -3   6  -4 334.210 18.3359  21
  -3   6  -4 339.778 21.0060   3
   3  -6   4 344.795 24.0537   1
  -4   6  -4 1021.14 55.6570   3
  -4   6  -4 1042.91 53.5626  21
  -4   6  -4 1020.05 53.8915  20
  -4   6  -4 1050.61 52.6901  13
   4  -6   4 1133.41 55.4182  18
   4  -6   4 1025.66 53.8198  10
   4  -6   4 1069.37 59.1271   1
   4  -6   4 1006.17 55.8801  14
   5  -6   4 107.856 7.15927  18
   5  -6   4 91.0079 7.40192  14
   5  -6   4 94.2311 6.53491  10
   5  -6   4 99.5125 9.03758   1
   3   5  -4 485.500 24.3139   2
  -3  -5   4 472.138 23.7931   9
  -3  -5   4 446.029 23.7669  13
   2   5  -4 378.740 19.5673   9
   2   5  -4 396.340 20.8243   2
  -2  -5   4 387.338 19.8195  13
  -2  -5   4 369.072 19.7976   9
  -2  -5   4 389.954 20.7287   2
  -2  -5   4 381.587 22.6136  21
   1   5  -4 727.609 39.1371   2
   1   5  -4 734.435 37.9514  13
   1   5  -4 746.893 38.0028   9
  -1  -5   4 775.349 38.0782   9
  -1  -5   4 761.250 43.0294   6
  -1  -5   4 743.888 39.0879   2
  -1  -5   4 767.887 38.0098  13
   0   5  -4 1180.70 57.0547   9
   0   5  -4 1107.47 58.9209  20
   0   5  -4 1171.66 61.2551   3
   0   5  -4 1069.81 58.0690   2
   0   5  -4 1170.85 58.2940  21
   0   5  -4 1074.88 66.4045  19
   0   5  -4 1159.54 57.1372  13
   0  -5   4 1114.77 56.9191   9
   0  -5   4 1171.42 61.3130   6
   0  -5   4 1112.95 57.9081   2
  -1   5  -4 1684.45 89.0812   3
  -1   5  -4 1809.77 86.4224  21
  -1   5  -4 1611.92 84.9507   9
  -1   5  -4 1690.59 85.1645  13
  -1   5  -4 1839.22 87.1237  20
   1  -5   4 1683.03 89.4682   6
   1  -5   4 1561.83 85.5956   2
  -2   5  -4 3220.84 150.242   3
  -2   5  -4 2829.93 145.788  13
  -2   5  -4 3180.44 147.688  20
  -2   5  -4 2792.92 145.580   9
  -2   5  -4 2986.11 146.968  21
   2  -5   4 2738.51 146.000   2
   2  -5   4 2698.54 147.331   8
   2  -5   4 2791.49 148.528  18
   2  -5   4 3029.56 150.846   6
  -3   5  -4 311.409 17.9325  21
  -3   5  -4 336.632 20.2940   3
  -3   5  -4 339.671 18.4469  20
   3  -5   4 354.762 21.2856  18
   3  -5   4 298.123 17.3191  15
   3  -5   4 324.767 21.7964   6
   3  -5   4 344.526 23.9148   1
   3  -5   4 278.447 26.5505  12
  -4   5  -4 402.912 23.2905  20
  -4   5  -4 408.151 23.0731  21
  -4   5  -4 433.187 24.9542   3
   4  -5   4 444.096 30.7099  12
   4  -5   4 440.262 25.4603  18
   4  -5   4 473.833 29.5042   1
   4  -5   4 465.435 25.1535  10
   4  -5   4 387.202 25.7646  14
   5  -5   4 791.362 41.3089  10
   5  -5   4 814.746 42.3411  18
   5  -5   4 707.501 42.3197  14
   5  -5   4 834.416 45.8292   1
   4   4  -4 1699.42 88.5626   8
   4   4  -4 1655.20 103.105  16
  -4  -4   4 1703.69 88.3781  21
  -4  -4   4 1868.35 87.6702  13
  -4  -4   4 1842.07 87.5717   9
   3   4  -4 7.48667 1.92582   2
  -3  -4   4 9.81250 1.80812  13
  -3  -4   4 10.6131 2.72869  21
  -3  -4   4 7.59551 2.98124  20
  -3  -4   4 7.18179 1.45180   9
  -3  -4   4 8.51264 3.19209   3
   2   4  -4 246.899 20.9938   5
   1   4  -4 2078.02 104.155   9
   1   4  -4 1887.30 105.089   2
   1   4  -4 2124.61 111.476   5
   1   4  -4 2076.51 104.124  13
   1   4  -4 2145.50 111.463  19
   1   4  -4 2113.13 105.347  21
  -1  -4   4 2103.96 106.421  20
  -1  -4   4 2130.29 108.660   3
  -1  -4   4 2077.72 104.266  13
  -1  -4   4 2153.85 104.236   9
  -1  -4   4 2040.58 107.307   6
   0   4  -4 16.8489 4.11059   5
   0   4  -4 13.9780 2.49042  21
   0  -4   4 13.0916 2.95956   6
  -1   4  -4 12.0607 2.88479   3
  -1   4  -4 8.56012 2.39267  11
   1  -4   4 8.55537 2.69801   6
  -2   4  -4 3571.49 178.923  21
  -3   4  -4 7.16812 2.38325   3
  -3   4  -4 7.59529 2.12954  20
   3  -4   4 9.21099 5.25476   1
   3  -4   4 8.39370 3.41951  18
   3  -4   4 6.84082 4.60910  12
   3  -4   4 5.77583 1.48312  15
  -4   4  -4 1947.85 96.5498   3
  -4   4  -4 1830.71 94.7173  20
   4  -4   4 1948.73 96.3554  10
   4  -4   4 1647.26 98.2808   6
   4  -4   4 1832.04 94.5684  15
   4  -4   4 1799.34 97.6948  14
   4  -4   4 1879.52 119.793  16
   4  -4   4 2033.54 101.827   1
   4  -4   4 1882.59 104.106  12
   4  -4   4 1960.37 97.5982  18
   5  -4   4 27.8177 4.18441  10
   5  -4   4 29.0893 5.41929  14
   5  -4   4 27.2190 4.72344  18
   5  -4   4 20.1254 6.11885   1
   4   3  -4 230.916 14.7554   8
   4   3  -4 211.351 12.4122   2
   4   3  -4 226.876 27.5193  16
  -4  -3   4 257.760 13.7310  21
  -4  -3   4 219.765 14.4543  20
  -4  -3   4 234.268 16.8630   3
  -4  -3   4 228.692 12.2712   9
  -4  -3   4 262.715 12.6189  13
   3   3  -4 4582.09 231.359   2
   3   3  -4 4199.53 238.440   4
   3   3  -4 4755.68 243.605   5
  -3  -3   4 4696.19 232.171  21
  -3  -3   4 4382.30 230.783  13
  -3  -3   4 4865.49 233.410  20
  -3  -3   4 4709.56 230.704   9
  -3  -3   4 4848.26 236.422   3
   2   3  -4 51.6314 8.76990   5
  -2  -3   4 52.5971 5.05024  20
  -2  -3   4 44.3490 3.82059  13
  -2  -3   4 51.4401 4.46055  21
   1   3  -4 4858.30 230.354  11
   1   3  -4 4650.13 234.933  19
   1   3  -4 4387.20 230.452  20
  -1  -3   4 4432.24 230.171  21
  -1  -3   4 4706.81 231.073  20
   0  -3   4 4051.97 203.069  20
  -1   3  -4 1288.40 68.0074  11
  -1   3  -4 1393.84 67.2668  20
  -1   3  -4 1380.48 68.5797   3
   1  -3   4 1271.91 68.4912   6
   1  -3   4 1300.10 66.4394  15
  -2   3  -4 2728.34 142.651  11
  -2   3  -4 2906.94 142.389   3
  -3   3  -4 274.347 15.8589   3
  -3   3  -4 279.639 15.7353  20
   3  -3   4 287.351 17.5438   6
   3  -3   4 254.261 20.8067  12
   3  -3   4 255.599 17.3317  14
   3  -3   4 303.056 20.1780   1
   3  -3   4 283.300 14.7952  15
  -4   3  -4 2579.31 136.579  20
  -4   3  -4 2639.60 137.339   3
   4  -3   4 2653.13 136.089  15
   4  -3   4 2560.27 142.180  14
   4  -3   4 2509.93 144.630   4
   4  -3   4 2984.70 169.015  16
   4  -3   4 3032.10 144.452   1
   4  -3   4 2791.67 142.193  18
   4  -3   4 2683.36 151.689  12
   5  -3   4 1126.84 58.5782  10
   5  -3   4 1147.21 63.3326   1
   5  -3   4 1096.30 80.6432  16
   5  -3   4 1153.36 59.6652  14
   5  -3   4 1073.70 64.9421   4
   6  -3   4 4.61571 1.93447  10
   5   2  -4 301.813 20.5524   4
   5   2  -4 288.687 28.3539  16
   5   2  -4 273.036 15.4768   8
  -5  -2   4 266.155 17.6739   3
  -5  -2   4 284.400 14.7401  13
  -5  -2   4 288.991 15.6530  21
   4   2  -4 881.897 52.3164   4
   4   2  -4 882.335 68.0222  16
   4   2  -4 742.012 46.1446   8
  -4  -2   4 861.182 44.5541  21
  -4  -2   4 792.047 43.3026  13
  -4  -2   4 862.605 45.5461  20
  -4  -2   4 941.265 48.7605   3
   2   2  -4 1319.54 75.2579   5
  -2  -2   4 1477.14 71.9471   3
  -2  -2   4 1309.93 69.1141  21
  -2  -2   4 1390.54 69.7369  20
  -2  -2   4 1317.41 68.6183   7
  -1   2  -4 610.161 30.2906  20
   1  -2   4 566.453 29.8445  15
   1  -2   4 602.283 31.2629   6
  -3   2  -4 29.3510 2.98475   3
   3  -2   4 28.4871 3.48576   6
  -4   2  -4 160.452 9.72023  20
  -4   2  -4 153.923 10.9018   3
   4  -2   4 148.593 16.5353   4
   4  -2   4 159.419 16.0740  12
   4  -2   4 176.786 12.3895  14
   4  -2   4 165.991 11.9870  18
   4  -2   4 169.090 14.9139   1
   4  -2   4 168.874 11.2827  10
   4  -2   4 172.200 26.7353  16
   4  -2   4 157.658 9.32015  15
  -5   2  -4 576.126 32.2529  20
  -5   2  -4 588.934 34.4380   3
   5  -2   4 625.727 33.5108  10
   5  -2   4 659.759 34.7239  14
   5  -2   4 608.737 41.2741   4
   5  -2   4 635.580 56.3171  16
   6  -2   4 91.8981 9.74479   4
   6  -2   4 84.4226 12.4767  16
   5   1  -4 759.336 58.3722  16
   5   1  -4 718.083 44.3513   4
  -5  -1   4 682.016 39.8772   3
  -5  -1   4 698.782 37.2343  21
   4   1  -4 34.4873 9.83016   5
   4   1  -4 33.4142 8.14719   4
   4   1  -4 43.4346 14.3470  16
   4   1  -4 42.5658 5.65788   8
  -4  -1   4 41.7566 4.69750  20
  -4  -1   4 35.0108 5.58994   3
  -4  -1   4 32.4252 3.02831  13
   3   1  -4 1597.36 93.7111   4
   3   1  -4 1741.11 94.9579   5
  -3  -1   4 1858.22 89.3024   3
  -3  -1   4 1653.75 85.9069   7
  -3  -1   4 1781.85 87.1022  20
  -3  -1   4 1628.00 86.4025  21
   2   1  -4 1212.93 68.8303   5
   2   1  -4 1303.16 65.2567  17
  -2  -1   4 1264.72 63.3818   7
  -2  -1   4 1272.41 65.2935   3
  -2  -1   4 1254.86 63.9787  20
  -1  -1   4 1846.53 92.6349  20
  -1   1  -4 1006.19 51.7605  20
  -1   1  -4 1024.80 51.3460   7
   1  -1   4 1058.10 52.2317   6
  -3   1  -4 2290.81 125.897   3
  -3   1  -4 2440.98 122.083  20
   3  -1   4 2474.03 121.561  15
   3  -1   4 2514.81 129.245   5
  -4   1  -4 12.5607 3.05664   3
   4  -1   4 10.7440 3.62109  10
   4  -1   4 10.6949 10.0001  16
   4  -1   4 9.20022 7.38640   4
   4  -1   4 10.1335 1.69321  15
   4  -1   4 12.4717 7.11197   1
   4  -1   4 12.2584 4.39974  14
  -5   1  -4 760.063 39.2730  21
  -5   1  -4 707.185 39.4603  20
  -5   1  -4 780.762 43.0209   3
   5  -1   4 809.481 49.6406   4
   5  -1   4 713.065 62.6124  16
   5  -1   4 742.792 39.9020  10
   6  -1   4 72.0412 8.31694   4
   6   0  -4 290.271 28.4333  16
   5   0  -4 752.038 41.0243   8
   5   0  -4 835.085 64.5844  16
   5   0  -4 798.624 48.3177   4
  -5   0   4 712.797 39.5453  21
  -5   0   4 731.453 40.1462  20
  -5   0   4 749.401 42.2553   3
   4   0  -4 258.535 31.7444  16
   4   0  -4 248.307 21.5628   4
   4   0  -4 230.359 16.0973   8
  -4   0   4 224.850 13.9964  21
  -4   0   4 265.676 14.7057  20
  -4   0   4 271.979 16.7076   3
   3   0  -4 1164.27 58.0694  17
   3   0  -4 1017.76 62.1412   5
  -3   0   4 1104.75 55.6902  20
  -3   0   4 1085.72 55.1666   7
   2   0  -4 450.872 28.7355   5
   2   0  -4 506.712 26.2942  17
  -2   0   4 484.554 24.6856   7
  -2   0   4 489.694 24.7847  20
   1   0  -4 640.479 29.3122  11
   1   0  -4 550.248 31.5404   5
   1   0  -4 632.144 30.3407  17
  -1   0   4 534.889 29.4346  20
  -1   0   4 546.443 29.3367   7
  -2   0  -4 1246.25 63.1202  11
  -2   0  -4 1229.64 64.1110   3
  -2   0  -4 1156.66 62.8859  20
   2   0   4 1296.62 67.3574   5
   2   0   4 1288.96 62.3905  15
  -3   0  -4 642.603 37.4038   3
  -3   0  -4 645.219 35.4781  21
  -3   0  -4 720.312 36.1127  20
   3   0   4 711.297 34.9719  15
   3   0   4 708.486 48.4879   4
   3   0   4 689.394 42.1629   5
  -4   0  -4 251.126 16.1006   3
  -4   0  -4 226.056 13.8243  20
  -4   0  -4 189.306 14.7452  21
   4   0   4 242.624 22.3261   4
   4   0   4 212.879 13.7071  10
   4   0   4 221.132 34.0728  16
  -5   0  -4 862.690 44.0299  21
  -5   0  -4 846.514 46.6690   3
  -5   0  -4 881.777 43.2667  13
   5   0   4 782.264 66.5818  16
   5   0   4 855.838 52.9510   4
   6  -1  -4 118.140 11.1231   4
   6  -1  -4 103.561 16.8020  16
   5  -1  -4 735.454 57.0600   4
   5  -1  -4 882.077 45.6476   8
   5  -1  -4 932.731 72.7174  16
  -5   1   4 785.722 42.7554  20
  -5   1   4 779.193 44.4742   3
   4  -1  -4 197.324 12.0413  10
   4  -1  -4 190.167 18.6187   5
   4  -1  -4 200.060 14.2619  17
   4  -1  -4 190.566 12.6731  14
   4  -1  -4 200.696 15.5722   1
   4  -1  -4 175.396 17.0977  12
   4  -1  -4 198.745 18.1021   4
   4  -1  -4 196.748 13.2955   8
   4  -1  -4 212.991 28.0161  16
   4  -1  -4 177.193 13.0109  18
  -4   1   4 198.845 12.5295   3
  -4   1   4 188.624 11.0984  20
   3  -1  -4 2502.76 129.858   5
  -3   1   4 2295.41 118.639  20
  -3   1   4 2321.39 118.846   7
   1  -1  -4 261.117 13.1010  11
   1  -1  -4 231.643 13.2445   6
   1  -1  -4 211.709 13.8763   5
   1  -1  -4 273.879 14.2572  17
  -1   1   4 224.076 13.1524  20
  -1   1   4 261.389 15.1305  19
  -1  -1  -4 927.274 48.2029  20
  -1  -1  -4 895.412 49.2719   3
  -1  -1  -4 968.055 48.2679  11
   1   1   4 927.311 47.2135   7
   1   1   4 1007.23 50.5684   5
  -2  -1  -4 22.8752 4.15854   3
  -2  -1  -4 22.5973 2.65635  21
   2   1   4 24.9214 2.05936  15
   2   1   4 24.0895 4.97670   5
  -3  -1  -4 2649.16 134.428  21
  -3  -1  -4 2636.72 133.275   9
  -3  -1  -4 2478.94 133.390  13
  -3  -1  -4 2877.75 135.324  20
  -3  -1  -4 2846.01 138.384   3
   3   1   4 2637.62 133.367  15
   3   1   4 2711.79 141.782   5
   3   1   4 2681.01 144.713   4
   3   1   4 2492.67 133.943   2
  -4  -1  -4 1050.58 55.9980   9
  -4  -1  -4 1111.17 57.6262  21
  -4  -1  -4 1200.80 61.6984   3
  -4  -1  -4 1059.31 56.2345  13
  -4  -1  -4 1109.80 58.4449  20
   4   1   4 1140.43 68.2206   4
  -5  -1  -4 366.161 21.0248  21
  -5  -1  -4 360.903 22.6370   3
  -5  -1  -4 357.768 18.6505  13
   5   1   4 378.402 26.1807   4
   5   1   4 335.233 35.4604  16
   6  -2  -4 54.8258 7.86045   4
   6  -2  -4 48.6795 12.6601  16
   5  -2  -4 1713.51 88.5912   8
   5  -2  -4 1606.43 84.3034  10
   5  -2  -4 1478.97 89.5239  18
   5  -2  -4 1677.25 101.336  12
   5  -2  -4 1715.35 93.7771   4
   5  -2  -4 1716.18 113.961  16
   4  -2  -4 1732.19 91.1572   8
   4  -2  -4 1679.29 96.8311   4
   4  -2  -4 1697.64 91.9426  18
   4  -2  -4 1719.56 90.4487  14
   4  -2  -4 1811.47 89.9843  10
   4  -2  -4 1725.48 98.8578  12
   4  -2  -4 1816.17 94.8776   1
   4  -2  -4 1981.26 117.941  16
   4  -2  -4 1798.05 92.6861  17
  -4   2   4 1686.35 88.6372  20
   3  -2  -4 59.6247 7.73467   5
   3  -2  -4 71.7325 6.59869  17
   3  -2  -4 60.9031 5.60108   6
  -3   2   4 66.3494 3.87026  20
  -3   2   4 55.8943 4.33366   7
  -3   2   4 60.3752 4.33911  11
  -3   2   4 70.9624 7.89100  19
   2  -2  -4 3446.85 169.649  11
  -2   2   4 3311.62 168.859  20
   1  -2  -4 301.829 15.0794   6
   1  -2  -4 250.080 15.7223  17
  -1   2   4 266.337 15.6428   3
  -1   2   4 241.765 14.3857  20
  -1   2   4 278.026 14.4479  11
  -1   2   4 261.555 17.4035  19
   0  -2  -4 4452.86 223.264  20
  -1  -2  -4 2471.13 119.544  20
  -1  -2  -4 2417.92 121.278   3
   1   2   4 2304.92 119.289  11
   1   2   4 2232.38 119.257  20
   1   2   4 2438.41 124.711  19
   1   2   4 2342.28 121.554   5
  -2  -2  -4 15.6686 2.85654  21
  -2  -2  -4 17.5602 3.37602  20
   2   2   4 18.6186 4.73506   5
  -3  -2  -4 1501.84 80.0903   3
  -3  -2  -4 1594.75 77.4714  20
  -3  -2  -4 1388.55 75.0020   9
  -3  -2  -4 1566.78 76.2737  21
   3   2   4 1512.82 86.8814   4
   3   2   4 1334.44 82.2676   5
  -4  -2  -4 155.104 10.1737  21
  -4  -2  -4 150.530 8.19581   9
  -4  -2  -4 149.791 8.47460  13
  -4  -2  -4 146.483 10.6050  20
  -4  -2  -4 136.255 12.0435   3
   4   2   4 139.466 8.19524   2
   4   2   4 153.553 15.9926   4
  -5  -2  -4 263.910 13.2484  13
   5   2   4 257.894 19.9369   4
   5   2   4 246.284 24.1170  16
   6  -3  -4 58.1781 13.2541  16
   6  -3  -4 53.8235 7.19051   4
   5  -3  -4 54.1996 19.2903  16
   5  -3  -4 39.2379 7.67440   4
   5  -3  -4 54.0070 6.19812   8
   5  -3  -4 41.8216 7.18769   1
   4  -3  -4 4174.65 216.764  16
   4  -3  -4 3644.38 183.623   8
   4  -3  -4 3316.42 188.167   4
   4  -3  -4 3644.85 193.141  12
   4  -3  -4 3628.73 184.786   6
   4  -3  -4 3628.64 182.248  10
   4  -3  -4 3609.32 185.085  17
   4  -3  -4 3709.76 187.405   1
   4  -3  -4 3563.13 182.817  14
   4  -3  -4 3428.90 184.822  18
  -4   3   4 3525.04 181.414  20
   3  -3  -4 26.5285 3.74240   6
   3  -3  -4 24.5349 4.22883  17
   3  -3  -4 24.9792 5.17538   5
  -3   3   4 25.2908 5.48681  19
  -3   3   4 23.3748 2.53174  20
   0  -3  -4 3352.85 167.592   3
   0  -3  -4 3236.74 164.991  20
   0   3   4 3254.50 164.611  21
  -1  -3  -4 4049.47 207.093  21
  -1  -3  -4 4100.96 207.900  20
  -1  -3  -4 4186.33 210.352   3
   1   3   4 3901.34 207.618  11
   1   3   4 4429.08 217.361  19
  -2  -3  -4 12.6849 4.15622   3
  -2  -3  -4 10.1440 1.91594   9
  -2  -3  -4 13.9619 3.86342  20
  -2  -3  -4 13.8376 2.12743  13
  -2  -3  -4 13.0615 3.17690  21
   2   3   4 10.6961 1.97108  15
   2   3   4 11.2703 1.67196   9
  -3  -3  -4 592.397 33.3182  20
  -3  -3  -4 610.235 36.0864   3
  -3  -3  -4 572.157 32.0866  21
  -3  -3  -4 621.613 30.6436   9
  -3  -3  -4 585.964 30.7759  13
   3   3   4 586.652 40.8922   4
   3   3   4 613.353 31.4724   2
  -4  -3  -4 836.213 50.2582   3
  -4  -3  -4 966.420 47.0977  21
  -4  -3  -4 924.259 45.7348   9
   6  -4  -4 341.350 22.8590  12
   5  -4  -4 1981.85 106.469  12
   5  -4  -4 1839.03 122.551  16
   5  -4  -4 1790.90 95.4674  10
   5  -4  -4 1912.23 96.9117   8
   5  -4  -4 1828.40 96.2012  14
   5  -4  -4 2011.31 101.000   1
   5  -4  -4 1847.12 98.4682  18
   4  -4  -4 683.239 38.7710   1
   4  -4  -4 583.034 33.5477  14
   4  -4  -4 646.224 57.5121  16
   4  -4  -4 573.361 36.0758  18
   4  -4  -4 617.745 43.2746  12
   4  -4  -4 570.102 32.7346  10
   4  -4  -4 638.587 34.6352   8
   4  -4  -4 654.543 36.6061   6
  -4   4   4 609.549 32.5374  20
  -4   4   4 568.665 39.3256  19
  -4   4   4 694.040 34.9267   3
   3  -4  -4 587.597 35.1616  17
   3  -4  -4 580.140 33.1758  14
   3  -4  -4 617.380 37.8078   1
   3  -4  -4 597.737 41.9841  12
   3  -4  -4 629.187 35.0098   6
   3  -4  -4 597.478 33.8040   8
  -3   4   4 595.107 32.5777  21
  -3   4   4 647.592 40.6967  19
  -3   4   4 622.613 32.6812   7
  -3   4   4 673.424 32.8763  20
  -3   4   4 631.003 34.7679   3
   2  -4  -4 17.1318 4.25900  17
   2  -4  -4 15.3472 3.64300   8
  -2   4   4 12.5688 5.18636  19
  -2   4   4 16.0726 2.96054  20
  -2   4   4 14.7274 2.83696  21
  -2   4   4 11.6770 3.39922   3
   1  -4  -4 5000.17 253.677  17
   0  -4  -4 194.939 12.3766   2
   0  -4  -4 209.821 11.5612   9
   0   4   4 226.528 15.4727   3
   0   4   4 234.470 18.8582  19
   0   4   4 228.654 13.0566  21
   0   4   4 209.453 11.7576  13
   0   4   4 225.665 13.4328  20
   0   4   4 203.345 11.5647   9
  -1  -4  -4 3927.79 196.701  13
  -1  -4  -4 4329.26 196.755   9
  -1  -4  -4 3428.55 198.716  20
  -1  -4  -4 3899.98 197.881  21
  -1  -4  -4 4093.80 202.209   3
  -1  -4  -4 4097.23 197.929   2
   1   4   4 3679.13 196.495  13
   1   4   4 4209.67 196.659   9
   1   4   4 3847.77 207.114  19
   1   4   4 3920.50 197.906   2
  -2  -4  -4 79.8659 5.07628  13
  -2  -4  -4 65.7694 5.65042   2
  -2  -4  -4 82.8579 4.97852   9
  -2  -4  -4 78.5781 7.24000  20
  -2  -4  -4 80.0098 6.28640  21
   2   4   4 70.0513 5.81207   2
   2   4   4 73.2427 4.51638   9
  -3  -4  -4 304.298 16.2910  13
  -3  -4  -4 336.344 16.2952   9
  -3  -4  -4 284.441 20.0693   3
  -3  -4  -4 295.098 17.2993  21
   3   4   4 339.013 17.0522   2
  -4  -4  -4 68.6834 3.65333   9
   4   4   4 63.6861 10.3005  16
   5  -5  -4 372.354 27.8916  12
   5  -5  -4 349.156 22.1383  18
   5  -5  -4 388.064 23.7535   1
   5  -5  -4 328.194 20.1255  14
   5  -5  -4 370.605 20.7048   8
   4  -5  -4 3836.03 190.307  18
   4  -5  -4 3655.05 187.580   8
   4  -5  -4 3796.08 192.110   1
   4  -5  -4 3314.97 188.363  14
   4  -5  -4 3770.94 197.872  12
  -4   5   4 3776.31 188.536   3
  -4   5   4 3838.78 186.278  21
  -4   5   4 3722.59 186.167  20
  -4   5   4 3646.47 196.836  19
   3  -5  -4 79.6301 12.0017  12
   3  -5  -4 75.2664 8.17626  17
   3  -5  -4 85.0604 7.60117   8
  -3   5   4 75.5540 6.37736  21
  -3   5   4 85.0632 6.66699  20
  -3   5   4 98.5538 8.76351   3
  -3   5   4 83.9219 11.7899  19
   2  -5  -4 580.947 40.4637  12
   2  -5  -4 623.845 35.1856   6
   2  -5  -4 603.559 33.9324   8
   2  -5  -4 587.059 32.0110   2
   2  -5  -4 593.655 36.2672  17
  -2   5   4 655.129 33.7637  20
  -2   5   4 608.347 31.5012   9
  -2   5   4 591.654 31.8168  13
  -2   5   4 665.392 36.6739   3
  -2   5   4 666.156 33.4227  21
   1  -5  -4 1750.47 92.0195   6
   1  -5  -4 1615.26 89.6050   2
   1  -5  -4 1555.80 93.7949  17
   1  -5  -4 1663.27 90.9799   8
  -1   5   4 1889.05 90.8328  21
  -1   5   4 1743.18 89.1347  13
  -1   5   4 1869.63 91.3775  20
  -1   5   4 1888.22 94.5592   3
  -1   5   4 1979.40 104.697  19
  -1   5   4 1766.86 88.8638   9
   0  -5  -4 4.46185 2.98684  17
   0  -5  -4 8.47765 2.43030   2
   0   5   4 3.60570 2.68511  20
   0   5   4 5.55761 1.51724  13
   0   5   4 7.40190 5.24397  19
   0   5   4 8.68704 1.56370   9
   0   5   4 6.47480 3.58567   3
  -1  -5  -4 637.169 32.0211   9
  -1  -5  -4 623.838 33.1467   2
   1   5   4 616.038 33.2658   2
   1   5   4 628.839 31.9584   9
  -2  -5  -4 614.783 31.7354   2
  -2  -5  -4 599.668 30.7857  13
  -2  -5  -4 594.292 30.6869   9
  -3  -5  -4 279.467 14.3213   9
   5  -6  -4 36.6814 4.85098  18
   5  -6  -4 36.1029 3.80443   8
   5  -6  -4 29.1393 4.45054   1
   5  -6  -4 35.9150 6.78674  12
   4  -6  -4 1662.14 85.8379  18
   4  -6  -4 1510.71 83.3381   8
   4  -6  -4 1666.04 90.9957  12
   4  -6  -4 1611.72 86.9574   1
  -4   6   4 1581.37 82.7078  20
  -4   6   4 1697.45 81.6441  13
  -4   6   4 1635.64 82.5248  21
  -4   6   4 1603.43 84.8268   3
   3  -6  -4 518.142 36.4804  12
  -3   6   4 589.091 30.2044  21
  -3   6   4 565.093 33.1386   3
  -3   6   4 574.018 39.2508  19
  -3   6   4 521.430 28.1190   9
  -3   6   4 548.102 28.5881  13
   2  -6  -4 4.48044 1.36764   2
  -2   6   4 6.34566 5.18020  19
  -2   6   4 3.89672 1.39031  13
  -2   6   4 4.22521 2.14452  21
  -2   6   4 4.26935 2.29537  20
  -2   6   4 3.97700 1.21894   9
  -2   6   4 4.57265 3.08712   3
   1  -6  -4 1404.19 69.5741   2
  -1   6   4 1334.88 68.9021  13
  -1   6   4 1381.93 68.6586   9
  -1   6   4 1378.55 81.7203  19
  -1   6   4 1313.79 70.2678  21
  -1   6   4 1368.88 74.1732   3
   0  -6  -4 292.647 15.1216   9
   0  -6  -4 308.909 16.4409   2
   0   6   4 281.010 15.2782  13
   0   6   4 311.520 15.4182   9
   0   6   4 257.451 23.4298  19
   0   6   4 296.541 16.5224   2
  -1  -6  -4 964.440 50.1503   9
  -1  -6  -4 1041.39 50.6877   2
   1   6   4 1029.23 50.8300   2
   1   6   4 917.799 50.1328   9
  -2  -6  -4 335.830 18.4486   9
   2   6   4 390.623 19.2534   2
   4  -7  -4 237.207 16.2825  12
   4  -7  -4 261.465 15.4967  18
   4  -7  -4 236.858 15.6759   1
  -4   7   4 256.760 13.8600  21
   3  -7  -4 1741.49 86.3622   1
  -3   7   4 1563.12 79.8285  13
  -3   7   4 1534.30 80.8189  21
  -3   7   4 1557.90 79.3357   9
  -3   7   4 1537.70 83.5468   3
   2  -7  -4 254.658 15.9305  18
  -2   7   4 221.680 16.2676   3
  -2   7   4 238.696 12.8153  13
  -2   7   4 224.596 13.8955  21
  -2   7   4 250.642 12.6394   9
   1  -7  -4 741.306 36.5285   2
  -1   7   4 715.189 38.6603  21
  -1   7   4 668.361 35.8584   9
   0  -7  -4 223.835 12.4609   2
   0   7   4 225.610 12.6840   2
   0   7   4 236.146 11.9210   9
   2  -8  -4 8.45006 2.14251   1
  -1   8  -5 12.8512 1.17365   9
  -2   8  -5 185.521 9.25638  13
   2  -8   5 180.629 10.3959  14
   2  -8   5 166.798 11.2780   1
  -3   8  -5 755.012 34.9710  13
   3  -8   5 689.395 36.9773   1
   3  -8   5 646.789 36.2851  14
   1   7  -5 123.578 7.39971   2
  -1  -7   5 113.642 6.81682   2
   0   7  -5 1229.39 133.664   2
   0  -7   5 1351.60 66.4305   2
  -1   7  -5 274.959 18.7827   3
  -1   7  -5 312.054 15.7767   9
  -1   7  -5 304.835 16.7285  21
  -1   7  -5 314.149 15.8073  13
   1  -7   5 315.522 16.3775   2
  -2   7  -5 102.916 13.5543  19
  -2   7  -5 113.025 5.98805   9
  -2   7  -5 98.3573 8.94164   3
  -2   7  -5 109.661 6.15221  13
  -2   7  -5 112.756 7.22967  21
   2  -7   5 104.857 6.30963   2
  -3   7  -5 1036.88 56.7802   3
  -3   7  -5 1088.73 54.4549  21
  -3   7  -5 1086.57 53.2197   9
   3  -7   5 1115.54 59.0594   1
   3  -7   5 980.807 55.9784  14
  -4   7  -5 284.253 14.8606  21
  -4   7  -5 300.265 14.7789  13
   4  -7   5 275.213 17.5533   1
   4  -7   5 240.440 15.9043  14
   2   6  -5 556.535 28.8201   2
  -2  -6   5 545.574 28.1526   9
  -2  -6   5 570.229 28.8138   2
   1   6  -5 149.480 9.08428   2
   1   6  -5 146.817 8.05410   9
  -1  -6   5 144.984 8.93092   2
  -1  -6   5 156.323 8.11030   9
   0   6  -5 712.147 37.3898  13
   0   6  -5 760.227 37.4305   9
   0   6  -5 722.640 38.3485  21
   0   6  -5 751.525 54.9193  19
   0  -6   5 746.255 38.3188   2
  -1   6  -5 1135.49 64.5690   3
  -1   6  -5 1222.54 59.4905  21
  -1   6  -5 1149.13 57.9300   9
  -1   6  -5 1085.84 69.5075  19
  -1   6  -5 1149.37 58.0984  13
  -1   6  -5 1142.26 60.2026  20
   1  -6   5 1174.14 58.7325   2
  -2   6  -5 42.7585 3.29532  13
  -2   6  -5 46.3490 3.02991   9
  -2   6  -5 40.4945 4.75086  20
  -2   6  -5 40.3476 4.47144  21
  -2   6  -5 42.5218 6.05241   3
   2  -6   5 44.6871 3.50129   2
  -3   6  -5 759.352 36.9718  21
  -3   6  -5 641.764 35.2391   9
  -3   6  -5 744.262 39.8264   3
  -3   6  -5 711.096 35.6135  13
   3  -6   5 660.144 44.7764   1
   3  -6   5 708.022 37.9435  18
   3  -6   5 666.769 36.7768  10
  -4   6  -5 1195.19 60.3347  13
  -4   6  -5 1205.01 63.3322   3
  -4   6  -5 1175.39 61.2077  21
   4  -6   5 1234.14 62.1305  10
   4  -6   5 1047.63 63.2598  14
   4  -6   5 1259.06 62.6802  18
   4  -6   5 1289.46 66.4918   1
   5  -6   5 120.446 9.47507   1
   5  -6   5 106.664 8.04406  14
   5  -6   5 112.710 6.96656  10
   3   5  -5 87.9437 14.5256  16
   3   5  -5 106.920 6.21460   2
  -3  -5   5 108.614 5.75685   9
  -3  -5   5 110.623 5.70917  13
   2   5  -5 632.646 33.3631   2
   2   5  -5 625.138 32.1180   9
  -2  -5   5 662.960 32.3698  13
  -2  -5   5 621.867 33.2316   2
  -2  -5   5 643.654 32.3759   9
   1   5  -5 63.5303 5.12684   2
   1   5  -5 70.3418 4.17487   9
  -1  -5   5 59.4165 6.95390   6
  -1  -5   5 67.2597 5.13335   2
  -1  -5   5 63.7885 4.10377  13
  -1  -5   5 78.7919 4.30696   9
   0   5  -5 21.0290 6.22236  19
   0   5  -5 22.4919 2.95000   2
   0   5  -5 22.7015 3.63094  20
   0   5  -5 27.3724 4.66288   3
   0   5  -5 29.7150 2.45862  13
   0   5  -5 24.6974 3.32278  21
   0  -5   5 28.2193 2.19761   9
   0  -5   5 28.1778 4.71823   6
  -1   5  -5 3738.97 183.410   3
  -1   5  -5 3670.94 180.882  20
  -1   5  -5 3509.51 178.967  13
  -1   5  -5 3353.80 178.756   9
  -1   5  -5 3765.98 180.230  21
   1  -5   5 3360.95 179.405   2
   1  -5   5 3705.78 183.995   6
  -2   5  -5 27.1088 2.66982  13
  -2   5  -5 31.6263 3.92242  20
  -2   5  -5 24.9129 2.21234   9
  -2   5  -5 25.5171 4.63024   3
   2  -5   5 28.8684 4.37301  18
   2  -5   5 29.8662 5.08291   6
   2  -5   5 25.2731 2.58193  15
   2  -5   5 21.6386 2.45992   2
  -3   5  -5 1014.96 50.4267  20
  -3   5  -5 1023.62 52.6995   3
   3  -5   5 1009.13 55.9856   1
   3  -5   5 928.337 50.8320  10
   3  -5   5 865.188 55.8790  12
   3  -5   5 949.153 51.6921  18
  -4   5  -5 87.9419 7.74689   3
  -4   5  -5 94.4957 6.43450  21
   4  -5   5 106.220 10.7502  14
   4  -5   5 96.1875 12.7577   1
   5  -5   5 59.5880 6.46351  14
   5  -5   5 61.7213 8.17996   1
   4   4  -5 1739.53 107.191  16
   4   4  -5 1862.15 98.8832   8
  -4  -4   5 1946.69 98.0043  21
  -4  -4   5 2084.17 97.1211   9
  -4  -4   5 2099.24 97.2069  13
   3   4  -5 20.0648 2.50426   2
  -3  -4   5 19.3564 3.74996  20
  -3  -4   5 25.1345 3.38808  21
  -3  -4   5 21.0581 2.07857   9
  -3  -4   5 22.5842 2.30463  13
  -3  -4   5 18.4951 4.11629   3
   2   4  -5 2596.76 133.336   9
   2   4  -5 2643.37 144.488   5
   2   4  -5 2726.31 134.546   2
  -2  -4   5 2713.64 133.658  13
  -2  -4   5 2477.51 136.921   6
  -2  -4   5 2726.92 138.091  21
  -2  -4   5 2557.72 136.007  20
  -2  -4   5 2754.17 138.865   3
  -2  -4   5 2737.60 135.000   2
  -2  -4   5 2799.67 133.571   9
   1   4  -5 1263.25 70.2294   5
   1   4  -5 1185.27 63.4612   2
   1   4  -5 1240.10 62.4596   9
  -1  -4   5 1294.53 62.5542   9
  -1  -4   5 1254.95 65.9370   6
  -1  -4   5 1359.20 64.2814  21
  -1  -4   5 1074.39 63.7370   2
  -1  -4   5 1289.90 67.0510   3
  -1  -4   5 1228.66 62.5649  13
  -1  -4   5 1260.04 64.8408  20
   0   4  -5 904.952 59.9296   5
   0   4  -5 964.082 50.8060   3
   0   4  -5 983.512 49.0347  20
   0   4  -5 968.162 48.4189  21
   0   4  -5 892.610 49.3299  11
   0  -4   5 933.180 50.6244   6
  -1   4  -5 216.232 14.4819  11
  -1   4  -5 227.803 13.2079  21
  -1   4  -5 241.613 13.6593  20
  -1   4  -5 241.624 15.1685   3
   1  -4   5 242.562 15.5162   6
   1  -4   5 235.025 12.4257  15
  -2   4  -5 1383.31 74.5500  21
  -2   4  -5 1523.03 75.0481  20
  -2   4  -5 1519.04 76.7956   3
   2  -4   5 1511.05 77.9583   6
   2  -4   5 1422.31 74.0189  15
  -3   4  -5 1241.14 62.4815   3
  -3   4  -5 1164.27 61.0258  21
  -3   4  -5 1239.20 60.7289  20
   3  -4   5 1268.02 66.4037   1
   3  -4   5 1145.14 59.9833  15
   3  -4   5 1142.43 62.4313  18
   3  -4   5 1086.49 67.2746  12
  -4   4  -5 3820.27 201.078   3
  -4   4  -5 3653.92 199.575  20
   4  -4   5 4248.02 206.243   1
   4  -4   5 3934.85 202.647  14
   4  -4   5 3997.22 208.797  12
   4  -4   5 4226.15 201.496  10
   4  -4   5 4021.06 202.096  18
   5  -4   5 30.9701 4.52066  10
   5  -4   5 31.8881 5.35074  14
   5  -4   5 33.9422 6.49389   1
   6  -4   5 615.333 31.8947  10
   4   3  -5 1140.07 76.8119  16
   4   3  -5 1039.16 59.4266   8
   4   3  -5 1196.73 57.6384   2
  -4  -3   5 1110.85 61.5177   3
  -4  -3   5 1106.24 59.9911  20
  -4  -3   5 1146.46 58.3379  21
  -4  -3   5 1172.62 57.2129  13
  -4  -3   5 1159.44 56.9997   9
   3   3  -5 628.436 33.1407   2
   3   3  -5 545.184 39.4480   4
   3   3  -5 609.757 44.0998   5
  -3  -3   5 704.987 35.3732  20
  -3  -3   5 646.871 37.6529   3
  -3  -3   5 673.870 32.5035   9
  -3  -3   5 673.102 34.0296  21
  -3  -3   5 614.772 32.6066  13
   2   3  -5 498.381 27.4344   2
   2   3  -5 464.822 26.7786   9
   2   3  -5 530.620 35.1239   5
  -2  -3   5 489.811 26.7666  13
  -2  -3   5 584.695 31.8513   3
  -2  -3   5 500.685 26.6640   9
  -2  -3   5 557.147 28.9558  20
  -2  -3   5 558.691 28.0088  21
   1   3  -5 1415.54 75.5476   5
   1   3  -5 1303.63 71.3658  19
   1   3  -5 1322.41 67.2599  11
   1   3  -5 1236.73 67.4751  20
  -1  -3   5 1345.53 70.0149   3
  -1  -3   5 1300.83 67.3101  21
  -1  -3   5 1357.98 68.1267  20
   0   3  -5 683.984 36.1359  20
   0   3  -5 713.111 37.5981   3
   0  -3   5 683.564 36.4904  20
   0  -3   5 708.177 37.5648   6
  -1   3  -5 2919.36 147.360  11
  -2   3  -5 1903.38 101.129  11
  -2   3  -5 1951.78 100.662   3
  -2   3  -5 2000.53 99.4507  20
   2  -3   5 1936.60 98.9102  15
   2  -3   5 2086.50 101.871   6
  -3   3  -5 773.515 39.0537  20
  -3   3  -5 770.332 40.2777   3
   3  -3   5 724.621 40.9171  18
   3  -3   5 737.823 41.6777  14
   3  -3   5 737.580 41.5282   6
   3  -3   5 782.771 38.7361  15
   3  -3   5 811.487 44.2221   1
   3  -3   5 718.042 45.7352  12
  -4   3  -5 691.147 36.9122  20
  -4   3  -5 641.944 37.8609   3
   4  -3   5 713.447 42.7866   1
   4  -3   5 723.887 39.6449  14
   4  -3   5 735.645 38.6869  10
   4  -3   5 752.566 36.8656  15
   4  -3   5 765.447 56.4535   4
   4  -3   5 729.615 39.3469  18
   4  -3   5 721.963 45.2633  12
   4  -3   5 601.103 73.5405  16
  -5   3  -5 848.141 46.6485   3
   5  -3   5 933.878 47.4776  14
   5  -3   5 887.704 46.5531  10
   5  -3   5 869.065 50.3094   1
   5  -3   5 823.269 63.3851  16
   5  -3   5 890.202 53.3983   4
   5   2  -5 42.6904 4.33753   8
   5   2  -5 44.7445 7.33893   4
   4   2  -5 395.543 27.3825   8
   4   2  -5 439.259 34.0465   4
   4   2  -5 493.978 45.1871  16
  -4  -2   5 462.563 28.6959   3
  -4  -2   5 489.910 26.4541  20
  -4  -2   5 502.616 25.4538  21
   3   2  -5 3330.76 176.729   4
   3   2  -5 3481.53 179.202   5
   3   2  -5 3345.13 168.017   2
  -3  -2   5 3773.11 172.963   3
  -3  -2   5 3038.37 167.538  13
  -3  -2   5 3188.48 168.688  21
  -3  -2   5 3407.38 169.673  20
  -3  -2   5 3299.26 167.457   9
   2   2  -5 1042.75 60.0495   5
  -2  -2   5 982.089 53.3117  21
  -2  -2   5 1034.41 52.9114   7
  -2  -2   5 1064.00 53.9978  20
  -2  -2   5 1098.53 56.0265   3
   1   2  -5 5859.89 292.360  20
   0  -2   5 3959.07 198.049  20
  -2   2  -5 651.157 30.6809  20
  -2   2  -5 567.078 31.3688   3
  -2   2  -5 540.114 29.9672   7
   2  -2   5 614.039 32.0764   6
   2  -2   5 608.919 30.3146  15
  -3   2  -5 2311.77 116.987   3
  -3   2  -5 2218.02 118.131  11
   3  -2   5 2302.20 117.364   6
   3  -2   5 2405.37 115.738  15
  -4   2  -5 1176.96 62.8531   3
   4  -2   5 1175.85 86.0776  16
   4  -2   5 1124.15 60.5413  15
   4  -2   5 1297.32 66.0304  18
   4  -2   5 1192.29 70.0395   1
  -5   2  -5 449.649 29.6094   3
  -5   2  -5 408.851 23.7052  20
  -5   2  -5 394.459 23.6442  21
   5  -2   5 443.007 43.0699  16
   5  -2   5 477.247 33.3247   4
   5  -2   5 447.419 24.9042  10
   5  -2   5 475.859 25.8719  14
   6  -2   5 337.262 21.9446   4
   5   1  -5 34.9989 11.5288  16
   5   1  -5 43.0823 8.44084   4
  -5  -1   5 36.9133 3.63304  21
  -5  -1   5 36.4019 5.49845  20
  -5  -1   5 30.8802 4.73746   3
   4   1  -5 68.7113 16.4389  16
   4   1  -5 72.9331 7.38719   8
   3   1  -5 1789.41 100.041   5
   3   1  -5 1656.23 98.3972   4
  -3  -1   5 2010.25 94.4446   3
  -3  -1   5 1855.63 91.9422  20
  -3  -1   5 1774.97 91.3071  21
  -3  -1   5 1754.81 90.8200   7
   2   1  -5 103.070 10.6027   5
   2   1  -5 100.832 7.59909  17
  -2  -1   5 91.2379 6.46452  20
  -2  -1   5 116.775 6.11547   7
  -2  -1   5 112.721 7.87098   3
   0   1  -5 2083.19 104.251  20
  -1   1  -5 49.4393 2.68408   7
  -1   1  -5 43.7723 3.22520  20
   1  -1   5 52.8953 3.60705   6
   1  -1   5 47.0626 2.88382  15
   2  -1   5 87.8641 5.55255   6
   2  -1   5 87.0952 5.07724  15
  -3   1  -5 67.3133 4.94582  20
  -3   1  -5 65.7376 5.81541   3
  -3   1  -5 59.6803 4.86798  21
   3  -1   5 71.4432 4.35767  15
  -4   1  -5 1673.25 83.8838  20
  -4   1  -5 1586.22 85.7169   3
  -4   1  -5 1553.19 83.1503  21
   4  -1   5 1649.13 95.2243   4
   4  -1   5 1613.85 82.7288  15
   4  -1   5 1718.22 85.9044  14
   4  -1   5 1689.65 84.9396  10
  -5   1  -5 1002.81 51.0773  21
  -5   1  -5 926.476 51.2785  20
  -5   1  -5 1044.63 54.5010   3
   5  -1   5 1067.87 61.9181   4
   5  -1   5 979.050 51.5363  10
   5  -1   5 911.284 72.0220  16
   6  -1   5 5.23669 2.92193   4
   6   0  -5 702.908 52.7266  16
   6   0  -5 965.065 49.7708   4
   5   0  -5 292.148 18.3070   8
   5   0  -5 320.863 24.6172   4
   5   0  -5 321.893 35.0474  16
  -5   0   5 300.110 17.4665  20
  -5   0   5 289.447 16.7893  21
  -5   0   5 297.398 19.2850   3
   4   0  -5 2465.93 144.249  16
   4   0  -5 2180.33 128.581   4
   4   0  -5 2103.32 119.198   8
   4   0  -5 2359.08 129.080   5
  -4   0   5 2185.96 116.977  21
  -4   0   5 2433.96 117.927  20
  -4   0   5 2526.67 120.180   3
  -3   0   5 4293.64 212.015   7
  -3   0   5 4201.54 213.960   3
   2   0  -5 645.650 36.6291   5
   2   0  -5 638.786 33.4719  17
  -2   0   5 597.434 32.7424   3
  -2   0   5 612.839 31.7662   7
   0   0  -5 38.5416 3.21535  17
   0   0  -5 37.3612 2.57722  11
   0   0   5 33.6189 2.27944   7
  -1   0  -5 892.518 44.1838  11
  -1   0  -5 841.449 44.0598  20
   1   0   5 868.523 43.6391  15
  -2   0  -5 3066.02 155.004   3
  -3   0  -5 648.899 35.4325  21
  -3   0  -5 672.113 36.0460  20
  -3   0  -5 684.180 37.8187   3
   3   0   5 682.387 45.3598   4
   3   0   5 708.594 34.9585  15
   3   0   5 699.776 42.3867   5
  -4   0  -5 17.7035 3.00289  21
  -4   0  -5 17.2882 2.18469  13
  -4   0  -5 18.3316 4.16795   3
  -4   0  -5 22.4421 3.76635  20
   4   0   5 14.6605 7.58960   4
   4   0   5 22.7508 13.0012  16
  -5   0  -5 1401.47 67.9390  13
  -5   0  -5 1396.05 71.9108   3
  -5   0  -5 1253.68 69.4038  20
  -5   0  -5 1351.43 68.9896  21
   5   0   5 1454.02 79.1692   4
   5   0   5 1242.20 89.9783  16
   6  -1  -5 1053.28 57.9077   4
   6  -1  -5 1011.48 68.3097  16
   5  -1  -5 1122.46 94.9449  16
   5  -1  -5 1270.73 64.5042   8
  -5   1   5 1168.76 62.4523  20
  -5   1   5 1307.68 64.7439   3
   4  -1  -5 481.027 33.1807   4
   4  -1  -5 403.304 26.7870  18
   4  -1  -5 426.140 32.1252  12
   4  -1  -5 487.474 34.5792   5
   4  -1  -5 447.783 27.2846   8
   4  -1  -5 487.188 26.0105  10
   4  -1  -5 458.259 26.5996  14
   4  -1  -5 506.953 45.9781  16
   4  -1  -5 483.748 28.7037  17
   4  -1  -5 536.159 30.1239   1
  -4   1   5 519.920 28.0335   3
  -4   1   5 466.028 25.2729  20
   3  -1  -5 1279.95 62.5174  17
   3  -1  -5 1168.93 66.2043   5
  -3   1   5 1166.77 59.4601  20
  -3   1   5 1129.81 59.5481   7
  -3   1   5 1139.66 60.3351   3
   2  -1  -5 84.9033 6.52112  17
   2  -1  -5 62.3930 7.33308   5
   2  -1  -5 74.8013 4.63618  11
   2  -1  -5 64.8258 5.33641   6
  -2   1   5 70.2952 4.57397   7
  -2   1   5 80.5138 6.97467  19
  -2   1   5 77.9184 4.49587  20
   1  -1  -5 609.309 35.2400   5
   1  -1  -5 668.437 34.3349   6
   1  -1  -5 751.041 34.2605  11
  -1   1   5 679.346 36.1917  19
  -1   1   5 666.571 33.7437  11
  -1   1   5 634.624 34.0773  20
  -1   1   5 637.834 33.5644   7
   0  -1  -5 5206.59 259.728  20
  -1  -1  -5 1.05494 0.66041  11
  -1  -1  -5 1.05582 1.24505  20
  -1  -1  -5 1.87519 1.59060   3
  -2  -1  -5 2913.66 142.929  20
  -2  -1  -5 2706.27 144.557   3
   2   1   5 2792.02 147.025   5
   2   1   5 2928.63 141.753  15
  -3  -1  -5 611.862 31.6681  20
  -3  -1  -5 570.309 33.7461   3
  -3  -1  -5 590.154 30.8740  21
  -3  -1  -5 581.330 29.7145   9
  -3  -1  -5 551.399 29.7348  13
   3   1   5 539.268 30.0958   2
   3   1   5 601.343 29.8559  15
   3   1   5 584.455 40.4559   4
  -4  -1  -5 530.439 29.1169  21
  -4  -1  -5 497.895 27.7017  13
  -4  -1  -5 535.585 29.9660  20
  -4  -1  -5 555.464 32.7450   3
   4   1   5 564.862 39.3156   4
  -5  -1  -5 231.322 12.9461  21
  -5  -1  -5 218.649 15.0288   3
  -5  -1  -5 237.980 12.0529  13
   5   1   5 209.131 24.9150  16
   5   1   5 237.736 18.7744   4
   6  -2  -5 51.5793 12.3586  16
   6  -2  -5 47.9455 7.40346   4
   6  -2  -5 39.0393 3.75169   8
   5  -2  -5 4243.64 216.762  18
   5  -2  -5 4127.40 240.806  16
   4  -2  -5 6.42481 2.85909   8
   4  -2  -5 5.28407 2.53877  18
   4  -2  -5 9.66714 4.25543   1
   4  -2  -5 5.27093 2.88724  17
   4  -2  -5 4.29780 2.41915  14
  -4   2   5 5.56911 1.68405   3
  -3   2   5 5778.84 287.324  11
  -3   2   5 5326.08 287.810   3
  -3   2   5 5426.04 287.134  20
  -3   2   5 6186.43 287.659   7
  -3   2   5 6074.62 292.944  19
   2  -2  -5 459.502 24.4746  17
   2  -2  -5 393.933 23.0454   6
   2  -2  -5 414.979 22.7621  11
   2  -2  -5 363.339 23.7529   5
  -2   2   5 418.863 22.1455  11
  -2   2   5 477.280 26.8874  19
  -2   2   5 409.437 21.8876   7
  -2   2   5 427.488 22.2162  20
  -1   2   5 3167.75 161.188   3
   0  -2  -5 2014.85 102.894  20
   0  -2  -5 2007.81 102.635   6
   0   2   5 1982.52 104.613   3
   0   2   5 2158.23 103.141  20
  -1  -2  -5 1649.53 80.0798  20
  -1  -2  -5 1534.64 79.4597  21
  -1  -2  -5 1621.13 81.9904   3
   1   2   5 1493.38 79.8008  11
   1   2   5 1545.80 85.4255  19
  -2  -2  -5 780.964 39.8333  13
  -2  -2  -5 779.335 41.1440  21
  -2  -2  -5 828.429 41.6521  20
  -2  -2  -5 824.368 44.1274   3
   2   2   5 701.283 39.7635  15
   2   2   5 775.061 45.1178   5
   2   2   5 774.899 40.4836   2
  -3  -2  -5 4409.16 217.797   3
  -3  -2  -5 4239.86 211.731   9
  -3  -2  -5 4070.46 211.899  13
  -3  -2  -5 4253.11 214.364  20
   3   2   5 4223.11 212.541   2
   3   2   5 4279.72 223.594   4
  -4  -2  -5 192.986 14.4303   3
  -4  -2  -5 190.021 10.4040  13
  -4  -2  -5 176.608 11.5359  21
  -4  -2  -5 172.928 12.3276  20
  -4  -2  -5 192.098 10.1342   9
   4   2   5 174.517 10.0279   2
   4   2   5 211.811 18.6846   4
  -5  -2  -5 730.999 33.5912  13
   5   2   5 603.639 42.5143  16
   6  -3  -5 168.496 21.1215  16
   6  -3  -5 154.678 12.3151   4
   6  -3  -5 138.910 9.00736   8
   5  -3  -5 280.311 16.8959  14
   5  -3  -5 251.236 17.8587  18
   5  -3  -5 281.988 24.3185  12
   5  -3  -5 287.439 17.5335   8
   5  -3  -5 316.264 20.2760   1
   5  -3  -5 298.128 36.7580  16
   5  -3  -5 266.871 21.2520   4
   4  -3  -5 567.035 39.9477  12
   4  -3  -5 513.903 30.5928  18
   4  -3  -5 529.266 32.0831   1
   4  -3  -5 541.403 28.4596  14
   4  -3  -5 535.013 31.0139  17
   4  -3  -5 523.469 30.2045   6
   4  -3  -5 510.755 27.7572  10
   4  -3  -5 520.618 29.8367   8
   4  -3  -5 461.878 33.1637   4
  -4   3   5 479.453 28.8080   3
  -4   3   5 490.085 27.2763  20
   3  -3  -5 1892.32 106.202   8
   3  -3  -5 1986.41 114.926  12
   3  -3  -5 2082.03 108.837  18
   3  -3  -5 2141.04 108.318  17
   3  -3  -5 2143.23 107.228   6
   3  -3  -5 2356.61 131.393  16
  -3   3   5 2038.65 105.575  11
  -3   3   5 1916.15 105.196  20
  -3   3   5 2313.19 120.428  19
  -3   3   5 2027.84 105.052   7
  -3   3   5 1998.48 106.801   3
   2  -3  -5 375.207 21.0580   6
  -2   3   5 352.848 19.8966  11
  -2   3   5 378.435 20.0344  20
  -2   3   5 323.526 23.6005   3
  -2   3   5 389.557 24.8136  19
   1  -3  -5 2107.77 103.792  17
   1  -3  -5 2024.32 101.974   6
  -1   3   5 2063.72 101.569  20
  -1   3   5 1879.03 101.231  21
  -1   3   5 1936.75 101.295  11
  -1   3   5 2006.93 103.564   3
   0  -3  -5 4937.61 253.540   3
   0  -3  -5 5107.72 251.725  20
  -1  -3  -5 1322.80 67.4258  21
  -1  -3  -5 1310.90 70.5063   3
  -1  -3  -5 1346.75 68.2375  20
   1   3   5 1287.10 74.6958  19
  -2  -3  -5 599.209 32.2321  20
  -2  -3  -5 569.497 29.7739  13
  -2  -3  -5 587.538 34.8229   3
  -2  -3  -5 490.475 31.2597   2
  -2  -3  -5 597.184 31.2687  21
  -2  -3  -5 605.074 29.6507   9
   2   3   5 585.440 30.7415   2
   2   3   5 583.913 29.3857   9
  -3  -3  -5 25.6152 5.22637   3
  -3  -3  -5 31.4852 3.59077   9
  -3  -3  -5 31.4594 2.96953  13
  -3  -3  -5 33.6282 6.76301  20
   3   3   5 29.9515 3.35938   2
   3   3   5 25.3240 7.49998   4
  -4  -3  -5 439.414 21.9815   9
  -4  -3  -5 472.787 22.1891  13
  -4  -3  -5 381.474 25.5013   3
   6  -4  -5 125.538 9.04150   8
   6  -4  -5 137.767 12.8186  12
   5  -4  -5 1429.91 77.0820   8
   5  -4  -5 1477.73 76.2270  14
   5  -4  -5 1436.84 78.4092  18
   5  -4  -5 1549.73 86.7418  12
   5  -4  -5 1544.25 80.1141   1
   4  -4  -5 116.994 8.17780  10
   4  -4  -5 130.802 16.4093  12
   4  -4  -5 128.325 10.5755   6
   4  -4  -5 144.065 12.3483   1
   4  -4  -5 120.441 8.66948  14
   4  -4  -5 128.785 9.93182   8
   4  -4  -5 121.175 11.2425  18
   4  -4  -5 111.620 10.5653  17
  -4   4   5 131.224 8.24638  20
   3  -4  -5 962.285 52.2551   6
   3  -4  -5 937.369 60.3958  12
   3  -4  -5 900.321 51.1017   8
   3  -4  -5 1023.03 55.1859   1
  -3   4   5 939.371 49.9916   7
  -3   4   5 972.859 57.7795  19
  -3   4   5 1001.73 50.3570  20
  -3   4   5 977.612 52.7369   3
   2  -4  -5 4605.38 225.095  17
   2  -4  -5 4099.72 221.653   8
  -2   4   5 4521.40 221.280  21
   1  -4  -5 767.906 40.7761   6
   1  -4  -5 692.740 39.0795   2
   1  -4  -5 791.250 43.0482  17
  -1   4   5 712.696 39.8618  21
  -1   4   5 769.794 40.4499  20
  -1   4   5 835.068 43.2762   3
  -1   4   5 736.918 46.3299  19
   0  -4  -5 172.580 10.7385   9
   0  -4  -5 179.396 11.8617   2
   0  -4  -5 173.484 13.2598  17
   0   4   5 183.411 11.8195  20
   0   4   5 198.940 10.4256   9
   0   4   5 196.766 14.0825   3
   0   4   5 169.776 10.4574  13
   0   4   5 181.522 11.4273  21
   0   4   5 165.560 11.1377   2
   0   4   5 190.067 16.9722  19
  -1  -4  -5 774.058 43.2752  21
  -1  -4  -5 875.873 43.5802   2
  -1  -4  -5 945.178 42.3888   9
  -1  -4  -5 803.240 42.2337  13
  -1  -4  -5 722.362 46.5080   3
   1   4   5 765.004 42.0192  13
   1   4   5 848.332 43.6165   2
   1   4   5 912.342 42.2840   9
   1   4   5 847.529 52.6619  19
  -2  -4  -5 117.061 11.1506   3
  -2  -4  -5 115.131 9.50693  20
  -2  -4  -5 134.038 8.39394   2
  -2  -4  -5 136.094 7.36028   9
  -2  -4  -5 125.021 7.34748  13
  -2  -4  -5 121.126 8.47984  21
   2   4   5 135.808 8.56314   2
   2   4   5 117.136 6.88109   9
  -3  -4  -5 1080.28 53.1492   9
  -3  -4  -5 1026.66 59.6918   3
  -3  -4  -5 1052.07 54.1202  21
  -3  -4  -5 1062.97 53.1525  13
   6  -5  -5 51.4869 6.39091  12
   5  -5  -5 993.899 59.5802   1
   5  -5  -5 1230.30 65.4549  12
   5  -5  -5 1056.60 57.4175  18
   5  -5  -5 1112.28 56.0743   8
   5  -5  -5 963.927 54.6273  14
   4  -5  -5 1749.44 96.7599  12
   4  -5  -5 1601.36 87.7762  18
   4  -5  -5 1471.87 85.1457   8
   4  -5  -5 1722.53 89.9138   1
  -4   5   5 1762.73 84.4108  21
  -4   5   5 1567.02 92.2269  19
  -4   5   5 1663.76 86.6875   3
   3  -5  -5 213.330 16.4452   1
   3  -5  -5 185.826 13.8103   6
   3  -5  -5 176.872 12.8553   8
   3  -5  -5 191.645 19.6712  12
  -3   5   5 173.890 10.6575  13
  -3   5   5 180.051 18.2417  19
  -3   5   5 211.416 14.9181   3
  -3   5   5 194.884 12.3812  20
   2  -5  -5 2151.22 111.650   2
   2  -5  -5 2372.96 115.600   8
   2  -5  -5 2127.29 121.841  12
   2  -5  -5 1973.71 116.283  17
   2  -5  -5 2298.92 115.012   6
  -2   5   5 2197.50 111.423  13
  -2   5   5 2198.16 111.038   9
  -2   5   5 2307.24 116.862   3
  -2   5   5 2287.77 122.519  19
  -2   5   5 2278.83 113.040  21
   1  -5  -5 134.243 8.74969   2
   1  -5  -5 138.785 9.97114   8
   1  -5  -5 139.056 12.3528  17
   1  -5  -5 130.967 10.0831   6
  -1   5   5 141.236 7.89617   9
  -1   5   5 136.531 15.1492  19
  -1   5   5 136.507 9.71348  21
  -1   5   5 141.332 12.2703   3
  -1   5   5 139.605 10.1368  20
  -1   5   5 129.481 8.26741  13
   0  -5  -5 323.088 16.0980   9
   0  -5  -5 307.544 17.2575   2
   0   5   5 319.220 25.5162  19
   0   5   5 285.087 17.3363   2
   0   5   5 327.165 16.2304   9
   0   5   5 292.045 20.6574   3
   0   5   5 286.647 18.3378  20
   0   5   5 303.123 16.3206  13
  -1  -5  -5 932.023 48.0885   2
  -1  -5  -5 926.794 46.9026   9
   1   5   5 922.258 48.2300   2
   1   5   5 924.746 46.8664   9
  -2  -5  -5 20.3668 2.63081   2
  -2  -5  -5 22.0408 2.16642   9
   2   5   5 22.0094 3.03536   2
  -3  -5  -5 665.253 34.2696   9
   3   5   5 700.498 34.5560   2
   5  -6  -5 388.905 22.3319   8
   5  -6  -5 418.179 24.6907   1
   5  -6  -5 390.003 23.5078  18
   5  -6  -5 458.154 28.0757  12
   4  -6  -5 1864.47 100.191   1
   4  -6  -5 1893.92 99.8633  18
   4  -6  -5 1732.05 97.4073   8
   4  -6  -5 1993.29 105.685  12
  -4   6   5 1960.21 96.8355  21
  -4   6   5 1964.65 99.4636   3
  -4   6   5 1935.09 95.6483  13
   3  -6  -5 37.3446 7.69403  12
   3  -6  -5 31.9387 6.54355  18
   3  -6  -5 35.9066 5.09069   8
   3  -6  -5 37.3435 6.44422   1
  -3   6   5 35.3116 3.18282  13
  -3   6   5 34.1253 4.53288  21
  -3   6   5 36.4619 2.62672   9
  -3   6   5 34.0505 7.76287  19
  -3   6   5 39.5885 5.94904   3
  -3   6   5 33.1097 4.36645  20
   2  -6  -5 989.651 66.6449  12
   2  -6  -5 1138.91 60.2559   8
   2  -6  -5 1198.57 58.6598   2
  -2   6   5 1187.04 63.7956   3
  -2   6   5 1184.88 60.0186  21
  -2   6   5 1286.52 73.7557  19
  -2   6   5 1172.29 58.3814  13
  -2   6   5 1013.81 58.1626   9
  -2   6   5 1170.54 60.5618  20
   1  -6  -5 260.609 15.0651   2
  -1   6   5 272.551 15.7816  21
  -1   6   5 231.463 18.2368   3
  -1   6   5 260.801 22.7384  19
  -1   6   5 264.423 14.7228   9
  -1   6   5 278.497 14.6381  13
   0  -6  -5 731.534 39.3470   9
   0  -6  -5 857.220 40.8284   2
   0   6   5 842.519 39.7401   9
   0   6   5 811.862 40.9121   2
   0   6   5 779.300 39.5268  13
   0   6   5 666.213 48.6099  19
  -1  -6  -5 380.303 20.2848   9
  -1  -6  -5 436.477 23.3926   2
   1   6   5 377.342 20.3444   9
  -2  -6  -5 261.883 13.7471   9
   2   6   5 281.658 14.3790   2
   4  -7  -5 894.273 46.9624  18
   4  -7  -5 814.525 47.3280   1
  -4   7   5 906.671 45.4908  21
  -4   7   5 926.431 44.6339  13
   3  -7  -5 67.1143 7.27598   1
   3  -7  -5 87.7048 7.86446  18
  -3   7   5 85.3495 4.66206   9
  -3   7   5 86.4985 6.23923  21
  -3   7   5 67.5763 7.48109   3
  -3   7   5 87.4823 5.10559  13
   2  -7  -5 1317.75 67.2826   2
  -2   7   5 1354.47 67.3856  13
  -2   7   5 1236.46 71.2397   3
  -2   7   5 1547.39 68.0922   9
  -2   7   5 1240.78 68.4229  21
   1  -7  -5 710.989 36.0340   2
  -1   7   5 614.327 36.0377  21
  -1   7   5 805.109 36.2833   9
  -1   7   5 670.104 35.3914  13
   0  -7  -5 1.50454 0.95070   2
   0   7   5 1.93926 0.82618   9
   0   7   5 1.17764 0.85887   2
  -1   8  -6 9.68362 0.97643   9
  -2   8  -6 1391.81 61.5444   9
  -2   8  -6 1281.08 61.5165  13
   2  -8   6 1087.83 62.4382  14
   2  -8   6 1169.68 63.3526   1
   1   7  -6 561.055 25.4631   2
  -1  -7   6 423.055 25.9554   2
   0   7  -6 331.513 18.0635   2
   0   7  -6 362.865 17.9719   9
   0  -7   6 321.544 18.5187   2
  -1   7  -6 114.329 7.77883  21
  -1   7  -6 127.244 7.04125  13
  -1   7  -6 136.453 7.06671   9
  -1   7  -6 118.300 9.74106   3
   1  -7   6 147.814 7.76153   2
  -2   7  -6 558.957 32.7472   3
  -2   7  -6 526.661 30.9477  20
  -2   7  -6 577.125 29.2879  13
  -2   7  -6 581.680 30.3463  21
  -2   7  -6 582.530 29.1335   9
   2  -7   6 608.870 29.6284   2
   2  -7   6 588.937 34.2052   1
  -3   7  -6 1884.44 93.5390   9
  -3   7  -6 1843.11 96.9741   3
  -3   7  -6 1903.79 93.9434  13
  -3   7  -6 1828.48 94.6691  21
   3  -7   6 1911.10 98.4675   1
  -4   7  -6 190.024 9.32282  13
  -4   7  -6 176.223 9.95518  21
   4  -7   6 178.707 12.1779   1
   4  -7   6 168.846 11.2099  14
   2   6  -6 49.7379 3.77591   2
  -2  -6   6 59.2870 3.30458   9
  -2  -6   6 55.4251 4.72958   2
   1   6  -6 46.5187 3.92351   2
   1   6  -6 50.4548 3.04875   9
  -1  -6   6 39.1802 2.97940   9
  -1  -6   6 50.8894 3.95630   2
   0   6  -6 1372.43 73.4984  21
   0   6  -6 1474.81 73.3671   9
   0   6  -6 1491.60 74.2723   2
   0  -6   6 1357.10 72.9197   9
   0  -6   6 1550.79 73.9850   2
  -1   6  -6 1017.82 52.4822  21
  -1   6  -6 980.811 53.2862  20
  -1   6  -6 1006.17 51.1814  13
  -1   6  -6 1034.03 51.0617   9
  -1   6  -6 1069.64 55.9468   3
  -1   6  -6 901.907 61.9709  19
   1  -6   6 1079.64 51.9314   2
  -2   6  -6 1274.90 65.7367  20
  -2   6  -6 1241.33 63.6303  13
  -2   6  -6 1203.18 63.3945   9
  -2   6  -6 1318.23 68.2974   3
  -2   6  -6 1282.01 64.9918  21
   2  -6   6 1256.94 63.9971   2
  -3   6  -6 326.512 18.1409  21
  -3   6  -6 340.019 20.9009   3
  -3   6  -6 318.084 16.8812  13
  -3   6  -6 297.579 16.5546   9
  -3   6  -6 330.666 18.7377  20
   3  -6   6 344.807 22.8065   1
   3  -6   6 311.850 18.3306  10
   3  -6   6 312.189 18.6234  18
  -4   6  -6 134.770 9.45374   3
  -4   6  -6 113.740 7.99665  20
  -4   6  -6 120.933 6.81578  13
  -4   6  -6 115.027 7.61776  21
   4  -6   6 142.035 11.4374   1
   4  -6   6 119.183 10.1045  14
   4  -6   6 119.513 9.80270  18
   5  -6   6 369.961 19.1905  14
   5  -6   6 303.380 17.8479  10
   3   5  -6 470.449 24.6265   2
  -3  -5   6 474.810 24.1478  13
  -3  -5   6 485.205 24.1908   9
   2   5  -6 1223.52 67.2820   9
   2   5  -6 1401.09 68.6253   2
  -2  -5   6 1361.18 67.5799   9
  -2  -5   6 1400.61 68.5597   2
  -2  -5   6 1345.52 67.5611  13
   1   5  -6 271.361 15.5399   2
   1   5  -6 277.985 14.3661   9
  -1  -5   6 266.703 14.3006  13
  -1  -5   6 280.658 14.4273   9
  -1  -5   6 275.828 15.4216   2
   0   5  -6 1149.89 58.6218  13
   0   5  -6 1239.99 58.9204   9
   0   5  -6 1104.55 59.5568   2
   0   5  -6 1154.32 59.6128  21
   0   5  -6 1110.83 60.4163  20
   0   5  -6 1186.07 62.7184   3
   0  -5   6 1150.70 58.3578   9
   0  -5   6 1204.48 59.7622   2
   0  -5   6 1155.64 63.1818   6
  -1   5  -6 288.837 19.0561   3
  -1   5  -6 287.981 15.2779  13
  -1   5  -6 311.467 17.2116  20
  -1   5  -6 264.272 15.0192   9
  -1   5  -6 329.346 16.7534  21
   1  -5   6 254.556 15.6486   2
   1  -5   6 283.361 19.6137   6
  -2   5  -6 303.398 19.6907   3
  -2   5  -6 331.347 17.2927  21
  -2   5  -6 301.509 15.9823  13
  -2   5  -6 267.154 15.6419   9
  -2   5  -6 340.411 18.2794  20
   2  -5   6 310.285 21.0435   6
   2  -5   6 262.949 16.1302   2
   2  -5   6 304.260 16.2401  15
  -3   5  -6 2540.21 125.542  21
  -3   5  -6 2621.95 128.455   3
  -3   5  -6 2637.92 126.178  20
  -3   5  -6 2384.62 124.342  13
   3  -5   6 2362.35 124.875  15
   3  -5   6 2648.29 131.510   1
   3  -5   6 2311.40 130.113   6
   3  -5   6 2387.49 126.960  18
  -4   5  -6 73.2803 6.64855   3
  -4   5  -6 63.0578 5.35719  20
   4  -5   6 69.9046 6.79270  18
   4  -5   6 71.1773 6.83407  10
   4  -5   6 79.8882 8.99501   1
   4  -5   6 73.5224 8.38295  14
   5  -5   6 1420.72 78.7518  10
   5  -5   6 1666.65 82.6286  14
   5  -5   6 1541.26 81.8402   1
   4   4  -6 572.749 42.1652  16
  -4  -4   6 732.596 33.9427   9
  -4  -4   6 738.333 34.0466  13
  -4  -4   6 653.942 34.9702  21
  -3  -4   6 37.2099 4.65020  20
  -3  -4   6 31.2098 5.01611   3
   2   4  -6 3301.82 162.951   2
   2   4  -6 3058.21 161.624   9
  -2  -4   6 3138.46 164.551  20
  -2  -4   6 3174.41 161.984  13
  -2  -4   6 3301.97 161.897   9
  -2  -4   6 3459.18 164.304  21
  -2  -4   6 3259.41 167.199   3
  -2  -4   6 3263.71 162.983   2
   1   4  -6 507.645 27.4484  13
   1   4  -6 527.514 28.5268   2
   1   4  -6 559.927 35.6417   5
   1   4  -6 530.743 27.4674   9
  -1  -4   6 539.883 27.6127  13
  -1  -4   6 538.693 28.4652   2
  -1  -4   6 548.972 27.5508   9
  -1  -4   6 556.408 28.7955  21
  -1  -4   6 530.031 29.8272  20
  -1  -4   6 563.349 31.9712   3
   0   4  -6 2286.83 112.953   3
   0   4  -6 2225.87 116.154   5
   0   4  -6 2242.58 109.334  13
   0   4  -6 2118.07 111.458  11
   0   4  -6 2063.83 109.191   9
   0   4  -6 2296.51 110.365  21
   0  -4   6 1930.01 109.943   2
   0  -4   6 2333.25 113.332   6
  -1   4  -6 1556.70 79.1480   3
  -1   4  -6 1499.18 76.6754  21
  -1   4  -6 1512.53 77.1553  20
   1  -4   6 1525.78 79.6463   6
   1  -4   6 1462.78 75.8096  15
  -2   4  -6 1090.06 58.1545  21
  -2   4  -6 1150.03 58.6469  20
  -2   4  -6 1179.01 60.5016   3
   2  -4   6 1166.19 61.8230   6
   2  -4   6 1116.16 57.6318  15
  -3   4  -6 1901.46 97.0432  21
  -3   4  -6 1994.57 99.3702   3
  -3   4  -6 2048.49 97.5987  20
   3  -4   6 1919.79 96.7031  15
   3  -4   6 2071.55 103.038   1
   3  -4   6 1824.88 104.222  12
   3  -4   6 1726.74 100.510   6
   3  -4   6 1877.92 98.9147  18
  -4   4  -6 698.682 40.4018   3
  -4   4  -6 659.879 37.3715  21
   4  -4   6 746.789 43.3455   1
   4  -4   6 743.009 39.9713  18
   4  -4   6 747.367 40.8362  14
   4  -4   6 751.654 39.7878  10
   5  -4   6 15.9795 4.32105  14
   5  -4   6 10.6949 4.47740   1
   5  -4   6 9.77878 3.46635  10
   4   3  -6 348.305 26.9010   4
   4   3  -6 380.365 34.7101  16
   4   3  -6 384.276 22.3722   8
  -4  -3   6 397.602 19.7814   9
  -4  -3   6 392.408 19.9314  13
  -4  -3   6 376.173 23.9845   3
  -4  -3   6 410.679 21.2120  21
   3   3  -6 112.172 6.87555   2
  -3  -3   6 118.241 6.26488   9
  -3  -3   6 98.4610 8.40368  20
  -3  -3   6 103.983 10.1706   3
  -3  -3   6 101.932 7.55397  21
   2   3  -6 409.731 23.0051   9
   2   3  -6 463.072 32.3731   5
   2   3  -6 408.222 23.9478   2
  -2  -3   6 430.785 23.2202   9
  -2  -3   6 443.844 23.3971  13
  -2  -3   6 495.593 24.6626  21
  -2  -3   6 500.621 25.6935  20
  -2  -3   6 480.254 28.6562   3
   1   3  -6 1621.29 86.9965   5
   1   3  -6 1494.86 80.6980  20
   1   3  -6 1570.30 80.4446  11
  -1  -3   6 1603.08 81.3971  20
  -1  -3   6 1589.67 80.5779  21
  -1  -3   6 1663.04 83.4515   3
   0  -3   6 7078.78 368.170   3
   0  -3   6 7529.32 365.034  20
  -1   3  -6 5505.79 275.226  21
  -2   3  -6 135.136 7.78898  20
  -2   3  -6 119.346 7.44358  21
  -2   3  -6 120.425 9.11809  11
  -2   3  -6 121.916 8.70101   3
   2  -3   6 122.386 10.6141   6
   2  -3   6 131.853 7.15792  15
  -3   3  -6 649.334 34.1517  21
  -3   3  -6 672.301 35.8817   3
  -3   3  -6 700.357 34.5138  20
   3  -3   6 685.992 34.0144  15
   3  -3   6 598.477 36.4904   6
   3  -3   6 680.268 37.1050  14
   3  -3   6 630.706 40.8667  12
  -4   3  -6 282.662 15.9112  20
   4  -3   6 262.406 23.2424   4
   4  -3   6 289.449 17.7139  10
   4  -3   6 277.477 17.7814  18
   4  -3   6 285.228 15.5610  15
   4  -3   6 255.185 30.9402  16
   4  -3   6 293.965 20.9697   1
   4  -3   6 301.877 18.5183  14
  -5   3  -6 304.183 18.0153   3
  -5   3  -6 262.322 16.8167  20
   5  -3   6 317.796 20.8967   1
   5  -3   6 281.412 17.5290  10
   5  -3   6 308.969 18.2217  14
   5  -3   6 290.660 23.4647   4
   6  -3   6 959.200 48.7946  10
   5   2  -6 284.513 26.4495  16
   5   2  -6 321.946 21.4400   4
  -5  -2   6 305.725 16.7546  21
  -5  -2   6 325.968 15.8783  13
  -5  -2   6 294.247 22.8290   3
   4   2  -6 149.392 8.49836   2
   4   2  -6 144.604 28.1301  16
  -4  -2   6 158.555 11.3680  20
  -4  -2   6 141.376 8.44636   9
  -4  -2   6 168.542 10.0085  21
  -4  -2   6 154.808 12.6905   3
   3   2  -6 223.085 11.7346   2
   3   2  -6 232.576 21.1986   5
   3   2  -6 206.064 18.5140   4
  -3  -2   6 185.928 11.2025  13
  -3  -2   6 193.911 13.0533  20
  -3  -2   6 238.554 15.7541   3
  -3  -2   6 178.179 12.2160  21
  -3  -2   6 208.472 11.1166   9
   2   2  -6 652.441 41.5929   5
  -2  -2   6 681.501 37.3989   3
  -2  -2   6 661.899 34.4545   7
  -2  -2   6 684.915 34.9049  21
   1   2  -6 8737.96 435.476  20
   0   2  -6 125.028 7.04919  20
   0  -2   6 114.928 6.07685  15
   0  -2   6 106.569 7.71032  20
  -2   2  -6 50.8308 4.60045   3
   2  -2   6 54.0028 4.86838   6
   2  -2   6 61.7831 3.65316  15
  -3   2  -6 1805.63 96.2756   3
  -3   2  -6 1766.32 95.2652  20
   3  -2   6 2041.78 99.4188  14
   3  -2   6 2111.50 104.484   1
   3  -2   6 1960.95 94.8331  15
   3  -2   6 1783.55 95.9655   6
   3  -2   6 1737.06 96.7257  18
  -4   2  -6 2056.23 107.319  21
  -4   2  -6 2146.82 109.891   3
  -4   2  -6 2175.07 107.946  20
   4  -2   6 2077.69 119.254   4
   4  -2   6 2057.65 138.368  16
   4  -2   6 2139.39 113.292   1
   4  -2   6 2223.61 109.999  14
   4  -2   6 2088.25 109.184  10
   4  -2   6 2217.70 107.598  15
  -5   2  -6 3.95554 1.56506  21
  -5   2  -6 2.46946 1.97818  20
  -5   2  -6 3.04785 2.00602   3
   5  -2   6 3.48042 3.01915  14
   5  -2   6 2.73911 3.83607   4
   5  -2   6 2.61621 6.13503  16
   5   1  -6 245.627 19.8786   4
   5   1  -6 215.337 14.9116   8
   5   1  -6 246.028 27.1804  16
  -5  -1   6 272.217 12.5920  13
  -5  -1   6 221.749 14.2557  20
  -5  -1   6 217.915 15.7019   3
  -5  -1   6 235.364 13.5397  21
   4   1  -6 4436.03 237.486  16
   4   1  -6 4172.79 219.514   4
   4   1  -6 4233.70 212.285   8
  -4  -1   6 3711.51 208.753  13
  -4  -1   6 4463.85 213.976   3
  -4  -1   6 4290.02 211.044  20
  -4  -1   6 4006.62 209.964  21
   3   1  -6 6.93438 4.65818   4
   3   1  -6 6.26197 1.46080   2
  -3  -1   6 6.57420 2.81943   3
  -3  -1   6 7.43972 1.65928   7
   2   1  -6 2820.48 134.499  17
   2   1  -6 2547.53 139.114   5
  -2  -1   6 2616.23 132.979  20
  -2  -1   6 2668.55 132.398   7
  -2  -1   6 2578.90 134.436   3
   1   1  -6 842.987 37.6142  11
   1   1  -6 734.333 38.5510  17
   1   1  -6 724.603 41.8761   5
  -1  -1   6 712.201 40.0618   3
  -1  -1   6 705.202 38.1667  20
   0   1  -6 2385.63 119.612  17
   0   1  -6 2402.58 119.711  20
   0  -1   6 2384.18 120.187  20
  -2   1  -6 2834.93 141.296  20
  -2   1  -6 2912.11 142.233   3
   2  -1   6 2705.08 141.132   6
  -3   1  -6 1215.96 60.7568  20
  -3   1  -6 1113.57 60.1685  21
  -3   1  -6 1226.18 62.4915   3
   3  -1   6 1260.34 60.1543  15
   3  -1   6 1149.55 70.7632   4
   3  -1   6 1153.48 66.5360   1
  -4   1  -6 1436.16 74.2505  20
  -4   1  -6 1463.13 76.4396   3
   4  -1   6 1470.12 101.196  16
   4  -1   6 1406.20 74.6985  10
   4  -1   6 1482.68 86.4781   4
   4  -1   6 1402.31 75.1012  14
  -5   1  -6 14.0944 1.92898  13
  -5   1  -6 11.2489 3.10400   3
   5  -1   6 11.8912 7.39850   4
   5  -1   6 14.8683 8.68872  16
   5  -1   6 12.9828 3.56643  10
   6   0  -6 434.155 33.4560  16
   6   0  -6 510.223 29.1276   4
   5   0  -6 19.2634 9.49001  16
  -5   0   6 14.1574 3.46479   3
  -5   0   6 14.2358 2.89190  20
   4   0  -6 2265.01 154.185  16
   4   0  -6 1983.49 116.235   5
  -4   0   6 1920.91 104.203  21
  -4   0   6 2095.15 107.227   3
   3   0  -6 99.7431 12.1372   5
   3   0  -6 106.638 8.69723  17
  -3   0   6 97.1492 6.55918  21
  -3   0   6 105.560 7.33576  20
  -3   0   6 110.477 6.96448   7
  -3   0   6 95.8218 7.58633   3
   2   0  -6 135.531 8.78416  17
   2   0  -6 114.159 11.0556   5
  -2   0   6 130.473 7.22989  20
  -2   0   6 110.338 7.83473   3
  -2   0   6 113.402 6.88141   7
   1   0  -6 1451.49 67.0507  17
   1   0  -6 1115.36 72.8920   5
  -1   0   6 1315.60 65.6104   7
  -1   0   6 1345.83 66.0947  20
  -2   0  -6 2288.84 116.767  20
  -2   0  -6 2351.97 118.278   3
   2   0   6 2317.18 116.060  15
  -3   0  -6 1061.04 57.3703  20
  -3   0  -6 1092.49 58.9342  21
  -3   0  -6 1162.30 59.6173   3
   3   0   6 1127.83 56.2846  15
   3   0   6 1091.41 59.2561  14
   3   0   6 1125.86 67.9994   4
   3   0   6 1100.04 56.3335   2
  -4   0  -6 561.939 37.0094   3
  -4   0  -6 529.117 28.8122  13
  -4   0  -6 560.582 30.0594  21
  -4   0  -6 563.730 30.8416  20
   4   0   6 592.839 41.7904   4
   4   0   6 523.038 30.2212  10
   4   0   6 596.174 55.3686  16
  -5   0  -6 78.5242 4.77059  13
  -5   0  -6 76.7816 5.76884  21
  -5   0  -6 73.5502 7.28413   3
   5   0   6 84.9366 12.3818   4
   5   0   6 68.8566 14.4387  16
   6  -1  -6 2121.38 106.667   4
   6  -1  -6 1896.94 115.661  16
   5  -1  -6 156.412 15.7260   4
   5  -1  -6 128.046 10.1045   8
   5  -1  -6 143.436 23.0110  16
  -5   1   6 137.384 10.2124   3
  -5   1   6 120.823 8.65793  20
  -5   1   6 120.804 8.46406  21
   4  -1  -6 621.562 38.6049  18
   4  -1  -6 642.671 44.6493  12
   4  -1  -6 791.859 59.9620  16
   4  -1  -6 696.836 47.0669   5
   4  -1  -6 793.969 41.4157  17
   4  -1  -6 689.625 45.1670   4
   4  -1  -6 690.302 40.9454   1
  -4   1   6 724.246 39.0332   3
  -4   1   6 778.403 37.5778  20
   3  -1  -6 2330.10 130.836   5
   3  -1  -6 2546.49 127.146  17
  -3   1   6 2377.99 124.069  20
  -3   1   6 2763.27 124.736   7
  -3   1   6 2343.06 126.282   3
   2  -1  -6 1433.99 68.7552  17
   2  -1  -6 1313.54 66.5445  11
   2  -1  -6 1234.66 70.2801   5
  -2   1   6 1234.32 66.0654  11
  -2   1   6 1356.46 66.3820   7
  -2   1   6 1269.33 68.6343  19
  -2   1   6 1368.84 66.5343  20
   0   1   6 3.51617 1.47585  20
   0   1   6 6.66012 1.34669  11
   0   1   6 4.34016 0.94344   7
   0   1   6 5.90068 3.21119  19
  -1  -1  -6 284.413 17.6809   3
  -1  -1  -6 300.361 16.5250  20
   1   1   6 310.591 15.2013   7
  -3  -1  -6 2.36942 1.06766  13
  -3  -1  -6 0.40660 1.52451  21
  -3  -1  -6 1.70115 0.97120   9
  -3  -1  -6 0.91043 1.95646  20
   3   1   6 1.88825 1.50165  15
   3   1   6 1.78828 1.07214   2
   3   1   6 1.06900 2.82094   4
  -4  -1  -6 1643.17 85.2615   3
  -4  -1  -6 1595.33 81.2791  21
  -4  -1  -6 1531.96 80.1914  13
  -4  -1  -6 1577.75 79.6411   9
  -5  -1  -6 260.431 12.8900  13
  -5  -1  -6 258.707 13.7774  21
   5   1   6 219.252 23.8107  16
   5   1   6 242.250 18.7243   4
   6  -2  -6 38.3281 3.87414   8
   6  -2  -6 44.5262 6.88598   4
   6  -2  -6 46.3857 10.9103  16
   5  -2  -6 1578.91 87.4569  18
   5  -2  -6 1734.11 122.205  16
   5  -2  -6 1760.70 88.8323   8
   5  -2  -6 1690.94 94.9713  12
   5  -2  -6 1836.66 95.2838   4
  -5   2   6 1559.30 86.1167  20
  -5   2   6 1719.45 88.1622   3
   4  -2  -6 1174.82 62.0424  17
   4  -2  -6 1207.88 62.5888   1
   4  -2  -6 1092.14 67.8618  12
   4  -2  -6 1048.54 59.7024   8
   4  -2  -6 1141.33 66.8789   5
   4  -2  -6 1129.36 58.9835  14
   4  -2  -6 1111.18 58.3767  10
   4  -2  -6 1054.24 60.2772  18
   4  -2  -6 1293.77 85.3191  16
   4  -2  -6 1107.97 65.7350   4
  -4   2   6 1114.27 59.2494   3
  -4   2   6 1097.96 57.9266  20
   3  -2  -6 1230.15 60.8327  17
   3  -2  -6 1123.67 59.2870   6
   3  -2  -6 1099.99 62.7230   5
  -3   2   6 1111.77 57.4284  20
  -3   2   6 1065.26 57.0550  11
  -3   2   6 1123.88 60.9127  19
  -3   2   6 1122.89 57.4132   7
   2  -2  -6 1192.20 59.2910   6
   2  -2  -6 1134.08 60.4361  17
   2  -2  -6 1139.92 60.2910   5
  -2   2   6 1161.33 57.8232   7
  -2   2   6 1091.05 59.4963   3
  -2   2   6 1170.65 58.0427  11
  -2   2   6 1071.76 58.1831  20
  -2   2   6 1165.43 62.0087  19
   0  -2  -6 6227.86 299.320  20
   0  -2  -6 5749.06 303.187   3
  -1  -2  -6 655.089 35.0844  21
  -1  -2  -6 665.160 34.9707  20
  -1  -2  -6 710.914 40.3370   3
   1   2   6 604.052 35.2177  20
  -2  -2  -6 711.584 37.6821  20
  -2  -2  -6 676.214 36.8170  21
  -2  -2  -6 699.809 40.0765   3
   2   2   6 685.547 46.4797   4
   2   2   6 738.278 36.9351   2
   2   2   6 677.302 35.9012  15
  -3  -2  -6 240.880 13.1419  13
  -3  -2  -6 218.762 17.4716   3
  -3  -2  -6 246.126 12.9833   9
  -3  -2  -6 257.330 15.7471  20
  -3  -2  -6 261.981 14.8164  21
   3   2   6 215.279 13.6074   2
   3   2   6 239.760 22.4874   4
  -4  -2  -6 205.882 11.1017   9
  -4  -2  -6 197.862 13.3461  20
  -4  -2  -6 217.430 11.3991  13
  -4  -2  -6 208.516 12.5337  21
  -4  -2  -6 191.731 15.1889   3
   4   2   6 225.568 19.2538   4
   6  -3  -6 817.772 42.3171   8
   5  -3  -6 159.938 17.0338  12
   5  -3  -6 151.123 11.1132   8
   5  -3  -6 155.638 14.7112   4
   5  -3  -6 174.868 12.8798   1
   5  -3  -6 155.981 24.7017  16
   5  -3  -6 137.518 11.1526  18
   4  -3  -6 7.30958 8.65140  16
   4  -3  -6 10.7619 2.99100  14
   4  -3  -6 13.7307 10.1835  12
  -4   3   6 8.15217 2.49006   3
   3  -3  -6 2388.26 119.015   6
   3  -3  -6 2535.72 142.934  16
   3  -3  -6 2355.44 120.415  17
  -3   3   6 2245.52 117.113  11
  -3   3   6 2388.73 123.065  19
  -3   3   6 2277.35 117.071  20
  -3   3   6 2183.62 118.830   3
  -3   3   6 2135.43 116.634   7
   2  -3  -6 939.899 50.6268  17
   2  -3  -6 983.859 48.9823   6
  -2   3   6 868.933 47.5194  21
  -2   3   6 921.205 47.6745  11
  -2   3   6 863.087 47.7570  20
  -2   3   6 938.006 52.9069  19
  -2   3   6 924.811 49.8590   3
   1  -3  -6 1719.94 84.5841   6
  -1   3   6 1600.41 84.2374  20
  -1   3   6 1598.30 86.3406   3
  -1   3   6 1695.73 89.6417  19
  -1   3   6 1639.01 83.9483  11
   0  -3  -6 2602.92 136.304  20
   0  -3  -6 2829.18 136.007   6
   0   3   6 2772.88 136.651  20
   0   3   6 2769.29 136.283  11
   0   3   6 2503.30 135.888  21
   0   3   6 2709.13 138.915   3
  -1  -3  -6 341.135 20.2594  21
  -1  -3  -6 369.100 23.3555   3
  -1  -3  -6 399.412 19.6344   9
  -1  -3  -6 331.317 19.1714  13
   1   3   6 377.437 27.4984  19
   1   3   6 377.856 20.3668   2
   1   3   6 377.568 19.0680   9
  -2  -3  -6 882.189 45.5558   2
  -2  -3  -6 924.059 48.0385  20
  -2  -3  -6 869.415 49.6019   3
  -2  -3  -6 905.852 45.8899  21
   2   3   6 818.010 60.2425   4
   2   3   6 898.929 44.0008   9
   2   3   6 795.483 44.4997  15
  -3  -3  -6 139.200 7.67338   9
  -3  -3  -6 129.046 8.98231  21
  -3  -3  -6 132.258 11.7153   3
  -3  -3  -6 136.811 8.06466  13
  -3  -3  -6 128.048 9.98990  20
   3   3   6 134.811 8.50119   2
   3   3   6 129.928 13.8628   4
  -4  -3  -6 229.420 12.6441  21
  -4  -3  -6 237.167 11.8055  13
  -4  -3  -6 210.880 11.6316   9
   4   3   6 219.494 24.8260  16
   6  -4  -6 957.800 52.6889   8
   6  -4  -6 1116.37 58.7256  12
   5  -4  -6 619.717 36.7928  18
   5  -4  -6 617.350 35.8391   8
   5  -4  -6 677.649 37.8904   1
   5  -4  -6 718.199 45.0913  12
   4  -4  -6 45.7208 10.6192  12
   4  -4  -6 43.4118 4.60857  14
   4  -4  -6 43.1894 5.68664   8
   4  -4  -6 41.9687 6.76378  18
   4  -4  -6 50.5065 6.79974   1
  -4   4   6 52.2176 5.92871   3
  -4   4   6 50.1284 4.47511  20
   3  -4  -6 2463.03 122.022   6
   3  -4  -6 2492.44 124.252   1
   3  -4  -6 2207.79 120.612   8
   3  -4  -6 2267.63 123.351  17
   3  -4  -6 2433.70 132.196  12
  -3   4   6 2326.63 122.716   3
  -3   4   6 2462.98 120.227  20
  -3   4   6 2193.58 119.651  21
  -3   4   6 2413.33 127.789  19
   2  -4  -6 1356.50 68.6691   6
   2  -4  -6 1271.91 66.1188   2
   2  -4  -6 1204.78 70.3493  17
  -2   4   6 1323.45 70.3890   3
  -2   4   6 1313.66 74.2450  19
  -2   4   6 1345.12 67.7229  20
   1  -4  -6 651.115 33.5061   2
   1  -4  -6 587.861 33.3003   6
   1  -4  -6 587.895 33.0898   8
   1  -4  -6 650.159 35.9213  17
  -1   4   6 582.595 31.1370   9
  -1   4   6 641.229 36.1854   3
  -1   4   6 569.448 31.4469  13
  -1   4   6 629.949 33.4829  20
  -1   4   6 620.524 39.4497  19
  -1   4   6 592.262 33.2050  21
   0  -4  -6 929.147 54.0723  17
   0  -4  -6 888.392 43.3341   9
   0  -4  -6 789.314 44.2589   2
   0   4   6 849.400 44.9234  21
   0   4   6 847.658 43.3224   9
   0   4   6 853.529 45.6367  20
   0   4   6 802.044 47.9012   3
   0   4   6 919.023 53.2734  19
   0   4   6 817.627 43.5183  13
  -1  -4  -6 17.8817 2.92007  21
   1   4   6 20.6859 2.31951  13
  -2  -4  -6 820.521 42.0352  13
  -2  -4  -6 814.364 43.1878  21
  -2  -4  -6 748.320 46.6644   3
  -2  -4  -6 870.628 42.1175   9
   2   4   6 883.372 43.3896   2
  -3  -4  -6 1200.77 59.4159  21
  -3  -4  -6 1068.21 57.0957   9
   5  -5  -6 2106.53 105.620  12
   5  -5  -6 1668.90 96.8626  18
   5  -5  -6 1825.17 95.9330   8
   5  -5  -6 1900.54 97.3762   1
   4  -5  -6 3.24490 3.47207   8
   4  -5  -6 5.18957 3.50749   1
  -4   5   6 6.11427 4.52096  19
  -4   5   6 7.01572 2.66464  21
  -4   5   6 8.34299 2.37258  20
  -4   5   6 7.54391 2.89411   3
   3  -5  -6 184.621 15.3675   1
   3  -5  -6 180.552 15.2358  17
   3  -5  -6 179.108 12.9780   8
   3  -5  -6 200.672 14.7220   6
   3  -5  -6 191.387 20.2824  12
  -3   5   6 212.666 12.7133  21
  -3   5   6 189.858 10.9742  13
  -3   5   6 198.570 15.1885   3
  -3   5   6 208.650 12.9404  20
  -3   5   6 197.163 18.7964  19
   2  -5  -6 1405.48 72.5416   2
   2  -5  -6 1331.35 73.1731   8
   2  -5  -6 1420.67 74.4169   6
  -2   5   6 1457.00 73.5046  20
  -2   5   6 1390.07 76.5974   3
  -2   5   6 1447.93 81.7269  19
  -2   5   6 1397.23 72.8205  21
   1  -5  -6 872.615 46.3857   8
   1  -5  -6 796.365 44.4988   6
   1  -5  -6 844.254 42.9038   2
   1  -5  -6 778.424 47.1805  17
  -1   5   6 772.474 42.1396  13
  -1   5   6 795.210 44.5928  20
  -1   5   6 823.772 52.0010  19
  -1   5   6 946.790 42.6752   9
  -1   5   6 846.594 47.7499   3
  -1   5   6 760.740 43.6572  21
   0  -5  -6 2590.66 123.183   9
   0  -5  -6 2399.90 129.336  17
   0  -5  -6 2588.72 124.555   2
   0   5   6 2213.68 128.100   3
   0   5   6 2558.56 124.826   2
   0   5   6 2286.96 124.563  21
   0   5   6 2670.79 123.359   9
   0   5   6 2344.68 123.328  13
   0   5   6 2512.09 135.270  19
  -1  -5  -6 185.803 11.9165   2
   1   5   6 206.973 11.8261   9
   1   5   6 198.799 12.7136   2
  -2  -5  -6 221.405 12.5475   2
  -2  -5  -6 218.274 11.7483   9
   2   5   6 228.717 12.7848   2
  -3  -5  -6 140.715 7.35079   9
   5  -6  -6 705.592 36.7228  18
   5  -6  -6 651.717 35.5177   8
   5  -6  -6 685.795 36.0887   1
   4  -6  -6 64.1305 7.52645   1
   4  -6  -6 69.0219 6.58303   8
   4  -6  -6 75.9305 8.23261  18
   4  -6  -6 83.4404 11.4260  12
  -4   6   6 85.0820 6.19778  21
  -4   6   6 70.9333 7.31420   3
  -4   6   6 84.5483 5.06199  13
  -4   6   6 81.3951 6.10402  20
   3  -6  -6 775.081 44.3784   1
   3  -6  -6 755.589 41.4668   8
   3  -6  -6 767.742 48.6092  12
   3  -6  -6 752.780 44.0260  18
  -3   6   6 799.566 44.7393   3
  -3   6   6 751.392 49.2377  19
  -3   6   6 805.693 39.1985   9
  -3   6   6 786.419 41.5407  21
  -3   6   6 777.195 39.6189  13
  -3   6   6 756.769 41.5268  20
   2  -6  -6 995.928 61.7785  12
   2  -6  -6 1091.85 55.7863   2
  -2   6   6 1061.18 64.9908  19
  -2   6   6 1129.69 54.6110   9
  -2   6   6 1073.41 60.0243   3
  -2   6   6 1094.95 56.3513  21
   1  -6  -6 408.117 20.6208   2
  -1   6   6 363.239 28.7837  19
  -1   6   6 330.502 21.7088  20
  -1   6   6 424.847 19.7727   9
  -1   6   6 366.371 24.3863   3
  -1   6   6 353.695 21.0710  21
  -1   6   6 370.897 19.7915  13
   0  -6  -6 1379.82 68.3754   2
   0   6   6 1333.08 67.3280   9
   0   6   6 1346.07 68.5230   2
   0   6   6 1296.37 67.0609  13
  -1  -6  -6 313.322 15.8087   9
  -1  -6  -6 303.776 16.6630   2
   1   6   6 307.518 15.8395   9
   4  -7  -6 489.140 25.3417  18
   4  -7  -6 407.333 28.6717  12
   4  -7  -6 411.581 24.3435   1
  -4   7   6 498.513 23.1022  13
   3  -7  -6 298.228 18.0963  18
   3  -7  -6 299.573 18.0418   1
  -3   7   6 305.112 15.3912  13
  -3   7   6 262.412 19.8306   3
   2  -7  -6 568.972 30.1834   2
  -2   7   6 627.716 30.2043   9
  -2   7   6 586.863 31.4270  21
   1  -7  -6 207.957 11.5341   2
  -1   7   6 205.494 11.1127   9
  -1   7   6 217.828 11.0503  13
   0  -7  -6 379.940 20.3295   2
   0   7   6 417.134 20.8999   2
   0   7   6 377.801 19.9518   9
  -2   8  -7 581.709 29.1216  13
  -2   8  -7 629.794 29.2043   9
   2  -8   7 533.818 30.1654  14
   1   7  -7 1526.51 79.0024   2
  -1  -7   7 1621.87 79.0899   2
   0   7  -7 432.242 22.6532   2
   0   7  -7 412.868 21.8755   9
   0  -7   7 448.107 22.5764   2
  -1   7  -7 676.547 31.7019   9
  -1   7  -7 613.110 31.6293  13
  -1   7  -7 582.411 32.3454  21
  -1   7  -7 553.802 35.2156   3
   1  -7   7 704.100 32.4218   2
  -2   7  -7 150.737 11.6768   3
  -2   7  -7 167.540 8.95396  13
  -2   7  -7 173.383 9.98558  21
  -2   7  -7 163.658 8.93662   9
   2  -7   7 173.934 14.1641   1
  -3   7  -7 30.9805 2.21466   9
  -3   7  -7 28.0446 4.10723   3
  -3   7  -7 37.5731 3.46349  21
   3  -7   7 41.5017 6.00269  14
   3  -7   7 29.3819 4.75617   1
  -4   7  -7 324.772 15.7151  13
   4  -7   7 273.893 17.8005   1
   4  -7   7 325.347 17.6868  14
   2   6  -7 10.7787 1.67447   2
  -2  -6   7 13.6530 1.29853   9
  -2  -6   7 10.2613 1.81959   2
   1   6  -7 406.431 22.1605   2
   1   6  -7 415.663 21.1740   9
  -1  -6   7 410.140 21.2175   9
  -1  -6   7 428.533 22.1387   2
   0   6  -7 1236.50 65.1379  21
   0   6  -7 1196.94 62.1371  13
   0   6  -7 1233.62 63.3329   2
   0  -6   7 1263.45 62.1128   9
   0  -6   7 1264.38 63.8031   2
  -1   6  -7 929.043 49.1112  21
  -1   6  -7 967.861 52.4133   3
  -1   6  -7 905.012 49.9865  20
  -1   6  -7 952.221 47.7819   9
  -1   6  -7 920.937 47.8590  13
   1  -6   7 1005.28 48.6490   2
  -2   6  -7 754.379 43.4888   3
  -2   6  -7 828.416 40.6135  21
  -2   6  -7 757.828 39.0889  13
  -2   6  -7 720.985 39.0060   9
  -2   6  -7 807.769 41.3584  20
   2  -6   7 745.744 39.4912   2
  -3   6  -7 13.9666 1.94045  13
  -3   6  -7 15.8577 3.07708  20
  -3   6  -7 17.8643 1.67946   9
  -3   6  -7 14.1766 2.88133  21
  -3   6  -7 17.7099 3.95620   3
   3  -6   7 11.8312 3.33295  10
  -4   6  -7 372.335 18.9909  13
  -4   6  -7 345.038 21.5325   3
  -4   6  -7 372.134 19.8444  21
   4  -6   7 383.218 22.2561  14
   4  -6   7 378.578 24.8881   1
   5  -6   7 961.732 50.3764   1
   3   5  -7 1872.67 92.0962   8
   3   5  -7 1925.92 90.7064   2
  -3  -5   7 1836.01 90.1706   9
  -3  -5   7 1589.90 90.2780  13
   2   5  -7 286.505 15.9909   2
  -2  -5   7 297.906 15.1175   9
  -2  -5   7 286.528 15.0413  13
  -2  -5   7 284.839 15.9501   2
   1   5  -7 585.923 31.9025   2
   1   5  -7 604.396 30.7222   9
  -1  -5   7 597.074 31.7810   2
  -1  -5   7 609.873 30.6866  13
  -1  -5   7 625.451 30.8146   9
   0   5  -7 1272.98 66.1915  20
   0   5  -7 1338.39 65.2317  21
   0   5  -7 1212.77 64.5122  13
   0   5  -7 1220.81 65.1645   2
   0   5  -7 1426.14 65.0037   9
   0   5  -7 1254.65 67.9747   3
   0  -5   7 1323.22 69.3775   6
   0  -5   7 1139.21 65.6533   2
  -1   5  -7 489.332 26.3638   9
  -1   5  -7 529.769 30.7412   3
  -1   5  -7 522.234 27.8558  21
  -1   5  -7 505.710 26.5681  13
  -1   5  -7 520.438 28.5300  20
   1  -5   7 556.570 32.2070   6
   1  -5   7 496.215 27.1127   2
  -2   5  -7 1930.64 103.370   9
  -2   5  -7 1990.47 103.815  13
  -2   5  -7 2144.18 107.940   3
  -2   5  -7 2099.96 105.608  20
  -2   5  -7 2136.23 104.870  21
   2  -5   7 2003.25 103.866  15
   2  -5   7 2166.10 110.148   6
  -3   5  -7 1391.58 69.7905  21
  -3   5  -7 1271.99 68.4954  13
  -3   5  -7 1403.38 70.4037  20
  -3   5  -7 1395.49 72.7167   3
   3  -5   7 1420.10 75.0531   1
   3  -5   7 1295.52 70.8045  18
  -4   5  -7 41.2862 3.93949  21
  -4   5  -7 37.3186 4.75763   3
   4  -5   7 46.3034 6.61398  14
   4  -5   7 38.4076 6.38315   1
   4  -5   7 41.6900 4.98785  18
   4  -5   7 40.6108 5.39646  10
  -5   5  -7 593.214 32.3079  21
   5  -5   7 677.303 33.1770  14
   5  -5   7 609.364 34.3440   1
   5  -5   7 545.237 32.1826  10
  -4  -4   7 174.683 9.22825   9
  -4  -4   7 154.636 10.9161  21
  -4  -4   7 176.981 8.90590  13
   3   4  -7 937.871 64.1851  16
   3   4  -7 987.501 47.6998   2
  -3  -4   7 961.252 48.7057  21
  -3  -4   7 923.089 47.0783  13
  -3  -4   7 990.179 46.9886   9
  -3  -4   7 850.120 52.4717   3
  -3  -4   7 864.621 49.4856  20
   2   4  -7 82.2852 12.7805   5
   2   4  -7 85.4137 6.20204   2
   2   4  -7 85.7002 4.96218   9
  -2  -4   7 87.0386 8.93418   3
  -2  -4   7 77.2189 8.22600   6
  -2  -4   7 90.9847 7.77041  20
  -2  -4   7 77.8793 6.13725   2
  -2  -4   7 102.445 5.51120  13
  -2  -4   7 99.0989 5.36666   9
   1   4  -7 1883.38 92.1530   9
   1   4  -7 1680.88 91.9529  13
   1   4  -7 1854.63 93.2759   2
  -1  -4   7 1772.32 94.6803  20
  -1  -4   7 1899.21 92.2051   9
  -1  -4   7 2008.41 97.0162   6
  -1  -4   7 1839.73 93.4811  21
  -1  -4   7 1781.29 92.2414  13
  -1  -4   7 1800.24 93.0843   2
  -1  -4   7 1904.79 97.2245   3
   0   4  -7 1081.23 55.7806  20
   0   4  -7 1045.46 61.1982   5
   0   4  -7 1112.62 55.7212  21
   0   4  -7 1091.44 57.7167   3
   0   4  -7 1120.64 54.8024   9
   0   4  -7 1170.03 54.5410  13
   0  -4   7 1102.71 58.2450   6
   0  -4   7 917.014 54.5628   2
   0  -4   7 1036.95 53.9950   9
  -1   4  -7 1680.35 82.4724   3
  -1   4  -7 1571.10 80.2929  20
  -1   4  -7 1565.57 79.7737  21
   1  -4   7 1405.41 79.1275   2
   1  -4   7 1548.75 78.8432  15
   1  -4   7 1657.23 83.3122   6
  -2   4  -7 907.654 44.5412  21
  -2   4  -7 837.997 45.7425   3
  -2   4  -7 871.496 44.0368  20
   2  -4   7 817.018 47.1050   6
   2  -4   7 769.292 43.5573   2
   2  -4   7 843.050 42.8767  15
  -3   4  -7 1042.63 51.6582  20
  -3   4  -7 987.103 51.0820  21
  -3   4  -7 1057.14 53.7158   3
   3  -4   7 942.215 52.5601  18
   3  -4   7 1066.42 56.3084   1
   3  -4   7 836.500 54.1841   6
   3  -4   7 1017.83 54.1853  14
  -4   4  -7 156.337 11.1947   3
  -4   4  -7 148.496 9.98926  20
  -4   4  -7 148.305 9.49664  21
   4  -4   7 156.212 11.3166  18
   4  -4   7 180.413 14.3367   1
   4  -4   7 164.649 12.4246  14
   4  -4   7 157.853 11.7464  10
  -5   4  -7 1468.69 75.1907   3
   5  -4   7 1460.11 76.9888   1
   5  -4   7 1501.19 74.5158  14
   5  -4   7 1311.32 73.8786  10
   4   3  -7 3.18601 2.21160   8
   4   3  -7 3.77503 5.36833  16
  -4  -3   7 2.02898 2.01512   3
  -4  -3   7 2.46021 2.01125  20
  -4  -3   7 2.96398 0.90733   9
   3   3  -7 1633.15 97.3456   4
   3   3  -7 1820.12 89.7174   2
  -3  -3   7 1770.71 96.6603   3
  -3  -3   7 1780.15 91.7860  20
  -3  -3   7 1825.12 90.5839  21
  -3  -3   7 1813.91 88.9787   9
  -3  -3   7 1787.88 89.1586  13
   2   3  -7 1647.96 98.7396   5
   2   3  -7 1571.97 92.9136   4
   2   3  -7 1523.78 80.5345   2
  -2  -3   7 1649.63 81.1417  21
  -2  -3   7 1529.13 79.8293  13
  -2  -3   7 1633.15 82.1776  20
  -2  -3   7 1506.01 79.6500   9
  -2  -3   7 1665.83 84.7918   3
   1   3  -7 361.662 25.2708   5
   1   3  -7 340.746 21.2028  20
  -1  -3   7 360.173 19.8765  20
  -1  -3   7 331.843 18.9499  21
  -1  -3   7 345.920 21.4480   3
   0   3  -7 691.425 34.6972  20
   0   3  -7 645.167 36.0025   3
   0   3  -7 644.263 35.0441  11
   0  -3   7 688.643 33.3050  15
   0  -3   7 610.382 36.5201   3
   0  -3   7 688.292 35.1970  20
  -1   3  -7 569.785 30.8129   3
  -1   3  -7 541.188 30.4722  11
  -1   3  -7 565.832 29.4286  20
   1  -3   7 575.019 31.4983   6
   1  -3   7 541.911 28.4177  15
  -2   3  -7 552.000 28.8219  20
  -2   3  -7 553.632 30.0759   3
  -2   3  -7 519.157 28.2800  21
   2  -3   7 544.749 30.9848   6
   2  -3   7 543.104 27.9148  15
  -3   3  -7 1734.42 91.3292   3
  -3   3  -7 1737.85 85.2473  20
  -3   3  -7 1568.72 85.8253  21
   3  -3   7 1579.98 87.1952   6
   3  -3   7 1778.79 99.8664   4
   3  -3   7 1596.60 86.4438  18
   3  -3   7 1640.78 87.3080  14
   3  -3   7 1706.38 84.6239  15
   3  -3   7 1734.47 89.4494   1
  -4   3  -7 404.562 21.9131  20
  -4   3  -7 370.830 21.3428  21
   4  -3   7 392.211 23.6230  18
   4  -3   7 410.013 26.6610   1
   4  -3   7 414.682 24.1017  14
   4  -3   7 390.553 30.5422   4
   4  -3   7 410.895 23.7900  10
  -5   3  -7 1061.44 53.9730   3
   5  -3   7 946.459 59.6530   4
   5  -3   7 978.070 53.0314  10
   5  -3   7 1058.16 53.4587  14
   5   2  -7 464.341 37.6251  16
   5   2  -7 511.408 30.6790   4
   5   2  -7 444.645 26.5405   8
  -5  -2   7 506.894 25.9419  21
  -5  -2   7 527.317 25.0124  13
   4   2  -7 635.608 40.9996   4
   4   2  -7 619.597 31.6521   2
   4   2  -7 621.646 50.7650  16
  -4  -2   7 662.903 36.9632   3
  -4  -2   7 624.673 31.5425   9
  -4  -2   7 566.215 36.2205  20
  -4  -2   7 617.242 33.0895  21
  -4  -2   7 616.015 31.8205  13
   3   2  -7 1172.25 61.1767   2
   3   2  -7 1164.75 69.8101   4
   3   2  -7 1249.25 73.3803   5
  -3  -2   7 1255.77 63.0614  20
  -3  -2   7 1276.92 65.8131   3
  -3  -2   7 1140.67 60.7611  13
  -3  -2   7 1225.72 62.0312  21
  -3  -2   7 1163.93 60.5859   9
   2   2  -7 3421.75 172.714   5
  -2  -2   7 3413.35 166.528   3
  -2  -2   7 3185.62 164.121  20
  -2  -2   7 3122.57 163.327  21
  -2  -2   7 3143.91 163.037   7
   1   2  -7 1173.54 62.7943   5
   1   2  -7 1059.64 56.5228  11
  -1  -2   7 1146.97 56.4842   7
  -1  -2   7 1120.78 57.3599  20
  -1  -2   7 1062.88 56.7537  21
  -1  -2   7 1131.35 58.9434   3
   0   2  -7 1995.45 101.395  20
   0   2  -7 1986.00 102.471   3
   0  -2   7 1964.80 100.416  15
   0  -2   7 2013.97 101.930  20
   0  -2   7 2112.64 100.954   7
  -1   2  -7 142.544 8.24280  20
  -1   2  -7 140.963 9.21112   3
   1  -2   7 138.598 7.51893  15
   1  -2   7 131.916 9.24292   6
  -2   2  -7 149.369 11.5798   3
  -2   2  -7 120.064 7.99100  20
   2  -2   7 139.666 9.24545   6
   2  -2   7 127.336 7.55746  15
  -3   2  -7 4200.00 214.016  20
  -3   2  -7 4272.37 215.457   3
  -3   2  -7 4004.10 213.419  21
   3  -2   7 4479.72 213.399  15
   3  -2   7 4364.08 218.407   1
   3  -2   7 4299.63 215.635  14
   4  -2   7 3.45476 2.67540  10
   4  -2   7 2.50341 4.02132   4
   4  -2   7 1.94363 6.18394  16
   4  -2   7 2.75009 1.20235  15
   4  -2   7 3.61967 2.56577  14
  -5   2  -7 295.625 17.8070   3
  -5   2  -7 275.910 15.4701  21
  -5   2  -7 239.774 15.7223  20
   5  -2   7 287.288 16.5131  10
   5  -2   7 284.287 24.1411   4
   5  -2   7 282.169 16.8030  14
   5   1  -7 903.744 49.0885   8
   5   1  -7 936.595 53.1236   4
   5   1  -7 906.993 65.4466  16
  -5  -1   7 864.361 45.5981  21
  -5  -1   7 816.871 46.4728  20
  -5  -1   7 881.649 48.4300   3
  -5  -1   7 864.642 44.5203  13
   4   1  -7 754.328 59.2003  16
   4   1  -7 720.606 46.7648   4
   4   1  -7 750.878 40.1309   8
  -4  -1   7 670.264 36.6105   9
  -4  -1   7 665.303 36.8397  13
  -4  -1   7 728.816 38.1114  21
  -4  -1   7 748.947 41.7192   3
  -4  -1   7 754.034 39.1946  20
   3   1  -7 339.881 27.0872   5
   3   1  -7 318.192 18.7030   2
   3   1  -7 310.116 24.7923   4
   3   1  -7 356.647 34.4161  16
  -3  -1   7 338.717 18.9476  20
  -3  -1   7 328.843 19.4344  21
  -3  -1   7 326.789 17.9637   7
  -3  -1   7 345.768 20.9142   3
   2   1  -7 1617.59 78.1235  17
   2   1  -7 1373.54 86.4560   5
  -2  -1   7 1579.95 76.6954  20
  -2  -1   7 1557.04 76.0114   7
  -2  -1   7 1498.87 78.1231   3
  -2  -1   7 1418.88 76.0681  21
   1   1  -7 1544.89 76.9254  17
   1   1  -7 1544.74 80.4920   5
   1   1  -7 1594.11 75.1169  11
  -1  -1   7 1374.81 75.0889   7
  -1  -1   7 1422.16 76.9005   3
   0   1  -7 1790.73 87.9833  17
   0   1  -7 1789.71 88.0897  20
   0   1  -7 1751.12 89.0053   3
   0  -1   7 1554.68 87.4288   7
   0  -1   7 1809.68 88.5663  20
   0  -1   7 1796.90 87.2665  15
  -1   1  -7 3403.42 169.451   7
  -2   1  -7 522.726 27.4893  20
  -3   1  -7 1805.64 90.8597   3
  -3   1  -7 1639.96 88.1655  21
  -3   1  -7 1762.31 88.8712  20
   3  -1   7 1975.35 104.661   4
   3  -1   7 1633.97 89.8085  14
   3  -1   7 1771.05 88.1834  15
   3  -1   7 1650.59 92.4904   1
  -4   1  -7 427.840 25.2457   3
  -4   1  -7 437.554 23.2473  20
  -4   1  -7 413.229 22.2991  21
   4  -1   7 389.109 23.5306  14
   4  -1   7 382.077 23.3571  10
   4  -1   7 402.362 41.1638  16
   4  -1   7 417.066 33.8884   4
  -5   1  -7 5.42260 2.49510   3
  -5   1  -7 4.88280 1.69376  21
  -5   1  -7 4.36492 1.14135  13
  -5   1  -7 6.74020 2.64926  20
   5  -1   7 3.76694 4.30442   4
   5  -1   7 4.29423 5.60459  16
   5  -1   7 4.37169 2.24776  10
   6   0  -7 16.4180 4.61459   4
   6   0  -7 11.4737 4.91453  16
   5   0  -7 1162.02 80.2292  16
   5   0  -7 1227.07 68.7889   4
   5   0  -7 1055.93 61.2544   8
  -5   0   7 1296.35 69.0265   3
  -5   0   7 1140.62 59.8612  21
  -5   0   7 1131.07 60.6513  20
   4   0  -7 474.035 34.8187   4
   4   0  -7 484.006 37.8838   5
   4   0  -7 531.803 47.0588  16
   4   0  -7 515.661 28.9699   8
  -4   0   7 508.420 29.5823   3
  -4   0   7 467.853 26.6305  21
  -4   0   7 529.664 27.6439  20
   3   0  -7 4.10062 2.19549   8
   3   0  -7 6.47687 3.07842  17
  -3   0   7 5.71108 2.21417   3
  -3   0   7 6.15670 2.04682  20
  -3   0   7 6.97157 1.74863  21
   1   0  -7 666.842 38.0444   5
   1   0  -7 628.130 34.3070  11
   1   0  -7 694.818 35.4950  17
  -1   0   7 695.694 34.1780   7
  -1   0   7 700.753 34.7766  20
  -1   0   7 632.757 36.3854   3
   1   0   7 3335.89 165.959   7
  -2   0  -7 12.8084 2.41484  20
   2   0   7 16.4389 1.96755  15
  -3   0  -7 170.962 10.7023   9
  -3   0  -7 218.839 12.5517  20
  -3   0  -7 204.485 14.0697   3
  -3   0  -7 213.854 11.6974  21
   3   0   7 166.266 10.9708   2
   3   0   7 184.524 12.5883  14
   3   0   7 212.572 11.2398  15
   3   0   7 190.387 20.4459   4
  -4   0  -7 1515.15 79.3872  20
  -4   0  -7 1559.54 78.5986  21
  -4   0  -7 1491.07 77.3159  13
  -4   0  -7 1455.08 77.2499   9
  -4   0  -7 1593.11 82.2788   3
   4   0   7 1474.38 78.5573  10
   4   0   7 1667.44 92.8210   4
   4   0   7 1542.61 104.871  16
  -5   0  -7 967.828 47.1455  13
  -5   0  -7 974.858 52.4669   3
   5   0   7 979.940 57.1107   4
   5   0   7 812.651 59.6624  16
   6  -1  -7 1265.85 68.0721   8
   6  -1  -7 1475.32 73.0349   4
   6  -1  -7 1256.12 80.1923  16
   5  -1  -7 107.039 9.04285   8
   5  -1  -7 121.233 20.7121  16
   5  -1  -7 120.983 13.8655   4
  -5   1   7 113.664 9.29653   3
  -5   1   7 108.555 7.84731  20
  -5   1   7 113.619 7.50882  21
   4  -1  -7 2560.70 144.047   5
   4  -1  -7 2717.90 143.186   4
   4  -1  -7 2983.04 135.938   8
   4  -1  -7 2666.53 136.703  17
   4  -1  -7 2289.85 140.520  12
   4  -1  -7 2744.09 158.379  16
  -4   1   7 2705.07 134.828   3
  -4   1   7 2382.43 132.137  21
  -4   1   7 2633.31 132.941  20
   3  -1  -7 1061.97 53.0202  17
   3  -1  -7 920.511 56.4719   5
  -3   1   7 945.401 49.4279   7
  -3   1   7 944.906 50.9113   3
   1  -1  -7 2463.37 134.511   5
   1  -1  -7 2946.89 132.743  11
  -1   1   7 2487.48 133.676   3
   0  -1  -7 419.745 22.9252  17
   0  -1  -7 358.267 22.0199  20
   0   1   7 422.182 26.1305  19
   0   1   7 400.847 22.0668  11
   0   1   7 415.466 22.5002  20
   0   1   7 440.056 21.3576   7
   0   1   7 459.577 24.3499   3
  -1  -1  -7 457.479 24.8115  20
  -1  -1  -7 423.954 26.0212   3
   1   1   7 462.205 23.3560   7
   1   1   7 506.776 23.9479  15
  -2  -1  -7 2519.35 126.631  21
  -2  -1  -7 2483.51 127.367  20
  -2  -1  -7 2446.68 129.461   3
   2   1   7 2610.71 126.177  15
  -3  -1  -7 590.471 30.6795  21
  -3  -1  -7 570.444 29.2100   9
  -3  -1  -7 555.643 29.3199  13
  -3  -1  -7 571.109 33.9502   3
   3   1   7 610.046 42.3789   4
   3   1   7 574.775 30.0718   2
   3   1   7 515.688 29.6478  15
  -4  -1  -7 815.909 41.8870  21
  -4  -1  -7 785.760 40.4427  13
  -4  -1  -7 749.352 40.2008   9
  -4  -1  -7 815.931 45.5474   3
  -4  -1  -7 749.561 42.6105  20
   4   1   7 789.556 64.7860  16
   4   1   7 848.090 53.0478   4
  -5  -1  -7 360.790 19.2415  21
   6  -2  -7 28.0452 8.02715   4
   6  -2  -7 25.4475 8.15808  16
   5  -2  -7 25.6821 7.04325   4
   5  -2  -7 25.1508 11.5193  16
   5  -2  -7 23.1611 4.26679   8
   5  -2  -7 18.6488 7.07121  12
  -5   2   7 20.5108 2.95780  20
   4  -2  -7 1021.55 55.1234   1
   4  -2  -7 859.693 53.0503  18
   4  -2  -7 1109.85 55.7489   8
   4  -2  -7 1029.42 52.2939  14
   4  -2  -7 983.051 60.1582   5
   4  -2  -7 1065.31 55.8045  17
   4  -2  -7 953.889 61.4372  12
   4  -2  -7 968.705 59.1299   4
  -4   2   7 973.807 53.1115   3
  -4   2   7 982.290 51.6002  20
   3  -2  -7 643.896 36.4448   8
   3  -2  -7 701.728 38.2403  17
  -3   2   7 648.808 35.1212  20
  -3   2   7 642.264 36.3892   3
  -3   2   7 705.149 34.8974   7
   2  -2  -7 533.781 27.1433   6
   2  -2  -7 474.890 30.0562  17
  -2   2   7 496.920 25.6084   7
  -2   2   7 495.969 27.7429   3
  -2   2   7 447.555 26.0722  20
  -2   2   7 492.793 25.7379  11
  -2   2   7 484.677 29.5146  19
   0  -2  -7 710.639 40.5255  20
   0  -2  -7 833.730 40.1141   6
   0  -2  -7 723.263 42.1389   3
   0   2   7 827.889 40.6656  11
   0   2   7 735.661 40.8001  20
   0   2   7 834.527 46.0537  19
   0   2   7 791.501 42.9602   3
  -1  -2  -7 656.488 35.0254  20
  -1  -2  -7 592.852 36.6863   3
  -1  -2  -7 649.081 34.3839  21
   1   2   7 725.684 33.3123   7
  -2  -2  -7 20.4836 2.30483   9
  -2  -2  -7 17.7828 3.34707  21
  -2  -2  -7 23.0495 4.71643   3
  -2  -2  -7 19.7470 2.42628  13
  -2  -2  -7 17.0287 3.95870  20
   2   2   7 17.5425 2.51621   9
   2   2   7 20.6625 2.56201  15
   2   2   7 22.7269 3.29718   2
  -3  -2  -7 14.1734 4.67563   3
  -3  -2  -7 15.5472 2.34123  13
  -3  -2  -7 12.8236 2.11914   9
  -3  -2  -7 17.1113 4.18176  20
  -3  -2  -7 15.7121 3.67761  21
   3   2   7 14.2435 7.59080   4
   3   2   7 11.2410 2.53307   2
  -4  -2  -7 1039.21 58.9260  20
  -4  -2  -7 1129.16 61.2659   3
  -4  -2  -7 1213.01 57.0033  13
  -4  -2  -7 1132.70 58.0525  21
   6  -3  -7 695.760 36.3329   8
   5  -3  -7 104.498 11.6888   4
   5  -3  -7 108.274 19.9442  16
   5  -3  -7 101.537 8.52379  18
   5  -3  -7 112.527 14.0763  12
   5  -3  -7 120.089 9.63551   1
   5  -3  -7 96.4156 8.46194   8
   4  -3  -7 3380.90 163.205   1
   4  -3  -7 3238.42 171.746  12
   4  -3  -7 3455.69 188.176  16
   4  -3  -7 3075.07 159.950   8
   4  -3  -7 2779.54 160.753  18
   4  -3  -7 3059.19 163.149  17
  -4   3   7 3032.51 158.546  20
  -4   3   7 3140.60 160.895   3
   3  -3  -7 1019.71 71.6590  16
   3  -3  -7 924.088 50.2102   8
   3  -3  -7 974.817 51.1669   6
   3  -3  -7 971.098 52.9862  17
  -3   3   7 928.255 51.5108   3
  -3   3   7 966.804 54.7466  19
  -3   3   7 937.343 49.5024  20
  -3   3   7 918.755 49.1017   7
  -3   3   7 888.307 48.9763  21
   2  -3  -7 143.512 11.7917  17
   2  -3  -7 153.068 10.2321   6
  -2   3   7 140.936 9.18301  11
  -2   3   7 149.966 11.3723   3
  -2   3   7 146.108 16.0498  19
  -2   3   7 158.108 8.96086   7
  -2   3   7 137.911 9.61015  20
  -2   3   7 143.462 9.38533  21
   1  -3  -7 1038.63 52.5178   6
   1  -3  -7 1152.78 54.9082  17
  -1   3   7 979.264 52.5066  20
  -1   3   7 993.968 52.1755  21
  -1   3   7 936.635 54.5619   3
  -1   3   7 906.263 63.5363  19
  -1   3   7 1032.40 52.1245  11
   0  -3  -7 10.0306 1.84915   6
   0  -3  -7 14.1211 3.49850  17
   0   3   7 14.1164 3.09282  21
   0   3   7 12.5989 2.93831  20
  -1  -3  -7 2390.54 112.176   9
  -1  -3  -7 2050.20 112.130  13
  -1  -3  -7 2113.21 116.746   3
  -1  -3  -7 2081.53 114.234  20
  -1  -3  -7 2291.59 113.650   2
  -1  -3  -7 2172.32 113.596  21
   1   3   7 2537.63 112.268   9
   1   3   7 2136.77 112.180  13
   1   3   7 2391.83 113.625   2
  -2  -3  -7 1076.29 58.6582  20
  -2  -3  -7 1088.79 61.4361   3
  -2  -3  -7 1093.05 56.1541  13
  -2  -3  -7 1173.43 56.1101   9
   2   3   7 1179.31 57.5280   2
   2   3   7 1041.01 56.4685  15
  -3  -3  -7 122.660 10.3041  20
  -3  -3  -7 145.925 10.0329  21
  -3  -3  -7 146.260 8.38507  13
  -3  -3  -7 145.934 8.26483   9
  -3  -3  -7 145.640 12.2535   3
   3   3   7 160.430 15.4956   4
   3   3   7 160.313 9.27737   2
  -4  -3  -7 421.717 22.1638  21
  -4  -3  -7 454.729 21.4337  13
   4   3   7 385.492 34.2485  16
   6  -4  -7 974.094 50.7174   8
   6  -4  -7 1017.25 54.3860  12
   5  -4  -7 252.758 16.8404   8
   5  -4  -7 266.534 17.5173  18
   5  -4  -7 301.385 24.8913  12
   5  -4  -7 297.042 18.4123   1
   4  -4  -7 533.840 38.7578  12
   4  -4  -7 438.178 29.0977  18
   4  -4  -7 520.641 29.6660   1
   4  -4  -7 480.253 27.7380   8
  -4   4   7 487.246 26.6465  20
  -4   4   7 438.620 26.2468  21
   3  -4  -7 1421.29 79.6425  17
   3  -4  -7 1517.66 77.9639   6
   3  -4  -7 1469.91 79.1697   1
   3  -4  -7 1451.81 76.6567   8
  -3   4   7 1502.11 76.3619  20
  -3   4   7 1581.48 83.8044  19
  -3   4   7 1494.01 75.9224  21
  -3   4   7 1348.80 78.6698   3
   2  -4  -7 1375.60 68.3016   6
   2  -4  -7 1305.71 71.4060  17
   2  -4  -7 1315.81 65.7420   2
   2  -4  -7 1282.29 67.2156   8
  -2   4   7 1318.74 74.0164  19
  -2   4   7 1203.70 66.7865  21
  -2   4   7 1289.71 70.3727   3
  -2   4   7 1255.75 67.4036  20
   1  -4  -7 1223.50 66.3391   6
   1  -4  -7 1389.20 69.4592  17
   1  -4  -7 1261.64 65.1784   2
  -1   4   7 1249.93 66.1141  21
  -1   4   7 1242.84 64.3772   9
  -1   4   7 1342.50 73.8105  19
  -1   4   7 1210.98 64.5694  13
  -1   4   7 1293.57 66.8290  20
   0  -4  -7 1949.52 100.556  17
   0  -4  -7 2019.44 95.7949   9
   0  -4  -7 1900.08 96.9229   2
   0   4   7 1957.34 97.3874   2
   0   4   7 1848.31 103.407   3
   0   4   7 2058.76 107.335  19
   0   4   7 1823.88 95.9824  13
   0   4   7 1764.89 98.1032  20
   0   4   7 1777.63 97.3024  21
   0   4   7 2004.96 95.8421   9
  -1  -4  -7 500.807 26.9158   2
  -1  -4  -7 517.544 25.6825   9
  -1  -4  -7 456.326 25.3910  13
  -1  -4  -7 464.772 26.3614  21
   1   4   7 520.619 27.2234   2
   1   4   7 491.898 26.2422  15
   1   4   7 518.214 25.6366   9
  -2  -4  -7 1018.59 50.2180  13
  -2  -4  -7 1016.99 51.2995  21
  -2  -4  -7 970.807 50.5116   9
  -2  -4  -7 936.802 51.2398   2
   2   4   7 1019.31 51.6789   2
  -3  -4  -7 124.547 7.81373  21
  -3  -4  -7 145.830 7.25253  13
  -3  -4  -7 129.821 7.29387   9
   5  -5  -7 437.052 25.7529   1
   5  -5  -7 479.018 27.1246  18
   4  -5  -7 1246.00 69.0938   8
   4  -5  -7 1329.81 70.9554   1
   4  -5  -7 1372.50 80.3811  12
  -4   5   7 1364.54 71.5314   3
  -4   5   7 1312.95 68.5668  20
   3  -5  -7 1398.23 76.3724   1
   3  -5  -7 1443.10 85.2006  12
   3  -5  -7 1419.03 73.8351   8
  -3   5   7 1376.84 71.1010   9
  -3   5   7 1413.74 81.9908   3
  -3   5   7 1421.63 73.3664  21
  -3   5   7 1441.50 81.9417  19
  -3   5   7 1366.32 71.6258  13
  -3   5   7 1460.33 73.9582  20
   2  -5  -7 17.4407 3.87422   8
   2  -5  -7 13.5123 2.33043   2
  -2   5   7 9.28897 3.39315  20
  -2   5   7 11.7936 1.92399   9
  -2   5   7 12.7738 5.59299  19
  -2   5   7 14.0260 4.48526   3
  -2   5   7 11.4758 4.01030  21
  -2   5   7 9.79980 2.50260  13
   1  -5  -7 354.215 20.2106   8
   1  -5  -7 342.185 19.3303   2
  -1   5   7 340.324 20.9633  20
  -1   5   7 371.297 28.1014  19
  -1   5   7 353.292 18.3416   9
  -1   5   7 321.100 23.3707   3
  -1   5   7 359.823 20.9671  21
  -1   5   7 338.997 18.6527  13
   0  -5  -7 972.295 48.6807   2
   0  -5  -7 923.465 47.2454   9
   0   5   7 904.193 58.4719  19
   0   5   7 994.528 47.5019   9
   0   5   7 955.291 48.9650   2
   0   5   7 911.781 47.4336  13
   0   5   7 878.723 48.6216  21
  -1  -5  -7 35.7097 3.78672   2
  -1  -5  -7 32.5909 2.88880   9
   1   5   7 34.9083 2.88130   9
   1   5   7 38.6343 4.26263   2
  -2  -5  -7 1695.00 82.5918   9
  -2  -5  -7 1578.00 82.5560   2
   5  -6  -7 526.256 31.9757  12
   5  -6  -7 474.599 27.0020   8
   5  -6  -7 539.884 28.0754  18
   4  -6  -7 163.177 11.7709   1
   4  -6  -7 183.875 11.4183   8
   4  -6  -7 162.391 12.7241  18
  -4   6   7 173.963 10.8185  21
  -4   6   7 177.473 9.62140  13
  -4   6   7 178.505 12.9677   3
   3  -6  -7 1748.13 96.8591  12
   3  -6  -7 1725.94 90.8739   1
   3  -6  -7 1606.73 90.9614  18
   3  -6  -7 1812.50 88.7365   8
  -3   6   7 1685.17 97.0072  19
  -3   6   7 1716.06 92.1113   3
  -3   6   7 1700.53 88.6576  21
  -3   6   7 1642.03 88.8678  20
  -3   6   7 1865.59 86.5007   9
  -3   6   7 1743.69 86.9076  13
   2  -6  -7 282.351 15.9469   2
   2  -6  -7 304.787 17.4300   8
   2  -6  -7 283.221 22.3993  12
  -2   6   7 259.234 20.0557   3
  -2   6   7 304.415 17.5703  21
  -2   6   7 299.957 15.9228  13
  -2   6   7 313.096 25.0220  19
  -2   6   7 277.061 17.8903  20
  -2   6   7 308.519 15.5287   9
   1  -6  -7 1202.81 58.0398   2
  -1   6   7 1066.67 61.9541   3
  -1   6   7 1041.05 67.2154  19
  -1   6   7 1144.41 57.2448  13
  -1   6   7 1194.24 57.1213   9
   0  -6  -7 138.428 9.20644   2
   0   6   7 167.871 10.8691   2
   0   6   7 150.743 8.44679   9
  -1  -6  -7 17.9861 2.23181   2
  -1  -6  -7 18.8782 1.62749   9
   1   6   7 18.7387 1.66369   9
  -4   7   7 79.3287 5.27461  21
  -4   7   7 78.3264 4.53547  13
   3  -7  -7 1279.25 65.0097  18
   3  -7  -7 1252.55 65.0578   1
  -3   7   7 1280.62 62.3975  13
  -3   7   7 1249.99 63.4749  21
  -3   7   7 1197.81 62.0428   9
  -3   7   7 1180.17 68.8552   3
   2  -7  -7 217.958 14.4171   1
   2  -7  -7 227.766 11.9910   2
  -2   7   7 235.533 13.3508  21
  -2   7   7 245.941 12.3148  13
  -2   7   7 225.027 12.0815   9
   1  -7  -7 106.806 6.09987   2
  -1   7   7 97.9401 5.71379   9
   0  -7  -7 516.493 25.3853   2
   0   7   7 469.419 24.8106   9
   1   7  -8 153.340 8.35529   2
  -1  -7   8 151.052 8.34329   2
   0   7  -8 40.1692 2.51580   9
   0   7  -8 38.2187 3.63221   2
   0  -7   8 40.0241 3.12765   2
  -1   7  -8 917.091 45.0204   9
  -1   7  -8 790.094 46.6213  21
   1  -7   8 973.535 45.8220   2
  -2   7  -8 32.5367 4.42726   3
  -2   7  -8 33.3556 2.52052  13
  -2   7  -8 32.7093 3.35665  21
   2  -7   8 35.6226 4.75689   1
   2  -7   8 39.4584 2.75155   2
  -3   7  -8 1060.65 55.4140   3
  -3   7  -8 1045.06 51.0468  13
   3  -7   8 1052.22 53.7595  14
   3  -7   8 908.899 53.5863   1
  -4   7  -8 352.681 17.4823  21
   4  -7   8 305.634 20.1204  14
   2   6  -8 496.983 25.0718   2
  -2  -6   8 483.741 24.4512   9
  -2  -6   8 471.729 25.0078   2
   1   6  -8 499.830 26.3790   2
   1   6  -8 488.697 25.3403   9
  -1  -6   8 502.017 25.4081   9
  -1  -6   8 509.838 26.3055   2
   0   6  -8 43.9398 3.82560   2
   0   6  -8 45.5489 3.01140   9
   0   6  -8 38.8005 2.79064  13
   0  -6   8 37.2648 2.76134   9
   0  -6   8 46.1318 3.90047   2
  -1   6  -8 912.485 45.6172  21
  -1   6  -8 888.168 44.3400  13
  -1   6  -8 858.945 48.4534   3
  -1   6  -8 849.083 44.3410   9
   1  -6   8 868.655 45.0371   2
  -2   6  -8 3197.00 149.116   9
  -2   6  -8 2882.97 149.706  21
  -2   6  -8 3002.61 153.040   3
   2  -6   8 2805.12 153.571   1
  -3   6  -8 220.597 11.4955  13
  -3   6  -8 230.688 13.4724  20
  -3   6  -8 210.236 11.2714   9
  -3   6  -8 220.912 15.0397   3
   3  -6   8 216.515 15.3313  14
   3  -6   8 190.481 15.2746   1
   3  -6   8 211.333 13.4698  10
  -4   6  -8 1265.84 68.3364   3
  -4   6  -8 1290.91 65.5925  13
  -4   6  -8 1315.09 66.8284  21
   4  -6   8 1463.05 69.3177  14
   4  -6   8 1233.90 67.2227  10
   4  -6   8 1291.91 69.4720   1
   5  -6   8 20.0847 3.00485  10
   5  -6   8 27.4298 3.13856  14
   3   5  -8 525.284 27.7640   2
   3   5  -8 540.044 29.0825   8
  -3  -5   8 558.009 27.5400  13
  -3  -5   8 544.435 27.3849   9
   2   5  -8 410.056 21.4163   2
  -2  -5   8 401.161 21.3594   2
  -2  -5   8 380.176 20.3708  13
  -2  -5   8 400.058 20.4773   9
   1   5  -8 1607.33 81.1712   2
   1   5  -8 1563.50 79.9014   9
  -1  -5   8 1616.76 81.0360   2
  -1  -5   8 1595.05 79.9852   9
   0   5  -8 76.6208 4.70960   9
   0   5  -8 73.1240 7.48687   3
   0   5  -8 75.3875 4.68278  13
   0   5  -8 78.1034 5.79548   2
   0   5  -8 74.8825 5.78221  21
   0  -5   8 91.6718 10.2251   6
   0  -5   8 75.8509 4.63500   9
   0  -5   8 73.1726 5.48650   2
  -1   5  -8 81.7254 6.24534  21
  -1   5  -8 76.1578 7.97170   3
  -1   5  -8 74.4869 10.9496   5
   1  -5   8 73.9375 8.69704   6
  -2   5  -8 1406.71 78.7508   9
  -2   5  -8 1535.14 78.8910  13
  -2   5  -8 1644.01 81.0256  20
  -2   5  -8 1661.29 81.9092  21
  -2   5  -8 1651.39 83.5910   3
   2  -5   8 1537.40 79.3113  15
   2  -5   8 1460.78 79.3295   2
   2  -5   8 1609.10 84.7643   1
   2  -5   8 1635.25 86.0297   6
  -3   5  -8 130.403 8.97599  20
  -3   5  -8 137.698 10.9262   3
  -3   5  -8 129.745 8.47366  21
  -3   5  -8 124.383 7.20445  13
  -3   5  -8 108.728 6.85250   9
   3  -5   8 137.346 11.8399   1
   3  -5   8 115.064 8.86296  18
  -4   5  -8 2486.86 126.265  13
  -4   5  -8 2594.77 129.598   3
  -4   5  -8 2363.40 127.805  20
  -4   5  -8 2483.86 127.209  21
   4  -5   8 2647.54 129.901  14
   4  -5   8 2521.91 129.038  10
   4  -5   8 2604.63 131.771   1
   5  -5   8 59.6395 5.88481   1
   5  -5   8 55.7787 5.31071  10
   5  -5   8 71.6003 5.77097  14
  -4  -4   8 887.275 41.7383   9
  -4  -4   8 759.645 41.3905  13
   3   4  -8 596.728 31.3821   2
  -3  -4   8 627.020 30.7773   9
  -3  -4   8 642.118 37.0322  20
  -3  -4   8 610.265 32.0871  21
  -3  -4   8 593.975 30.8224  13
  -3  -4   8 558.914 35.7880   3
   2   4  -8 125.230 7.84609   2
   2   4  -8 114.196 6.53113   9
  -2  -4   8 121.405 8.23355  21
  -2  -4   8 128.980 9.57565  20
  -2  -4   8 115.319 7.74639   2
  -2  -4   8 123.800 6.87380   9
  -2  -4   8 117.689 10.8713   3
  -2  -4   8 116.537 6.92957  13
   1   4  -8 296.707 17.8201   2
   1   4  -8 323.803 16.8288   9
   1   4  -8 330.981 26.0474   5
   1   4  -8 293.198 16.6045  13
  -1  -4   8 340.337 17.0135  13
  -1  -4   8 321.054 21.5528   3
  -1  -4   8 350.944 21.5683   6
  -1  -4   8 330.200 16.9142   9
  -1  -4   8 295.313 17.7093   2
  -1  -4   8 369.751 18.4549  21
   0   4  -8 2439.31 121.261  13
   0   4  -8 2292.55 121.144   9
   0   4  -8 2399.47 123.030  20
   0   4  -8 2471.75 130.053   5
   0   4  -8 2418.40 122.286  21
   0   4  -8 2241.74 122.168   2
   0   4  -8 2565.49 125.195   3
   0  -4   8 2451.88 122.085   2
   0  -4   8 2567.40 126.270   6
  -1   4  -8 685.859 32.6180  13
  -1   4  -8 607.916 33.1098  21
  -1   4  -8 550.085 31.9434   9
  -1   4  -8 641.193 33.7338  20
  -1   4  -8 667.812 35.8563   3
   1  -4   8 608.789 32.1797  15
   1  -4   8 654.525 36.8279   6
  -2   4  -8 2786.13 141.054  21
  -2   4  -8 2860.26 141.690  20
  -2   4  -8 2956.67 143.986   3
   2  -4   8 2896.93 140.542  15
   2  -4   8 2634.16 140.475   2
   2  -4   8 2735.36 145.286   6
   2  -4   8 2756.06 149.049   1
  -3   4  -8 33.0427 4.84831   3
  -3   4  -8 29.0761 3.01493  13
  -3   4  -8 37.3932 4.18087  20
  -3   4  -8 37.9740 3.75489  21
   3  -4   8 39.2062 3.48129  15
   3  -4   8 38.6516 5.63603  18
   3  -4   8 43.7684 6.03852   6
   3  -4   8 35.0418 7.11742  14
   3  -4   8 33.8532 7.24649   1
  -4   4  -8 689.658 37.8362  21
  -4   4  -8 714.141 40.0081   3
  -4   4  -8 706.312 40.9294  20
   4  -4   8 778.047 47.1782   1
   4  -4   8 706.621 40.0645  10
   4  -4   8 776.756 41.0856  14
  -5   4  -8 886.983 46.1474  21
   5  -4   8 924.964 47.7584  14
   4   3  -8 229.879 13.4442   8
   4   3  -8 202.607 21.5560  16
   4   3  -8 205.523 10.8986   2
   4   3  -8 195.352 16.8820   4
  -4  -3   8 218.339 11.1869  13
  -4  -3   8 214.922 12.3352  21
  -4  -3   8 197.933 14.8122   3
  -4  -3   8 200.204 13.9130  20
   3   3  -8 523.990 43.3597  16
   3   3  -8 479.445 26.3673   2
   3   3  -8 428.283 33.1330   4
  -3  -3   8 492.518 30.9163   3
  -3  -3   8 505.957 25.9148  13
  -3  -3   8 525.549 28.7159  20
  -3  -3   8 543.962 27.5111  21
  -3  -3   8 516.903 25.7671   9
   2   3  -8 812.833 40.8444   2
   2   3  -8 840.977 51.5838   5
   2   3  -8 693.826 47.8944   4
   2   3  -8 737.324 39.6702   9
  -2  -3   8 815.653 41.4172  21
  -2  -3   8 802.492 42.4742  20
  -2  -3   8 856.745 45.2059   3
  -2  -3   8 774.364 40.0494  13
  -2  -3   8 766.747 39.8668   9
   1   3  -8 2511.68 131.813   5
  -1  -3   8 2472.05 126.763   3
  -1  -3   8 2426.60 124.539  20
  -1  -3   8 2392.74 123.491  21
   0   3  -8 1637.30 82.7267  20
   0   3  -8 1670.01 84.3137   3
   0   3  -8 1576.03 82.1246  21
   0   3  -8 1557.99 83.2250  11
   0  -3   8 1713.18 81.3000  15
   0  -3   8 1603.17 83.3530  20
  -1   3  -8 28.2510 3.88568   3
  -1   3  -8 28.3361 4.24950  11
  -1   3  -8 27.0565 2.98211  21
  -1   3  -8 29.2920 3.22201  20
   1  -3   8 27.9781 2.23416  15
   1  -3   8 30.9531 4.35530   6
  -2   3  -8 3106.60 153.387   3
  -2   3  -8 3128.10 151.699  20
  -2   3  -8 3003.32 151.125  21
   2  -3   8 2685.53 153.754   6
   2  -3   8 3138.99 150.742  15
  -3   3  -8 164.778 9.85120  21
  -3   3  -8 176.494 11.8474   3
   3  -3   8 167.069 9.72452  15
   3  -3   8 156.983 11.2543  18
   3  -3   8 158.552 17.4701   4
   3  -3   8 163.969 12.1827  14
   3  -3   8 169.869 13.5777   1
  -4   3  -8 893.166 47.2758   3
  -4   3  -8 866.520 45.0133  20
  -4   3  -8 802.102 44.3515  21
   4  -3   8 844.462 46.7080  10
   4  -3   8 863.661 55.4608   4
   4  -3   8 885.538 49.5848   1
   4  -3   8 878.786 46.8242  14
  -5   3  -8 958.662 49.7900  21
  -5   3  -8 982.668 51.6133   3
   5  -3   8 966.034 50.8238  10
   5   2  -8 331.724 18.3809   8
   5   2  -8 298.983 24.5360  16
  -5  -2   8 331.020 17.8505  21
  -5  -2   8 351.428 16.9250  13
   4   2  -8 145.871 20.7912  16
   4   2  -8 148.704 15.5172   4
   4   2  -8 153.577 8.23433   2
   4   2  -8 160.830 11.0879   8
  -4  -2   8 143.421 9.68739  21
  -4  -2   8 153.942 12.5884   3
  -4  -2   8 145.211 8.41592  13
  -4  -2   8 143.608 10.6252  20
  -4  -2   8 154.489 8.23288   9
   3   2  -8 1148.78 75.8546  16
   3   2  -8 1062.39 55.3347   2
   3   2  -8 1022.32 63.5189   4
   3   2  -8 1085.15 67.3113   5
  -3  -2   8 1138.44 55.6742  21
  -3  -2   8 1028.35 54.0863   9
  -3  -2   8 1022.90 54.2842  13
  -3  -2   8 1089.36 59.1826   3
   2   2  -8 528.062 35.5695   5
   2   2  -8 471.653 26.3401   2
  -2  -2   8 493.586 26.4951   7
  -2  -2   8 511.114 29.5214   3
  -2  -2   8 510.615 27.6131  20
  -2  -2   8 512.483 26.8669  21
   1   2  -8 93.6615 5.84561  11
   1   2  -8 115.829 7.30206  20
   1   2  -8 95.5017 6.17537  11
  -1  -2   8 95.2645 6.09225   7
  -1  -2   8 104.197 7.10249  20
  -1  -2   8 92.7709 8.02916   3
   0   2  -8 3015.27 145.554  20
   0   2  -8 2897.55 146.600   3
   0  -2   8 2918.40 144.365  15
   0  -2   8 2810.96 147.664   3
   0  -2   8 2846.13 146.035  20
  -1   2  -8 120.133 8.46572   3
  -1   2  -8 125.706 7.60770  20
   1  -2   8 120.744 6.76549  15
   1  -2   8 119.604 8.68629   6
  -2   2  -8 3866.65 181.130  21
   2  -2   8 3323.05 181.366   6
  -3   2  -8 1752.29 84.6870  20
   3  -2   8 1695.35 97.0032   4
   3  -2   8 1669.78 88.5914   1
   3  -2   8 1493.32 83.4936   2
   3  -2   8 1689.83 85.9895  14
  -4   2  -8 6.25192 2.45957  20
   4  -2   8 5.71433 4.38250   4
   4  -2   8 9.94222 5.04884   1
   4  -2   8 8.16451 3.63084  10
   4  -2   8 4.30422 2.52819  14
  -5   2  -8 514.347 28.6127   3
  -5   2  -8 491.437 26.9077  21
  -5   2  -8 510.549 25.4335  13
   5  -2   8 521.062 27.4459  10
   5  -2   8 436.705 34.3058   4
   5   1  -8 806.608 57.4831  16
   5   1  -8 911.710 51.5274   4
  -5  -1   8 825.062 43.4533  21
  -5  -1   8 817.558 46.2983   3
  -5  -1   8 833.221 42.3737  13
   4   1  -8 212.492 26.9385  16
   4   1  -8 212.099 19.9899   4
   4   1  -8 225.169 14.2875   8
  -4  -1   8 193.550 11.3327  13
  -4  -1   8 214.577 16.8759   3
  -4  -1   8 213.874 12.7017  21
  -4  -1   8 194.365 11.0953   9
  -4  -1   8 212.952 13.6280  20
   3   1  -8 268.794 26.0444   5
   3   1  -8 221.986 19.8486   4
   3   1  -8 239.267 14.8039   8
   3   1  -8 209.525 12.5205   2
  -3  -1   8 199.226 12.5475  13
  -3  -1   8 251.036 14.1622  20
  -3  -1   8 235.107 15.7802   3
  -3  -1   8 218.154 12.8823   9
  -3  -1   8 237.761 13.2741  21
   2   1  -8 1235.00 62.3945  17
   2   1  -8 1262.23 68.7698   5
  -2  -1   8 1034.19 60.2800  21
  -2  -1   8 1210.21 60.3187   7
  -2  -1   8 1224.61 62.7356   3
  -2  -1   8 1170.44 61.0329  20
   1   1  -8 74.5579 9.01514   5
   1   1  -8 66.1380 5.33190  17
  -1  -1   8 63.5929 3.72314  15
  -1  -1   8 68.1520 4.48015   7
  -1  -1   8 69.1766 5.23978  20
  -1  -1   8 79.3928 6.40778   3
  -1   1  -8 2062.22 102.983  17
  -1   1  -8 2155.14 103.243  20
  -1   1  -8 2102.49 104.214   3
   1  -1   8 2126.30 102.397  15
   1  -1   8 1841.60 103.458   6
   1  -1   8 1992.25 102.176   7
  -2   1  -8 1085.43 56.5271  20
   2  -1   8 1122.80 55.9598  15
  -3   1  -8 166.769 12.0660   3
  -3   1  -8 193.432 10.8323  20
   3  -1   8 154.329 18.8842   4
   3  -1   8 165.359 13.6938   1
   3  -1   8 165.771 11.8610  10
  -4   1  -8 72.4243 6.17296  20
  -4   1  -8 72.8791 7.48247   3
  -4   1  -8 65.7239 5.35287  21
   4  -1   8 61.2061 6.28876  14
   4  -1   8 64.0937 6.49911  10
   4  -1   8 61.3477 13.0513   4
  -5   1  -8 197.359 10.4595  13
  -5   1  -8 208.147 13.7102   3
  -5   1  -8 172.043 12.9560  21
   5  -1   8 178.711 11.1823  10
   5  -1   8 216.708 21.7703   4
   6   0  -8 215.788 15.5862   4
   5   0  -8 846.453 44.6158   8
   5   0  -8 866.439 51.5588   4
   5   0  -8 824.569 61.2651  16
  -5   0   8 837.811 46.0676   3
  -5   0   8 793.096 42.9694  21
  -5   0   8 802.799 43.8770  20
   4   0  -8 834.866 64.3619  16
   4   0  -8 876.754 45.9139   8
   4   0  -8 821.118 52.7291   4
  -4   0   8 852.418 44.8078  20
  -4   0   8 859.832 47.0090   3
  -4   0   8 818.407 45.0353  21
   3   0  -8 2789.40 149.474   4
   3   0  -8 2993.99 143.612  17
   3   0  -8 2778.82 150.238   5
   3   0  -8 2688.81 141.947   8
  -3   0   8 2622.88 139.973  21
  -3   0   8 2898.95 140.890  20
  -3   0   8 2704.07 140.029   7
  -3   0   8 2847.07 142.592   3
   2   0  -8 2057.92 104.069  17
   2   0  -8 1985.29 108.630   5
  -2   0   8 2088.91 102.482  20
  -2   0   8 2068.10 101.810   7
  -2   0   8 1933.29 103.585   3
   1   0  -8 35.2843 2.87996  11
   1   0  -8 29.3020 3.67925  17
  -1   0   8 31.6037 3.35626  20
  -1   0   8 33.1014 4.06599   3
  -1   0   8 37.4049 2.64017   7
   0   0  -8 3248.53 162.785  20
   0   0  -8 3252.91 164.008   3
   0   0   8 3226.20 163.303  20
   0   0   8 3277.88 165.031   3
  -2   0  -8 1736.61 84.7341   3
  -2   0  -8 1532.59 82.0404  21
   2   0   8 1606.25 81.8683  15
  -3   0  -8 1550.27 74.7909  21
  -3   0  -8 1665.77 75.9480  20
  -3   0  -8 1562.20 78.1229   3
  -3   0  -8 1323.51 73.5012   9
   3   0   8 1399.24 74.3424   2
   3   0   8 1401.15 75.3554  10
   3   0   8 1484.83 88.5004   4
   3   0   8 1333.04 74.2193  15
  -4   0  -8 140.392 9.95987  20
  -4   0  -8 141.336 9.04243  21
  -4   0  -8 143.117 11.6901   3
  -4   0  -8 123.306 7.53788   9
   4   0   8 117.637 8.80694  10
   4   0   8 137.128 23.2562  16
   4   0   8 137.994 18.1715   4
  -5   0  -8 2473.64 120.176  13
  -5   0  -8 2450.61 121.117  21
  -5   0  -8 2346.95 124.633   3
   5   0   8 2353.25 128.987   4
   6  -1  -8 30.7105 3.02613   8
   6  -1  -8 30.5580 7.31583  16
   5  -1  -8 388.859 28.3514   4
   5  -1  -8 393.073 38.7801  16
   5  -1  -8 376.536 22.1568   8
  -5   1   8 376.285 20.6066  21
  -5   1   8 350.968 21.0605  20
  -5   1   8 366.230 23.0462   3
   4  -1  -8 232.724 21.4735   4
   4  -1  -8 246.456 15.4319   8
   4  -1  -8 210.188 20.8693  12
   4  -1  -8 244.244 17.3927  17
   4  -1  -8 267.073 34.7622  16
   4  -1  -8 204.575 22.1611   5
  -4   1   8 241.042 13.5016  21
  -4   1   8 246.906 14.4486  20
  -4   1   8 224.314 15.5747   3
   3  -1  -8 414.556 22.8197   8
   3  -1  -8 427.291 24.7858  17
   3  -1  -8 392.688 28.5921   4
   3  -1  -8 376.304 28.2134   5
  -3   1   8 406.734 21.2921   7
  -3   1   8 409.975 23.2320   3
  -3   1   8 359.162 21.0984  21
  -3   1   8 397.895 21.8123  20
   2  -1  -8 4966.69 257.331   5
   2  -1  -8 5106.32 252.057  11
   1  -1  -8 438.770 23.4488  11
   1  -1  -8 448.739 24.4599  17
  -1   1   8 466.020 22.4286   7
  -1   1   8 454.964 25.0058   3
  -1   1   8 385.344 22.6115  11
  -1   1   8 392.312 26.0894  19
  -1   1   8 432.726 23.3331  20
   0  -1  -8 32.6176 3.87684  17
   0   1   8 32.8589 3.67192  20
   0   1   8 36.2953 2.54273   7
  -1  -1  -8 928.017 50.3198   3
  -1  -1  -8 821.787 47.0466  21
  -1  -1  -8 926.200 47.4556  20
   1   1   8 897.368 45.7818   7
   1   1   8 996.562 46.4787  15
  -2  -1  -8 373.395 21.2992  21
  -2  -1  -8 357.201 21.0642  20
  -2  -1  -8 384.569 19.9357  13
  -2  -1  -8 374.977 23.1348   3
   2   1   8 388.012 19.9344  15
   2   1   8 358.731 20.3799   2
  -3  -1  -8 2710.69 137.569   3
  -3  -1  -8 2521.62 132.318   9
  -3  -1  -8 2569.19 132.310  13
  -3  -1  -8 2736.39 133.975  21
  -3  -1  -8 2639.33 134.604  20
   3   1   8 2742.83 147.655   4
   3   1   8 2588.38 133.155   2
  -4  -1  -8 210.476 15.3574   3
  -4  -1  -8 187.115 10.8730   9
  -4  -1  -8 211.087 11.1494  13
  -4  -1  -8 207.226 13.2998  20
   4   1   8 206.145 20.7849   4
   4   1   8 193.222 25.9702  16
  -5  -1  -8 11.6656 1.87452  21
  -5  -1  -8 13.1706 1.38559  13
   5   1   8 12.4994 4.29647   4
   6  -2  -8 3.06516 4.36130  16
   6  -2  -8 2.14289 2.37951   4
   5  -2  -8 3371.91 182.779  16
   5  -2  -8 2961.87 163.513  12
   5  -2  -8 3269.42 164.366   4
   5  -2  -8 3136.68 157.085   8
  -5   2   8 3050.79 162.774   3
  -5   2   8 2743.39 155.514  20
   4  -2  -8 682.021 52.9662   4
   4  -2  -8 639.116 38.9777  18
   4  -2  -8 640.140 44.7395   5
   4  -2  -8 718.740 39.6993   1
   4  -2  -8 747.215 38.4731   8
   4  -2  -8 744.086 41.2224  17
  -4   2   8 711.442 39.1270   3
  -4   2   8 685.923 37.2525  20
   3  -2  -8 374.690 23.3402  17
   3  -2  -8 363.714 25.2499   5
   3  -2  -8 409.219 38.3453  16
  -3   2   8 357.962 22.0420   3
  -3   2   8 373.501 19.9603   7
  -3   2   8 339.574 19.8695  21
  -3   2   8 350.516 20.3918  20
   2  -2  -8 14.5121 3.87456  17
   2  -2  -8 11.4579 2.45775   6
  -2   2   8 12.1108 2.47985  20
  -2   2   8 9.73638 2.80595   3
  -2   2   8 11.9656 2.17782   7
   1  -2  -8 193.148 11.7095   6
   1  -2  -8 199.652 13.1780  17
  -1   2   8 188.653 11.8379  20
  -1   2   8 228.081 11.6080  11
  -1   2   8 189.943 11.5996  21
  -1   2   8 182.017 13.4923   3
  -1   2   8 183.083 10.7362   7
   0  -2  -8 886.349 54.2895  20
   0  -2  -8 1088.14 60.0774  17
   0   2   8 1138.70 61.1351  19
   0   2   8 1045.59 54.6164  11
   0   2   8 1042.40 54.4848  21
   0   2   8 1050.06 54.9432  20
   0   2   8 1143.55 53.4583   7
   0   2   8 1057.01 57.1784   3
  -1  -2  -8 5022.90 245.332   3
  -1  -2  -8 4867.08 241.843  21
  -1  -2  -8 4604.13 242.542  20
  -2  -2  -8 181.732 11.1777  21
  -2  -2  -8 171.072 9.79911  13
  -2  -2  -8 169.890 11.9134  20
  -2  -2  -8 179.544 13.9692   3
  -2  -2  -8 169.422 9.69583   9
   2   2   8 186.791 11.1153   2
   2   2   8 183.048 10.2888  15
   2   2   8 166.557 9.79775   9
   2   2   8 173.322 18.9527   4
  -3  -2  -8 1126.56 58.5347  13
  -3  -2  -8 1236.80 64.4814   3
  -3  -2  -8 1110.20 61.0055  20
  -3  -2  -8 1107.41 58.4078   9
  -3  -2  -8 1168.24 60.0374  21
   3   2   8 1146.67 59.4669   2
   3   2   8 1205.10 71.1106   4
  -4  -2  -8 217.416 11.5970  21
  -4  -2  -8 182.441 10.2252   9
  -4  -2  -8 173.209 13.4294   3
   4   2   8 192.263 23.0609  16
   4   2   8 197.582 17.0731   4
   6  -3  -8 85.2397 5.89907   8
   5  -3  -8 74.4901 6.84934   8
   5  -3  -8 76.9967 6.65497  18
   5  -3  -8 80.2060 16.8208  16
   5  -3  -8 74.0493 11.5650  12
   5  -3  -8 67.8741 9.60048   4
  -5   3   8 72.2075 6.90340   3
   4  -3  -8 1464.12 81.1050  17
   4  -3  -8 1677.66 104.157  16
   4  -3  -8 1275.94 78.5034  18
   4  -3  -8 1369.29 83.4719   4
   4  -3  -8 1543.50 90.0515  12
   4  -3  -8 1549.52 78.1962   8
   4  -3  -8 1561.27 79.8875   1
  -4   3   8 1528.66 77.0879  20
  -4   3   8 1501.88 79.4124   3
   3  -3  -8 107.849 8.67428   6
   3  -3  -8 105.982 19.2732  16
   3  -3  -8 89.5071 9.74035  17
   3  -3  -8 103.767 8.10810   8
  -3   3   8 102.313 7.07669   7
  -3   3   8 100.064 11.0431  19
  -3   3   8 97.6393 7.49635  20
   2  -3  -8 3071.97 155.935   6
   2  -3  -8 3124.14 158.183  17
  -2   3   8 3137.87 154.221   7
  -2   3   8 3049.00 160.849  19
  -2   3   8 3054.19 155.316  20
  -2   3   8 3022.56 154.719  21
  -2   3   8 3027.21 157.766   3
   1  -3  -8 1352.12 69.5120  17
  -1   3   8 1299.19 67.1922  21
  -1   3   8 1382.32 73.7812  19
  -1   3   8 1242.17 70.0093   3
  -1   3   8 1242.57 67.5461  20
   0  -3  -8 264.361 16.8223  17
   0   3   8 244.615 13.4954   9
   0   3   8 256.959 15.0321  21
   0   3   8 246.684 15.5372  20
   0   3   8 233.572 17.3662   3
   0   3   8 237.441 13.6463  13
   0   3   8 285.433 21.8918  19
  -1  -3  -8 916.602 48.2547  13
  -1  -3  -8 843.773 50.2461  20
  -1  -3  -8 977.618 49.5916   2
  -1  -3  -8 926.867 52.8998   3
  -1  -3  -8 987.547 48.2808   9
  -1  -3  -8 984.109 49.5681  21
   1   3   8 1002.86 49.8552   2
   1   3   8 984.198 48.2565   9
  -2  -3  -8 312.176 16.2766  13
  -2  -3  -8 318.976 17.7172  21
  -2  -3  -8 307.497 17.5057   2
  -2  -3  -8 307.808 16.1950   9
  -2  -3  -8 317.624 21.1773   3
  -2  -3  -8 288.196 18.5998  20
   2   3   8 270.294 16.6177  15
   2   3   8 303.931 24.8632   4
   2   3   8 283.321 15.8739   9
   2   3   8 335.867 17.7975   2
  -3  -3  -8 801.881 41.6318   9
  -3  -3  -8 846.627 42.8732  21
  -3  -3  -8 757.797 44.7619  20
  -3  -3  -8 873.435 41.7618  13
  -3  -3  -8 791.367 47.4995   3
   3   3   8 855.645 42.6189   2
  -4  -3  -8 270.583 12.5751   9
   4   3   8 219.278 19.7607  16
   6  -4  -8 378.724 22.2461  12
   6  -4  -8 348.216 19.2850   8
   5  -4  -8 429.414 31.7969  12
   5  -4  -8 406.912 23.9590  18
   5  -4  -8 409.469 23.7299   8
  -5   4   8 423.045 26.4668   3
   4  -4  -8 1565.46 87.7730  12
   4  -4  -8 1450.37 75.5662   1
   4  -4  -8 1503.39 74.3049   8
   4  -4  -8 1227.41 75.1693  18
  -4   4   8 1361.28 76.0261   3
  -4   4   8 1363.32 73.2759  20
  -4   4   8 1453.23 73.1487  21
   3  -4  -8 5.06593 2.63596   8
   3  -4  -8 6.02203 3.73455  17
   3  -4  -8 6.73425 3.20035   1
   3  -4  -8 4.12547 2.21944   6
  -3   4   8 4.33638 2.01770  21
  -3   4   8 5.75946 4.30271  19
  -3   4   8 3.20862 2.16551  20
  -3   4   8 3.12445 2.54984   3
   2  -4  -8 1064.41 57.0870  17
   2  -4  -8 987.557 51.9221   2
   2  -4  -8 992.586 53.2613   8
   2  -4  -8 1026.39 54.2846   6
  -2   4   8 989.718 53.7865  20
  -2   4   8 986.517 56.7383   3
  -2   4   8 970.722 51.5788  13
  -2   4   8 1065.87 53.4076  21
  -2   4   8 995.006 51.2493   9
  -2   4   8 1054.40 60.3862  19
   1  -4  -8 1206.63 61.8239   2
   1  -4  -8 1247.39 62.7083   8
   1  -4  -8 1171.59 62.8462   6
   1  -4  -8 1258.29 65.8455  17
  -1   4   8 1221.95 62.8327  21
  -1   4   8 1191.82 60.7948   9
  -1   4   8 1164.64 66.3882   3
  -1   4   8 1272.86 70.9035  19
  -1   4   8 1159.28 61.0964  13
  -1   4   8 1156.78 63.3659  20
   0  -4  -8 48.2098 6.59665  17
   0  -4  -8 49.2275 4.59613   2
   0  -4  -8 48.9053 3.57817   9
   0   4   8 43.2256 5.30451  20
   0   4   8 48.7753 3.66795   9
   0   4   8 48.5627 6.83385   3
   0   4   8 43.6442 5.01592  21
   0   4   8 48.7491 3.94856  13
   0   4   8 47.7421 4.93313   2
  -1  -4  -8 1454.55 72.9843   9
  -1  -4  -8 1448.67 72.7086  13
  -1  -4  -8 1447.36 74.3032   2
   1   4   8 1536.81 74.7415   2
   1   4   8 1334.48 73.4820  15
   1   4   8 1473.77 72.9765   9
  -2  -4  -8 486.347 25.3067  21
  -2  -4  -8 494.566 24.3783  13
  -2  -4  -8 473.942 25.6842   2
  -2  -4  -8 442.216 24.4859   9
   2   4   8 478.044 25.8111   2
  -3  -4  -8 236.283 12.5401   9
  -3  -4  -8 246.102 12.3817  13
   5  -5  -8 235.207 20.1517  12
   5  -5  -8 218.341 14.2568  18
   5  -5  -8 240.301 14.0025   8
   4  -5  -8 500.442 36.2272  12
   4  -5  -8 413.568 26.2919   1
   4  -5  -8 460.746 25.7940   8
   4  -5  -8 418.125 27.3144  18
  -4   5   8 410.542 27.5749   3
  -4   5   8 467.269 25.2255  21
  -4   5   8 478.541 25.5825  20
  -4   5   8 473.078 23.8195  13
   3  -5  -8 1574.85 82.0135   1
   3  -5  -8 1605.24 79.8911   8
   3  -5  -8 1649.77 92.7380  12
  -3   5   8 1486.55 79.4722  21
  -3   5   8 1526.13 77.2742   9
  -3   5   8 1520.21 80.1334  20
  -3   5   8 1541.61 87.8988  19
  -3   5   8 1493.73 83.4452   3
  -3   5   8 1449.71 77.7349  13
   2  -5  -8 411.180 26.7390   6
   2  -5  -8 490.509 25.8135   8
   2  -5  -8 477.556 24.3614   2
  -2   5   8 465.287 23.5514   9
  -2   5   8 467.689 33.2112  19
  -2   5   8 440.015 23.9163  13
  -2   5   8 441.616 29.3011   3
  -2   5   8 441.209 26.3205  20
  -2   5   8 442.867 25.6731  21
   1  -5  -8 2927.76 138.956   8
   1  -5  -8 2892.47 138.309   2
  -1   5   8 2719.30 139.113  21
  -1   5   8 2393.58 139.580  20
  -1   5   8 2770.99 148.953  19
  -1   5   8 2780.21 137.117   9
  -1   5   8 2737.43 137.396  13
  -1   5   8 2696.21 143.295   3
   0  -5  -8 119.336 7.59434   2
   0  -5  -8 93.2265 5.99660   9
   0   5   8 111.391 6.46514   9
   0   5   8 94.3177 13.4806  19
   0   5   8 118.245 7.94282   2
   0   5   8 103.795 6.26166  13
   0   5   8 86.5955 7.14932  21
  -1  -5  -8 746.169 38.9228   9
  -1  -5  -8 790.847 40.1772   2
   1   5   8 777.704 40.3960   2
   1   5   8 758.599 38.9360   9
  -2  -5  -8 61.2837 3.56970   9
  -2  -5  -8 57.9792 4.95005   2
   2   5   8 55.6637 4.40378   2
   5  -6  -8 131.725 11.9710  12
   5  -6  -8 155.762 9.01305   8
   5  -6  -8 142.304 8.90277  18
   4  -6  -8 1153.19 62.6274   1
   4  -6  -8 1296.19 69.9004  12
  -4   6   8 1143.57 64.1238   3
  -4   6   8 1195.90 60.3871  13
   3  -6  -8 460.308 28.1237  18
   3  -6  -8 437.019 26.9569   1
   3  -6  -8 517.718 26.0133   8
   3  -6  -8 484.194 33.2209  12
  -3   6   8 466.576 31.1082   3
  -3   6   8 423.176 26.1233  20
  -3   6   8 462.784 33.3185  19
  -3   6   8 457.676 24.8151   9
  -3   6   8 463.043 24.3327  13
  -3   6   8 472.438 25.9588  21
   2  -6  -8 4.22376 1.32824   2
   2  -6  -8 3.28616 3.66173  12
   2  -6  -8 2.51242 2.13201   8
  -2   6   8 4.42318 3.01513   3
  -2   6   8 3.97307 1.27483   9
  -2   6   8 3.48933 2.21790  20
  -2   6   8 4.31019 1.58755  13
   1  -6  -8 937.263 46.0810   2
  -1   6   8 853.823 49.8364   3
  -1   6   8 939.343 45.3418  13
  -1   6   8 924.766 45.2385   9
  -1   6   8 783.254 54.6361  19
  -1   6   8 908.411 46.5589  21
   0  -6  -8 523.231 27.4746   2
   0   6   8 516.824 27.6829   2
   0   6   8 519.996 26.6005   9
  -1  -6  -8 538.027 27.3418   2
  -1  -6  -8 525.551 26.5246   9
   1   6   8 522.598 26.5816   9
   4  -7  -8 20.9695 2.77549  18
  -4   7   8 16.7474 1.58069  13
   3  -7  -8 577.449 29.9359  18
  -3   7   8 484.169 27.2723   9
  -3   7   8 540.598 28.5554  21
  -3   7   8 564.762 27.6503  13
   2  -7  -8 3.45400 1.81361   1
  -2   7   8 2.82246 1.35971  21
  -2   7   8 1.62251 0.84551   9
  -2   7   8 1.58690 0.91576  13
   1  -7  -8 871.561 43.4686   2
  -1   7   8 847.988 43.1920   9
   0  -7  -8 55.4410 3.34273   2
   1   7  -9 0.18288 0.60073   2
  -1  -7   9 1.09362 0.74384   2
   0   7  -9 759.220 39.5055   2
   0   7  -9 755.649 38.8411   9
   0  -7   9 807.197 39.5883   2
  -1   7  -9 1024.35 54.7435  21
  -1   7  -9 1068.75 54.0769  13
   1  -7   9 1204.74 54.9044   2
   1  -7   9 1022.17 56.8831   1
  -2   7  -9 106.688 9.99705   3
  -2   7  -9 130.597 7.13185  13
  -2   7  -9 120.060 7.35242  21
  -2   7  -9 126.987 6.43244   9
   2  -7   9 104.671 9.08216   1
   2  -7   9 117.490 6.58470   2
  -3   7  -9 974.893 50.2176   9
  -3   7  -9 995.792 50.3601  13
  -3   7  -9 985.919 51.1511  21
  -3   7  -9 1052.51 56.3467   3
   3  -7   9 1011.42 52.7311  14
  -4   7  -9 243.638 12.4081  13
   4  -7   9 243.145 13.6714  14
   2   6  -9 783.031 38.6786   2
  -2  -6   9 746.051 38.6199   2
  -2  -6   9 749.566 38.1046   9
   1   6  -9 407.260 20.8191   9
   1   6  -9 409.367 21.6981   2
  -1  -6   9 426.701 21.6959   2
  -1  -6   9 382.873 21.0019   9
   0   6  -9 1019.36 49.1067   9
   0   6  -9 932.049 48.8976  13
   0   6  -9 961.467 50.1340   2
   0  -6   9 1001.85 50.0430   2
   0  -6   9 958.859 48.9250   9
  -1   6  -9 331.422 17.6317  13
  -1   6  -9 331.751 17.4958   9
  -1   6  -9 345.409 18.5675  21
  -1   6  -9 329.792 19.5414  20
  -1   6  -9 327.218 21.0496   3
  -2   6  -9 79.1430 8.17995   3
  -2   6  -9 89.7098 5.22742  13
  -2   6  -9 94.5512 6.61195  21
  -2   6  -9 86.8629 7.13389  20
  -2   6  -9 85.4320 4.99671   9
   2  -6   9 76.8569 8.26261   1
   2  -6   9 77.2366 5.54019   2
  -3   6  -9 368.479 22.4441   3
  -3   6  -9 364.407 18.6880   9
  -3   6  -9 372.128 18.6767  13
  -3   6  -9 379.056 20.7564  20
  -3   6  -9 382.013 19.8956  21
   3  -6   9 323.696 22.0488   1
   3  -6   9 330.792 20.6248  10
   3  -6   9 361.959 22.1522  14
  -4   6  -9 804.096 39.9907  21
  -4   6  -9 740.557 43.8153   3
  -4   6  -9 804.378 39.0673  13
   4  -6   9 767.051 42.0255   1
   4  -6   9 685.794 40.5270  10
   4  -6   9 853.190 41.7010  14
   3   5  -9 85.8395 5.13126   2
   3   5  -9 88.2615 6.30004   8
  -3  -5   9 86.4537 4.81608   9
   2   5  -9 630.102 32.2017   2
  -2  -5   9 622.214 31.2863   9
  -2  -5   9 630.626 32.2210   2
  -2  -5   9 580.838 31.1846  13
   1   5  -9 640.575 32.0579   9
   1   5  -9 617.366 33.2471   2
  -1  -5   9 643.659 32.1528   9
  -1  -5   9 625.160 33.1316   2
   0   5  -9 80.3461 7.88226   3
   0   5  -9 85.8236 6.09799   2
   0   5  -9 89.8362 5.06098   9
   0   5  -9 84.4770 5.02019  13
   0   5  -9 81.8686 6.91423  20
   0  -5   9 81.8254 5.89746   2
   0  -5   9 87.7670 4.99582   9
   0  -5   9 81.5215 9.06501   6
  -1   5  -9 2331.03 123.628  20
  -1   5  -9 2380.59 121.564  13
  -1   5  -9 2232.51 130.559   5
  -1   5  -9 2685.79 125.603  21
  -1   5  -9 2234.73 121.398   9
  -1   5  -9 2435.42 126.056   3
   1  -5   9 2734.54 131.208   6
   1  -5   9 2419.48 122.333   2
  -2   5  -9 203.113 12.1573  21
  -2   5  -9 192.786 10.5619   9
  -2   5  -9 205.025 14.6088   3
  -2   5  -9 199.072 10.7927  13
  -2   5  -9 207.401 12.8229  20
   2  -5   9 189.215 11.2879   2
   2  -5   9 191.140 16.2502   6
   2  -5   9 200.545 15.0679   1
   2  -5   9 189.586 11.2485  15
  -3   5  -9 1061.75 54.0280  20
  -3   5  -9 973.368 51.8176  13
  -3   5  -9 1058.97 53.1569  21
  -3   5  -9 1049.59 55.9483   3
   3  -5   9 1045.16 55.8294  14
   3  -5   9 978.140 56.5507   1
  -4   5  -9 374.751 22.8010   3
  -4   5  -9 398.800 20.8114  21
  -4   5  -9 391.661 21.3394  20
   4  -5   9 343.250 22.2015  10
   4  -5   9 413.235 22.9236  14
   4  -5   9 377.103 23.8639   1
   5  -5   9 1.47011 1.67773  14
   5  -5   9 1.92680 1.59418  10
   4   4  -9 248.568 13.5626   8
  -4  -4   9 245.805 12.4753  13
  -4  -4   9 230.897 12.3819   9
   3   4  -9 372.481 18.6623   2
  -3  -4   9 347.610 18.0604  13
  -3  -4   9 330.315 22.2010   3
  -3  -4   9 313.765 19.0596  21
  -3  -4   9 372.409 18.0119   9
   2   4  -9 604.878 31.6847   9
   2   4  -9 668.779 33.0878   2
  -2  -4   9 666.274 33.1481   2
  -2  -4   9 629.733 33.4531  21
  -2  -4   9 573.183 38.4794   3
  -2  -4   9 624.850 32.0659  13
  -2  -4   9 605.476 34.8652  20
  -2  -4   9 646.182 31.9927   9
   1   4  -9 2518.59 134.141   5
   1   4  -9 2509.49 123.291   2
   1   4  -9 2223.42 121.830  13
   1   4  -9 2427.70 122.070   9
  -1  -4   9 2392.82 122.219  13
  -1  -4   9 2554.83 127.777   6
  -1  -4   9 2376.09 123.503  21
  -1  -4   9 2490.54 123.147   2
  -1  -4   9 2513.68 122.194   9
   0   4  -9 15.3056 1.87287  13
   0   4  -9 10.2728 2.74284  20
   0   4  -9 17.2379 1.85756   9
   0   4  -9 16.7747 6.58154   5
   0  -4   9 13.2244 2.41990   2
   0  -4   9 11.7345 1.73079   9
  -1   4  -9 2900.71 153.637   9
  -1   4  -9 3167.82 155.699  20
  -1   4  -9 3173.71 162.426   3
  -1   4  -9 3048.24 153.806  13
  -1   4  -9 3236.21 155.044  21
   1  -4   9 3070.58 159.267   6
   1  -4   9 3068.58 153.985  15
   1  -4   9 2989.63 154.427   2
  -2   4  -9 118.079 7.03750   9
  -2   4  -9 120.303 7.26638  13
  -2   4  -9 141.404 10.5831   3
  -2   4  -9 123.876 8.79086  20
  -2   4  -9 118.357 8.27189  21
   2  -4   9 128.185 7.82071   2
   2  -4   9 147.395 11.5476   1
   2  -4   9 122.736 7.62567  15
   2  -4   9 127.512 11.4357   6
  -3   4  -9 85.5283 5.12591  13
  -3   4  -9 91.4931 8.15656   3
   3  -4   9 97.4662 6.41101  15
   3  -4   9 75.5199 8.51975   1
   3  -4   9 89.9337 8.71629  14
   3  -4   9 78.2607 6.90923  18
   3  -4   9 79.7613 5.25890   2
  -4   4  -9 1304.09 70.3347  13
  -4   4  -9 1412.10 71.7432  21
  -4   4  -9 1433.30 72.0259  20
   4  -4   9 1478.44 73.6689  14
   4  -4   9 1387.10 73.8014  10
   4  -4   9 1407.33 75.6270   1
  -5   4  -9 295.934 16.2818  21
   5  -4   9 310.980 17.6616  10
   5  -4   9 308.427 17.3729  14
   4   3  -9 521.484 26.0418   2
   4   3  -9 571.036 28.6649   8
   4   3  -9 455.050 32.0299   4
  -4  -3   9 520.999 27.5622  21
  -4  -3   9 523.687 26.3594  13
  -4  -3   9 489.154 30.3717   3
  -4  -3   9 525.851 26.2214   9
   3   3  -9 902.741 44.8027   2
   3   3  -9 772.479 52.3203   4
  -3  -3   9 882.081 44.2274  13
  -3  -3   9 915.814 44.0805   9
  -3  -3   9 891.901 49.6128   3
  -3  -3   9 860.866 46.9604  20
  -3  -3   9 867.730 45.6478  21
   2   3  -9 377.389 29.2551   5
   2   3  -9 355.814 18.6439   2
   2   3  -9 318.666 17.4202   9
   2   3  -9 303.692 25.5455   4
  -2  -3   9 326.943 17.6248   9
  -2  -3   9 346.221 17.8617  13
  -2  -3   9 371.093 22.8091   3
  -2  -3   9 354.945 19.2760  21
  -2  -3   9 303.099 19.9939   2
  -2  -3   9 343.957 20.3214  20
   1   3  -9 2221.38 114.773   5
   1   3  -9 1957.04 104.848   2
   1   3  -9 2018.72 103.948   9
  -1  -3   9 2177.59 105.467  21
  -1  -3   9 2248.85 109.171   3
  -1  -3   9 1848.16 104.222   9
  -1  -3   9 2103.45 104.195  13
   0   3  -9 40.7824 4.25517  11
   0   3  -9 35.6707 3.44743  21
   0   3  -9 37.7944 4.60211   3
   0   3  -9 41.0783 3.94462  20
   0  -3   9 39.1497 2.54770  15
  -1   3  -9 2423.04 118.415   3
  -1   3  -9 2347.32 118.456  11
  -1   3  -9 2252.95 115.957  21
  -1   3  -9 2363.80 116.754  20
   1  -3   9 2140.07 118.854   6
   1  -3   9 2300.65 115.310  15
  -2   3  -9 1565.77 75.5436  21
  -2   3  -9 1541.53 76.0023  20
  -2   3  -9 1536.31 77.6165   3
   2  -3   9 1552.88 74.9263  15
   2  -3   9 1325.73 74.8332   2
   2  -3   9 1376.92 78.1284   6
  -3   3  -9 22.1526 4.02837   3
  -3   3  -9 21.7141 3.00856  21
   3  -3   9 17.9986 7.42380   4
   3  -3   9 26.3463 4.96446  14
   3  -3   9 26.5856 5.21480   1
   3  -3   9 17.1888 2.30579   2
   3  -3   9 20.7638 2.75593  15
  -4   3  -9 712.917 36.5178  21
  -4   3  -9 740.201 37.2329  20
  -4   3  -9 707.405 39.2792   3
   4  -3   9 707.305 38.8735  10
   4  -3   9 721.270 38.5425  14
   4  -3   9 662.127 47.3135   4
   4  -3   9 658.870 40.4741   1
  -5   3  -9 596.564 30.4772  21
  -5   3  -9 499.863 30.3549  13
  -5   3  -9 619.611 33.0283   3
   5  -3   9 600.655 31.3866  14
   5  -3   9 618.079 32.9908  10
   5   2  -9 25.3918 4.35211   8
   5   2  -9 16.3571 4.72997   4
  -5  -2   9 18.8285 2.61209  21
  -5  -2   9 21.8615 1.83806  13
   4   2  -9 454.078 23.4236   2
   4   2  -9 479.282 26.2293   8
   4   2  -9 434.833 31.8940   4
   4   2  -9 438.274 38.4132  16
  -4  -2   9 468.888 28.5656   3
  -4  -2   9 455.312 23.4500   9
  -4  -2   9 473.882 25.1589  21
  -4  -2   9 456.131 26.2531  20
  -4  -2   9 459.487 23.6863  13
   3   2  -9 995.327 63.0107   5
   3   2  -9 913.660 48.9565   2
   3   2  -9 983.513 60.0130   4
   3   2  -9 948.508 67.4009  16
  -3  -2   9 996.590 48.9663   9
  -3  -2   9 934.279 48.6252  13
  -3  -2   9 945.733 49.8672  21
  -3  -2   9 950.899 50.9551  20
  -3  -2   9 959.749 53.4897   3
   2   2  -9 55.6045 10.2398   5
   2   2  -9 43.4154 8.50699   4
  -2  -2   9 54.4720 4.27752   7
  -2  -2   9 46.0424 3.39254  13
  -2  -2   9 53.3299 5.05803  20
  -2  -2   9 55.3353 4.88666  21
  -2  -2   9 51.2276 6.10425   3
  -2  -2   9 42.6069 3.15055   9
   1   2  -9 6021.98 303.312  11
   1   2  -9 5972.04 303.224  11
  -1  -2   9 6220.80 303.257  21
   0   2  -9 62.1816 5.30228   3
   0   2  -9 52.5874 4.01757  21
   0  -2   9 53.9777 3.28269  15
   0  -2   9 53.5460 7.05917   3
   0  -2   9 53.9262 3.86306   7
   0  -2   9 51.3321 4.61517  20
  -1   2  -9 2104.84 102.821   3
   1  -2   9 1867.05 102.767   6
   1  -2   9 2041.12 100.393  15
  -2   2  -9 1871.39 91.4916  20
  -2   2  -9 1791.44 90.6868  21
  -2   2  -9 1781.99 92.6948   3
   2  -2   9 1673.05 92.0702   6
   2  -2   9 1862.75 90.4576  15
  -3   2  -9 706.548 37.3914  21
  -3   2  -9 760.362 40.4007   3
  -3   2  -9 771.322 38.1671  20
   3  -2   9 722.126 41.5054   1
   3  -2   9 736.792 50.6346   4
   3  -2   9 640.950 36.9402   2
   3  -2   9 720.714 37.3699  15
   3  -2   9 694.646 38.9321  14
  -4   2  -9 106.492 8.97175   3
  -4   2  -9 100.101 6.76427  21
  -4   2  -9 100.430 7.28531  20
  -4   2  -9 95.2884 5.75124  13
   4  -2   9 93.5980 15.1358   4
   4  -2   9 102.055 8.59706  10
   4  -2   9 94.7637 7.85068  14
  -5   2  -9 245.517 13.7783  21
  -5   2  -9 259.753 13.0696  13
  -5   2  -9 256.469 17.6541   3
   5  -2   9 250.227 14.3203  10
   5  -2   9 219.222 21.1640   4
   5   1  -9 727.159 42.9682   4
   5   1  -9 689.021 35.1244   8
   5   1  -9 582.500 45.3112  16
  -5  -1   9 632.477 32.8858  13
  -5  -1   9 604.809 33.9383  21
  -5  -1   9 652.929 36.9054   3
   4   1  -9 1777.97 113.312  16
   4   1  -9 1931.48 94.8031   8
   4   1  -9 1829.80 102.829   4
  -4  -1   9 1711.42 91.7756  13
  -4  -1   9 1873.41 94.4566  20
  -4  -1   9 1779.36 91.6350   9
  -4  -1   9 1854.42 93.2297  21
  -4  -1   9 1886.44 97.0632   3
   3   1  -9 1186.37 69.8247   5
   3   1  -9 1212.26 78.2446  16
   3   1  -9 1194.32 60.9349  17
   3   1  -9 1128.65 66.5675   4
   3   1  -9 1045.30 56.8636   2
   3   1  -9 1132.18 59.1437   8
  -3  -1   9 1114.49 56.4417   9
  -3  -1   9 1159.46 60.8945   3
  -3  -1   9 1060.35 57.4396   7
  -3  -1   9 989.520 56.4669  13
  -3  -1   9 1152.47 58.6419  20
  -3  -1   9 1095.88 57.6117  21
   2   1  -9 672.787 42.0176   5
   2   1  -9 619.326 35.4805  17
  -2  -1   9 633.057 33.4420   7
  -2  -1   9 697.811 36.2808   3
  -2  -1   9 699.963 37.8373  20
  -2  -1   9 557.888 33.4809  21
   1   1  -9 2165.63 114.265  17
   1   1  -9 2261.12 119.680   5
   1   1  -9 2430.18 113.268  11
  -1  -1   9 2352.89 114.262  20
  -1  -1   9 2279.08 115.886   3
  -1  -1   9 2290.17 113.109   7
  -1  -1   9 2078.06 112.299  15
  -1  -1   9 2185.51 113.480  21
   0  -1   9 7588.08 381.562   3
  -1   1  -9 49.1196 3.85205  21
  -1   1  -9 52.8376 8.72962  17
   1  -1   9 62.0881 3.61686  15
   1  -1   9 47.8645 3.23274   7
   1  -1   9 51.1267 4.43889   6
  -2   1  -9 2461.54 130.518  21
  -2   1  -9 2617.31 131.228  20
  -2   1  -9 2641.93 133.164   3
   2  -1   9 2687.42 130.528  15
  -3   1  -9 883.943 45.7315   9
  -3   1  -9 967.850 49.7921   3
  -3   1  -9 1031.87 47.7010  20
  -3   1  -9 882.246 45.7326  13
   3  -1   9 910.581 60.8298   4
   3  -1   9 934.937 48.4686  10
   3  -1   9 825.925 47.5874  14
   3  -1   9 837.698 46.4832   2
   3  -1   9 881.536 46.6947  15
  -4   1  -9 6890.30 340.260  20
  -4   1  -9 6806.24 342.682   3
  -4   1  -9 6631.14 339.317  21
   4  -1   9 6431.23 354.320   4
   4  -1   9 7211.47 341.596  10
  -5   1  -9 238.868 13.2313  21
  -5   1  -9 233.125 12.3065  13
  -5   1  -9 241.176 15.4059   3
   5  -1   9 223.758 20.4006   4
   5   0  -9 434.316 30.7751   4
   5   0  -9 455.932 24.6069   8
   5   0  -9 421.488 38.0879  16
  -5   0   9 407.113 23.2217  21
  -5   0   9 422.211 22.3223  13
  -5   0   9 435.610 26.1736   3
   4   0  -9 3.69622 1.97811   8
   4   0  -9 3.97128 6.39714  16
   4   0  -9 3.65829 3.83075   4
  -4   0   9 5.25198 2.88045   3
  -4   0   9 4.77058 1.15683  13
  -4   0   9 3.84627 1.62629  21
  -4   0   9 3.35728 2.15024  20
   3   0  -9 9269.80 476.607   2
   3   0  -9 9999.99 503.883  16
  -3   0   9 9467.00 477.309   7
   2   0  -9 105.027 11.5675  17
  -2   0   9 110.898 8.62563   3
  -2   0   9 104.947 6.65646   7
  -2   0   9 118.740 7.62206  20
   1   0  -9 1818.20 97.8979  17
   1   0  -9 2005.46 97.0327  11
  -1   0   9 1887.44 99.0673   3
  -1   0   9 1874.60 97.4036  20
  -1   0   9 2011.58 96.3221   7
   0   0  -9 2649.60 139.599  20
   0   0  -9 2724.36 140.433  17
   0   0  -9 2824.76 141.055   3
   0   0   9 2947.54 138.990   7
   0   0   9 2651.57 140.174  20
   0   0   9 2840.28 142.188   3
   0   0   9 2840.35 138.889  15
  -1   0  -9 203.989 11.8550  20
  -1   0  -9 209.216 13.2103   3
   1   0   9 225.656 11.2624  15
   1   0   9 182.355 10.5600   7
  -2   0  -9 816.450 41.6413  21
  -2   0  -9 789.731 44.0617   3
  -2   0  -9 803.539 42.1852  20
   2   0   9 818.143 41.3929  15
  -3   0  -9 3184.80 166.424   9
  -3   0  -9 3533.57 167.765  21
  -3   0  -9 3710.68 171.604   3
   3   0   9 3377.86 167.481   2
   3   0   9 3217.54 191.393   4
   3   0   9 3291.12 168.222  10
   3   0   9 3028.94 167.237  15
  -4   0  -9 5.57644 2.63708  20
  -4   0  -9 7.71884 1.32389   9
  -4   0  -9 5.22952 2.06602  21
  -4   0  -9 7.21941 1.71008  13
   4   0   9 10.7447 8.35538   4
  -5   0  -9 1348.26 68.6655  21
   5   0   9 1361.96 75.5765   4
   6  -1  -9 462.225 25.7842   8
   6  -1  -9 521.101 29.7939   4
   5  -1  -9 1410.65 90.7736  16
   5  -1  -9 1427.69 78.2159   4
   5  -1  -9 1445.89 70.7134   8
  -5   1   9 1340.07 69.1811  21
  -5   1   9 1232.38 69.6566  20
  -5   1   9 1252.68 73.8926   3
   4  -1  -9 18.1979 3.73198   8
   4  -1  -9 16.2098 6.24975  17
   4  -1  -9 16.5290 6.74201   4
   4  -1  -9 16.3099 6.31311  12
   4  -1  -9 20.5717 16.7244   5
   4  -1  -9 18.2947 9.60265  16
  -4   1   9 17.0739 3.25583  20
  -4   1   9 15.6278 3.68081   3
  -4   1   9 15.5297 2.65211  21
   3  -1  -9 1311.80 79.1100   5
   3  -1  -9 1507.61 100.756  16
   3  -1  -9 1431.79 74.5317  17
  -3   1   9 1422.09 73.4801   3
  -3   1   9 1397.94 71.5953  20
  -3   1   9 1378.90 70.6850   7
  -3   1   9 1288.07 70.6719  21
   2  -1  -9 127.146 9.60392  17
   2  -1  -9 103.938 11.4260   5
   2  -1  -9 115.100 7.75674  11
  -2   1   9 107.870 6.89023   7
  -2   1   9 101.085 8.80163   3
  -2   1   9 128.144 8.11081  20
  -2   1   9 120.510 7.46960  21
   1  -1  -9 1920.86 114.846   5
   1  -1  -9 2326.82 113.713  17
  -1   1   9 2328.14 114.428   3
  -1   1   9 2277.82 111.249   7
  -1   1   9 2240.10 112.376  20
   0  -1  -9 4828.95 244.752  20
   0  -1  -9 4789.69 246.328   3
   0   1   9 4911.45 245.293  20
   0   1   9 5029.55 247.513   3
  -1  -1  -9 29.0119 4.21770   3
  -1  -1  -9 27.8310 3.03205  21
  -1  -1  -9 27.8846 3.49759  20
  -2  -1  -9 1304.56 66.1148  21
  -2  -1  -9 1303.96 65.7116   9
  -2  -1  -9 1302.53 65.1187  13
  -2  -1  -9 1339.00 67.0661  20
   2   1   9 1200.01 66.1385   2
   2   1   9 1302.08 65.6216  15
  -3  -1  -9 225.828 16.1993   3
  -3  -1  -9 225.749 14.0649  20
  -3  -1  -9 225.130 13.1249  21
  -3  -1  -9 194.947 11.5344   9
  -3  -1  -9 212.917 11.6743  13
   3   1   9 205.107 12.5739   2
   3   1   9 221.784 23.3953   4
   3   1   9 190.924 12.2255  15
  -4  -1  -9 4.24157 2.23258  20
  -4  -1  -9 2.50082 1.71140  21
  -4  -1  -9 2.66511 1.00196   9
  -4  -1  -9 3.43680 1.21291  13
   4   1   9 1.96770 4.14783   4
   4   1   9 5.77634 6.90645  16
  -5  -1  -9 514.560 25.9762  13
   6  -2  -9 179.788 13.3206   4
   6  -2  -9 174.327 10.2959   8
   5  -2  -9 704.159 54.4949  16
   5  -2  -9 713.679 36.2172   8
   5  -2  -9 666.120 42.2013   4
   5  -2  -9 611.034 41.1901  12
  -5   2   9 674.675 34.6920  21
  -5   2   9 637.435 37.1532   3
  -5   2   9 587.477 34.7111  20
   4  -2  -9 38.2917 6.51079  17
   4  -2  -9 42.0682 8.77066   4
   4  -2  -9 39.6764 9.88666  12
   4  -2  -9 35.9274 4.81286  18
   4  -2  -9 45.6921 13.9158  16
   4  -2  -9 39.4919 4.94614   8
  -4   2   9 36.0675 4.33465  20
  -4   2   9 39.7322 4.07508  21
  -4   2   9 37.9963 5.41085   3
   3  -2  -9 606.146 34.6510  17
   3  -2  -9 529.061 35.9333   5
   3  -2  -9 585.622 31.8935   8
  -3   2   9 587.437 33.6430   3
  -3   2   9 609.352 31.6485  20
  -3   2   9 575.330 30.8878  21
  -2   2   9 5505.07 281.142  11
  -2   2   9 5738.88 281.185  21
   1  -2  -9 1753.15 87.3704  17
  -1   2   9 1674.86 91.1076  19
  -1   2   9 1640.50 85.2377  21
  -1   2   9 1652.37 84.4325   7
  -1   2   9 1697.21 85.7872  20
  -1   2   9 1574.07 85.1577  11
  -1   2   9 1733.75 88.1699   3
   0  -2  -9 2821.91 164.441  20
   0  -2  -9 3371.54 165.689  17
   0  -2  -9 3065.04 165.700   3
   0   2   9 3470.42 167.378   3
   0   2   9 3346.03 164.531  20
   0   2   9 3315.83 163.848  21
   0   2   9 3386.71 162.705   7
  -1  -2  -9 22.1056 3.78647  20
  -1  -2  -9 24.4515 3.38752  21
  -1  -2  -9 27.9836 2.50033   9
  -1  -2  -9 28.0794 2.51805  13
   1   2   9 32.4214 2.63687   9
   1   2   9 27.8452 2.78686  15
  -2  -2  -9 175.597 13.7831   3
  -2  -2  -9 161.899 9.39989   9
  -2  -2  -9 183.485 11.9385  20
  -2  -2  -9 167.653 9.59290  13
  -2  -2  -9 186.637 10.9838  21
   2   2   9 160.947 10.7726   2
   2   2   9 148.102 9.26638   9
   2   2   9 172.295 10.0093  15
   2   2   9 162.572 18.9025   4
  -3  -2  -9 861.938 45.0497  21
  -3  -2  -9 843.953 44.1559  13
  -3  -2  -9 846.508 48.8061   3
   3   2   9 878.471 46.7188   2
  -4  -2  -9 36.8307 4.71934   3
  -4  -2  -9 40.6526 2.78635  13
  -4  -2  -9 34.4329 2.54043   9
   4   2   9 30.1489 8.21486  16
   4   2   9 37.7713 7.09576   4
   6  -3  -9 103.293 6.62692   8
   5  -3  -9 836.036 46.6039  18
   5  -3  -9 851.227 53.6013  12
   5  -3  -9 813.103 50.5592   4
   5  -3  -9 946.625 46.1089   8
  -5   3   9 862.509 47.1015   3
  -5   3   9 845.365 45.3642  20
   4  -3  -9 210.897 28.0716  16
   4  -3  -9 204.890 13.1279   8
   4  -3  -9 176.963 13.3831  18
   4  -3  -9 169.519 17.1452   4
   4  -3  -9 198.047 21.7758  12
  -4   3   9 191.260 14.2899   3
  -4   3   9 200.072 12.3950  20
  -4   3   9 187.763 11.7440  21
   3  -3  -9 1335.87 75.2880  17
   3  -3  -9 1302.69 70.1022   2
   3  -3  -9 1445.05 72.2505   8
  -3   3   9 1453.49 74.8030   3
  -3   3   9 1394.81 77.6335  19
  -3   3   9 1458.98 72.1295  20
  -3   3   9 1329.81 71.2417  21
   2  -3  -9 1644.36 83.0176   6
   2  -3  -9 1491.59 81.8434   8
   2  -3  -9 1660.18 85.2472  17
   2  -3  -9 1499.83 80.7918   2
  -2   3   9 1634.05 88.3372  19
  -2   3   9 1648.22 84.0098  21
  -2   3   9 1597.73 85.0592   3
  -2   3   9 1632.32 82.5184  20
  -2   3   9 1568.83 81.2038   7
   1  -3  -9 72.2758 5.64868   2
   1  -3  -9 80.6074 7.90723  17
   1  -3  -9 74.7266 6.16269   6
  -1   3   9 77.2689 6.58193  21
  -1   3   9 83.6348 8.61306   3
  -1   3   9 81.4973 5.45173   7
  -1   3   9 77.3165 10.3187  19
  -1   3   9 83.2476 6.91171  20
  -1   3   9 86.8038 5.95304  13
   0  -3  -9 2641.33 134.711  17
   0   3   9 2693.09 130.997   7
   0   3   9 2687.07 136.070   3
   0   3   9 2535.68 132.090   2
   0   3   9 2644.02 141.534  19
   0   3   9 2547.36 130.802   9
   0   3   9 2522.40 132.946  20
  -1  -3  -9 913.811 44.4214  21
  -1  -3  -9 852.434 44.5062   2
  -1  -3  -9 812.116 45.3929  20
  -1  -3  -9 858.178 47.8511   3
  -1  -3  -9 813.012 43.1029   9
  -1  -3  -9 868.220 43.1285  13
   1   3   9 865.436 44.8156   2
   1   3   9 859.108 43.6274  15
   1   3   9 799.308 43.0758   9
  -2  -3  -9 346.521 18.9213   9
  -2  -3  -9 343.474 21.3814  20
  -2  -3  -9 382.395 24.0741   3
  -2  -3  -9 368.704 20.2499  21
  -2  -3  -9 347.626 20.1406   2
  -2  -3  -9 377.906 19.0033  13
   2   3   9 350.855 27.5329   4
   2   3   9 367.910 20.4739   2
  -3  -3  -9 474.982 24.2346   9
  -3  -3  -9 497.425 24.2403  13
  -3  -3  -9 421.870 27.7399   3
  -3  -3  -9 496.519 25.2488  21
   3   3   9 478.152 30.5799   4
   3   3   9 458.903 25.0176   2
  -4  -3  -9 14.1683 1.24725  13
   5  -4  -9 673.386 34.5384   8
   5  -4  -9 643.136 34.3544  18
   5  -4  -9 613.605 42.0169  12
  -5   4   9 606.854 37.2948   3
   4  -4  -9 923.853 60.3367  12
   4  -4  -9 921.456 47.9276   8
   4  -4  -9 917.906 50.5544  18
  -4   4   9 854.206 47.5139  20
  -4   4   9 843.597 49.9986   3
  -4   4   9 894.714 47.0707  21
   3  -4  -9 261.547 15.8975   8
  -3   4   9 252.114 16.0439  20
  -3   4   9 256.405 18.5577   3
  -3   4   9 255.174 21.2700  19
  -3   4   9 255.668 17.4975  21
  -3   4   9 237.779 14.2966  13
   2  -4  -9 2558.44 129.542  17
   2  -4  -9 2419.60 126.523   6
   2  -4  -9 2430.98 124.328   2
   2  -4  -9 2501.66 125.591   8
  -2   4   9 2629.61 136.923  19
  -2   4   9 2337.17 123.524   9
  -2   4   9 2419.92 123.885  13
  -2   4   9 2389.65 129.555   3
  -2   4   9 2545.74 125.744  21
  -2   4   9 2450.76 126.393  20
   1  -4  -9 484.684 30.9122   6
   1  -4  -9 538.430 29.4688   2
   1  -4  -9 553.763 33.1027  17
   1  -4  -9 549.672 30.0495   8
  -1   4   9 574.546 34.3660   3
  -1   4   9 555.733 31.2541  20
  -1   4   9 566.078 28.7788  13
  -1   4   9 525.695 28.3964   9
  -1   4   9 588.963 30.6623  21
  -1   4   9 579.925 40.9013  19
   0  -4  -9 2057.73 92.3816   2
   0  -4  -9 1790.64 95.1286  17
   0   4   9 1771.95 102.011  19
   0   4   9 1759.13 91.6160  21
   0   4   9 1581.63 92.4604  20
   0   4   9 1810.20 90.1783   9
   0   4   9 1786.39 95.6526   3
   0   4   9 1788.59 90.9061  13
  -1  -4  -9 370.375 21.1577   2
  -1  -4  -9 403.155 19.5231  13
  -1  -4  -9 373.851 19.8868   9
   1   4   9 380.298 19.9096   9
   1   4   9 371.265 21.4904   2
  -2  -4  -9 333.345 17.9809   9
  -2  -4  -9 356.261 19.1224   2
  -2  -4  -9 342.922 17.7077  13
   2   4   9 345.958 19.2572   2
  -3  -4  -9 265.826 13.6638   9
   5  -5  -9 978.516 61.0616  12
   5  -5  -9 1127.08 54.7986   8
   5  -5  -9 1068.44 54.9485  18
   4  -5  -9 1153.89 56.4111   8
   4  -5  -9 1133.46 67.7245  12
   4  -5  -9 1067.45 57.9229  18
  -4   5   9 1039.22 55.8075  21
  -4   5   9 959.709 55.9792  20
  -4   5   9 1097.65 64.8173   3
  -4   5   9 1049.22 54.9429  13
   3  -5  -9 40.8106 10.4883  12
  -3   5   9 37.7569 7.94035  19
  -3   5   9 46.9104 7.08476   3
  -3   5   9 35.9625 5.22253  20
  -3   5   9 45.6798 4.45891   9
  -3   5   9 37.7222 5.16044  21
   2  -5  -9 1139.67 56.1215   8
   2  -5  -9 1119.56 54.9249   2
  -2   5   9 1030.81 61.5643   3
  -2   5   9 1047.88 54.0520   9
  -2   5   9 1042.43 64.4546  19
  -2   5   9 1009.86 56.9025  20
  -2   5   9 1077.49 54.4427  13
  -2   5   9 1073.44 56.2996  21
   1  -5  -9 197.333 12.5584   2
  -1   5   9 236.764 13.8729  21
  -1   5   9 205.018 11.6733   9
  -1   5   9 196.131 16.3799   3
  -1   5   9 217.564 20.7161  19
  -1   5   9 226.808 12.0548  13
  -1   5   9 200.326 14.1557  20
   0  -5  -9 89.1694 5.54569   9
   0   5   9 94.7318 7.26149   2
  -1  -5  -9 1893.70 97.3956   2
  -1  -5  -9 1969.86 96.2953   9
   1   5   9 1927.99 96.3009   9
   1   5   9 1908.14 97.6877   2
  -2  -5  -9 200.290 18.8127   2
  -2  -5  -9 202.349 10.4867   9
   2   5   9 203.792 11.2808   2
   5  -6  -9 23.7122 4.35646  12
   5  -6  -9 26.4180 2.50476   8
   5  -6  -9 21.2809 2.53669  18
   4  -6  -9 961.300 57.0816  12
   4  -6  -9 1046.75 52.0372  18
   4  -6  -9 1075.97 50.5841   8
  -4   6   9 859.049 52.7091   3
  -4   6   9 958.299 49.2038  13
  -4   6   9 938.482 50.3386  21
   3  -6  -9 44.5823 6.14742  18
   3  -6  -9 52.5130 4.88820   8
   3  -6  -9 51.5884 9.18615  12
  -3   6   9 48.5005 3.87725  13
  -3   6   9 47.6812 5.07985  21
  -3   6   9 51.4866 6.24891  20
  -3   6   9 50.4449 3.36818   9
  -3   6   9 42.6216 6.26112   3
   2  -6  -9 1684.36 97.5799  12
   2  -6  -9 1379.15 76.0376   2
  -2   6   9 1416.25 75.7002   9
  -2   6   9 1594.41 83.8960   3
  -2   6   9 1504.66 75.9921  13
  -2   6   9 1468.04 77.4101  21
   1  -6  -9 24.6301 3.02378   2
  -1   6   9 28.8632 2.68007   9
  -1   6   9 33.4258 2.79931  13
  -1   6   9 22.6829 4.45885   3
   0   6   9 9.06500 2.26444   2
  -1  -6  -9 175.820 9.67495   2
   3  -7  -9 18.3316 3.11837  18
  -3   7   9 18.8207 1.96147  13
  -3   7   9 18.2105 2.65977  21
   2  -7  -9 409.979 21.4073  18
  -2   7   9 355.605 20.3352  21
  -2   7   9 395.639 19.2607  13
  -2   7   9 346.667 19.2535   9
   1  -7  -9 1425.11 71.3701   2
  -1   7   9 1426.98 71.6472   9
   0   7 -10 831.723 41.4095   9
   0   7 -10 793.609 41.9443   2
   0  -7  10 853.105 42.0320   2
  -1   7 -10 137.314 6.87849   9
  -1   7 -10 119.857 6.68890  13
   1  -7  10 123.543 7.36105   2
  -2   7 -10 737.260 37.9268  13
  -2   7 -10 723.163 38.7009  21
  -2   7 -10 755.205 37.8992   9
   2  -7  10 798.266 38.0952   2
  -3   7 -10 293.662 16.4055  21
  -3   7 -10 308.188 15.5370   9
  -3   7 -10 309.075 15.6909  13
   3  -7  10 315.921 17.7404  14
   2   6 -10 392.938 20.3080   2
  -2  -6  10 383.941 19.8887   9
  -2  -6  10 397.722 21.0853   2
   1   6 -10 34.9442 2.41809   9
   1   6 -10 31.1874 4.51962   2
  -1  -6  10 37.5237 2.56531   9
   0   6 -10 665.586 33.5996   2
   0   6 -10 635.859 32.2648  13
   0   6 -10 669.378 32.5147   9
   0  -6  10 542.007 32.3581   9
   0  -6  10 692.569 33.5533   2
  -1   6 -10 1613.80 85.0641  20
  -1   6 -10 1610.21 86.6372   3
  -1   6 -10 1656.02 82.6978  13
  -1   6 -10 1741.59 82.7156   9
  -1   6 -10 1638.61 84.6344  21
   1  -6  10 1535.01 86.9810   1
   1  -6  10 1759.44 83.6771   2
  -2   6 -10 1028.64 51.5063  21
  -2   6 -10 971.513 49.4912   9
  -2   6 -10 1010.58 53.8722   3
  -2   6 -10 967.985 51.8410  20
  -2   6 -10 1000.80 49.6164  13
   2  -6  10 947.252 50.0342   2
   2  -6  10 954.807 53.4710   1
  -3   6 -10 1425.56 67.7947  13
  -3   6 -10 1365.45 112.339   9
  -3   6 -10 1421.84 68.9557  21
  -3   6 -10 1391.17 71.5606   3
   3  -6  10 1276.38 70.9155   1
   3  -6  10 1154.25 69.6077  10
   3  -6  10 1423.29 71.0673  14
  -4   6 -10 338.966 16.3143  13
  -4   6 -10 325.184 17.0949  21
   4  -6  10 296.873 17.8334  10
   4  -6  10 291.774 18.0436   1
   4  -6  10 339.856 18.4144  14
   3   5 -10 297.665 16.2372   2
   3   5 -10 324.473 17.3442   8
  -3  -5  10 315.530 15.9459   9
   2   5 -10 491.019 25.8596   2
  -2  -5  10 504.247 25.2031  13
  -2  -5  10 511.839 25.0239   9
  -2  -5  10 451.899 27.0760   2
   1   5 -10 410.050 22.6288   2
  -1  -5  10 396.810 21.4090   9
  -1  -5  10 395.671 23.5890   2
   0   5 -10 960.634 49.6853  21
   0   5 -10 972.859 48.6026  13
   0   5 -10 964.414 49.9058   2
   0   5 -10 1010.77 48.6737   9
   0   5 -10 895.991 52.2118   3
   0  -5  10 972.415 48.6165   9
   0  -5  10 973.854 49.6393   2
  -1   5 -10 441.242 22.9315   9
  -1   5 -10 470.879 23.0618  13
  -1   5 -10 455.774 25.3048  20
  -1   5 -10 474.509 27.3673   3
  -1   5 -10 478.767 24.4666  21
  -1   5 -10 397.490 31.9563   5
   1  -5  10 408.232 28.8913   6
   1  -5  10 441.226 23.8685   2
  -2   5 -10 104.595 6.40658  13
  -2   5 -10 111.163 7.77681  21
  -2   5 -10 111.355 8.45509  20
  -2   5 -10 114.010 6.31353   9
  -2   5 -10 117.391 10.0831   3
   2  -5  10 109.576 9.78804   1
   2  -5  10 105.606 7.01669   2
  -3   5 -10 2527.45 124.665   3
  -3   5 -10 2507.89 121.544  21
  -3   5 -10 2259.51 120.017   9
  -3   5 -10 2459.87 120.276  13
   3  -5  10 2271.90 124.325   1
  -4   5 -10 197.839 10.5303  13
  -4   5 -10 193.797 11.9868  20
  -4   5 -10 201.247 11.5218  21
   4  -5  10 187.412 13.1449  10
   4  -5  10 210.514 13.1899  14
   4  -5  10 205.380 14.0143   1
   5  -5  10 190.669 10.8578  14
   4   4 -10 257.556 13.3662   8
  -4  -4  10 237.155 12.3254   9
  -4  -4  10 229.552 12.2907  13
   3   4 -10 242.577 14.7225   8
   3   4 -10 258.931 13.2197   2
  -3  -4  10 258.227 12.6269   9
  -3  -4  10 224.942 16.5284   3
  -3  -4  10 240.094 12.6730  13
  -3  -4  10 209.221 13.5938  21
   2   4 -10 597.858 31.0401   2
   2   4 -10 565.774 29.7698   9
  -2  -4  10 558.261 35.0674   3
  -2  -4  10 595.769 31.1516   2
  -2  -4  10 611.368 30.0402   9
  -2  -4  10 594.441 31.5426  21
  -2  -4  10 602.148 30.1262  13
  -2  -4  10 578.163 33.0705  20
   1   4 -10 125.747 15.9672   5
   1   4 -10 132.317 7.77915   9
  -1  -4  10 125.429 11.5734   6
  -1  -4  10 132.854 8.56620  21
  -1  -4  10 124.689 7.33799   9
   0   4 -10 846.952 42.4269  20
   0   4 -10 822.647 41.2694  21
   0   4 -10 775.536 40.1118   9
   0   4 -10 743.839 41.2076   2
   0   4 -10 797.453 43.8961   3
   0   4 -10 823.722 50.2189   5
   0   4 -10 795.177 40.1576  13
   0  -4  10 820.236 45.7898   6
   0  -4  10 730.391 40.8929   2
   0  -4  10 786.880 40.1621   9
  -1   4 -10 1461.77 77.5600   9
  -1   4 -10 1614.48 79.7751  20
  -1   4 -10 1543.96 77.6836  13
  -1   4 -10 1645.72 78.9688  21
  -1   4 -10 1602.62 81.7394   3
   1  -4  10 1542.66 78.4901   2
   1  -4  10 1490.94 83.1713   6
   1  -4  10 1489.96 77.9004  15
  -2   4 -10 89.3512 5.33089   9
  -2   4 -10 85.0628 6.59464  21
  -2   4 -10 101.699 8.74650   3
  -2   4 -10 93.3847 7.36349  20
  -2   4 -10 89.8529 5.47669  13
   2  -4  10 87.0310 6.02040   2
   2  -4  10 86.7926 5.92316  15
   2  -4  10 94.2631 9.66733   6
  -3   4 -10 1549.68 76.7535  20
  -3   4 -10 1527.50 75.6621  21
  -3   4 -10 1433.06 74.3905  13
  -3   4 -10 1564.91 78.6102   3
  -3   4 -10 1410.47 74.1926   9
   3  -4  10 1492.90 77.8007  14
   3  -4  10 1432.25 78.9966   1
   3  -4  10 1445.18 74.6165   2
  -4   4 -10 1295.41 65.4227  21
  -4   4 -10 1307.54 68.3149   3
  -4   4 -10 1325.41 66.0583  20
  -4   4 -10 1281.64 64.3910  13
   4  -4  10 1317.91 67.1271  14
   4  -4  10 1170.11 68.3396   1
   4  -4  10 1284.34 67.5918  10
  -5   4 -10 299.531 16.6981  21
   5  -4  10 318.882 17.2302  10
   5  -4  10 290.975 16.8493  14
   4   3 -10 1259.22 64.9851   8
  -4  -3  10 1158.09 65.2794   3
  -4  -3  10 1128.65 61.2664  21
  -4  -3  10 1247.95 60.1009   9
   3   3 -10 15.2049 2.38255   2
  -3  -3  10 15.2122 2.08243   9
  -3  -3  10 15.3355 4.43316  20
  -3  -3  10 19.3226 4.73785   3
  -3  -3  10 15.7942 3.57919  21
  -3  -3  10 19.7393 2.30466  13
   2   3 -10 3814.54 201.827   5
   2   3 -10 3362.94 187.169   9
  -2  -3  10 3917.33 191.494  20
  -2  -3  10 3667.28 188.629   2
  -2  -3  10 3946.68 189.222  21
  -2  -3  10 3849.35 193.316   3
   1   3 -10 373.587 20.6579   2
   1   3 -10 419.944 29.8590   5
   1   3 -10 368.684 19.8410   9
   1   3 -10 343.023 19.5525  13
  -1  -3  10 404.236 21.9368  21
  -1  -3  10 370.904 19.7100   9
  -1  -3  10 406.188 24.6129   3
  -1  -3  10 379.556 22.2394  20
  -1  -3  10 402.081 21.0154   2
  -1  -3  10 366.005 19.8746  13
   0   3 -10 229.698 12.2646  13
   0   3 -10 230.991 14.9386   3
   0   3 -10 226.553 14.4625  11
   0   3 -10 237.120 13.0566  21
   0   3 -10 228.367 12.2518   9
   0  -3  10 228.047 12.0162  15
  -1   3 -10 1996.56 99.0095  21
  -1   3 -10 2068.72 99.8806  20
  -1   3 -10 2063.75 101.602   3
   1  -3  10 1963.44 98.3154  15
   1  -3  10 1929.86 102.366   6
   1  -3  10 1740.36 98.6530   2
  -2   3 -10 367.559 20.1429  21
  -2   3 -10 383.630 22.5976   3
   2  -3  10 376.648 23.0737   6
   2  -3  10 354.553 19.7577   2
   2  -3  10 370.326 19.7554  15
  -3   3 -10 26.0472 3.56337  21
  -3   3 -10 26.3304 2.52189   9
  -3   3 -10 26.2768 4.08039  20
   3  -3  10 34.9703 5.66804   1
   3  -3  10 31.0386 3.33880  15
   3  -3  10 32.4043 4.33989   2
  -4   3 -10 517.513 27.2158  13
  -4   3 -10 537.936 28.2591  21
  -4   3 -10 584.539 31.3334   3
  -4   3 -10 564.983 29.1134  20
   4  -3  10 538.748 29.7615  14
   4  -3  10 469.508 38.0682   4
   4  -3  10 531.200 31.7296   1
  -5   3 -10 177.968 8.61202  13
  -5   3 -10 158.698 9.19579  21
   5  -3  10 151.363 10.0490  14
   5  -3  10 146.543 14.2408   4
   5  -3  10 171.764 10.2247  10
   5   2 -10 595.636 29.3968   8
   5   2 -10 502.547 31.7980   4
  -5  -2  10 594.506 28.4288  13
  -5  -2  10 508.033 28.9406  21
   4   2 -10 656.356 51.6303  16
   4   2 -10 708.860 37.9030   8
   4   2 -10 682.886 44.5235   4
   4   2 -10 694.705 35.3195   2
  -4  -2  10 685.236 40.5815   3
  -4  -2  10 703.050 38.3577  20
  -4  -2  10 710.472 35.4413   9
  -4  -2  10 737.691 38.6912  21
  -4  -2  10 712.907 35.6517  13
   3   2 -10 260.417 25.6276   5
   3   2 -10 265.317 14.2910   2
   3   2 -10 256.256 16.1815   8
   3   2 -10 257.082 22.7322   4
  -3  -2  10 278.473 18.6710   3
  -3  -2  10 250.627 15.4156  21
  -3  -2  10 241.382 13.7436  13
  -3  -2  10 258.993 13.6265   9
  -3  -2  10 250.041 16.1926  20
   2   2 -10 1812.55 103.894   4
   2   2 -10 1808.72 92.0207   2
  -2  -2  10 1701.89 91.3045  13
  -2  -2  10 1992.63 93.5745   7
  -2  -2  10 1847.13 93.6838  20
  -2  -2  10 1700.61 91.1433   9
  -2  -2  10 1899.01 92.6789  21
   1   2 -10 4017.50 207.525  11
   1   2 -10 4297.36 216.207   5
  -1  -2  10 3805.84 207.007   7
  -1  -2  10 4130.05 207.524  21
  -1  -2  10 4325.15 211.000   3
  -1  -2  10 4267.76 208.603  20
   0   2 -10 2.54206 1.19827  21
   0  -2  10 3.50660 1.57292  20
   0  -2  10 3.35562 1.08486   7
   0  -2  10 4.21206 2.15022   3
   0  -2  10 5.16739 1.04049  15
  -1   2 -10 1360.79 68.7248  20
  -1   2 -10 1351.80 70.0158   3
  -1   2 -10 1302.30 67.9329  21
   1  -2  10 1335.56 67.4343  15
   1  -2  10 1343.35 70.1896   6
  -2   2 -10 1189.67 61.3127  20
  -2   2 -10 1246.00 63.0802   3
  -2   2 -10 1139.47 60.5686  21
   2  -2  10 1229.37 60.3259  15
   2  -2  10 1153.92 61.8641   6
   2  -2  10 1159.59 60.3497   2
  -3   2 -10 5283.87 260.297   9
  -3   2 -10 5443.57 261.444  21
  -3   2 -10 5846.83 265.245   3
  -3   2 -10 5011.95 260.281  13
   3  -2  10 4783.32 276.280   4
   3  -2  10 5232.58 265.280   1
   3  -2  10 5310.47 261.468  15
   3  -2  10 5077.16 262.650  14
   3  -2  10 5062.84 261.082   2
  -4   2 -10 871.846 44.2269  13
  -4   2 -10 884.758 45.3212  21
  -4   2 -10 952.235 48.5819   3
   4  -2  10 794.668 45.9313  14
  -5   2 -10 1.68651 1.99819   3
  -5   2 -10 2.99896 1.22571  21
   5  -2  10 3.34889 1.83287  10
   5  -2  10 1.36918 3.69040   4
   5   1 -10 50.3946 11.0681  16
   5   1 -10 65.9769 9.46375   4
   5   1 -10 64.6262 5.35980   8
  -5  -1  10 58.8193 3.82712  13
  -5  -1  10 55.0471 7.45937   3
   4   1 -10 2010.70 103.170   8
   4   1 -10 2055.65 129.744  16
   4   1 -10 1939.30 111.482   4
  -4  -1  10 2027.46 106.030   3
  -4  -1  10 2035.62 103.340  20
  -4  -1  10 1971.18 101.962  21
   3   1 -10 1159.86 69.0107   4
   3   1 -10 1093.17 58.7065   2
   3   1 -10 1235.07 72.7936   5
   3   1 -10 1172.75 62.5424  17
   3   1 -10 1152.23 60.8288   8
  -3  -1  10 1122.68 59.5233  21
  -3  -1  10 1083.32 58.3193  13
  -3  -1  10 1206.44 63.0586   3
  -3  -1  10 1203.09 60.7640  20
  -3  -1  10 1151.84 58.2403   9
   2   1 -10 50.0618 9.47407   5
   2   1 -10 61.9134 5.85334  17
  -2  -1  10 58.5537 4.59397  21
  -2  -1  10 57.1803 5.14685  20
  -2  -1  10 48.5245 4.04894   7
  -2  -1  10 45.4794 5.80609   3
   1   1 -10 2317.02 109.967  11
   1   1 -10 2026.36 110.813  17
  -1  -1  10 2240.57 113.057   3
  -1  -1  10 1998.47 108.899  15
  -1  -1  10 2210.13 111.027  20
  -1  -1  10 2191.60 110.575  21
  -1  -1  10 2303.20 109.716   7
   0   1 -10 149.924 10.0896   3
   0   1 -10 140.431 8.77317  20
   0   1 -10 134.359 8.69670  17
   0  -1  10 150.331 7.90818  15
   0  -1  10 152.726 10.8912   3
   0  -1  10 142.578 9.30932  20
  -1   1 -10 1732.18 87.4553  21
  -1   1 -10 1656.86 87.7679  17
  -1   1 -10 1829.06 88.1375  20
  -1   1 -10 1782.50 89.8852   3
   1  -1  10 1864.52 87.2180  15
   1  -1  10 1681.90 88.5471   6
   1  -1  10 1599.58 86.8434   7
  -2   1 -10 1262.21 66.6181   3
  -2   1 -10 1237.19 63.8998  21
  -2   1 -10 1275.59 64.6232  20
   2  -1  10 1141.54 63.9837   2
   2  -1  10 1370.21 63.9635  15
  -3   1 -10 420.988 22.1579  13
  -3   1 -10 458.693 26.2508  20
  -3   1 -10 441.070 23.2977  21
  -3   1 -10 415.856 22.1452   9
  -3   1 -10 465.623 26.3901   3
   3  -1  10 409.341 23.2041  15
   3  -1  10 383.193 22.9937   2
   3  -1  10 452.493 24.9922  10
  -4   1 -10 2605.67 133.240  13
  -4   1 -10 2525.04 133.148   9
  -4   1 -10 2846.86 135.563  20
  -4   1 -10 2824.41 138.023   3
  -4   1 -10 2754.83 134.457  21
   4  -1  10 2470.54 148.796   4
   4  -1  10 2639.62 134.926  10
  -5   1 -10 46.9439 3.76720  21
   5  -1  10 45.1931 8.69435   4
   5   0 -10 7.35880 2.91192   8
   5   0 -10 5.46102 4.22823   4
   5   0 -10 5.03845 5.90583  16
  -5   0  10 4.52738 1.81118  21
  -5   0  10 3.59719 1.98488  20
   4   0 -10 978.568 60.9176   4
   4   0 -10 980.783 71.3078  16
   4   0 -10 1015.91 52.8572   8
  -4   0  10 1015.73 52.7503  20
  -4   0  10 1056.96 62.3263   3
  -4   0  10 976.791 51.4634  21
  -4   0  10 915.281 50.0974  13
   3   0 -10 35.7019 4.40053   8
   3   0 -10 30.3531 8.17291   4
   3   0 -10 27.9563 2.64227   2
  -3   0  10 35.5432 3.43481   7
  -3   0  10 36.3353 3.05735   9
  -3   0  10 30.3790 4.91192   3
  -3   0  10 39.2539 3.15332  13
   2   0 -10 64.9729 6.40072  17
   2   0 -10 58.0519 9.49568   5
  -2   0  10 62.9065 4.51598   7
  -2   0  10 66.5151 6.67385   3
  -2   0  10 65.5535 6.03705  20
  -2   0  10 75.0467 5.13562  21
  -2   0  10 61.7011 3.81925  15
   1   0 -10 1069.42 57.5757  17
  -1   0  10 1116.35 59.2627   3
  -1   0  10 1140.40 55.8470   7
  -1   0  10 1124.48 57.1729  20
  -1   0  10 1064.03 56.4542  21
   0   0 -10 5233.37 264.871   3
   0   0  10 5305.33 266.136   3
  -1   0 -10 5489.16 262.069  21
  -1   0 -10 5009.96 263.439  17
  -2   0 -10 1871.77 96.7843  13
  -2   0 -10 1942.35 97.7969  21
  -2   0 -10 1785.85 96.7337   9
  -2   0 -10 2027.85 100.884   3
  -2   0 -10 1968.10 98.5466  20
   2   0  10 2016.28 97.5787  15
  -3   0 -10 925.413 48.5811  13
  -3   0 -10 994.418 50.8607  20
  -3   0 -10 1029.59 53.4900   3
  -3   0 -10 953.190 48.6048   9
   3   0  10 946.189 64.5840   4
   3   0  10 915.720 49.6193   2
  -4   0 -10 255.213 13.8009   9
  -4   0 -10 272.523 16.3833  21
  -4   0 -10 268.132 18.0004   3
  -4   0 -10 258.880 15.9138  20
  -4   0 -10 258.772 13.8867  13
   4   0  10 253.750 25.1998   4
  -5   0 -10 257.642 12.6975  13
  -5   0 -10 266.544 13.8368  21
   5   0  10 210.578 23.2993   4
   6  -1 -10 1146.20 61.4433   4
   5  -1 -10 39.1417 4.69967   8
   5  -1 -10 42.5867 8.82362   4
   5  -1 -10 33.4612 10.9291  16
  -5   1  10 38.3922 5.27365   3
   4  -1 -10 382.251 30.6562  12
   4  -1 -10 370.528 33.1933   5
   4  -1 -10 424.598 27.7472  17
   4  -1 -10 484.206 43.8748  16
   4  -1 -10 461.645 25.1004   8
   4  -1 -10 425.235 32.0337   4
  -4   1  10 453.969 24.8846  20
  -4   1  10 435.676 23.7389  21
  -4   1  10 458.447 27.1762   3
   3  -1 -10 670.267 36.0279   2
   3  -1 -10 640.697 44.0628   4
   3  -1 -10 680.537 44.9504   5
   3  -1 -10 694.615 43.8959  17
   3  -1 -10 711.321 37.4937   8
   3  -1 -10 750.783 56.6336  16
  -3   1  10 719.013 37.4974  20
  -3   1  10 688.855 36.1907   7
  -3   1  10 691.417 36.7873  21
   2  -1 -10 10.9016 3.64490  17
   2  -1 -10 10.5489 5.82029   5
  -2   1  10 11.6148 3.33189   3
   1  -1 -10 1757.49 97.5590   5
   1  -1 -10 1921.64 95.7018  17
  -1   1  10 1822.89 96.4838  21
  -1   1  10 1880.42 96.5457   3
  -1   1  10 1877.30 94.4156  20
  -1   1  10 1850.89 93.0901   7
   0  -1 -10 2063.81 104.467   3
   0  -1 -10 2025.94 104.055  17
   0   1  10 2087.76 105.718   3
   0   1  10 2057.83 101.631   7
   0   1  10 1912.09 102.705  21
   0   1  10 2021.31 103.353  20
  -1  -1 -10 881.404 45.7322  20
  -1  -1 -10 817.649 44.7726  21
  -1  -1 -10 883.662 47.5569   3
   1   1  10 901.867 44.4697  15
  -2  -1 -10 1865.22 98.7133   9
  -2  -1 -10 1932.65 98.7582  13
  -2  -1 -10 2044.09 103.575   3
  -2  -1 -10 2048.57 100.973  20
  -2  -1 -10 2043.08 100.017  21
   2   1  10 1917.06 100.155   2
   2   1  10 1951.44 99.4178  15
  -3  -1 -10 94.3658 11.0486   3
  -3  -1 -10 115.142 7.75112  21
  -3  -1 -10 94.5376 6.12696   9
  -3  -1 -10 102.205 6.23651  13
  -3  -1 -10 114.697 8.58582  20
   3   1  10 95.9342 15.6021   4
  -4  -1 -10 227.674 14.6441  20
  -4  -1 -10 229.916 12.7057   9
  -4  -1 -10 253.952 12.8953  13
  -4  -1 -10 239.812 16.5745   3
  -4  -1 -10 253.980 13.9904  21
   4   1  10 243.203 21.8274   4
   6  -2 -10 813.291 41.7389   8
   5  -2 -10 93.3738 12.0120   4
   5  -2 -10 105.364 8.00609   8
   5  -2 -10 103.834 17.6738  16
  -5   2  10 104.625 8.20499  21
  -5   2  10 91.9776 8.50747   3
   4  -2 -10 554.918 47.6817  16
   4  -2 -10 482.027 35.0496   4
   4  -2 -10 473.081 37.1551  12
   4  -2 -10 440.325 36.4266  17
   4  -2 -10 535.962 28.4533   8
  -4   2  10 506.414 27.1859  21
  -4   2  10 500.356 30.2755   3
  -4   2  10 507.780 27.9158  20
   3  -2 -10 1469.26 88.2789  18
   3  -2 -10 1638.70 94.7203   4
   3  -2 -10 1851.54 109.861  16
   3  -2 -10 1703.89 86.8708   8
   3  -2 -10 1685.12 89.8805  17
  -3   2  10 1660.33 86.0923  21
  -3   2  10 1743.34 89.5344   3
  -3   2  10 1762.12 87.0035  20
   2  -2 -10 31.8310 5.12771  17
  -2   2  10 32.3970 7.05163  19
  -2   2  10 27.9584 4.70985   3
  -2   2  10 29.0719 3.56132  21
  -2   2  10 24.7339 3.18998  11
  -2   2  10 25.0408 2.87170   7
  -2   2  10 26.4324 3.71462  20
   1  -2 -10 2943.78 142.582  17
  -1   2  10 2860.12 140.340  21
  -1   2  10 2919.42 143.665   3
  -1   2  10 2572.88 140.306  11
  -1   2  10 2588.15 140.356   7
  -1   2  10 2789.43 147.392  19
   0  -2 -10 1237.75 66.1501   3
   0  -2 -10 1175.50 64.2197  20
   0  -2 -10 1238.18 66.0129  17
   0   2  10 1254.23 62.9975   7
   0   2  10 1268.17 64.2338  21
   0   2  10 1283.96 67.6668   3
   0   2  10 1254.97 64.8995  20
  -1  -2 -10 5.66743 1.87986  21
  -1  -2 -10 3.01951 1.17105   9
  -1  -2 -10 4.79622 1.19098  13
  -1  -2 -10 3.77667 2.68680   3
   1   2  10 5.60815 1.41131   9
   1   2  10 3.98785 1.34759  15
   1   2  10 3.15192 2.03948   2
  -2  -2 -10 1238.65 63.1274  21
  -2  -2 -10 1202.46 60.6211  13
  -2  -2 -10 1159.52 60.5887   9
  -2  -2 -10 1309.20 66.3139   3
  -2  -2 -10 1203.27 63.0601  20
   2   2  10 1188.11 74.2064   4
   2   2  10 1198.40 62.1942   2
   2   2  10 1106.19 61.1314  15
  -3  -2 -10 60.8508 6.02600  20
  -3  -2 -10 63.9598 4.21627  13
  -3  -2 -10 59.0366 4.08905   9
  -3  -2 -10 58.1855 7.26270   3
  -3  -2 -10 66.9667 5.47876  21
   3   2  10 61.3227 11.5883   4
   3   2  10 51.9829 4.86609   2
  -4  -2 -10 423.276 22.6472   9
  -4  -2 -10 466.332 22.6557  13
  -4  -2 -10 426.756 23.2796  21
   4   2  10 461.302 27.8243   4
   6  -3 -10 352.967 18.7552   8
   5  -3 -10 768.616 50.2296  12
   5  -3 -10 775.764 47.8094   4
   5  -3 -10 924.001 43.6488   8
  -5   3  10 787.865 44.7651   3
   4  -3 -10 490.329 38.1546  12
   4  -3 -10 414.444 32.0690   4
   4  -3 -10 521.172 27.2855   8
   4  -3 -10 464.489 27.4195  18
  -4   3  10 480.224 26.6956  20
  -4   3  10 493.344 29.2591   3
  -4   3  10 473.117 26.0731  21
   3  -3 -10 1095.96 61.8395  17
   3  -3 -10 1108.35 58.3313   8
   3  -3 -10 1104.47 56.4360   2
  -3   3  10 1022.46 63.7294  19
  -3   3  10 1059.10 56.4566  13
  -3   3  10 1162.68 59.2386  20
  -3   3  10 1166.23 61.5025   3
  -3   3  10 1185.89 58.0023  21
   2  -3 -10 1229.53 65.4740   2
   2  -3 -10 1316.20 66.7717   8
  -2   3  10 1289.33 69.9528   3
  -2   3  10 1262.54 73.3002  19
  -2   3  10 1294.72 66.5129  21
  -2   3  10 1294.10 65.9541   7
  -2   3  10 1312.94 67.2883  20
   1  -3 -10 651.268 36.6648  17
   1  -3 -10 595.191 33.3813   2
  -1   3  10 620.070 33.2298   7
  -1   3  10 672.080 38.0077   3
  -1   3  10 629.452 32.9259  13
  -1   3  10 650.125 34.4121  21
  -1   3  10 647.511 35.0077  20
  -1   3  10 621.463 41.3205  19
   0  -3 -10 1502.80 80.9324   2
   0  -3 -10 1461.37 79.7153   9
   0  -3 -10 1627.07 84.3574  17
   0  -3 -10 1587.17 79.6259  13
   0   3  10 1574.47 81.6001   2
   0   3  10 1639.89 80.0681  13
   0   3  10 1655.61 81.6018  21
   0   3  10 1547.47 79.8820   9
   0   3  10 1597.25 80.3972   7
   0   3  10 1696.29 85.7375   3
  -1  -3 -10 73.1644 7.65278   3
  -1  -3 -10 72.5724 5.55735  21
  -1  -3 -10 73.9240 5.34468   9
  -1  -3 -10 67.2190 7.90615  17
   1   3  10 80.4626 7.45724   2
   1   3  10 69.4617 5.19698  15
  -2  -3 -10 1267.70 60.1423  13
  -2  -3 -10 1160.37 60.1249   9
  -2  -3 -10 1180.23 64.8746   3
  -2  -3 -10 1259.86 61.3299  21
   2   3  10 1142.49 71.4808   4
   2   3  10 1138.86 61.5921   2
  -3  -3 -10 278.646 15.8756  21
  -3  -3 -10 298.428 15.1775  13
  -3  -3 -10 259.464 18.4130   3
  -3  -3 -10 292.494 15.3303   9
   3   3  10 329.470 16.8808   2
   5  -4 -10 1146.38 56.3213  18
  -5   4  10 1033.97 60.6302   3
  -5   4  10 1086.61 55.9946  21
   4  -4 -10 51.3915 6.17544  18
   4  -4 -10 62.1418 5.99959   8
   4  -4 -10 56.4752 12.8009  12
  -4   4  10 48.2136 5.20852  21
  -4   4  10 50.7112 5.40396  20
  -4   4  10 62.7447 7.27218   3
  -4   4  10 56.5232 4.02710  13
   3  -4 -10 1253.21 65.6446   8
   3  -4 -10 1170.91 63.4682   2
   3  -4 -10 1358.15 74.3457  17
  -3   4  10 1275.21 69.5051   3
  -3   4  10 1259.57 63.8406  13
  -3   4  10 1148.97 63.3833   9
  -3   4  10 1324.36 65.7098  21
  -3   4  10 1204.98 72.9680  19
  -3   4  10 1332.29 66.4878  20
   2  -4 -10 208.539 16.2511  17
   2  -4 -10 208.124 13.5380   2
  -2   4  10 201.025 19.1020  19
  -2   4  10 215.462 14.4057  20
  -2   4  10 216.855 13.7713  21
  -2   4  10 224.768 17.0914   3
   1  -4 -10 33.6430 4.31035   8
   1  -4 -10 40.1154 6.17191  17
  -1   4  10 39.7860 5.28868  21
  -1   4  10 45.5939 7.03533   3
  -1   4  10 42.1489 8.98137  19
   0  -4 -10 1783.86 96.5764  17
   0  -4 -10 1845.61 92.7921   2
   0  -4 -10 1754.16 91.3073   9
   0   4  10 1991.64 91.6457  13
   0   4  10 1809.42 91.5060   9
   0   4  10 1903.88 93.4527   2
   0   4  10 1659.79 96.4281   3
  -1  -4 -10 383.373 19.8882   9
  -1  -4 -10 404.118 21.8301   2
   1   4  10 365.896 19.9761   9
   1   4  10 368.590 21.5437   2
  -2  -4 -10 1398.96 70.8482   2
  -2  -4 -10 1388.86 69.8683   9
   2   4  10 1387.46 71.0719   2
  -3  -4 -10 710.349 34.4986   9
   3   4  10 661.416 34.5608   2
   5  -5 -10 887.113 48.8022  18
   5  -5 -10 1058.70 48.8507   8
   5  -5 -10 885.540 54.3536  12
   4  -5 -10 374.297 21.9565  18
   4  -5 -10 338.229 28.9849  12
   4  -5 -10 383.250 20.6513   8
  -4   5  10 381.031 19.7964  13
  -4   5  10 332.981 22.9250   3
  -4   5  10 349.808 20.3717  21
   3  -5 -10 1167.50 58.4767   8
   3  -5 -10 1103.66 70.3534  12
  -3   5  10 1195.21 58.8635  21
  -3   5  10 1135.77 56.9064  13
  -3   5  10 1139.81 59.4934  20
  -3   5  10 1037.20 66.3392  19
  -3   5  10 1033.30 56.3703   9
  -3   5  10 1133.61 62.7821   3
   2  -5 -10 247.037 14.9638   8
   2  -5 -10 225.593 13.9965   2
  -2   5  10 259.962 13.8386  13
  -2   5  10 275.562 15.7894  21
  -2   5  10 233.913 13.4307   9
  -2   5  10 242.217 18.7227   3
  -2   5  10 253.171 16.2713  20
   1  -5 -10 3.65053 1.48269   2
  -1   5  10 3.33417 2.29000  21
  -1   5  10 3.93387 5.01257  19
  -1   5  10 5.13179 3.22273   3
  -1   5  10 2.94143 1.38357   9
  -1   5  10 4.64454 1.67662  13
   0  -5 -10 786.801 38.8265   9
   0  -5 -10 770.614 40.2850   2
   0   5  10 719.136 38.7906  13
   0   5  10 780.938 40.7184   2
   0   5  10 785.518 39.1943   9
  -1  -5 -10 437.277 23.2018   9
   1   5  10 453.690 24.1102   2
  -2  -5 -10 142.998 8.69373   2
  -2  -5 -10 135.187 7.31811   9
   4  -6 -10 101.683 6.67958   8
   4  -6 -10 92.6782 10.6449  12
   4  -6 -10 100.248 7.43312  18
  -4   6  10 95.2783 5.74386  13
  -4   6  10 97.0673 6.73944  21
   3  -6 -10 637.755 33.5914  18
   3  -6 -10 577.219 38.0630  12
  -3   6  10 617.990 32.0334  21
  -3   6  10 526.962 30.1300   9
  -3   6  10 612.467 35.1269   3
   2  -6 -10 1361.02 79.4027  12
   2  -6 -10 1369.71 72.1504   2
  -2   6  10 1403.52 71.9018   9
  -2   6  10 1382.12 76.6051   3
  -2   6  10 1550.38 72.1992  13
  -2   6  10 1519.71 73.5580  21
   1  -6 -10 13.8688 2.20383   2
  -1   6  10 16.7339 2.09761  13
  -1   6  10 16.8231 2.05383   9
   0  -6 -10 236.570 12.8357   2
   0   6  10 234.077 13.3758   2
   0   6  10 221.331 12.0375   9
  -1  -6 -10 289.999 14.4532   2
   1   6  10 264.973 14.5277   2
   3  -7 -10 0.49200 1.07549  18
  -3   7  10 1.16795 0.67749  13
   2  -7 -10 859.186 41.4725  18
  -2   7  10 754.602 39.4198  13
  -2   7  10 748.576 39.4578   9
  -1   7  10 181.029 9.32086   9
   0   7 -11 533.839 29.4283   9
   0   7 -11 602.325 29.8769   2
   0  -7  11 603.749 29.7098   2
  -1   7 -11 168.935 8.73462   9
   1  -7  11 163.024 9.15484   2
  -2   7 -11 741.874 37.1855  13
  -2   7 -11 711.002 37.8306  21
  -2   7 -11 767.953 37.2026   9
  -3   7 -11 1.16222 1.23373  21
  -3   7 -11 1.01160 0.59849  13
   3  -7  11 5.08319 3.36402  14
   2   6 -11 89.7592 5.85528   8
   2   6 -11 91.2238 5.25939   2
  -2  -6  11 89.8818 4.78508   9
   1   6 -11 1142.45 60.2835   9
   1   6 -11 1262.64 61.3379   2
  -1  -6  11 1284.23 61.4012   2
  -1  -6  11 1134.90 60.3099   9
   0   6 -11 22.4998 2.74840   2
   0   6 -11 26.8988 2.16632   9
   0  -6  11 26.3333 2.98752   2
  -1   6 -11 14.3877 3.52797   3
  -1   6 -11 16.2240 1.93867  13
  -1   6 -11 15.0042 1.81494   9
   1  -6  11 16.4664 2.64416   2
  -2   6 -11 621.141 31.3480  13
  -2   6 -11 617.888 31.2702   9
  -2   6 -11 623.410 36.8299   3
  -2   6 -11 635.092 32.5585  21
   2  -6  11 581.889 31.7004   2
  -3   6 -11 655.157 31.1402  13
  -3   6 -11 592.774 35.2346  20
  -3   6 -11 613.743 31.9726  21
  -3   6 -11 599.662 30.6397   9
  -3   6 -11 569.102 34.0772   3
   3  -6  11 616.326 33.4699  14
  -4   6 -11 83.4689 4.92485  13
  -4   6 -11 89.5058 5.30263  21
   4  -6  11 83.4726 6.17665  14
   4  -6  11 81.5921 6.15226  10
   3   5 -11 502.274 31.6785   8
   3   5 -11 671.643 29.8162   2
   2   5 -11 393.736 20.6118   2
  -2  -5  11 379.867 19.7741   9
  -2  -5  11 381.857 20.6418   2
   1   5 -11 844.457 44.2375   9
   1   5 -11 891.981 45.4978   2
  -1  -5  11 904.053 45.4694   2
  -1  -5  11 872.147 44.3474   9
   0   5 -11 1119.07 57.6901   2
   0   5 -11 1119.03 57.4058  21
   0   5 -11 1097.06 56.3388  13
   0   5 -11 1136.71 56.4299   9
   0  -5  11 1135.86 57.5048   2
   0  -5  11 1120.06 56.3865   9
  -1   5 -11 256.759 13.6067   9
  -1   5 -11 246.349 15.8509  20
  -1   5 -11 257.528 13.6846  13
  -1   5 -11 250.048 14.8889  21
  -1   5 -11 277.125 19.8044   3
   1  -5  11 260.632 14.6210   2
  -2   5 -11 971.398 48.8211  13
  -2   5 -11 965.723 50.0911  21
  -2   5 -11 968.102 48.7479   9
  -2   5 -11 982.344 53.2337   3
   2  -5  11 943.022 49.4356   2
  -3   5 -11 672.102 33.8437  21
  -3   5 -11 608.698 32.1868   9
  -3   5 -11 653.085 32.4658  13
  -3   5 -11 640.244 34.7606  20
  -3   5 -11 649.962 36.5056   3
   3  -5  11 598.540 36.5761   1
   3  -5  11 634.732 35.4422  14
  -4   5 -11 25.7463 2.09436  13
  -4   5 -11 25.9902 3.96135   3
  -4   5 -11 28.8367 2.94077  21
   4  -5  11 31.0763 4.43023  14
   4  -5  11 27.1176 4.82853  10
   5  -5  11 607.387 31.3437  10
   3   4 -11 815.908 41.6319   2
   3   4 -11 849.287 43.2912   8
  -3  -4  11 784.452 42.1792  21
  -3  -4  11 894.538 41.1571   9
  -3  -4  11 847.823 41.1865  13
  -3  -4  11 693.200 46.4184   3
   2   4 -11 491.879 25.3289   2
  -2  -4  11 431.208 28.9994   3
  -2  -4  11 455.946 25.6349  21
  -2  -4  11 467.695 24.6442  13
  -2  -4  11 510.363 25.7796   2
  -2  -4  11 470.173 24.2407   9
   1   4 -11 962.942 50.1042   2
   1   4 -11 957.695 48.8950   9
  -1  -4  11 923.535 49.0016  13
  -1  -4  11 956.872 50.0232   2
  -1  -4  11 1063.24 56.2866   6
  -1  -4  11 961.838 48.9949   9
   0   4 -11 3081.77 154.008  21
   0   4 -11 3012.53 152.800   9
   0   4 -11 3009.71 156.774   3
   0   4 -11 3099.36 164.108   5
   0   4 -11 3011.01 154.046   2
   0   4 -11 3025.10 152.829  13
   0  -4  11 3042.07 153.796   2
   0  -4  11 3001.72 152.846   9
   0  -4  11 3288.63 159.447   6
  -1   4 -11 29.4701 4.22493  20
  -1   4 -11 29.7857 2.72787  13
  -1   4 -11 34.2471 5.19362   3
  -1   4 -11 33.7710 2.57081   9
   1  -4  11 33.2338 3.40746   2
   1  -4  11 42.5553 6.28774   6
  -2   4 -11 299.770 17.4348  21
  -2   4 -11 307.785 16.3601  13
  -2   4 -11 315.826 20.0884   3
   2  -4  11 309.270 16.9827   2
   2  -4  11 298.163 16.8885  15
   2  -4  11 330.628 21.7198   6
  -3   4 -11 962.087 50.8280   3
  -3   4 -11 876.725 46.4213  13
  -3   4 -11 976.337 47.9116  21
  -3   4 -11 971.508 48.8641  20
  -3   4 -11 897.454 46.2205   9
   3  -4  11 843.880 50.6588   1
   3  -4  11 886.356 46.6564   2
   3  -4  11 935.125 49.5435  14
  -4   4 -11 14.1588 1.54834  13
  -4   4 -11 14.4771 4.13240   3
  -4   4 -11 15.0453 2.41236  21
  -4   4 -11 11.3086 2.50928  20
   4  -4  11 14.2008 4.40657  10
   4  -4  11 10.9929 3.54204  14
  -5   4 -11 485.089 25.1082  13
   5  -4  11 489.893 26.3179  14
   5  -4  11 517.518 26.3897  10
  -4  -3  11 3.17785 1.06631  13
  -4  -3  11 4.27189 2.59108   3
  -4  -3  11 4.28910 1.01595   9
   3   3 -11 922.509 62.5628   4
   3   3 -11 1100.21 55.1361   2
   3   3 -11 1126.57 57.2622   8
  -3  -3  11 1137.41 54.4385   9
  -3  -3  11 1073.52 57.5062  20
  -3  -3  11 1102.26 54.7201  13
  -3  -3  11 1066.47 55.9941  21
  -3  -3  11 1102.56 60.2211   3
   2   3 -11 2235.23 113.205   2
   2   3 -11 1985.62 123.482   4
  -2  -3  11 2288.09 112.422  13
  -2  -3  11 2386.11 115.734  21
  -2  -3  11 2310.23 115.491  20
  -2  -3  11 2198.84 112.192   9
  -2  -3  11 2305.26 118.328   3
   1   3 -11 14.5943 2.60044   2
   1   3 -11 18.8311 7.57253   5
  -1  -3  11 18.6574 1.97528   9
  -1  -3  11 18.8487 2.37391  13
  -1  -3  11 18.1554 4.36154   3
  -1  -3  11 22.4201 3.46564  21
  -1  -3  11 15.1932 2.77041   2
   0   3 -11 979.484 50.6936  20
   0   3 -11 936.782 49.9347   2
   0   3 -11 952.546 52.0255   3
   0  -3  11 997.075 49.6124   9
  -1   3 -11 1626.88 80.3572  21
  -1   3 -11 1604.35 82.8748   3
   1  -3  11 1515.38 79.5346  15
   1  -3  11 1468.77 80.0298   2
   1  -3  11 1690.77 84.2132   6
  -2   3 -11 6327.15 323.598   9
  -2   3 -11 6808.45 326.139  20
  -2   3 -11 6319.87 323.701  13
  -2   3 -11 6582.67 324.968  21
   2  -3  11 6375.15 324.423   2
   2  -3  11 6512.97 328.079   6
   2  -3  11 6598.85 324.448  15
  -3   3 -11 222.638 11.9404  13
  -3   3 -11 244.043 14.0952  20
  -3   3 -11 235.471 13.2744  21
  -3   3 -11 227.830 11.7848   9
   3  -3  11 221.608 13.0342  15
   3  -3  11 221.756 12.4884   2
   3  -3  11 189.202 22.2666   4
   3  -3  11 226.487 14.5483  14
  -4   3 -11 8.54208 2.50394  20
  -4   3 -11 8.59993 1.67099  13
  -4   3 -11 11.3204 3.11802   3
   4  -3  11 5.72501 2.52467  14
   4  -3  11 4.45527 3.43618  10
  -5   3 -11 308.185 14.6213  13
  -5   3 -11 286.729 16.7100  21
   5  -3  11 293.261 15.7629  10
   5  -3  11 250.339 19.1533   4
   5   2 -11 1948.00 91.3594   8
  -5  -2  11 1669.65 91.8781  21
  -5  -2  11 1815.98 90.4035  13
   4   2 -11 95.1656 12.4858   4
   4   2 -11 109.800 8.05181   8
  -4  -2  11 108.055 7.55719  21
  -4  -2  11 100.933 8.36546  20
  -4  -2  11 104.106 5.92290   9
  -4  -2  11 107.138 6.19092  13
  -4  -2  11 90.9477 11.8413   3
   3   2 -11 3.56280 1.30630   2
   3   2 -11 5.09749 2.59899   8
  -3  -2  11 6.78945 2.92210  20
  -3  -2  11 3.42477 1.04060   9
  -3  -2  11 2.58304 2.72752   3
  -3  -2  11 4.37604 1.29298  13
  -3  -2  11 5.74243 2.18146  21
   2   2 -11 1051.04 66.7967   4
   2   2 -11 1118.81 57.0564   2
  -2  -2  11 1195.10 59.4150   7
  -2  -2  11 1132.04 57.7575  21
  -2  -2  11 1063.80 56.3080  13
  -2  -2  11 1146.30 58.9381  20
  -2  -2  11 1177.63 61.6003   3
  -2  -2  11 1050.62 56.1233   9
   1   2 -11 1907.91 91.1669   2
   1   2 -11 1837.90 99.4632   5
  -1  -2  11 1671.42 89.7045  13
  -1  -2  11 1878.13 94.6986   3
  -1  -2  11 1821.19 91.0528  21
  -1  -2  11 1651.89 89.7945   9
  -1  -2  11 1759.13 90.4836   7
   0   2 -11 4041.35 208.178  21
   0   2 -11 4020.34 208.995  20
   0  -2  11 4118.52 207.520  15
   0  -2  11 4297.36 211.768   3
   0  -2  11 3918.35 212.648  20
   0  -2  11 4113.06 208.563  21
   0  -2  11 4641.58 209.300   7
  -1   2 -11 2499.10 126.379  21
  -1   2 -11 2521.79 127.194  20
  -1   2 -11 2539.66 128.806   3
   1  -2  11 2486.46 125.793  15
  -2   2 -11 34.4725 4.22360  20
  -2   2 -11 33.3586 3.65594  21
   2  -2  11 37.6790 3.50427   2
  -3   2 -11 2415.30 112.867  20
  -3   2 -11 2146.25 111.127   9
  -3   2 -11 2124.93 110.714  13
  -3   2 -11 2300.43 115.356   3
   3  -2  11 2089.80 111.539   2
  -4   2 -11 146.803 11.3616   3
  -4   2 -11 156.881 10.0486  21
  -4   2 -11 144.642 7.97459  13
  -4   2 -11 154.675 9.89377  20
   4  -2  11 148.538 10.4239  10
   4  -2  11 124.946 17.7695   4
   4  -2  11 140.551 9.66282  14
  -5   2 -11 149.940 8.44407  21
  -5   2 -11 153.513 7.76057  13
   5  -2  11 144.979 13.9852   4
   5  -2  11 133.261 8.25891  10
   5   1 -11 305.438 22.7024   4
   5   1 -11 338.068 17.8697   8
  -5  -1  11 303.268 20.3223   3
  -5  -1  11 313.143 17.4871  21
  -5  -1  11 317.616 16.3910  13
   4   1 -11 723.309 47.8802   4
   4   1 -11 628.351 49.7397  16
  -4  -1  11 656.805 34.5003  13
  -4  -1  11 696.624 39.9201   3
  -4  -1  11 649.161 34.2644   9
  -4  -1  11 690.784 38.2680  20
  -4  -1  11 683.567 36.0589  21
   3   1 -11 166.149 9.86390   2
   3   1 -11 163.389 19.4417   5
   3   1 -11 145.922 12.2353  17
  -3  -1  11 152.798 9.11059  13
  -3  -1  11 149.150 10.0346  21
  -3  -1  11 164.167 12.9574   3
  -3  -1  11 156.366 8.70119   9
  -3  -1  11 160.573 11.5215  20
   2   1 -11 1481.32 77.7359   2
   2   1 -11 1515.21 79.5531  17
   2   1 -11 1586.16 88.3339   5
   2   1 -11 1544.97 90.0440   4
   2   1 -11 1455.82 78.4787   8
  -2  -1  11 1656.84 81.5516   3
  -2  -1  11 1433.79 76.6141  13
  -2  -1  11 1621.64 79.0428  20
  -2  -1  11 1449.31 76.4967   9
   1   1 -11 81.7230 6.52757  17
   1   1 -11 87.9984 10.8530   5
  -1  -1  11 86.8176 6.95546  20
  -1  -1  11 89.7271 5.67963   7
  -1  -1  11 83.1337 8.13594   3
  -1  -1  11 84.2809 4.82562  15
  -1  -1  11 92.5882 6.43043  21
   0   1 -11 471.873 25.8022  20
   0   1 -11 468.901 27.2208   3
   0   1 -11 501.810 26.8756  17
   0  -1  11 462.657 28.1064   3
   0  -1  11 533.563 25.2297   7
   0  -1  11 473.718 25.8064  21
   0  -1  11 487.230 26.6704  20
   0  -1  11 476.926 24.8017  15
  -1   1 -11 1733.98 84.5651  20
  -1   1 -11 1704.59 86.2420   3
  -1   1 -11 1588.17 83.4739  21
   1  -1  11 1527.59 84.5037   6
   1  -1  11 1717.09 83.2375  15
  -2   1 -11 72.1764 5.90358  20
  -2   1 -11 69.8185 5.29659  21
   2  -1  11 75.4330 5.21604  15
   2  -1  11 69.5826 5.47689   2
  -3   1 -11 2247.98 111.787  20
  -3   1 -11 2174.74 109.762   9
  -3   1 -11 2363.66 114.607   3
  -3   1 -11 2142.01 109.768  13
   3  -1  11 2196.70 112.241  10
   3  -1  11 2180.41 110.870   2
   3  -1  11 2060.74 127.171   4
  -4   1 -11 305.973 16.1289  13
  -4   1 -11 322.222 18.1094  20
  -4   1 -11 319.918 16.1244   9
  -4   1 -11 308.645 19.9847   3
   4  -1  11 298.798 17.5495  10
   4  -1  11 293.157 28.2677   4
  -5   1 -11 46.7774 2.96968  13
   5  -1  11 49.4507 7.98157   4
   5   0 -11 255.793 25.3666  16
   5   0 -11 288.888 22.8935   4
   5   0 -11 322.844 17.2384   8
  -5   0  11 294.482 15.2649  13
  -5   0  11 288.139 19.0920   3
  -5   0  11 291.679 16.4970  21
   4   0 -11 1410.84 92.4568  16
   4   0 -11 1433.56 73.5838   8
   4   0 -11 1393.26 82.4114   4
  -4   0  11 1380.06 71.1075  13
  -4   0  11 1422.10 72.5693  21
  -4   0  11 1306.69 70.8930   9
  -4   0  11 1503.93 76.8323   3
  -4   0  11 1448.39 73.9178  20
   3   0 -11 9.58658 2.90746   8
   3   0 -11 7.56414 3.55365  17
   3   0 -11 9.50219 6.27552   4
   3   0 -11 6.93850 6.79484   5
  -3   0  11 8.32037 3.37122   3
  -3   0  11 7.60049 2.44106  21
  -3   0  11 8.95171 1.71710  13
  -3   0  11 7.83804 2.98023  20
   2   0 -11 1937.06 116.814   5
   2   0 -11 2097.78 111.106  17
  -2   0  11 2149.47 109.178  21
  -2   0  11 2277.00 112.683   3
  -2   0  11 2185.72 110.208  20
  -2   0  11 2299.44 108.708   7
   1   0 -11 1431.44 77.1041   5
   1   0 -11 1364.43 72.1813  17
  -1   0  11 1347.64 71.0145  21
  -1   0  11 1315.79 69.7459  15
  -1   0  11 1454.07 74.1570   3
  -1   0  11 1409.63 70.2888   7
  -1   0  11 1421.16 71.8547  20
   0   0 -11 2029.22 109.466  20
   0   0 -11 2241.01 111.319   3
   0   0 -11 2031.84 110.403  17
   0   0 -11 2027.44 108.974  21
   0   0  11 2316.96 109.229  15
   0   0  11 2283.87 108.811   7
   0   0  11 2331.75 112.852   3
   0   0  11 2176.91 110.374  20
   0   0  11 2105.46 109.712  21
  -1   0 -11 1268.48 70.4844  17
  -1   0 -11 1524.35 72.7235  20
  -1   0 -11 1330.35 69.0745  21
  -1   0 -11 1329.00 71.5170   3
  -2   0 -11 344.426 18.8403  20
  -2   0 -11 307.477 16.8474  13
  -2   0 -11 345.614 18.0848  21
  -2   0 -11 302.417 16.8207   9
  -2   0 -11 320.052 20.5632   3
   2   0  11 333.599 17.6783  15
   2   0  11 318.159 18.2850   2
  -3   0 -11 16.1426 3.15257  21
  -3   0 -11 17.1591 3.69634  20
  -3   0 -11 14.3461 4.09325   3
  -3   0 -11 16.9616 2.09290  13
  -3   0 -11 16.8316 2.05541   9
   3   0  11 13.9018 9.22221   4
  -4   0 -11 1092.97 60.5094   3
  -4   0 -11 1093.13 58.2162  20
  -4   0 -11 1121.70 56.2432  13
  -4   0 -11 1138.46 57.4193  21
   4   0  11 1134.16 69.6925   4
  -5   0 -11 19.2835 1.48556  13
   5   0  11 19.7636 4.49141   4
   5  -1 -11 62.5195 5.54148   8
   5  -1 -11 57.9295 13.9503  16
   5  -1 -11 54.9331 9.68350   4
  -5   1  11 57.4264 5.22177  20
  -5   1  11 49.7234 6.14208   3
  -5   1  11 58.2706 4.96799  21
  -5   1  11 52.5088 3.75258  13
   4  -1 -11 1263.98 82.8598  12
   4  -1 -11 1526.23 97.6738  16
   4  -1 -11 1485.93 76.5863   8
   4  -1 -11 1454.64 85.3576   4
  -4   1  11 1639.62 87.4847   3
  -4   1  11 1499.45 75.8106  21
  -4   1  11 1502.13 76.8793  20
  -4   1  11 1431.51 74.2788  13
   3  -1 -11 315.983 32.6109  16
   3  -1 -11 306.162 25.3647   4
   3  -1 -11 300.176 20.4638  17
   3  -1 -11 308.684 18.1239   8
   3  -1 -11 312.204 16.4105   2
  -3   1  11 319.518 18.6278  20
  -3   1  11 303.439 17.5968  21
  -3   1  11 275.614 16.2792  13
  -3   1  11 326.769 20.8822   3
   2  -1 -11 3616.20 177.326  17
   2  -1 -11 2946.37 180.459   5
  -2   1  11 3530.22 175.537  20
  -2   1  11 3676.27 178.334   3
  -2   1  11 3455.85 174.611  21
  -2   1  11 3614.19 174.033   7
   1  -1 -11 3506.53 176.091  17
   1  -1 -11 3395.85 178.524   5
  -1   1  11 3505.06 174.879  20
  -1   1  11 3481.50 177.266   3
  -1   1  11 3435.33 174.118  21
  -1   1  11 3467.17 173.349   7
   0  -1 -11 662.400 37.2684  17
   0  -1 -11 728.539 37.8758   3
   0  -1 -11 658.657 35.9460  20
   0   1  11 638.683 35.9531  21
   0   1  11 694.931 34.8847   7
   0   1  11 729.509 39.3591   3
   0   1  11 666.965 36.6773  20
  -1  -1 -11 1121.92 54.9961  20
  -1  -1 -11 1044.92 53.1628   9
  -1  -1 -11 1097.51 56.2197  21
  -1  -1 -11 1094.84 57.0349   3
  -1  -1 -11 1014.75 56.1434  17
  -1  -1 -11 990.124 53.0263  13
   1   1  11 970.507 53.2045   9
   1   1  11 1044.58 54.4979   2
   1   1  11 1100.57 53.6253  15
  -2  -1 -11 7.91769 3.19833  20
  -2  -1 -11 9.37745 1.73552   9
  -2  -1 -11 7.91893 2.70404  21
  -2  -1 -11 7.95060 1.78926  13
  -2  -1 -11 7.54041 3.35306   3
   2   1  11 5.80289 1.85663  15
  -3  -1 -11 79.8471 5.11297   9
  -3  -1 -11 84.5513 7.28404  20
  -3  -1 -11 78.3707 8.50581   3
  -3  -1 -11 93.4989 6.63619  21
  -3  -1 -11 77.9659 5.11722  13
   3   1  11 70.1906 5.97861   2
   3   1  11 80.8354 14.3796   4
  -4  -1 -11 848.340 44.5884  21
  -4  -1 -11 846.978 47.2734   3
  -4  -1 -11 836.881 43.5091   9
  -4  -1 -11 872.717 43.6906  13
   4   1  11 918.811 53.3874   4
   5  -2 -11 8.53394 5.48059   4
   5  -2 -11 7.01104 4.67093  12
   5  -2 -11 9.73604 2.95466   8
  -5   2  11 9.54936 2.39725  21
  -5   2  11 10.2306 2.55438  20
  -5   2  11 6.44987 2.56860   3
   4  -2 -11 1546.67 78.1692   8
   4  -2 -11 1381.54 87.9966  12
   4  -2 -11 1435.24 86.1852   4
   4  -2 -11 1610.88 100.595  16
  -4   2  11 1568.25 81.0510   3
  -4   2  11 1512.77 78.0244  20
  -4   2  11 1491.07 77.2840  21
   3  -2 -11 1454.68 73.1808   8
   3  -2 -11 1296.59 71.3325   2
   3  -2 -11 1358.78 81.5364   4
   3  -2 -11 1447.26 76.3464  17
  -3   2  11 1538.27 76.5960   3
  -3   2  11 1527.66 72.8179  21
  -3   2  11 1358.35 71.1843  13
  -3   2  11 1521.09 73.5955  20
  -3   2  11 1214.03 71.0826   9
   2  -2 -11 1413.76 74.5095  17
   2  -2 -11 1305.06 71.6611   8
  -2   2  11 1479.30 75.2881   3
  -2   2  11 1514.15 73.3310  21
  -2   2  11 1443.23 71.1765   7
  -2   2  11 1410.78 72.4214  20
  -2   2  11 1207.68 70.5195  13
   1  -2 -11 1049.29 56.1677  17
   1  -2 -11 966.740 53.2273   2
  -1   2  11 1046.34 53.2189   7
  -1   2  11 1063.31 54.8679  20
  -1   2  11 1048.33 57.3319   3
  -1   2  11 1072.72 54.2101  21
   0  -2 -11 161.222 12.0908  17
   0  -2 -11 149.546 8.83741   9
   0  -2 -11 150.785 9.83519   2
   0  -2 -11 161.226 9.60665  21
   0   2  11 164.383 9.44001   9
   0   2  11 156.301 10.4584  21
   0   2  11 174.507 13.3929   3
   0   2  11 169.287 12.1380  20
   0   2  11 168.736 11.9776   2
   0   2  11 163.302 9.26935  13
  -1  -2 -11 1174.56 60.1332  20
  -1  -2 -11 1202.24 59.0772  21
  -1  -2 -11 1060.78 59.0920   2
  -1  -2 -11 1113.32 57.8782   9
  -1  -2 -11 1300.42 65.1058   3
  -1  -2 -11 1078.50 61.7978  17
  -1  -2 -11 1153.89 57.8630  13
   1   2  11 1164.80 59.6560   2
   1   2  11 1131.59 58.4284  15
   1   2  11 1102.31 57.9359   9
  -2  -2 -11 1147.29 56.6477  13
  -2  -2 -11 1175.41 58.0177  21
  -2  -2 -11 1167.35 61.9051   3
  -2  -2 -11 985.713 58.1679   2
  -2  -2 -11 1121.62 56.6639   9
  -2  -2 -11 1142.54 59.1423  20
   2   2  11 1123.79 58.3208   2
   2   2  11 1104.73 70.2260   4
  -3  -2 -11 257.423 13.2471  13
  -3  -2 -11 237.027 15.2830  20
  -3  -2 -11 235.748 18.9168   3
  -3  -2 -11 256.728 14.4262  21
  -3  -2 -11 247.277 13.1889   9
   3   2  11 262.493 22.7252   4
   3   2  11 237.310 14.1062   2
  -4  -2 -11 409.543 21.5720  21
  -4  -2 -11 426.344 20.8137  13
  -4  -2 -11 434.081 20.7451   9
   4   2  11 369.138 27.2714   4
   5  -3 -11 104.112 7.28460   8
  -5   3  11 91.9924 6.64476  21
  -5   3  11 80.2659 7.87201   3
   4  -3 -11 1519.06 93.8069  12
   4  -3 -11 1732.22 81.8744   8
  -4   3  11 1569.03 80.9740  21
  -4   3  11 1563.80 81.5910  20
  -4   3  11 1689.53 84.7631   3
  -4   3  11 1405.71 79.8836  13
   3  -3 -11 1473.50 78.7020   8
   3  -3 -11 1564.21 82.8973  17
  -3   3  11 1541.79 82.2895   3
  -3   3  11 1545.75 79.3252  20
  -3   3  11 1510.86 78.5497  21
   2  -3 -11 837.202 44.2679   8
   2  -3 -11 819.412 43.3675   2
   2  -3 -11 838.529 47.2961  17
  -2   3  11 819.976 42.5532   9
  -2   3  11 850.693 44.4448  21
  -2   3  11 797.201 51.3367  19
  -2   3  11 870.612 45.2918  20
  -2   3  11 839.716 42.8178  13
  -2   3  11 864.650 48.1324   3
   1  -3 -11 939.028 52.2347  17
   1  -3 -11 839.973 48.8326   2
  -1   3  11 897.231 48.7957   7
  -1   3  11 961.298 58.3127  19
  -1   3  11 1012.51 50.8723  20
  -1   3  11 907.307 47.9818   9
  -1   3  11 1049.10 50.1822  21
  -1   3  11 984.752 48.3187  13
  -1   3  11 930.351 53.5170   3
   0  -3 -11 33.5183 3.02314   9
   0  -3 -11 39.5901 4.08972   2
   0  -3 -11 42.1926 6.23555  17
   0   3  11 43.4714 6.31048   3
   0   3  11 37.8840 3.37114   9
   0   3  11 40.5127 5.06553  20
   0   3  11 41.6580 3.55187  13
   0   3  11 39.4548 4.83688   2
  -1  -3 -11 1008.89 53.2595   2
  -1  -3 -11 1088.24 51.7030  13
  -1  -3 -11 1063.13 51.8931   9
  -1  -3 -11 1010.45 56.9482  17
   1   3  11 1055.87 53.7879   2
   1   3  11 970.156 52.3759  15
   1   3  11 946.436 64.1877   4
   1   3  11 1052.56 51.9142   9
  -2  -3 -11 1525.98 75.6674   9
  -2  -3 -11 1469.30 76.8214   2
  -2  -3 -11 1582.24 75.5666  13
  -2  -3 -11 1430.67 77.1004  21
  -2  -3 -11 1436.69 79.7569   3
   2   3  11 1531.81 85.0715   4
   2   3  11 1559.14 77.2821   2
  -3  -3 -11 0.73424 0.96097  21
  -3  -3 -11 1.08107 0.84108   9
  -3  -3 -11 1.05073 0.74853  13
   3   3  11 1.59076 1.13208   2
   5  -4 -11 225.858 19.3728  12
   5  -4 -11 235.764 13.2085  18
   5  -4 -11 265.924 14.1365   8
  -5   4  11 222.779 13.4608  21
   4  -4 -11 111.123 8.24916   8
   4  -4 -11 114.265 8.89779  18
   4  -4 -11 102.785 15.6896  12
  -4   4  11 115.766 6.86532  13
  -4   4  11 110.448 8.41034  20
  -4   4  11 100.888 9.95987   3
  -4   4  11 114.478 8.50004  21
   3  -4 -11 918.933 47.4571   8
   3  -4 -11 831.786 45.4642   2
  -3   4  11 834.350 45.3988   9
  -3   4  11 965.218 51.8863   3
  -3   4  11 818.099 54.5467  19
  -3   4  11 943.376 48.4454  20
  -3   4  11 919.325 45.8306  13
  -3   4  11 932.087 47.6761  21
   2  -4 -11 130.594 11.7325  17
   2  -4 -11 119.954 8.85755   8
   2  -4 -11 110.647 8.10913   2
  -2   4  11 123.730 7.51670   9
  -2   4  11 149.095 10.5850  20
  -2   4  11 131.209 14.8986  19
  -2   4  11 117.535 11.9428   3
  -2   4  11 138.240 7.94733  13
   1  -4 -11 4016.53 207.092   2
   1  -4 -11 3914.33 207.025   8
   1  -4 -11 3900.43 210.885  17
  -1   4  11 4299.57 212.637   3
  -1   4  11 4250.08 206.029   9
  -1   4  11 4355.85 206.253  13
  -1   4  11 4115.44 209.030  20
  -1   4  11 4463.01 208.991  21
  -1   4  11 3821.79 217.219  19
   0  -4 -11 436.284 22.4186   9
   0  -4 -11 417.530 23.7727   2
   0   4  11 448.733 22.6916   9
   0   4  11 431.231 23.7317  21
   0   4  11 422.128 24.4006   2
   0   4  11 443.498 22.5685  13
  -1  -4 -11 151.960 9.78836   2
  -1  -4 -11 157.813 8.63857   9
   1   4  11 155.259 10.2604   2
   1   4  11 152.590 8.64592   9
  -2  -4 -11 1086.39 56.8542   9
  -2  -4 -11 1054.15 57.1196   2
   2   4  11 1225.93 58.0850   2
   5  -5 -11 182.905 14.9725  12
   5  -5 -11 190.760 10.7816   8
   4  -5 -11 351.168 18.6084   8
   4  -5 -11 308.510 26.3058  12
  -4   5  11 320.950 18.5256  21
  -4   5  11 322.919 21.1619   3
  -4   5  11 326.987 17.2555  13
   3  -5 -11 1871.99 111.937  12
   3  -5 -11 2072.73 100.364   8
  -3   5  11 1719.02 98.4581   9
  -3   5  11 2015.07 104.787   3
  -3   5  11 1957.07 101.465  20
  -3   5  11 2102.04 99.0333  13
  -3   5  11 2032.03 116.115  19
   2  -5 -11 11.4547 2.39371   2
   2  -5 -11 12.2357 2.80429   8
  -2   5  11 10.8690 3.50115  20
  -2   5  11 13.7402 2.62786  13
  -2   5  11 11.1974 5.74410  19
  -2   5  11 11.8684 3.66163  21
  -2   5  11 10.4691 2.06208   9
  -2   5  11 14.1803 4.33953   3
   1  -5 -11 190.712 11.6114   2
  -1   5  11 189.385 14.9936   3
  -1   5  11 205.401 10.8744  13
  -1   5  11 198.023 10.7475   9
  -1   5  11 198.087 12.2297  21
  -1   5  11 175.629 12.8389  20
   0  -5 -11 478.800 26.0980   2
   0  -5 -11 481.612 24.6936   9
   0   5  11 502.538 25.1375   9
   0   5  11 483.502 26.5111   2
  -1  -5 -11 356.100 19.0649   2
  -1  -5 -11 358.886 18.1184   9
   1   5  11 366.598 19.4089   2
   1   5  11 339.503 18.1088   9
   4  -6 -11 10.0722 4.14318  12
   4  -6 -11 9.84260 2.08118   8
   4  -6 -11 9.83093 2.66318  18
  -4   6  11 9.61458 1.54442  13
  -4   6  11 7.56538 2.03345  21
   3  -6 -11 796.271 41.0646  18
   3  -6 -11 765.923 39.3587   8
   3  -6 -11 726.379 45.2271  12
  -3   6  11 759.447 43.5681   3
  -3   6  11 779.771 39.8883  21
  -3   6  11 687.919 38.2733   9
  -3   6  11 801.861 38.6940  13
   2  -6 -11 930.990 46.5434   2
   2  -6 -11 845.589 52.1468  12
  -2   6  11 1046.20 46.9410   9
  -2   6  11 861.533 50.8526   3
  -2   6  11 911.181 47.6183  21
   1  -6 -11 741.325 36.7596   2
  -1   6  11 770.739 36.3493   9
  -1   6  11 624.216 35.7869  13
   0  -6 -11 846.901 41.3619   2
   0   6  11 786.127 41.3947   2
   0   6  11 800.270 40.7176   9
   0   7 -12 10.2609 0.96218   9
   0  -7  12 11.4410 1.52012   2
  -1   7 -12 481.455 24.0476   9
   1  -7  12 471.013 24.3762   2
  -2   7 -12 173.004 9.29892   9
  -2   7 -12 177.314 8.91618  13
  -2   7 -12 170.620 10.2684  21
   2  -7  12 168.634 10.5939  14
  -3   7 -12 19.9936 1.38521  13
   3  -7  12 19.5311 2.55047  14
   2   6 -12 94.6365 5.28359   2
   2   6 -12 93.3251 5.76713   8
   1   6 -12 212.117 11.9588   2
   1   6 -12 221.229 11.1270   9
  -1  -6  12 213.541 12.0127   2
  -1  -6  12 218.733 11.1570   9
   0   6 -12 173.558 10.3836   2
   0   6 -12 178.906 9.56708   9
   0  -6  12 186.748 10.5099   2
  -1   6 -12 1147.96 67.3872   3
  -1   6 -12 1253.17 65.0277  21
  -1   6 -12 1277.10 64.1000  13
  -1   6 -12 1371.05 64.2220   9
   1  -6  12 1344.21 65.0662   2
  -2   6 -12 1805.30 88.3547  13
  -2   6 -12 1678.72 91.9790   3
  -2   6 -12 1845.18 88.3048   9
  -2   6 -12 1618.66 90.4630  20
  -2   6 -12 1771.46 89.4830  21
   2  -6  12 1869.55 88.7587   2
  -3   6 -12 194.105 10.0304   9
  -3   6 -12 199.797 10.2636  13
  -3   6 -12 189.639 11.1934  21
   3  -6  12 193.570 12.3224  10
   3  -6  12 190.173 12.3351  14
  -4   6 -12 256.991 14.4320  21
  -4   6 -12 289.426 13.9152  13
   4  -6  12 275.366 15.0747  10
   4  -6  12 271.641 14.9660  14
   3   5 -12 3.33074 1.19721   8
   3   5 -12 2.53782 0.75377   2
  -3  -5  12 2.91005 0.63078   9
   2   5 -12 19.5721 2.57799   2
  -2  -5  12 22.9949 2.58105   9
  -2  -5  12 16.0425 2.36992   2
   1   5 -12 1284.61 64.8278   2
   1   5 -12 1240.12 63.6223   9
  -1  -5  12 1264.25 63.7166   9
  -1  -5  12 1286.49 64.8111   2
   0   5 -12 236.186 14.8536  21
   0   5 -12 307.910 17.8095   2
   0   5 -12 268.806 14.2723   9
   0   5 -12 268.597 14.3068  13
   0  -5  12 281.092 15.4149   2
  -1   5 -12 226.485 15.9540   3
  -1   5 -12 230.536 12.1461   9
  -1   5 -12 230.349 12.2017  13
  -1   5 -12 221.202 14.5617  20
  -1   5 -12 220.842 13.4509  21
   1  -5  12 238.358 13.2601   2
  -2   5 -12 1885.82 100.113   3
  -2   5 -12 1938.02 97.1476  21
  -3   5 -12 57.1070 3.81423  13
  -3   5 -12 59.0188 5.00863  21
  -3   5 -12 58.5473 6.48905   3
  -3   5 -12 57.0278 5.57141  20
  -3   5 -12 52.8437 3.45245   9
   3  -5  12 59.5079 6.27485  14
  -4   5 -12 969.621 50.6657  21
  -4   5 -12 909.689 53.7182   3
  -4   5 -12 1012.71 49.5407  13
   4  -5  12 1044.55 51.7787  10
   4  -5  12 1003.98 51.1663  14
   3   4 -12 1139.79 63.5696   2
  -3  -4  12 1347.04 62.4857  13
  -3  -4  12 1229.55 63.1080  21
   2   4 -12 296.869 16.2051   2
  -2  -4  12 297.527 15.3441  13
  -2  -4  12 293.644 15.2777   9
  -2  -4  12 299.466 16.4035   2
  -2  -4  12 262.909 17.9524  21
   1   4 -12 231.668 13.8171   2
   1   4 -12 241.764 12.7025   9
  -1  -4  12 251.369 12.7670  13
  -1  -4  12 243.243 12.8211   9
  -1  -4  12 233.881 13.8601   2
   0   4 -12 652.883 34.0279  21
   0   4 -12 641.557 43.4089   5
   0   4 -12 640.382 36.7399   3
   0   4 -12 625.411 32.9084   9
   0   4 -12 612.133 35.3505  20
   0   4 -12 648.716 32.9119  13
   0  -4  12 708.912 33.6195   9
   0  -4  12 685.881 39.1375   6
   0  -4  12 618.570 33.9172   2
  -1   4 -12 1252.94 60.7143  21
  -1   4 -12 1145.11 63.3513   3
  -1   4 -12 1211.72 59.5172   9
  -1   4 -12 1160.75 59.2699  13
   1  -4  12 1080.82 60.1417   2
   1  -4  12 1212.95 65.4580   6
  -2   4 -12 513.381 28.3275  21
  -2   4 -12 511.470 26.9984  13
  -2   4 -12 577.727 31.5784   3
  -2   4 -12 511.114 29.3835  20
  -2   4 -12 517.312 26.9149   9
   2  -4  12 549.189 27.7698   2
   2  -4  12 477.532 27.6084  15
   2  -4  12 554.465 32.8089   6
  -3   4 -12 228.996 13.8831  20
  -3   4 -12 182.177 11.7666   9
  -3   4 -12 229.797 12.9871  21
   3  -4  12 220.040 12.1210   2
  -4   4 -12 933.408 48.2538  13
  -4   4 -12 968.944 51.6361   3
  -4   4 -12 953.693 49.7040  20
  -4   4 -12 949.446 49.0556  21
   4  -4  12 945.023 51.9771  14
   4  -4  12 999.804 50.8479  10
   5  -4  12 23.6824 2.63430  10
   4   3 -12 341.949 18.5289   8
  -4  -3  12 338.292 17.0919   9
  -4  -3  12 339.453 17.2641  13
  -4  -3  12 315.754 18.1932  21
   3   3 -12 398.799 22.1023   2
   3   3 -12 405.928 23.7610   8
  -3  -3  12 442.093 23.5092  21
  -3  -3  12 438.229 21.7558  13
  -3  -3  12 437.055 21.5681   9
  -3  -3  12 406.034 24.4827  20
  -3  -3  12 392.710 26.5176   3
   2   3 -12 659.662 35.2346   9
   2   3 -12 803.138 54.4386   5
   2   3 -12 713.876 36.5984   2
  -2  -3  12 676.151 35.5451   9
  -2  -3  12 703.492 36.9035   2
  -2  -3  12 687.241 37.3519  21
  -2  -3  12 711.129 35.8151  13
  -2  -3  12 653.721 38.5591  20
  -2  -3  12 695.356 41.3972   3
   1   3 -12 278.825 14.9165   9
   1   3 -12 283.943 16.0162   2
   1   3 -12 284.370 24.7631   5
  -1  -3  12 283.591 17.8475  20
  -1  -3  12 278.638 16.0557   2
  -1  -3  12 297.223 15.2367  13
  -1  -3  12 282.295 15.0105   9
  -1  -3  12 290.623 20.0071   3
  -1  -3  12 295.487 16.6239  21
   0   3 -12 5626.36 284.016  20
   0   3 -12 5525.22 283.007   2
   0   3 -12 5833.23 282.942  21
   0   3 -12 5722.24 281.835   9
   0   3 -12 5694.06 281.795  13
   0  -3  12 5564.71 282.829   2
   0  -3  12 5778.14 281.874   9
   0  -3  12 5549.84 281.822  13
  -1   3 -12 7.22770 1.71239  13
  -1   3 -12 7.25555 3.31077   3
  -1   3 -12 5.13188 1.89213  21
   1  -3  12 5.69583 1.65700   2
   1  -3  12 8.18086 3.25725   6
  -2   3 -12 4718.81 250.165  13
  -2   3 -12 5739.96 257.726  20
  -2   3 -12 4843.48 250.086   9
  -2   3 -12 5049.93 251.546  21
  -2   3 -12 5006.64 254.561   3
   2  -3  12 4872.41 250.946  15
   2  -3  12 4933.83 250.991   2
  -3   3 -12 17.0962 1.69834   9
  -3   3 -12 19.3642 3.05904  21
  -3   3 -12 17.1092 5.25477   3
  -3   3 -12 17.0528 1.91756  13
   3  -3  12 17.2045 2.34100   2
   3  -3  12 19.1584 3.77126  14
  -4   3 -12 184.772 10.3977  21
  -4   3 -12 174.925 10.8154  20
  -4   3 -12 166.285 15.1742   3
  -4   3 -12 179.580 9.34823  13
   4  -3  12 184.492 12.0537  10
   4  -3  12 155.219 18.1094   4
   5  -3  12 997.753 50.5995  10
   4   2 -12 2.06861 1.75445   8
   4   2 -12 2.35368 3.82653   4
  -4  -2  12 1.69967 2.30689   3
  -4  -2  12 2.67688 3.28267  20
  -4  -2  12 2.34261 1.13800  13
  -4  -2  12 1.88539 1.72875  21
   3   2 -12 1025.36 52.9548   2
   3   2 -12 969.953 63.3077   4
   3   2 -12 1073.32 54.9914   8
  -3  -2  12 1003.95 53.9950  21
  -3  -2  12 1038.34 55.4310  20
  -3  -2  12 1040.30 52.5250  13
  -3  -2  12 1094.38 58.5243   3
  -3  -2  12 1053.04 52.3654   9
   2   2 -12 156.496 17.6989   4
   2   2 -12 156.865 9.84925   2
   2   2 -12 156.382 8.74548   9
   2   2 -12 171.012 18.9854   5
  -2  -2  12 158.553 9.02437   9
  -2  -2  12 171.013 9.33451  13
  -2  -2  12 169.275 13.7128   3
  -2  -2  12 178.532 10.8845  21
  -2  -2  12 175.326 11.8301  20
   1   2 -12 188.255 17.6435   5
  -1  -2  12 174.611 13.6599   3
  -1  -2  12 164.524 9.90785  13
  -1  -2  12 174.222 11.7990  20
  -1  -2  12 173.260 9.43240   9
  -1  -2  12 175.798 10.3697   7
  -1  -2  12 155.328 10.3550   2
   0   2 -12 404.795 20.7035  21
   0   2 -12 401.345 21.5492  20
   0   2 -12 381.320 23.1523   3
   0   2 -12 365.335 19.8241   9
   0   2 -12 366.454 19.7755  13
   0  -2  12 397.073 20.7727   7
   0  -2  12 353.524 22.3916   2
   0  -2  12 392.631 21.3394  21
   0  -2  12 419.025 20.3972   9
  -1   2 -12 341.158 18.5353   9
  -1   2 -12 334.493 19.3887  13
  -1   2 -12 368.113 19.6676  21
  -1   2 -12 355.698 20.2598  20
   1  -2  12 376.487 20.8674   2
   1  -2  12 371.706 21.6321   6
   1  -2  12 355.860 18.9298  15
  -2   2 -12 1264.43 64.0299  20
  -2   2 -12 1260.26 66.5513   3
  -2   2 -12 1191.14 61.8984   9
  -2   2 -12 1174.10 61.9537  13
  -2   2 -12 1239.10 63.1214  21
   2  -2  12 1232.45 62.9728   2
   2  -2  12 1274.49 62.9209  15
  -3   2 -12 1948.01 98.4837  13
  -3   2 -12 2053.88 100.623  20
  -3   2 -12 2086.15 103.275   3
   3  -2  12 2031.62 101.587  10
   3  -2  12 1969.01 99.4053   2
   3  -2  12 1720.37 114.493   4
  -4   2 -12 4.25888 1.60663  21
  -4   2 -12 4.35937 1.94195  20
   4  -2  12 4.31111 4.76993   4
  -5   2 -12 576.843 28.6302  13
  -5   2 -12 547.582 29.3160  21
   5  -2  12 581.118 34.2706   4
   5   1 -12 561.064 28.1794   8
   5   1 -12 501.011 32.8776   4
  -5  -1  12 513.556 27.9689  21
  -5  -1  12 544.153 26.9802  13
   4   1 -12 135.188 16.1226   4
   4   1 -12 140.338 9.93953   8
  -4  -1  12 149.909 10.8604  20
  -4  -1  12 141.655 12.4434   3
  -4  -1  12 141.121 7.90271   9
  -4  -1  12 149.212 9.77553  21
  -4  -1  12 146.009 8.22978  13
   3   1 -12 1185.58 67.9662  17
   3   1 -12 1252.98 65.9444   8
   3   1 -12 1272.76 75.9551   4
   3   1 -12 1259.78 64.0851   2
  -3  -1  12 1292.33 63.6786   9
  -3  -1  12 1298.39 69.3291   3
  -3  -1  12 1342.93 66.7505  20
  -3  -1  12 1216.34 63.7603  13
   2   1 -12 964.202 50.6088   8
   2   1 -12 934.614 51.3463  17
   2   1 -12 945.802 49.1075   2
   2   1 -12 895.794 59.2553   4
  -2  -1  12 1034.98 51.3093  20
  -2  -1  12 977.494 49.4150   7
  -2  -1  12 992.135 53.6751   3
  -2  -1  12 943.503 48.5831  13
  -2  -1  12 914.811 48.3882   9
  -2  -1  12 994.675 50.0519  21
   1   1 -12 1082.42 60.4587  17
   1   1 -12 1249.90 67.5503   5
  -1  -1  12 1204.47 59.3396   7
  -1  -1  12 1107.78 58.4305  15
  -1  -1  12 1170.80 63.3967   3
  -1  -1  12 1180.39 60.0797  21
   0   1 -12 1962.36 101.029   3
   0   1 -12 1847.50 99.3241  17
   0   1 -12 1941.19 99.3338  20
   0  -1  12 1949.49 98.1880  15
   0  -1  12 2004.78 100.127  20
   0  -1  12 1996.79 102.270   3
   0  -1  12 2071.93 98.6275   7
   0  -1  12 1911.93 99.6368  21
  -1   1 -12 1389.01 69.5090  21
  -1   1 -12 1440.42 72.4752   3
  -1   1 -12 1326.27 68.5727   9
  -1   1 -12 1413.64 70.2915  20
  -1   1 -12 1316.02 68.5374  13
   1  -1  12 1296.13 69.5264   2
   1  -1  12 1478.62 69.2188  15
   1  -1  12 1289.25 70.4181   6
  -2   1 -12 143.837 8.34733   9
  -2   1 -12 163.653 10.2803  20
  -2   1 -12 148.225 8.41171  13
  -2   1 -12 151.630 11.7908   3
   2  -1  12 167.404 9.41916  15
   2  -1  12 150.132 9.64937   2
  -3   1 -12 1312.28 64.8161  21
  -3   1 -12 1294.08 65.6561  20
  -3   1 -12 1235.33 63.4656   9
  -3   1 -12 1229.58 63.4930  13
  -3   1 -12 1305.78 68.2354   3
   3  -1  12 1223.52 65.6173  10
   3  -1  12 1253.05 64.6115   2
   3  -1  12 1250.04 81.3676   4
  -4   1 -12 10.3663 3.52559   3
  -4   1 -12 7.85989 2.66252  20
  -4   1 -12 8.48958 1.65237  13
  -4   1 -12 7.27189 2.43923  21
   4  -1  12 9.50245 2.88898  10
   4  -1  12 11.7076 8.36160   4
  -5   1 -12 612.819 31.0127  13
   5  -1  12 621.882 35.9564   4
   5   0 -12 891.662 54.1582   4
   5   0 -12 956.043 47.5839   8
  -5   0  12 899.098 45.9659  13
  -5   0  12 894.922 52.5126   3
   4   0 -12 111.439 8.69360   8
   4   0 -12 103.702 16.4884  16
   4   0 -12 115.513 15.1891   4
  -4   0  12 117.639 7.50121  13
  -4   0  12 118.024 8.33267  21
  -4   0  12 104.147 6.32721   9
  -4   0  12 119.178 11.0724   3
  -4   0  12 121.152 9.45877  20
   3   0 -12 1625.39 82.0371   2
   3   0 -12 1758.94 108.328   4
   3   0 -12 1731.68 85.8105   8
   3   0 -12 1372.25 93.2087   5
   3   0 -12 1610.73 86.1466  17
  -3   0  12 1581.71 81.9122  13
  -3   0  12 1733.01 87.6553   3
  -3   0  12 1599.96 81.7145   9
  -3   0  12 1656.36 83.4158  21
   2   0 -12 1295.22 78.2570   5
   2   0 -12 1361.47 72.0130  17
  -2   0  12 1295.20 68.7999  13
  -2   0  12 1436.20 70.2954  21
  -2   0  12 1278.57 68.5496   9
  -2   0  12 1406.57 73.8703   3
  -2   0  12 1436.83 71.3184  20
  -2   0  12 1421.63 69.4998   7
   1   0 -12 4.40594 4.48159   5
   0   0 -12 749.613 38.3819  21
   0   0 -12 722.467 38.9200  20
   0   0 -12 745.586 41.4767   3
   0   0 -12 705.030 39.8158  17
   0   0  12 739.598 38.0749   7
   0   0  12 779.090 38.0542  15
   0   0  12 765.867 39.8313  20
   0   0  12 765.641 39.1474  21
   0   0  12 745.286 43.7780   3
  -1   0 -12 706.461 36.5700   9
  -1   0 -12 701.961 36.5747  13
  -1   0 -12 756.279 40.2473   3
  -1   0 -12 668.195 38.8395  17
  -1   0 -12 718.282 38.1066  20
   1   0  12 783.053 37.2288  15
   1   0  12 723.788 37.8868   2
  -2   0 -12 157.042 12.2891   3
  -2   0 -12 161.624 10.7351  20
  -2   0 -12 161.003 9.94753  21
  -2   0 -12 157.646 13.1025  17
  -2   0 -12 155.895 8.74585   9
   2   0  12 167.900 10.4320   2
   2   0  12 159.513 9.57697  15
  -3   0 -12 1129.31 57.6367   9
  -3   0 -12 1191.64 62.5817   3
  -3   0 -12 1138.52 59.8357  20
  -3   0 -12 1114.14 58.8477  21
  -3   0 -12 1119.87 57.6585  13
   3   0  12 1167.25 58.8981   2
   3   0  12 1145.20 74.6383   4
  -4   0 -12 133.077 7.48634   9
  -4   0 -12 128.196 10.5067   3
  -4   0 -12 134.137 7.82749  13
  -4   0 -12 155.749 11.9068  20
  -4   0 -12 136.656 8.59865  21
   4   0  12 140.423 16.7616   4
   5  -1 -12 610.341 31.6740   8
   5  -1 -12 613.021 40.0514   4
  -5   1  12 565.080 31.0955  21
  -5   1  12 561.522 33.6603   3
  -5   1  12 584.060 29.9608  13
   4  -1 -12 691.087 47.4714   4
   4  -1 -12 715.588 39.1174   8
   4  -1 -12 728.389 57.2689  16
  -4   1  12 698.973 37.2099  13
  -4   1  12 749.175 42.6756   3
  -4   1  12 746.686 38.7980  21
  -4   1  12 750.736 39.7301  20
   3  -1 -12 292.529 19.9484  17
   3  -1 -12 297.605 17.5606   8
   3  -1 -12 281.543 43.3013  16
   3  -1 -12 304.561 15.9039   2
   3  -1 -12 288.241 25.2035   4
  -3   1  12 282.969 15.7707  13
  -3   1  12 274.499 15.4262   9
  -3   1  12 294.841 17.2404  21
  -3   1  12 321.710 20.9348   3
  -3   1  12 324.087 19.3882  20
   2  -1 -12 2468.93 142.226   5
   2  -1 -12 2806.31 138.252  17
   2  -1 -12 2553.55 135.628   8
  -2   1  12 2761.44 134.927   7
  -2   1  12 2441.15 133.906   9
  -2   1  12 2549.13 134.193  13
  -2   1  12 2848.15 135.793  21
  -2   1  12 2926.94 139.801   3
  -2   1  12 2797.97 136.671  20
   1  -1 -12 136.328 10.5037  17
  -1   1  12 133.355 8.25675   7
  -1   1  12 143.217 9.82865  20
  -1   1  12 135.897 11.3792   3
  -1   1  12 158.895 9.49878  21
   0  -1 -12 552.929 32.2894   3
   0  -1 -12 559.268 28.3147   9
   0  -1 -12 557.549 29.6732  20
   0  -1 -12 574.821 28.9169  21
   0  -1 -12 568.134 31.2885  17
   0   1  12 562.755 28.5701  15
   0   1  12 578.073 30.5939  20
   0   1  12 536.067 28.4557   7
   0   1  12 525.174 32.4020   3
   0   1  12 509.875 28.1741   9
   0   1  12 526.461 29.0080  13
   0   1  12 579.984 29.8261  21
  -1  -1 -12 623.467 31.9620  21
  -1  -1 -12 604.983 30.8980  13
  -1  -1 -12 595.967 30.8886   9
  -1  -1 -12 606.711 34.4840  17
  -1  -1 -12 635.723 32.8915  20
  -1  -1 -12 565.702 34.3293   2
  -1  -1 -12 620.571 34.8615   3
   1   1  12 591.041 31.0208   9
   1   1  12 617.307 32.5702   2
  -2  -1 -12 7.26879 2.81422  21
  -2  -1 -12 8.48682 3.39372  20
  -2  -1 -12 10.4757 3.74970   3
  -2  -1 -12 6.78071 1.39440  13
   2   1  12 7.00487 1.92369  15
   2   1  12 11.9887 3.39475   2
  -3  -1 -12 1992.38 98.0387   9
  -3  -1 -12 1943.52 102.810   3
  -3  -1 -12 1939.32 98.0409  13
  -3  -1 -12 1961.95 99.3218  21
  -3  -1 -12 1913.30 100.289  20
   3   1  12 1917.96 99.1144   2
   3   1  12 2027.93 113.485   4
  -4  -1 -12 483.881 24.6656  13
  -4  -1 -12 477.943 24.5795   9
  -4  -1 -12 470.312 25.4236  21
   4   1  12 507.008 32.2372   4
   5  -2 -12 915.347 45.1632   8
   5  -2 -12 805.098 48.0720  12
   5  -2 -12 883.355 52.7750   4
  -5   2  12 846.184 43.3762  13
  -5   2  12 838.071 46.9066   3
   4  -2 -12 1385.31 69.0930   8
   4  -2 -12 1237.98 77.2429   4
   4  -2 -12 1165.43 78.2576  12
  -4   2  12 1420.37 72.4343   3
  -4   2  12 1371.19 69.2521  20
  -4   2  12 1382.10 68.5853  21
   3  -2 -12 29.3630 5.52424  17
   3  -2 -12 31.2775 2.97289   2
  -3   2  12 32.0133 5.50948   3
  -3   2  12 25.6875 2.33712   9
  -3   2  12 31.3625 4.42495  20
  -3   2  12 24.2487 2.64299  13
  -3   2  12 28.0594 3.90287  21
   2  -2 -12 1106.65 60.8276   8
   2  -2 -12 1239.20 63.7782  17
   2  -2 -12 1179.39 59.7044   2
  -2   2  12 1231.88 61.5718  20
  -2   2  12 1196.81 60.0627   7
  -2   2  12 1143.25 59.1785  13
  -2   2  12 1234.11 60.8069  21
  -2   2  12 1066.97 58.8801   9
  -2   2  12 1137.45 64.0185   3
   1  -2 -12 76.5025 5.78219   2
   1  -2 -12 76.5748 5.01583   9
   1  -2 -12 80.2741 7.87588  17
  -1   2  12 78.4828 5.61498   7
  -1   2  12 90.3764 8.96802   3
  -1   2  12 86.0480 5.46989  13
  -1   2  12 90.8065 6.90936  21
  -1   2  12 82.3822 5.56472   9
  -1   2  12 87.1670 7.24595  20
   0  -2 -12 2189.68 110.872  17
   0  -2 -12 2064.73 106.872   2
   0  -2 -12 2076.18 105.678   9
   0   2  12 2117.76 105.849   9
   0   2  12 2093.97 107.397  21
   0   2  12 2206.71 106.258   7
   0   2  12 2118.41 105.992  13
   0   2  12 2008.46 108.256  20
   0   2  12 2118.08 111.227   3
   0   2  12 2132.11 107.517   2
  -1  -2 -12 1880.55 97.6449  13
  -1  -2 -12 2013.00 102.362   3
  -1  -2 -12 1883.21 102.253  17
  -1  -2 -12 1918.29 99.8643  20
  -1  -2 -12 1927.65 99.0720   2
  -1  -2 -12 1934.16 98.1691   9
  -1  -2 -12 1958.78 98.7385  21
   1   2  12 1836.05 98.2396  15
   1   2  12 2175.66 100.304   2
   1   2  12 1972.37 97.8342   9
  -2  -2 -12 44.4770 4.38124   2
  -2  -2 -12 47.2643 3.63367   9
  -2  -2 -12 46.3136 5.41313  20
  -2  -2 -12 50.7179 3.59282  13
  -2  -2 -12 47.7394 4.62214  21
  -2  -2 -12 51.6992 6.55656   3
   2   2  12 51.2675 11.3656   4
   2   2  12 51.8993 5.14834   2
  -3  -2 -12 337.083 18.2553  21
  -3  -2 -12 309.423 20.6324   3
  -3  -2 -12 337.316 17.2480  13
  -3  -2 -12 339.954 17.2484   9
   3   2  12 333.784 18.1217   2
  -4  -2 -12 59.0332 3.22855  13
   5  -3 -12 771.423 45.1612  12
  -5   3  12 730.256 39.1050  21
  -5   3  12 757.792 38.1635  13
  -5   3  12 747.428 41.4017   3
   4  -3 -12 16.1016 3.33227   8
  -4   3  12 17.1875 4.16008   3
  -4   3  12 17.0292 2.12605  13
   3  -3 -12 325.309 19.0870   8
   3  -3 -12 328.635 22.4696  17
   3  -3 -12 305.742 17.5783   2
   3  -3 -12 327.557 20.1032  18
  -3   3  12 323.712 17.5301  13
  -3   3  12 340.726 19.2771  21
  -3   3  12 324.670 17.2898   9
  -3   3  12 344.315 22.5837   3
  -3   3  12 338.430 19.9175  20
   2  -3 -12 611.605 33.5278   2
   2  -3 -12 639.884 37.3745  17
   2  -3 -12 614.758 34.1787   8
  -2   3  12 626.927 38.1544   3
  -2   3  12 663.080 33.1531  13
  -2   3  12 626.870 32.6932   9
  -2   3  12 682.595 34.8340  21
   1  -3 -12 5695.94 303.100   9
   1  -3 -12 6418.58 304.625   2
   1  -3 -12 5745.62 307.867  17
  -1   3  12 6161.57 305.388  21
  -1   3  12 6176.62 306.381  20
  -1   3  12 6226.80 303.455   9
  -1   3  12 6206.72 303.672  13
   0  -3 -12 22.9251 3.54847   2
   0  -3 -12 25.9084 5.44432  17
   0   3  12 19.8999 2.85115   9
   0   3  12 22.4099 4.64538   3
  -1  -3 -12 4343.10 213.004   9
  -1  -3 -12 4253.64 214.427   2
  -1  -3 -12 4179.69 212.703  13
   1   3  12 4300.08 213.023   9
   1   3  12 4089.77 224.169   4
   1   3  12 4458.49 214.992   2
  -2  -3 -12 4.43726 1.24165   9
  -2  -3 -12 3.60430 1.39357  21
  -2  -3 -12 6.14326 1.55774  13
   2   3  12 5.41883 6.85844   4
   2   3  12 6.87309 2.18168   2
  -3  -3 -12 339.363 16.9135   9
   3   3  12 321.029 17.2788   2
   5  -4 -12 144.154 13.3611  12
   5  -4 -12 164.569 9.27876   8
  -5   4  12 128.359 8.33144  13
   4  -4 -12 2201.37 111.093  18
   4  -4 -12 1993.09 121.611  12
   4  -4 -12 2297.49 110.724   8
  -4   4  12 2087.04 111.026  20
  -4   4  12 2223.92 109.110  13
  -4   4  12 2218.19 117.266   3
  -4   4  12 2201.89 110.629  21
   3  -4 -12 394.913 22.1644   8
  -3   4  12 373.063 22.0855  21
  -3   4  12 374.158 22.6828  20
  -3   4  12 397.677 25.6919   3
   2  -4 -12 8.62899 2.38502   2
  -2   4  12 7.13891 2.66483  21
  -2   4  12 9.37737 3.58679  20
  -2   4  12 5.84867 1.72139  13
  -2   4  12 3.86709 4.07153   3
   1  -4 -12 350.521 19.6048   2
  -1   4  12 350.255 21.2977  20
  -1   4  12 345.193 25.9278   3
  -1   4  12 368.825 18.7369  13
  -1   4  12 357.848 20.3320  21
  -1   4  12 307.872 20.9399   2
  -1   4  12 362.064 18.5667   9
   0  -4 -12 59.5702 5.15300   2
   0  -4 -12 55.7912 3.79417   9
   0   4  12 62.4446 5.75082   2
   0   4  12 57.8593 4.16450   9
   0   4  12 50.6839 3.84641  13
  -1  -4 -12 92.4457 6.43798   2
  -1  -4 -12 83.4853 5.27660   9
   1   4  12 79.4563 5.28968   9
   1   4  12 99.9587 7.02041   2
  -2  -4 -12 1128.49 56.5188   9
  -2  -4 -12 1120.50 57.2822   2
   2   4  12 1133.68 57.4591   2
   5  -5 -12 0.19399 2.07896  12
   5  -5 -12 0.69087 1.10853   8
   4  -5 -12 1419.99 74.6939  18
   4  -5 -12 1503.87 74.2028   8
   4  -5 -12 1615.32 86.4855  12
  -4   5  12 1433.43 73.0887  13
  -4   5  12 1410.29 74.8620  21
  -4   5  12 1340.37 76.8399   3
   3  -5 -12 678.297 35.8774   8
   3  -5 -12 659.587 45.8388  12
  -3   5  12 739.634 36.6472  21
  -3   5  12 666.246 37.1057  20
  -3   5  12 630.153 34.4868   9
  -3   5  12 715.314 34.9228  13
  -3   5  12 659.154 42.6035   3
   2  -5 -12 516.929 27.5833   8
   2  -5 -12 506.335 27.1294   2
  -2   5  12 543.793 26.8538  13
  -2   5  12 528.437 26.6185   9
  -2   5  12 506.178 31.7031   3
  -2   5  12 489.275 29.0264  20
   1  -5 -12 850.738 43.2495   2
  -1   5  12 809.247 43.4417  21
  -1   5  12 883.814 42.3901   9
  -1   5  12 882.066 42.3587  13
  -1   5  12 736.500 46.5220   3
   0  -5 -12 105.187 6.14191   9
   0  -5 -12 122.109 7.56210   2
   0   5  12 121.815 6.73148   9
  -1  -5 -12 1133.93 53.0330   2
  -1  -5 -12 992.637 52.1315   9
   1   5  12 936.137 52.1294   9
   1   5  12 1105.44 53.2327   2
   4  -6 -12 339.557 20.3159  12
   4  -6 -12 306.570 16.8194  18
   4  -6 -12 319.539 16.4832   8
  -4   6  12 285.497 16.8062  21
  -4   6  12 313.060 16.0741  13
   3  -6 -12 789.261 46.1680  12
   3  -6 -12 804.242 42.3674  18
  -3   6  12 821.031 40.6280  13
  -3   6  12 781.781 41.5730  21
  -3   6  12 816.534 40.7866   9
   2  -6 -12 155.909 7.96819   2
  -2   6  12 148.911 8.02029   9
  -2   6  12 151.652 8.11528  13
  -2   6  12 129.984 8.76350  21
   1  -6 -12 337.034 17.7706   2
  -1   6  12 338.841 17.4050   9
   0  -7  13 172.067 9.14293   2
   1  -7  13 1277.03 63.9702   2
  -2   7 -13 2.04033 0.43810  13
  -2   7 -13 2.56458 0.53597   9
   2  -7  13 1.65456 1.17556  14
   1   6 -13 107.098 5.75428   9
   1   6 -13 113.680 6.48911   2
  -1  -6  13 107.899 6.52392   2
  -1  -6  13 104.763 5.72222   9
   0   6 -13 23.7245 2.50064   2
   0  -6  13 30.6993 3.47710   2
  -1   6 -13 1461.35 78.8244  21
  -1   6 -13 1611.02 77.5486   9
  -1   6 -13 1542.59 77.3829  13
   1  -6  13 1578.51 78.2817   2
  -2   6 -13 17.3506 2.62565  21
  -2   6 -13 15.5940 1.84754  13
  -3   6 -13 212.708 10.4322  13
  -3   6 -13 205.807 11.2318  21
  -3   6 -13 181.576 14.1586   3
   3  -6  13 194.530 12.0081  14
   3  -6  13 200.269 12.1896  10
  -4   6 -13 942.309 46.1983  13
   4  -6  13 904.943 46.9764  10
   2   5 -13 603.222 32.5449   8
   2   5 -13 634.096 31.7996   2
  -2  -5  13 623.750 31.0785   9
  -2  -5  13 598.175 31.8120   2
   1   5 -13 972.600 48.5988   9
   1   5 -13 972.027 49.7701   2
  -1  -5  13 955.662 49.7552   2
  -1  -5  13 968.728 48.6997   9
   0   5 -13 1541.19 78.7383  13
   0   5 -13 1553.55 79.0288   9
   0   5 -13 1560.20 80.1966   2
   0  -5  13 1622.82 80.1628   2
   0  -5  13 1604.19 78.8809   9
  -1   5 -13 59.3087 6.06403  20
  -1   5 -13 58.0153 5.14321  21
  -1   5 -13 63.0031 6.93668   3
   1  -5  13 67.4813 6.83169   2
  -2   5 -13 100.972 5.81799  13
  -2   5 -13 98.8296 7.05367  21
  -2   5 -13 100.679 5.70268   9
  -2   5 -13 96.0703 7.97347  20
  -2   5 -13 97.8419 9.02747   3
   2  -5  13 93.4953 6.26681   2
  -3   5 -13 265.055 18.1621   3
  -3   5 -13 286.472 15.5666  21
  -3   5 -13 285.859 14.4185  13
   3  -5  13 265.193 16.4662  14
  -4   5 -13 69.1935 3.81616  13
   4  -5  13 69.2528 5.68857  10
   4  -5  13 61.8135 4.91307  14
   3   4 -13 718.367 37.0563   8
   3   4 -13 697.992 35.8349   2
  -3  -4  13 725.863 35.5388   9
  -3  -4  13 672.556 35.4360  13
   2   4 -13 488.674 25.7971   2
  -2  -4  13 499.556 26.1034   2
  -2  -4  13 496.537 24.8896   9
  -2  -4  13 480.550 24.8320  13
  -2  -4  13 459.774 25.8590  21
   1   4 -13 2846.87 140.128   9
   1   4 -13 2830.57 141.379   2
  -1  -4  13 2725.89 140.053  13
  -1  -4  13 2827.94 140.242   9
  -1  -4  13 2808.22 141.376   2
   0   4 -13 139.924 8.58916  21
   0   4 -13 128.131 7.44444   9
   0   4 -13 128.082 8.59424   2
   0   4 -13 134.341 7.36170  13
   0   4 -13 130.094 15.9686   5
   0  -4  13 131.154 8.56148   2
   0  -4  13 142.793 12.4843   6
   0  -4  13 134.358 7.49064   9
  -1   4 -13 4767.83 243.510   9
  -1   4 -13 4667.36 245.936  20
  -1   4 -13 4751.11 243.509  13
  -1   4 -13 5010.52 244.913  21
  -1   4 -13 4763.74 247.888   3
   1  -4  13 5351.12 250.506   6
   1  -4  13 4909.76 244.562   2
  -2   4 -13 123.324 8.31189  21
  -2   4 -13 117.869 6.79370   9
  -2   4 -13 119.175 6.93773  13
  -2   4 -13 123.048 11.2632   3
  -2   4 -13 125.415 9.23000  20
   2  -4  13 116.548 7.59808   2
  -3   4 -13 1000.26 48.9137  13
  -3   4 -13 998.171 53.7130   3
  -3   4 -13 943.710 48.7195   9
  -3   4 -13 1020.18 50.2082  21
  -3   4 -13 1003.36 51.0838  20
   3  -4  13 900.849 49.0234   2
   3  -4  13 921.731 50.9440  14
  -4   4 -13 720.165 40.3144   3
  -4   4 -13 778.326 38.1889  21
  -4   4 -13 774.824 37.2894  13
   4  -4  13 685.936 38.3126  14
   4   3 -13 414.360 21.1513   8
  -4  -3  13 356.951 20.7513  21
  -4  -3  13 400.985 19.9723  13
   3   3 -13 678.228 34.7226   2
   3   3 -13 667.206 36.2736   8
  -3  -3  13 616.842 35.6325  21
  -3  -3  13 723.219 41.8550   3
  -3  -3  13 686.186 34.2138   9
  -3  -3  13 666.817 34.3626  13
   2   3 -13 94.4761 6.19817   2
  -2  -3  13 85.0004 5.50510  13
  -2  -3  13 74.3407 6.72764  21
  -2  -3  13 93.1284 6.44110   2
  -2  -3  13 82.0268 5.15607   9
  -2  -3  13 72.5821 7.52448  20
  -2  -3  13 88.9515 10.2351   3
   1   3 -13 873.035 57.9737   5
  -1  -3  13 949.313 48.4725  21
  -1  -3  13 860.620 51.9589   3
  -1  -3  13 1031.32 50.1497   2
   0   3 -13 1.85322 1.97254  20
   0   3 -13 2.30177 0.94056  13
   0   3 -13 4.21866 2.60279   3
   0   3 -13 3.45845 1.52787  21
   0  -3  13 5.64092 1.21829   9
   0  -3  13 3.95845 2.47995   6
  -1   3 -13 434.960 24.9784  20
  -1   3 -13 473.145 22.8252   9
  -1   3 -13 441.658 22.8098  13
  -1   3 -13 447.486 24.0569  21
   1  -3  13 421.054 23.1850  15
   1  -3  13 427.414 23.7531   2
   1  -3  13 471.462 27.5391   6
   1  -3  13 429.162 22.6338   9
  -2   3 -13 1700.54 85.1707  20
  -2   3 -13 1635.18 82.8140  13
  -2   3 -13 1661.74 87.8899   3
  -2   3 -13 1660.01 82.7294   9
   2  -3  13 1644.13 83.6967   2
   2  -3  13 1537.43 85.4015  14
   2  -3  13 1723.69 84.0788  15
  -3   3 -13 339.451 18.0517  13
  -3   3 -13 355.621 19.2720  21
  -3   3 -13 377.421 22.7112   3
  -3   3 -13 355.553 20.1264  20
   3  -3  13 318.919 21.6732  14
   3  -3  13 338.758 36.0070   4
  -4   3 -13 786.586 42.4920  20
  -4   3 -13 795.496 44.3374   3
  -4   3 -13 815.202 41.9178  21
   4  -3  13 870.190 61.4158   4
   4  -3  13 800.378 42.9316  10
   4   2 -13 36.6287 11.0332   4
   4   2 -13 44.2036 4.49244   8
  -4  -2  13 50.0770 4.74544  21
  -4  -2  13 40.0545 5.89623   3
  -4  -2  13 49.9806 3.45326  13
  -4  -2  13 44.2685 3.02046   9
   3   2 -13 1770.33 89.3008   2
   3   2 -13 1786.69 91.1209   8
  -3  -2  13 1710.11 91.8872  20
  -3  -2  13 1808.66 88.8159   9
  -3  -2  13 1799.83 88.9858  13
  -3  -2  13 1715.76 90.5318  21
  -3  -2  13 1803.84 95.0091   3
   2   2 -13 86.0265 6.10125   2
   2   2 -13 78.7992 5.03491   9
   2   2 -13 86.0495 13.8573   5
   2   2 -13 91.1776 17.7658   4
  -2  -2  13 90.6534 9.60132   3
  -2  -2  13 88.2136 5.71268   9
  -2  -2  13 85.1567 7.10028  21
  -2  -2  13 103.015 11.4265  20
  -2  -2  13 82.4335 5.56688  13
   1   2 -13 6480.51 323.595   2
   1   2 -13 6535.69 322.425   9
  -1  -2  13 6748.80 328.681   3
  -1  -2  13 6583.37 324.305  21
  -1  -2  13 6203.53 322.542   9
  -1  -2  13 6329.57 323.726   2
  -1  -2  13 6509.20 323.743   7
  -1  -2  13 6526.73 322.750  13
  -1  -2  13 6412.82 325.482  20
   0   2 -13 5.97021 2.63225   3
   0   2 -13 8.29137 1.46436   9
   0   2 -13 5.57089 2.28250   2
   0   2 -13 8.14403 2.41237  20
   0   2 -13 4.74313 1.25118  13
   0  -2  13 4.78542 1.64043   7
   0  -2  13 5.72802 1.14693   9
  -1   2 -13 309.514 17.2183  21
  -1   2 -13 302.747 16.1333   9
  -1   2 -13 329.251 20.3187   3
  -1   2 -13 307.311 16.1682  13
  -1   2 -13 305.728 18.0361  20
   1  -2  13 308.701 16.7146  15
   1  -2  13 305.017 17.1665   2
   1  -2  13 321.754 19.4035   6
  -2   2 -13 443.290 27.0171   3
  -2   2 -13 407.304 22.5664   9
  -2   2 -13 480.792 23.9415  21
   2  -2  13 471.532 23.6487  15
   2  -2  13 396.081 24.7852   2
  -3   2 -13 246.041 14.9401  20
  -3   2 -13 247.176 13.0148  13
  -3   2 -13 258.522 17.2191   3
  -3   2 -13 250.824 14.2659  21
   3  -2  13 234.525 26.0010   4
   3  -2  13 240.243 15.8317  10
   3  -2  13 242.355 13.8736   2
  -4   2 -13 897.690 47.9099  20
  -4   2 -13 890.416 49.1215   3
  -4   2 -13 891.633 46.5788  21
  -4   2 -13 936.980 45.5434   9
   4  -2  13 910.575 58.0366   4
  -5   2 -13 416.528 21.8213  13
   5  -2  13 448.777 28.2478   4
   5   1 -13 281.229 15.2825   8
  -5  -1  13 260.996 15.3192  21
  -5  -1  13 291.767 14.9998  13
   4   1 -13 700.510 37.4762   8
   4   1 -13 650.462 45.3182   4
  -4  -1  13 726.368 37.3742  21
  -4  -1  13 706.140 35.3672   9
  -4  -1  13 721.330 35.7164  13
  -4  -1  13 689.365 40.9639   3
  -4  -1  13 692.190 38.5047  20
   3   1 -13 1090.95 54.7291   2
   3   1 -13 1032.60 66.3979   4
   3   1 -13 1073.70 56.5354   8
  -3  -1  13 1105.59 60.3552   3
  -3  -1  13 1079.87 57.4528  20
  -3  -1  13 1068.54 54.5025  13
  -3  -1  13 1089.70 54.3246   9
  -3  -1  13 1069.95 56.0962  21
   2   1 -13 3.55793 2.31789  17
   2   1 -13 1.73261 3.23038   4
   2   1 -13 2.66563 1.11688   2
   2   1 -13 3.18293 1.76414   8
  -2  -1  13 3.63757 1.16435  13
  -2  -1  13 3.14350 1.04964   9
  -2  -1  13 3.97664 2.61853  20
  -2  -1  13 2.85509 2.64103   3
   1   1 -13 1181.66 62.7599   5
   1   1 -13 979.857 52.8057   9
  -1  -1  13 1007.00 55.2949  21
  -1  -1  13 1075.94 53.8363   7
  -1  -1  13 992.790 53.2373  15
  -1  -1  13 1095.01 58.3110   3
  -1  -1  13 1040.94 55.5660  20
   0   1 -13 1364.70 69.4080  21
   0   1 -13 1368.55 71.9195   3
   0   1 -13 1490.53 71.0718   2
   0   1 -13 1331.54 68.6142   9
   0   1 -13 1302.08 68.5566  13
   0   1 -13 1352.25 70.1803  20
   0  -1  13 1330.31 68.7026   9
   0  -1  13 1378.43 70.0449  21
   0  -1  13 1392.30 70.9606  20
   0  -1  13 1324.95 69.7267   2
   0  -1  13 1402.41 69.3858   7
   0  -1  13 1363.68 68.9490  15
   0  -1  13 1413.49 76.0091   3
  -1   1 -13 41.3186 3.02088  13
  -1   1 -13 44.7481 5.52084   3
  -1   1 -13 42.6875 2.94794   9
  -1   1 -13 45.0680 4.48987  20
   1  -1  13 45.5817 3.58401  15
   1  -1  13 45.7435 4.20953   2
   1  -1  13 43.6549 3.23803   9
  -2   1 -13 1023.24 56.5804   3
  -2   1 -13 931.414 52.2182   9
  -2   1 -13 983.477 52.2595  13
  -2   1 -13 1024.44 53.4351  21
  -2   1 -13 1102.12 57.3665  20
   2  -1  13 1078.18 53.3207  15
   2  -1  13 1124.58 54.5001   2
  -3   1 -13 58.9302 3.98502   9
  -3   1 -13 61.5781 5.29193  21
  -3   1 -13 61.8606 5.97749  20
  -3   1 -13 66.4119 7.28093   3
   3  -1  13 63.7687 13.9844   4
   3  -1  13 63.6594 5.09927   2
   3  -1  13 66.6713 6.89417  10
  -4   1 -13 241.008 15.2965  20
  -4   1 -13 261.743 14.0021  13
  -4   1 -13 245.811 16.4774   3
  -4   1 -13 260.568 13.1743   9
  -4   1 -13 247.449 14.1746  21
   4  -1  13 259.369 23.7086   4
   5   0 -13 490.060 26.0836   8
   5   0 -13 459.006 31.6272   4
  -5   0  13 509.189 31.3346   3
  -5   0  13 497.362 24.8719  13
  -5   0  13 476.792 25.9671  21
   4   0 -13 480.779 36.3149   4
   4   0 -13 521.314 28.3295   8
  -4   0  13 512.844 29.1904  20
  -4   0  13 496.238 26.0220   9
  -4   0  13 505.977 28.0548  21
  -4   0  13 541.604 32.1606   3
  -4   0  13 516.307 26.4652  13
   3   0 -13 866.525 45.3040   2
   3   0 -13 897.665 52.6125  17
   3   0 -13 893.077 47.2029   8
  -3   0  13 886.788 50.8699   3
  -3   0  13 889.720 45.0170   9
  -3   0  13 862.880 45.2510  13
  -3   0  13 932.798 48.2661  20
   2   0 -13 2302.13 129.366   4
   2   0 -13 2316.69 117.405   2
   2   0 -13 2672.29 131.279   5
   2   0 -13 2223.48 118.613   8
   2   0 -13 2198.83 120.218  17
  -2   0  13 2397.91 119.767  20
  -2   0  13 2266.00 116.836   9
  -2   0  13 2371.93 117.848   7
  -2   0  13 2340.54 118.627  21
  -2   0  13 2210.77 117.048  13
  -2   0  13 2421.40 122.828   3
   1   0 -13 768.782 40.5779   2
   1   0 -13 735.061 42.3986  17
   1   0 -13 845.054 47.6698   5
  -1   0  13 734.160 39.9670   9
  -1   0  13 790.927 40.2714  13
  -1   0  13 790.381 40.6057   7
  -1   0  13 824.546 42.4189  20
  -1   0  13 771.358 40.0218  15
  -1   0  13 849.232 45.1111   3
   0   0 -13 2403.68 121.606  20
   0   0 -13 2487.83 121.041   2
   0   0 -13 2397.99 120.005   9
   0   0 -13 2433.44 123.349   3
   0   0 -13 2423.08 120.801  21
   0   0 -13 2253.86 122.451  17
   0   0  13 2525.01 122.592  20
   0   0  13 2504.35 121.639  21
   0   0  13 2318.70 120.103   9
   0   0  13 2086.63 121.186   2
   0   0  13 2561.69 120.523  15
   0   0  13 2524.43 125.015   3
   0   0  13 2340.07 120.272  13
  -1   0 -13 1175.61 61.9862   2
  -1   0 -13 1184.01 60.5649  13
  -1   0 -13 1117.82 63.0637  17
  -1   0 -13 1210.52 61.6130  21
  -1   0 -13 1326.42 65.6189   3
  -1   0 -13 1203.91 62.4225  20
   1   0  13 1253.45 62.0715   2
   1   0  13 1180.75 60.7363   9
  -2   0 -13 1403.08 70.4813  21
  -2   0 -13 1351.08 73.6149   3
  -2   0 -13 1423.13 71.5139  20
  -2   0 -13 1340.93 69.2322   9
   2   0  13 1348.95 70.0925  15
   2   0  13 1400.86 70.8108   2
  -3   0 -13 848.370 43.4664  21
  -3   0 -13 835.934 43.4014  13
  -3   0 -13 805.710 46.6529   3
  -3   0 -13 875.153 45.1984  20
  -3   0 -13 834.250 42.2200   9
   3   0  13 799.139 43.5171   2
  -4   0 -13 1.28091 0.84617  13
  -4   0 -13 1.82157 0.79311   9
  -4   0 -13 1.65732 1.28368  21
   4   0  13 0.93353 3.81294   4
   5  -1 -13 1350.34 65.4573   8
   5  -1 -13 1215.51 71.5922   4
  -5   1  13 1233.17 63.8017  13
  -5   1  13 1221.34 64.9382  21
  -5   1  13 1333.40 70.2598   3
   4  -1 -13 52.3466 13.8077   4
  -4   1  13 48.0600 3.62907  13
  -4   1  13 51.1948 7.82635  20
  -4   1  13 42.8060 3.08153   9
  -4   1  13 46.1395 5.04974  21
  -4   1  13 49.0646 6.85492   3
   3  -1 -13 1303.72 63.2250   2
   3  -1 -13 1165.35 74.2994   4
   3  -1 -13 1142.24 67.6981  17
   3  -1 -13 1276.06 64.9085   8
   3  -1 -13 1119.17 72.6810   5
  -3   1  13 1366.10 66.0943  20
  -3   1  13 1354.99 69.2997   3
  -3   1  13 1314.26 64.9653  21
  -3   1  13 1189.16 63.4236  13
   2  -1 -13 21.3132 2.55854   2
   2  -1 -13 27.7968 3.54297   8
   2  -1 -13 22.9539 7.05691   5
  -2   1  13 22.0679 2.20186   9
  -2   1  13 29.5881 3.97342  21
  -2   1  13 30.9743 4.32852  20
   1  -1 -13 701.352 38.3707   2
   1  -1 -13 729.823 37.3892   9
   1  -1 -13 741.671 43.4662   5
   1  -1 -13 719.380 40.8173  17
  -1   1  13 766.974 42.6800   3
  -1   1  13 735.474 38.2159   7
  -1   1  13 706.982 38.1262  13
  -1   1  13 798.419 40.1738  20
  -1   1  13 785.574 39.4069  21
  -1   1  13 722.738 37.9763   9
   0  -1 -13 2831.39 150.625  17
   0  -1 -13 2924.06 147.976  21
   0  -1 -13 2967.16 147.219   9
   0  -1 -13 2864.07 148.520   2
   0   1  13 3038.18 152.548   3
   0   1  13 3039.32 149.448  21
   0   1  13 2982.34 147.574  13
   0   1  13 3032.94 147.815  15
   0   1  13 2905.74 147.369   9
   0   1  13 2929.17 147.704   7
  -1  -1 -13 456.187 24.5201   2
  -1  -1 -13 427.579 26.7219  17
  -1  -1 -13 472.319 27.3621   3
  -1  -1 -13 428.712 23.1272  13
  -1  -1 -13 455.829 23.1935   9
  -1  -1 -13 442.270 25.0918  20
  -1  -1 -13 449.856 24.2009  21
   1   1  13 484.344 25.0401   2
   1   1  13 449.757 23.8736  15
   1   1  13 443.202 23.3115   9
  -2  -1 -13 1009.07 54.0563  20
  -2  -1 -13 980.501 51.7541  13
  -2  -1 -13 1034.41 56.4449   3
  -2  -1 -13 998.039 52.9323  21
  -2  -1 -13 1017.18 51.7907   9
   2   1  13 1112.76 53.6820   2
  -3  -1 -13 117.041 6.51829   9
  -3  -1 -13 104.967 10.0125   3
  -3  -1 -13 111.827 8.40688  20
  -3  -1 -13 119.164 6.55502  13
  -3  -1 -13 116.464 7.62970  21
   3   1  13 102.574 7.33331   2
   3   1  13 115.151 15.7849   4
  -4  -1 -13 45.5679 3.67265  21
  -4  -1 -13 52.8305 3.16890  13
  -4  -1 -13 53.3800 3.06222   9
   4   1  13 59.4002 10.6933   4
   5  -2 -13 312.745 16.7483   8
  -5   2  13 288.567 18.4525   3
  -5   2  13 288.322 16.2874  21
  -5   2  13 279.964 16.3097  13
   4  -2 -13 182.847 11.8669   8
   4  -2 -13 156.259 17.9561  12
   4  -2 -13 169.703 18.0327   4
  -4   2  13 200.487 11.8616  21
  -4   2  13 188.700 14.4147   3
  -4   2  13 180.030 10.1257  13
  -4   2  13 199.531 12.3972  20
   3  -2 -13 1478.70 70.7189   2
   3  -2 -13 1328.03 75.0360  17
   3  -2 -13 1326.25 71.9546   8
  -3   2  13 1261.43 70.0328   9
  -3   2  13 1376.80 70.3931  13
  -3   2  13 1479.28 76.2688   3
  -3   2  13 1471.25 73.0491  20
  -3   2  13 1439.53 72.1332  21
   2  -2 -13 1435.93 75.6173  17
   2  -2 -13 1459.22 71.7958   2
   2  -2 -13 1311.36 72.3822   8
  -2   2  13 1468.86 73.7729  20
  -2   2  13 1423.98 76.6579   3
  -2   2  13 1500.53 73.0510  21
  -2   2  13 1294.06 70.9032   9
  -2   2  13 1402.45 71.2379  13
   1  -2 -13 1007.85 50.3918   2
   1  -2 -13 943.031 53.4116  17
   1  -2 -13 967.050 49.2382   9
  -1   2  13 976.038 51.2987  21
  -1   2  13 983.829 50.2399   7
  -1   2  13 971.654 52.1051  20
  -1   2  13 1016.89 55.1567   3
  -1   2  13 975.251 49.7030  13
  -1   2  13 954.695 49.4258   9
   0  -2 -13 5464.09 277.827  17
   0  -2 -13 5366.50 273.032  13
   0  -2 -13 5559.41 274.586   2
   0  -2 -13 5600.80 273.293   9
   0   2  13 5730.75 275.277   2
   0   2  13 5659.40 273.488   9
   0   2  13 5300.96 273.851  15
   0   2  13 5472.46 273.540  13
   0   2  13 5234.74 274.834  21
  -1  -2 -13 667.161 36.0183  21
  -1  -2 -13 637.752 35.1066   2
  -1  -2 -13 594.692 37.4892   3
  -1  -2 -13 689.620 33.8624   9
  -1  -2 -13 648.991 33.6809  13
   1   2  13 678.135 33.9334   9
   1   2  13 704.277 35.8666   2
   1   2  13 684.718 34.9762  15
  -2  -2 -13 1357.09 73.2172   3
  -2  -2 -13 1369.26 69.7836  21
  -2  -2 -13 1347.24 69.9689   2
  -2  -2 -13 1327.17 71.0077  20
   2   2  13 1434.58 82.6394   4
  -3  -2 -13 642.039 40.1762   3
  -3  -2 -13 676.477 38.2843  21
   3   2  13 808.058 44.6433   4
   3   2  13 732.439 36.9424   2
   5  -3 -13 917.318 44.4485   8
   5  -3 -13 865.803 48.5690  12
  -5   3  13 830.586 43.0903  13
  -5   3  13 800.958 43.9915  21
   4  -3 -13 175.863 19.4775  12
   4  -3 -13 204.178 12.0738   8
  -4   3  13 188.328 10.4599  13
  -4   3  13 171.713 11.9976  21
  -4   3  13 180.222 12.2576  20
  -4   3  13 207.560 14.7567   3
   3  -3 -13 493.029 26.9429   8
   3  -3 -13 452.942 27.3956  18
   3  -3 -13 487.399 25.5093   2
  -3   3  13 489.860 25.1672   9
  -3   3  13 518.521 30.9368   3
  -3   3  13 487.564 27.8488  20
  -3   3  13 480.031 25.4115  13
  -3   3  13 489.601 27.1188  21
   2  -3 -13 1790.11 92.3341  17
   2  -3 -13 1702.29 85.2441   2
   2  -3 -13 1543.31 85.5964   8
  -2   3  13 1640.79 84.3311   9
  -2   3  13 1636.07 84.5804  13
  -2   3  13 1764.93 88.8923  21
  -2   3  13 1711.04 87.3386  20
  -2   3  13 1640.77 90.2810   3
   1  -3 -13 625.243 38.9052  17
   1  -3 -13 726.205 35.6989   2
  -1   3  13 643.540 37.1651  20
  -1   3  13 705.625 34.5561   9
  -1   3  13 697.677 40.5037   3
  -1   3  13 659.755 34.6849  13
  -1   3  13 653.527 36.3379  21
   0  -3 -13 515.912 26.0222   9
   0  -3 -13 513.294 27.4233   2
   0  -3 -13 467.728 30.5702  17
   0   3  13 528.750 26.2888   9
   0   3  13 491.283 26.1272  13
   0   3  13 499.223 27.6477  21
   0   3  13 527.085 28.1764   2
  -1  -3 -13 2041.17 102.938   9
  -1  -3 -13 2108.80 106.969   2
   1   3  13 2094.61 104.874   2
   1   3  13 1887.47 112.745   4
   1   3  13 2146.75 103.911   9
  -2  -3 -13 11.5207 1.81422   9
  -2  -3 -13 10.5383 1.54182  13
   2   3  13 15.6497 2.94522   2
   3   3  13 603.455 30.4751   2
   5  -4 -13 514.806 31.6272  12
   5  -4 -13 486.863 26.2919   8
   4  -4 -13 1290.94 62.2510   8
   4  -4 -13 1275.40 72.9512  12
   4  -4 -13 1174.52 62.0868  18
  -4   4  13 1216.73 65.4162   3
  -4   4  13 1059.91 62.9222  20
  -4   4  13 1217.09 62.3069  21
   3  -4 -13 91.3346 6.82938   8
   3  -4 -13 84.3455 5.24112   2
   3  -4 -13 83.6874 7.42923  18
  -3   4  13 85.7674 7.61517  20
  -3   4  13 94.0003 5.50551   9
  -3   4  13 88.8191 5.78658  13
  -3   4  13 90.5862 9.53764   3
  -3   4  13 85.3406 7.23144  21
   2  -4 -13 3573.06 182.437   2
   2  -4 -13 3884.86 185.129   8
  -2   4  13 3493.32 184.508  20
  -2   4  13 3592.52 183.656  21
  -2   4  13 3556.87 187.902   3
  -2   4  13 3724.71 181.722   9
   1  -4 -13 4.83132 1.80742   2
  -1   4  13 4.49732 1.51137  13
  -1   4  13 4.22680 2.96779   3
  -1   4  13 3.88073 2.24109  20
  -1   4  13 3.45170 1.39442   9
   0  -4 -13 1823.21 89.6933   2
   0  -4 -13 1791.68 88.2224   9
   0   4  13 1792.42 88.5349   9
   0   4  13 1608.35 88.1139  13
   0   4  13 1799.37 90.2296   2
  -1  -4 -13 5.63728 1.15712   9
  -1  -4 -13 7.32998 2.15596   2
   1   4  13 5.63593 1.79544   2
   1   4  13 5.06719 1.17319   9
  -2  -4 -13 48.0572 2.84664   9
  -2  -4 -13 43.1550 4.00612   2
   2   4  13 48.7665 3.62016   2
   4  -5 -13 927.112 51.2238  12
   4  -5 -13 896.317 43.6667   8
  -4   5  13 834.382 42.7932  13
  -4   5  13 742.992 46.1491   3
  -4   5  13 831.076 43.8593  21
   3  -5 -13 5.17278 5.23281  12
   3  -5 -13 5.30403 2.36336  18
  -3   5  13 7.22082 1.60502   9
  -3   5  13 8.09043 3.12573   3
  -3   5  13 5.51164 2.15173  21
  -3   5  13 7.75326 2.54333  20
  -3   5  13 7.66184 1.61378  13
   2  -5 -13 638.852 32.1521   2
   2  -5 -13 561.956 33.4035   8
  -2   5  13 608.009 33.1693  21
  -2   5  13 629.627 31.8473  13
  -2   5  13 574.909 36.0513   3
  -2   5  13 684.672 38.9366  20
  -2   5  13 641.612 31.7214   9
   1  -5 -13 627.959 30.9231   2
  -1   5  13 557.276 30.8300  21
  -1   5  13 494.667 38.1402   3
  -1   5  13 605.760 29.9834  13
  -1   5  13 649.857 30.1637   9
   0   5  13 540.430 28.5940   2
  -1  -5 -13 517.734 26.6588   2
   3  -6 -13 91.0625 8.42175  12
  -3   6  13 86.3706 5.73937  21
  -3   6  13 93.7463 5.10314  13
  -3   6  13 81.3230 4.78296   9
   2  -6 -13 877.757 50.2026  12
   2  -6 -13 915.582 46.3314   2
  -2   6  13 959.900 46.5752   9
  -2   6  13 954.016 46.5639  13
   1  -6 -13 684.074 34.5566   2
  -1   6  13 678.704 34.3072   9
  -1   7 -14 80.3568 4.25670   9
   1   6 -14 293.550 15.1910   2
  -1  -6  14 277.522 15.4552   2
   0   6 -14 63.2810 3.72739   9
   0   6 -14 63.9447 4.29840   2
   0  -6  14 65.0730 4.51048   2
  -1   6 -14 305.732 15.4834  13
  -1   6 -14 302.936 16.2257  21
  -2   6 -14 83.7037 4.52440   9
  -2   6 -14 81.6566 5.30567  21
  -2   6 -14 82.5671 4.52274  13
   2  -6  14 72.7204 6.29201  14
   2  -6  14 76.1442 4.72295   2
  -3   6 -14 125.452 7.39821  21
  -3   6 -14 137.423 6.81621  13
  -3   6 -14 129.607 6.68066   9
   3  -6  14 116.919 7.79397  14
   3  -6  14 132.697 8.30933  10
   2   5 -14 1581.33 81.9593   8
   2   5 -14 1647.40 81.3866   2
  -2  -5  14 1607.20 81.4284   2
  -2  -5  14 1634.24 80.7809   9
   1   5 -14 35.4977 2.47338   9
   1   5 -14 37.9241 3.46033   2
  -1  -5  14 35.6518 2.66623   9
  -1  -5  14 35.8777 3.56865   2
   0   5 -14 2131.63 109.965   2
   0   5 -14 2245.53 108.950   9
   0   5 -14 2115.00 108.582  13
   0  -5  14 2244.77 108.775   9
   0  -5  14 2162.06 109.980   2
  -1   5 -14 29.0162 2.31868  13
  -1   5 -14 23.4833 3.91879  20
  -1   5 -14 26.6359 4.70499   3
  -1   5 -14 27.4551 2.33700   9
   1  -5  14 26.6442 3.13393   2
  -2   5 -14 138.337 7.44514  13
  -2   5 -14 125.188 11.3784   3
  -2   5 -14 135.267 8.56328  21
  -2   5 -14 140.498 7.39051   9
  -2   5 -14 124.279 9.37422  20
   2  -5  14 136.487 8.01420   2
  -3   5 -14 1576.89 79.0395   9
  -3   5 -14 1622.52 83.2104   3
  -3   5 -14 1630.14 80.1747  21
   3  -5  14 1484.49 80.6308  14
   3  -5  14 1599.28 81.5655  10
  -4   5 -14 139.848 9.14359  21
  -4   5 -14 148.482 7.76747  13
   4  -5  14 158.100 9.57446  10
   3   4 -14 6.19946 1.22599   2
   3   4 -14 5.20324 2.02250   8
  -3  -4  14 4.42630 0.96592   9
   2   4 -14 467.186 24.3804   2
   2   4 -14 453.705 25.3387   8
  -2  -4  14 456.776 23.5099   9
  -2  -4  14 455.798 23.3844  13
   1   4 -14 272.905 16.0116   2
  -1  -4  14 273.412 14.8241   9
   0   4 -14 433.612 22.5355  13
   0   4 -14 455.535 22.7886   9
   0   4 -14 440.257 23.9474   2
   0   4 -14 431.400 23.3908  21
   0  -4  14 458.008 22.7339   9
   0  -4  14 436.403 23.8768   2
  -1   4 -14 1763.35 87.1880  21
  -1   4 -14 1736.85 85.9362   9
  -1   4 -14 1608.40 87.0426   2
  -1   4 -14 1758.52 85.9301  13
  -1   4 -14 1668.99 88.2697  20
   1  -4  14 1752.80 87.0222   2
  -2   4 -14 214.775 14.0871  20
  -2   4 -14 235.277 12.0254   9
  -2   4 -14 224.130 16.2848   3
  -2   4 -14 224.701 11.9839  13
  -2   4 -14 220.507 13.2096  21
   2  -4  14 228.276 12.7828   2
  -3   4 -14 544.340 28.5506   9
  -3   4 -14 573.010 28.6903  13
  -3   4 -14 574.859 30.7334  20
  -3   4 -14 573.876 32.9815   3
  -3   4 -14 593.112 29.8633  21
   3  -4  14 524.367 30.2566  14
  -4   4 -14 497.697 23.7535  13
  -4   4 -14 485.219 24.5312  21
  -4   4 -14 433.909 26.2979   3
   4  -4  14 455.958 25.2855  10
   4   3 -14 225.000 13.7686   8
  -4  -3  14 239.684 11.9135   9
   3   3 -14 22.6606 3.41076   8
   3   3 -14 24.0072 2.35485   2
  -3  -3  14 18.8093 3.33538  21
  -3  -3  14 23.1965 2.20829   9
  -3  -3  14 22.0505 2.48617  13
  -3  -3  14 20.4556 4.42044   3
   2   3 -14 426.437 25.5268   8
   2   3 -14 448.150 24.1469   2
  -2  -3  14 496.367 25.0932  21
  -2  -3  14 419.416 28.3747   3
  -2  -3  14 428.331 26.1962   2
  -2  -3  14 486.772 23.4320  13
  -2  -3  14 443.671 23.1856   9
   1   3 -14 1674.96 81.8207   9
   1   3 -14 1613.14 83.0395   2
   1   3 -14 1593.30 94.0553   5
  -1  -3  14 1612.37 81.9498   9
  -1  -3  14 1685.95 82.0364  13
  -1  -3  14 1623.84 83.1392   2
   0   3 -14 486.318 25.7615  21
   0   3 -14 469.965 28.7167   3
   0   3 -14 485.309 34.5467   5
   0  -3  14 508.858 30.0531   6
  -1   3 -14 2366.63 121.490  20
  -1   3 -14 2417.55 120.388  21
  -1   3 -14 2246.46 120.143   2
  -1   3 -14 2438.38 124.209   3
  -1   3 -14 2412.06 119.189  13
  -1   3 -14 2450.15 119.226   9
   1  -3  14 2247.00 119.666  15
   1  -3  14 2499.25 124.305   6
   1  -3  14 2416.00 120.271   2
   1  -3  14 2360.06 119.797   9
  -2   3 -14 12.8007 2.91299  21
  -2   3 -14 12.7883 1.83286  13
  -2   3 -14 11.0214 1.61977   9
  -2   3 -14 11.5352 3.98270   3
   2  -3  14 10.9184 2.59371   2
   2  -3  14 13.0253 3.40385  14
  -3   3 -14 276.353 14.5466   9
  -3   3 -14 295.789 18.8724   3
  -3   3 -14 289.159 14.6725  13
  -3   3 -14 288.760 16.7358  20
   3  -3  14 250.368 25.3299   4
   3  -3  14 277.421 15.1468   2
  -4   3 -14 730.884 39.2906   3
  -4   3 -14 703.118 36.1200   9
  -4   3 -14 724.999 36.1116  13
  -4   3 -14 750.875 37.0575  21
   4  -3  14 714.386 37.6214  10
   4  -3  14 673.780 43.8977   4
   4   2 -14 1665.94 84.3767   8
  -4  -2  14 1582.24 84.1934  21
  -4  -2  14 1701.50 82.8000   9
  -4  -2  14 1675.62 83.0398  13
   3   2 -14 455.421 22.0533   2
   3   2 -14 435.692 23.6227   8
  -3  -2  14 372.344 23.1212  21
  -3  -2  14 427.193 27.2023   3
  -3  -2  14 434.465 21.5471   9
  -3  -2  14 418.412 21.7868  13
  -3  -2  14 367.190 24.2198  20
   2   2 -14 664.188 46.6503   5
   2   2 -14 655.960 36.0658   8
   2   2 -14 692.452 34.9360   2
  -2  -2  14 661.385 33.9982   9
  -2  -2  14 650.658 39.8757   3
  -2  -2  14 686.068 34.2594  13
  -2  -2  14 690.372 35.9376  21
  -2  -2  14 639.102 36.9721  20
   1   2 -14 10.1833 5.91253   5
   1   2 -14 9.88941 1.48981   9
   1   2 -14 7.86304 2.30931   2
  -1  -2  14 8.59536 1.79624   9
  -1  -2  14 9.33099 3.38156  20
  -1  -2  14 10.0798 2.65569   2
  -1  -2  14 7.36791 1.58435  13
  -1  -2  14 5.92707 3.41746   3
  -1  -2  14 7.90053 2.96687  21
   0   2 -14 3535.41 176.582   3
   0   2 -14 3437.49 172.511  13
   0   2 -14 3533.38 172.612   9
   0   2 -14 3523.08 173.715   2
   0   2 -14 3382.35 174.448  20
   0  -2  14 3509.52 173.801   2
   0  -2  14 3276.17 172.851  15
   0  -2  14 3618.56 173.880   7
   0  -2  14 3313.04 172.617  13
   0  -2  14 3497.60 172.667   9
  -1   2 -14 1546.51 76.4032  21
  -1   2 -14 1379.59 76.1397   2
  -1   2 -14 1570.79 79.9460   3
  -1   2 -14 1481.33 75.2184  13
  -1   2 -14 1579.80 77.4761  20
  -1   2 -14 1503.15 75.2376   9
   1  -2  14 1497.46 76.3644   2
   1  -2  14 1431.54 75.1884   9
   1  -2  14 1519.87 75.8914  15
  -2   2 -14 1344.63 69.0224   9
  -2   2 -14 1369.40 69.0815  13
  -2   2 -14 1376.52 71.2716  20
  -2   2 -14 1438.32 74.0281   3
   2  -2  14 1334.01 70.0044  15
   2  -2  14 1391.95 70.2314   2
  -3   2 -14 1775.38 90.6974  21
  -3   2 -14 1832.05 89.6434  13
  -3   2 -14 1798.20 94.0898   3
  -3   2 -14 1700.88 89.3872   9
  -3   2 -14 1825.52 93.9923  20
   3  -2  14 1724.85 91.7977  10
   3  -2  14 1758.56 90.2878   2
   3  -2  14 1885.21 110.512   4
  -4   2 -14 1023.43 49.3779  13
  -4   2 -14 967.195 52.6211   3
  -4   2 -14 998.785 50.2238  21
   4  -2  14 907.079 50.1576  10
   4  -2  14 1011.88 60.2689   4
   5   1 -14 153.459 8.68381   8
  -5  -1  14 148.413 7.99469  13
   4   1 -14 1739.48 88.7408   8
   4   1 -14 1643.59 97.0452   4
  -4  -1  14 1721.27 88.6184  21
  -4  -1  14 1791.70 87.1524  13
  -4  -1  14 1779.63 92.7435   3
   3   1 -14 491.071 37.9570   4
   3   1 -14 524.913 27.1701   2
   3   1 -14 534.606 28.9365   8
  -3  -1  14 503.172 32.3702   3
  -3  -1  14 519.551 29.9122  20
  -3  -1  14 523.424 27.0478  13
  -3  -1  14 546.142 26.8512   9
  -3  -1  14 535.452 28.7907  21
   2   1 -14 468.255 35.0532   5
   2   1 -14 445.008 26.0781   8
  -2  -1  14 513.036 30.5938  20
  -2  -1  14 463.535 24.9307   9
  -2  -1  14 461.482 29.8490   3
  -2  -1  14 498.087 26.3891  21
   1   1 -14 158.522 9.55144   2
   1   1 -14 177.883 16.8602   5
   1   1 -14 149.180 8.53074   9
  -1  -1  14 166.231 11.2792  20
  -1  -1  14 154.081 8.76774   9
  -1  -1  14 142.496 9.78484   2
  -1  -1  14 173.933 10.5917  21
  -1  -1  14 153.198 9.54181   7
  -1  -1  14 166.129 9.06799  13
   0   1 -14 21.5273 1.91737  13
   0   1 -14 22.7793 3.32359  21
   0   1 -14 20.1080 2.88424  20
   0   1 -14 24.2969 3.80715   3
   0   1 -14 25.7451 2.04069   9
   0  -1  14 22.1364 3.09421  21
   0  -1  14 22.5803 2.13578   9
   0  -1  14 21.9744 2.38611  13
   0  -1  14 24.5351 2.74697   7
   0  -1  14 26.6333 3.26623   2
   0  -1  14 23.0672 2.28104  15
  -1   1 -14 2210.55 107.233  21
  -1   1 -14 2087.98 106.065   9
  -1   1 -14 2166.00 108.068  20
  -1   1 -14 1977.42 107.043   2
  -1   1 -14 2122.27 106.073  13
  -1   1 -14 2209.01 110.466   3
   1  -1  14 2023.05 106.101   9
   1  -1  14 2182.48 106.780  15
   1  -1  14 2123.51 107.327   2
  -2   1 -14 2136.43 108.920  13
  -2   1 -14 2118.58 110.914  20
  -2   1 -14 2198.20 113.628   3
  -2   1 -14 2225.79 110.591  21
   2  -1  14 2212.00 110.316   2
  -3   1 -14 80.9661 8.03671   3
  -3   1 -14 71.9694 6.53165  20
  -3   1 -14 73.7551 5.88637  21
  -3   1 -14 76.7688 4.68963   9
   3  -1  14 84.3924 5.75283   2
   3  -1  14 84.5392 15.3370   4
   3  -1  14 70.3575 5.98190  10
  -4   1 -14 265.444 14.8586  21
  -4   1 -14 250.537 14.0223   9
  -4   1 -14 263.779 13.7788  13
  -4   1 -14 278.446 18.5215   3
   4  -1  14 265.822 22.6142   4
   5   0 -14 18.1146 2.56501   8
  -5   0  14 18.0338 2.64013  21
   4   0 -14 210.335 21.2567   4
   4   0 -14 234.176 14.5748   8
  -4   0  14 247.685 13.1491  13
  -4   0  14 262.878 15.7201  21
  -4   0  14 245.124 12.7749   9
  -4   0  14 253.541 15.7586  20
  -4   0  14 245.232 17.9907   3
   3   0 -14 946.102 49.7900   8
   3   0 -14 886.526 59.5394   4
   3   0 -14 938.602 48.0247   2
  -3   0  14 954.410 50.8693  20
  -3   0  14 987.732 54.1691   3
  -3   0  14 951.294 47.6914   9
  -3   0  14 934.415 47.9640  13
  -3   0  14 951.804 49.6898  21
   2   0 -14 1188.55 63.1898   8
   2   0 -14 1141.83 64.8201  17
   2   0 -14 1230.84 71.9045   5
   2   0 -14 1227.98 62.0852   2
  -2   0  14 1194.85 61.4752   9
  -2   0  14 1270.37 64.5927  20
  -2   0  14 1260.83 63.4618  21
  -2   0  14 1217.98 61.7545  13
  -2   0  14 1268.34 67.5628   3
   1   0 -14 1756.98 86.3563   2
   1   0 -14 1733.60 93.6328   5
   1   0 -14 1571.01 88.1826  17
  -1   0  14 1741.83 85.8465  13
  -1   0  14 1611.73 87.6988   7
  -1   0  14 1785.68 87.4000  21
  -1   0  14 1879.08 92.5411   3
  -1   0  14 1593.42 87.0674   2
  -1   0  14 1646.22 85.7121  15
  -1   0  14 1816.72 88.4093  20
  -1   0  14 1656.84 85.5633   9
   0   0 -14 51.2147 4.07723   2
   0   0 -14 38.9912 4.61207  17
   0   0 -14 45.5773 5.20472   3
   0   0 -14 48.4418 3.93486  21
   0   0  14 48.4521 3.33011   9
   0   0  14 52.7163 4.81790  21
   0   0  14 44.8653 3.44068  13
   0   0  14 45.7876 3.55370  15
   0   0  14 47.9495 3.64479   7
   0   0  14 48.2226 6.00932   3
   0   0  14 45.0222 4.42918   2
  -1   0 -14 15.6320 2.48778   2
  -1   0 -14 10.4578 2.52998  21
  -1   0 -14 9.50224 2.94132  20
  -1   0 -14 14.3836 3.53669   3
   1   0  14 13.6732 3.20976   2
   1   0  14 12.8713 2.08092  15
  -2   0 -14 1334.43 68.2952  13
  -2   0 -14 1386.95 73.0079   3
  -2   0 -14 1320.40 70.4587  20
  -2   0 -14 1335.61 69.4473  21
  -2   0 -14 1325.87 68.2435   9
   2   0  14 1449.63 69.9965   2
  -3   0 -14 12.8931 3.20029  20
  -3   0 -14 11.7485 1.86691  13
  -3   0 -14 10.5599 3.40835   3
  -3   0 -14 13.4171 1.82442   9
   3   0  14 11.1897 2.48410   2
   3   0  14 12.4778 8.73233   4
  -4   0 -14 897.876 44.9260  13
  -4   0 -14 850.006 45.5882  21
  -4   0 -14 880.191 44.8072   9
   4   0  14 949.536 53.1403   4
   5  -1 -14 308.151 17.1310   8
  -5   1  14 313.064 17.1034  21
  -5   1  14 306.699 16.4597  13
   4  -1 -14 869.664 56.7708   4
   4  -1 -14 883.138 48.0611   8
  -4   1  14 922.472 49.0456  20
  -4   1  14 918.801 46.5386  13
  -4   1  14 952.147 52.1339   3
  -4   1  14 847.642 46.1241   9
  -4   1  14 1020.98 51.2509  21
   3  -1 -14 1174.00 60.1227   2
   3  -1 -14 1110.76 61.5376   8
   3  -1 -14 1194.58 65.6318  17
  -3   1  14 1256.73 62.9870  20
  -3   1  14 1233.28 66.1359   3
  -3   1  14 1101.72 59.6609   9
  -3   1  14 1186.14 60.0615  13
  -3   1  14 1236.89 61.8933  21
   2  -1 -14 367.338 23.8231  17
   2  -1 -14 366.107 21.6521   8
   2  -1 -14 393.883 20.8497   2
  -2   1  14 378.410 20.2119   9
  -2   1  14 404.445 20.5818  13
  -2   1  14 405.685 22.2356  21
  -2   1  14 402.979 23.0304  20
  -2   1  14 408.379 25.7219   3
   1  -1 -14 5686.62 285.273   9
   1  -1 -14 5276.76 291.766   5
  -1   1  14 5698.81 288.753   2
  -1   1  14 6056.21 288.414  20
  -1   1  14 5790.23 285.730  13
  -1   1  14 5589.46 285.458   9
  -1   1  14 6188.52 287.544  21
  -1   1  14 5577.26 286.230   7
   0  -1 -14 241.693 13.3848  13
   0  -1 -14 276.600 20.2527  17
   0  -1 -14 249.928 13.5196   9
   0  -1 -14 251.962 14.5941   2
   0   1  14 259.766 15.0750  21
   0   1  14 248.064 13.7227   9
   0   1  14 282.399 13.9222  13
   0   1  14 275.417 18.2147   3
   0   1  14 246.612 14.0827  15
   0   1  14 246.695 15.1468   2
  -1  -1 -14 593.215 33.9237   3
  -1  -1 -14 572.536 30.7646  21
  -1  -1 -14 572.311 29.7821  13
  -1  -1 -14 544.374 33.4519  17
  -1  -1 -14 570.789 32.4253  20
  -1  -1 -14 605.446 29.8665   9
   1   1  14 575.862 30.5520  15
   1   1  14 639.598 31.7883   2
  -2  -1 -14 1313.10 72.3372   3
  -2  -1 -14 1355.34 67.9265   9
  -2  -1 -14 1340.87 67.8969  13
  -2  -1 -14 1359.58 69.0888  21
  -2  -1 -14 1307.95 70.0699  20
   2   1  14 1427.40 69.6904   2
  -3  -1 -14 43.1031 3.10045   9
  -3  -1 -14 43.6578 3.08330  13
  -3  -1 -14 41.2094 3.90343  21
  -3  -1 -14 40.4437 5.30195   3
   3   1  14 43.4350 3.84632   2
   3   1  14 46.7147 10.2989   4
  -4  -1 -14 262.118 14.3787  13
   4   1  14 306.561 21.3857   4
   5  -2 -14 65.9082 4.95610   8
  -5   2  14 64.9957 4.93486  21
  -5   2  14 63.2182 4.15369  13
   4  -2 -14 19.1418 3.26275   8
   4  -2 -14 17.5209 6.63162  12
  -4   2  14 23.5147 3.89840  21
  -4   2  14 20.6826 3.50423  20
  -4   2  14 19.4142 2.35200  13
  -4   2  14 18.8077 4.33290   3
   3  -2 -14 1611.41 77.0893   2
   3  -2 -14 1477.44 78.3247   8
  -3   2  14 1581.08 79.4925  20
  -3   2  14 1521.73 76.8418  13
  -3   2  14 1565.67 78.6127  21
  -3   2  14 1388.43 76.4525   9
   2  -2 -14 56.2497 4.42985   2
   2  -2 -14 52.9811 5.46909   8
   2  -2 -14 53.4438 6.85435  17
  -2   2  14 56.2926 5.63341  21
  -2   2  14 58.0931 6.10236  20
  -2   2  14 58.2579 7.54989   3
  -2   2  14 55.8385 4.25359  13
  -2   2  14 55.0365 4.71912   9
   1  -2 -14 26.1917 3.26820   2
   1  -2 -14 21.6574 4.56574  17
  -1   2  14 15.3752 3.21328   9
  -1   2  14 18.2066 3.81624  21
  -1   2  14 24.3993 5.10458   3
  -1   2  14 24.1395 3.85125   2
  -1   2  14 18.3455 3.16865  13
  -1   2  14 18.5100 4.03277  20
   0  -2 -14 2749.62 149.049  17
   0  -2 -14 3040.71 145.995   2
   0  -2 -14 2981.76 144.728   9
   0   2  14 2863.71 145.343  13
   0   2  14 2793.87 145.979  21
   0   2  14 2995.48 144.816   9
   0   2  14 2845.42 145.280  15
  -1  -2 -14 26.4287 3.42535   2
  -1  -2 -14 24.0939 2.92727  21
  -1  -2 -14 23.0683 2.54158   9
  -1  -2 -14 30.5956 2.33672  13
   1   2  14 23.4266 2.64153   9
   1   2  14 29.2530 4.41371   2
  -2  -2 -14 233.805 12.0921  13
  -2  -2 -14 231.774 13.0453  21
  -2  -2 -14 206.098 15.6058   3
  -2  -2 -14 239.159 12.2307   9
  -2  -2 -14 226.393 13.2586   2
   2   2  14 231.150 13.6679   2
   2   2  14 225.913 21.6099   4
  -3  -2 -14 674.306 33.5672  13
  -3  -2 -14 688.067 33.6580   9
   3   2  14 638.282 34.0434   2
   5  -3 -14 398.625 20.7637   8
   5  -3 -14 382.710 23.2721  12
  -5   3  14 377.502 19.8024  13
   4  -3 -14 202.927 19.4820  12
   4  -3 -14 204.665 12.0968   8
  -4   3  14 195.492 12.1378  21
  -4   3  14 179.895 15.0201   3
  -4   3  14 196.167 10.7622  13
  -4   3  14 190.457 12.5705  20
  -3   3  14 864.653 45.3198  21
  -3   3  14 853.619 46.0955  20
  -3   3  14 842.920 48.8781   3
   2  -3 -14 621.173 35.2392   8
   2  -3 -14 699.771 35.0331   2
  -2   3  14 665.505 34.1490   9
  -2   3  14 674.279 37.0347  20
  -2   3  14 672.151 34.4267  13
  -2   3  14 660.765 40.5189   3
  -2   3  14 676.619 36.2083  21
   1  -3 -14 949.430 45.8245   2
   1  -3 -14 807.194 44.1688   9
  -1   3  14 849.381 47.3753  20
  -1   3  14 858.114 46.4076   2
  -1   3  14 909.862 44.6826   9
  -1   3  14 899.095 46.5297  21
  -1   3  14 874.246 44.8092  13
  -1   3  14 874.771 50.3731   3
   0  -3 -14 356.597 19.8966   2
   0  -3 -14 356.561 18.5351   9
   0   3  14 363.377 20.6375   2
   0   3  14 333.241 18.5468  13
   0   3  14 375.658 18.8635   9
  -1  -3 -14 4.12340 1.14291   9
   1   3  14 7.32276 4.67649   4
   1   3  14 5.00950 1.23959   9
  -2  -3 -14 839.697 44.4354   9
   2   3  14 900.464 45.8521   2
   5  -4 -14 1402.31 75.2805  12
   5  -4 -14 1472.36 72.4723   8
   4  -4 -14 13.2444 2.53560   8
   4  -4 -14 10.1189 7.72378  12
  -4   4  14 10.5282 2.67402  21
  -4   4  14 10.5027 1.95961  13
   3  -4 -14 584.175 31.0995   8
   3  -4 -14 549.802 31.7847  18
  -3   4  14 592.752 31.8247  21
  -3   4  14 591.869 29.8564   9
  -3   4  14 572.810 32.3725  20
  -3   4  14 585.097 35.1099   3
  -3   4  14 605.256 30.1572  13
   2  -4 -14 196.197 12.4258   8
   2  -4 -14 204.980 12.2718   2
  -2   4  14 218.966 14.2727  20
  -2   4  14 226.401 11.7885   9
  -2   4  14 196.285 16.1184   3
  -2   4  14 232.899 13.6924  21
  -2   4  14 225.283 12.0007  13
   1  -4 -14 23.6688 3.12088   2
  -1   4  14 26.5870 4.04175  20
  -1   4  14 21.8071 4.60240   3
  -1   4  14 26.6475 2.78846  13
  -1   4  14 28.4594 2.82539   9
   0  -4 -14 1166.32 58.9835   2
   0  -4 -14 1132.63 57.6220   9
   0   4  14 1152.82 59.4654   2
   0   4  14 1145.51 57.9494   9
  -1  -4 -14 501.003 26.5937   2
  -1  -4 -14 516.193 25.7288   9
   1   4  14 449.051 25.5522   9
   1   4  14 559.350 27.8609   2
  -2  -4 -14 346.265 17.6118   9
   2   4  14 352.170 18.1557   2
   4  -5 -14 100.139 7.36853   8
   4  -5 -14 101.613 10.2672  12
  -4   5  14 98.8257 6.54034  21
   3  -5 -14 708.573 38.2781  18
   3  -5 -14 735.587 37.3042   8
   3  -5 -14 801.238 47.2370  12
  -3   5  14 651.049 40.3515   3
  -3   5  14 752.848 36.8399  13
  -3   5  14 712.500 36.5560   9
  -3   5  14 702.615 37.8988  21
  -2   5  14 518.121 33.6874   3
  -2   5  14 621.667 30.2258  13
  -2   5  14 602.749 31.4017  21
  -2   5  14 616.331 30.1594   9
  -1   5  14 1.16504 1.00806   9
  -1   5  14 1.76874 1.48778  21
   0  -5 -14 1156.58 59.5601   2
   0   5  14 1079.55 58.8540   9
   0   5  14 1291.73 60.7716   2
  -1  -5 -14 99.4237 5.52452   2
   1   5  14 96.5517 5.65532   2
  -3   6  14 170.627 8.92348  13
   2  -6 -14 718.483 37.5867  18
  -2   6  14 709.587 36.2360  13
  -2   6  14 744.213 36.3887   9
   1  -6 -14 188.413 9.59339   2
  -1   6  14 180.134 9.49794   9
   1   6 -15 1260.15 61.6611   2
  -1  -6  15 1196.01 61.6791   2
   0   6 -15 111.511 6.60422   2
   0   6 -15 114.934 6.11120   9
   0  -6  15 118.826 6.83441   2
  -1   6 -15 442.198 22.4465   9
   1  -6  15 443.471 23.0050   2
  -2   6 -15 689.915 40.6108  21
  -2   6 -15 800.212 40.1615   9
  -2   6 -15 759.698 40.1060  13
   2  -6  15 836.055 43.6254  14
   2  -6  15 919.452 40.9193   2
  -3   6 -15 62.7338 3.40867  13
   3  -6  15 59.6541 4.51688  10
   2   5 -15 260.968 13.4860   2
   2   5 -15 242.821 13.7103   8
  -2  -5  15 256.046 14.2694   2
  -2  -5  15 258.350 13.0292   9
   1   5 -15 155.896 8.02752   9
   1   5 -15 141.594 9.76035   2
   1   5 -15 147.504 9.88578   8
  -1  -5  15 163.946 8.31379   9
  -1  -5  15 156.321 9.09477   2
   0   5 -15 1422.69 69.4654   9
   0   5 -15 1368.66 70.3760   2
   0  -5  15 1367.49 70.4353   2
  -1   5 -15 487.158 24.3596  13
  -1   5 -15 436.125 27.9119   3
  -1   5 -15 468.676 25.1750  21
  -1   5 -15 504.509 24.5074   9
   1  -5  15 500.664 25.4007   2
  -2   5 -15 1778.20 88.0273  13
  -2   5 -15 1733.07 88.9576  21
  -2   5 -15 1596.25 91.7445   3
  -2   5 -15 1812.46 92.6588  20
  -2   5 -15 1862.26 88.0457   9
   2  -5  15 1782.05 88.6107   2
  -3   5 -15 441.545 22.1622   9
  -3   5 -15 415.496 25.3019   3
  -3   5 -15 470.970 22.3019  13
   3  -5  15 446.294 24.2957  10
   3  -5  15 416.192 24.5430  14
  -4   5 -15 103.522 5.43391  13
   4  -5  15 103.579 6.34737  10
   3   4 -15 233.499 13.3603   8
  -3  -4  15 242.154 12.2431   9
   2   4 -15 234.079 13.0088   2
  -2  -4  15 234.688 12.3298   9
  -2  -4  15 241.562 13.3141   2
  -2  -4  15 226.326 12.0563  13
   1   4 -15 14.7754 2.56938   8
   1   4 -15 10.7668 1.50227   9
   1   4 -15 13.9143 2.36711   2
  -1  -4  15 11.1886 1.81051   9
  -1  -4  15 12.6367 2.58119   2
   0   4 -15 1617.68 77.3222   9
   0  -4  15 1557.80 78.4555   2
   0  -4  15 1450.34 77.6918   9
  -1   4 -15 787.927 41.8287   2
  -1   4 -15 833.660 40.8398   9
  -1   4 -15 814.726 41.8625  21
  -1   4 -15 776.719 45.1310   3
  -1   4 -15 815.685 40.7581  13
   1  -4  15 813.056 41.8486   2
  -2   4 -15 537.677 28.3070  21
  -2   4 -15 545.811 31.7243   3
  -2   4 -15 528.777 27.1484  13
  -2   4 -15 525.505 29.3317  20
  -2   4 -15 570.836 27.1912   9
   2  -4  15 468.247 28.7683  14
   2  -4  15 551.967 28.0207   2
  -3   4 -15 526.677 30.0187   3
  -3   4 -15 557.478 26.2432  13
  -3   4 -15 525.630 28.1187  20
   3  -4  15 448.692 28.0277  14
  -4   4 -15 86.6636 4.64388  13
  -4   4 -15 81.5495 5.17893  21
   4  -4  15 77.7580 5.88352  10
   4   3 -15 34.8509 2.67806   8
  -4  -3  15 32.6338 2.21483  13
  -4  -3  15 31.5509 2.24842   9
   3   3 -15 771.756 36.9617   2
  -3  -3  15 782.273 36.5974   9
  -3  -3  15 684.335 37.6177  21
  -3  -3  15 630.769 40.9930   3
  -3  -3  15 740.457 36.6089  13
   2   3 -15 1510.54 73.4245   2
   2   3 -15 1441.89 74.4011   8
  -2  -3  15 1498.19 72.6152  13
  -2  -3  15 1368.37 77.7599   3
  -2  -3  15 1313.64 78.7754  20
  -2  -3  15 1538.52 73.7665   2
  -2  -3  15 1419.21 74.2803  21
  -2  -3  15 1458.46 72.5169   9
   1   3 -15 2.97428 1.73677   8
  -1  -3  15 6.14846 1.34756   9
  -1  -3  15 1.73271 1.24761  21
  -1  -3  15 3.49169 1.10103  13
  -1  -3  15 5.40475 1.89062   2
   0   3 -15 49.8448 3.28659   9
   0   3 -15 45.3322 9.46663   5
   0   3 -15 43.2891 3.99097   2
   0   3 -15 47.3624 3.06247  13
   0  -3  15 48.8718 3.31477   9
   0  -3  15 45.7950 4.32523   2
   0  -3  15 48.1037 6.59865   6
  -1   3 -15 320.473 19.2561   2
  -1   3 -15 368.711 20.7327  20
  -1   3 -15 356.814 22.7589   3
  -1   3 -15 380.337 18.4969   9
  -1   3 -15 359.011 18.4069  13
  -1   3 -15 377.865 19.6513  21
   1  -3  15 362.675 19.6223   2
   1  -3  15 322.924 18.2502   9
  -2   3 -15 6.56739 1.40379   9
   2  -3  15 7.59946 2.34274   2
  -3   3 -15 3216.10 165.048  20
  -3   3 -15 3457.97 163.209  13
  -3   3 -15 3458.66 164.408  21
  -3   3 -15 3350.66 167.589   3
   3  -3  15 3187.88 165.416  10
   3  -3  15 3184.96 163.516   2
   3  -3  15 3046.64 175.576   4
  -4   3 -15 49.4802 2.93607  13
  -4   3 -15 50.2605 3.69466  21
   4  -3  15 41.8603 3.98847  10
   4  -3  15 37.2696 9.97610   4
   4   2 -15 679.370 36.2076   8
  -4  -2  15 674.536 36.2176  21
  -4  -2  15 700.727 35.1875  13
  -4  -2  15 725.180 34.9910   9
   3   2 -15 9.28319 1.80579   2
  -3  -2  15 12.2324 2.26034  13
  -3  -2  15 9.33625 3.86308   3
   2   2 -15 1707.12 80.9879   2
   2   2 -15 1514.55 81.7739   8
  -2  -2  15 1591.82 80.0457   9
  -2  -2  15 1517.85 83.0390  20
  -2  -2  15 1568.78 88.8634   3
  -2  -2  15 1621.16 81.3658   2
  -2  -2  15 1610.85 81.8984  21
  -2  -2  15 1629.01 80.2503  13
   1   2 -15 40.0442 2.67219   9
   1   2 -15 38.8156 9.13638   5
   1   2 -15 37.1925 3.57440   2
  -1  -2  15 36.7871 2.89288   9
  -1  -2  15 33.8801 4.13680  21
  -1  -2  15 36.0386 5.72408   3
  -1  -2  15 34.3490 3.09447  13
  -1  -2  15 43.1794 5.73739   2
   0   2 -15 3950.94 200.201  13
   0   2 -15 3946.63 201.075  21
   0   2 -15 4126.69 201.403   2
   0  -2  15 4287.66 200.830   9
   0  -2  15 4145.03 201.939   2
   0  -2  15 3661.87 200.874  13
  -1   2 -15 464.929 25.8958   2
  -1   2 -15 472.918 28.4327   3
  -1   2 -15 480.650 24.2567  13
  -1   2 -15 487.327 24.2780   9
  -1   2 -15 469.840 26.4585  20
   1  -2  15 455.720 24.8712  15
   1  -2  15 483.135 25.5045   2
  -2   2 -15 70.0937 4.28981   9
  -2   2 -15 63.4936 5.40129  21
  -2   2 -15 69.4739 4.35870  13
  -2   2 -15 75.0107 8.99697   3
  -2   2 -15 63.5272 6.02880  20
   2  -2  15 73.6447 5.58624   2
  -3   2 -15 146.464 7.80647   9
  -3   2 -15 138.407 11.2935   3
  -3   2 -15 147.108 7.90902  13
  -3   2 -15 146.616 9.79044  20
   3  -2  15 141.919 9.84716  10
   3  -2  15 139.547 18.2868   4
   3  -2  15 138.697 8.48577   2
  -4   2 -15 455.933 22.6415  13
  -4   2 -15 458.056 27.3069   3
  -4   2 -15 457.760 23.4299  21
  -4   2 -15 455.154 22.4935   9
   4  -2  15 383.718 23.3986  10
   4  -2  15 460.876 30.6119   4
   4   1 -15 220.841 13.1475   8
  -4  -1  15 219.761 11.4381   9
  -4  -1  15 224.250 11.8205  13
  -4  -1  15 199.379 15.5817   3
  -4  -1  15 225.902 13.2192  21
  -3  -1  15 19.8365 2.98843  13
  -3  -1  15 15.9156 3.77383  21
   2   1 -15 1334.24 65.7487   2
   2   1 -15 1241.55 66.6765   8
   2   1 -15 1442.49 82.2611   5
  -2  -1  15 1285.62 70.9876   3
  -2  -1  15 1262.12 65.1964  13
  -2  -1  15 1266.34 67.3456  21
  -2  -1  15 1263.00 64.9699   9
  -2  -1  15 1242.24 67.9612  20
   1   1 -15 2151.79 119.113   5
   1   1 -15 2100.17 109.479   9
   1   1 -15 2236.98 110.580   2
  -1  -1  15 2206.72 109.709   9
  -1  -1  15 2252.31 109.929  13
  -1  -1  15 2172.85 112.480  20
  -1  -1  15 2213.52 111.402  21
  -1  -1  15 2179.47 110.966   2
  -1  -1  15 2227.03 115.348   3
   0   1 -15 1739.45 86.4266   2
   0   1 -15 1658.79 86.1216  21
   0   1 -15 1744.16 85.3940   9
   0   1 -15 1641.83 85.2594  13
   0  -1  15 1750.44 86.7648   2
   0  -1  15 1640.56 85.4809  13
   0  -1  15 1739.61 85.4986   9
   0  -1  15 1667.95 85.7924  15
   0  -1  15 1772.88 87.1156   7
  -1   1 -15 885.256 44.1759  21
  -1   1 -15 931.461 46.6088  20
  -1   1 -15 826.090 47.0664   3
  -1   1 -15 762.650 43.8998   2
   1  -1  15 819.154 43.6480  15
   1  -1  15 830.596 43.1118   9
   1  -1  15 906.015 45.5868   2
  -2   1 -15 41.1637 8.43861   3
  -2   1 -15 36.5591 2.83561  13
  -2   1 -15 32.0226 3.86927  21
  -2   1 -15 32.1700 4.35157  20
  -2   1 -15 37.2400 2.73515   9
   2  -1  15 38.8256 4.16073   2
  -3   1 -15 128.591 9.13554  20
  -3   1 -15 131.340 10.6965   3
  -3   1 -15 140.293 8.60176  21
  -3   1 -15 138.725 7.35921  13
  -3   1 -15 128.577 7.21847   9
   3  -1  15 122.086 17.3118   4
   3  -1  15 120.742 7.97620   2
  -4   1 -15 726.716 36.2578  13
  -4   1 -15 684.806 36.0926   9
  -4   1 -15 723.919 37.0055  21
   4  -1  15 745.044 44.2153   4
   5   0 -15 335.137 18.0218   8
  -5   0  15 288.028 17.2077  21
  -5   0  15 319.376 16.1421  13
   4   0 -15 786.658 42.2734   8
  -4   0  15 810.951 40.9036  13
  -4   0  15 816.417 42.4718  21
  -4   0  15 815.814 46.1406   3
  -4   0  15 789.464 43.4656  20
   3   0 -15 334.663 19.9149   8
   3   0 -15 356.999 18.5081   2
  -3   0  15 352.099 23.7807   3
  -3   0  15 353.444 18.1558   9
  -3   0  15 350.465 20.1476  21
  -3   0  15 346.668 21.1700  20
  -3   0  15 345.714 18.4429  13
   2   0 -15 3272.87 184.419  17
   2   0 -15 3589.51 181.754   2
   2   0 -15 3549.78 191.971   5
  -2   0  15 3648.00 181.178   9
  -2   0  15 3676.90 184.224  20
  -2   0  15 3785.30 183.271  21
  -2   0  15 3812.16 187.650   3
  -2   0  15 3720.44 181.433  13
   1   0 -15 742.786 47.4417   5
   1   0 -15 790.448 40.8856   2
  -1   0  15 783.795 40.1134   9
  -1   0  15 823.966 42.0043  21
  -1   0  15 816.977 42.9009  20
  -1   0  15 768.430 41.4118   2
  -1   0  15 800.488 40.3706  13
  -1   0  15 805.320 45.4958   3
   0   0 -15 754.258 39.6281  13
   0   0 -15 840.930 40.8924   2
   0   0 -15 765.469 40.4195  21
   0   0  15 765.915 39.9314  13
   0   0  15 763.905 40.2520  15
   0   0  15 778.852 41.1017  21
   0   0  15 815.575 41.2905   2
   0   0  15 810.190 39.9256   9
  -1   0 -15 2244.76 114.134  21
  -1   0 -15 2259.29 113.114   9
  -1   0 -15 2249.72 117.370   3
  -1   0 -15 2222.12 113.110  13
   1   0  15 2340.61 114.739   2
  -2   0 -15 7.17655 1.78137  13
  -2   0 -15 10.2712 2.73919  21
  -2   0 -15 6.73011 1.40187   9
  -2   0 -15 8.56286 2.88749  20
  -2   0 -15 5.41414 2.99685   3
   2   0  15 9.38071 2.49680   2
  -3   0 -15 179.582 9.35923   9
  -3   0 -15 181.268 11.6837  20
  -3   0 -15 158.008 12.4099   3
  -3   0 -15 177.933 9.40961  13
  -3   0 -15 180.868 10.4431  21
   3   0  15 169.433 19.2468   4
   3   0  15 164.638 10.0433   2
  -4   0 -15 252.701 14.5741  21
   4   0  15 297.111 20.2534   4
   5  -1 -15 96.6512 6.14369   8
  -5   1  15 85.0691 6.10509  21
  -5   1  15 99.0409 5.35472  13
   4  -1 -15 1483.26 78.4945   8
  -4   1  15 1507.00 79.4555  20
  -4   1  15 1548.45 84.7668   3
  -4   1  15 1534.82 77.1265  13
  -4   1  15 1592.76 78.7951  21
   3  -1 -15 156.905 9.08924   2
   3  -1 -15 151.792 10.3078   8
  -3   1  15 161.261 9.14613  13
  -3   1  15 164.746 13.7677   3
  -3   1  15 153.132 8.70900   9
  -3   1  15 164.858 11.5681  20
  -3   1  15 162.012 10.7958  21
   2  -1 -15 33.8001 3.08172   2
   2  -1 -15 25.1737 4.65770  17
  -2   1  15 28.8165 2.48840   9
  -2   1  15 32.6959 3.10146  13
  -2   1  15 24.4022 4.39701  20
   1  -1 -15 4519.98 223.310   2
   1  -1 -15 4048.42 225.692  17
   1  -1 -15 4371.45 222.013   9
  -1   1  15 4478.94 228.057   3
  -1   1  15 4704.61 224.256  21
  -1   1  15 4910.48 223.286   9
  -1   1  15 4249.95 223.704   2
  -1   1  15 4184.65 222.542  15
  -1   1  15 4532.65 222.870  13
  -1   1  15 4591.81 225.230  20
   0  -1 -15 97.6219 8.94158  17
   0  -1 -15 99.3515 5.77330  13
   0   1  15 109.369 7.39198  21
   0   1  15 102.252 6.65924  15
   0   1  15 111.769 9.75126   2
   0   1  15 110.002 6.68141  13
  -1  -1 -15 948.879 47.7874   9
  -1  -1 -15 872.493 51.4999   3
  -1  -1 -15 912.254 48.6535  21
  -1  -1 -15 954.643 49.0957   2
  -1  -1 -15 914.848 47.6774  13
   1   1  15 1012.63 49.6860   2
   1   1  15 1023.93 49.4450  15
   1   1  15 930.856 47.8507   9
  -2  -1 -15 688.104 34.3927  13
  -2  -1 -15 618.821 38.1934   3
  -2  -1 -15 645.583 36.4913  20
  -2  -1 -15 704.028 34.4674   9
  -2  -1 -15 709.643 35.5523  21
   2   1  15 702.496 36.0430   2
   2   1  15 667.248 47.6639   4
  -3  -1 -15 630.483 30.3833   9
  -3  -1 -15 530.698 33.8200   3
   3   1  15 644.230 39.9553   4
   3   1  15 589.989 30.8982   2
   5  -2 -15 305.658 16.3655   8
  -5   2  15 295.582 15.5040  13
   4  -2 -15 529.624 28.6002   8
   4  -2 -15 535.298 35.0636  12
  -4   2  15 559.789 27.3916  13
  -4   2  15 497.591 26.9714   9
  -4   2  15 532.085 29.4171  20
  -4   2  15 554.733 28.9050  21
  -4   2  15 504.684 32.2682   3
   3  -2 -15 378.801 20.6324   2
   3  -2 -15 361.527 21.6024   8
  -3   2  15 381.281 21.7349  21
  -3   2  15 381.833 25.1265   3
  -3   2  15 367.791 22.3122  20
  -3   2  15 401.942 20.5452   9
  -3   2  15 380.905 20.0519  13
   2  -2 -15 136.352 9.49068   8
   2  -2 -15 156.584 9.19874   2
   2  -2 -15 140.953 12.3691  17
  -2   2  15 157.123 10.5326  21
  -2   2  15 154.170 8.88010  13
  -2   2  15 151.979 8.47395   9
  -2   2  15 151.314 11.0822  20
  -2   2  15 157.852 13.3255   3
   1  -2 -15 259.946 14.0633   2
   1  -2 -15 237.271 12.7011   9
   1  -2 -15 263.596 19.8800  17
  -1   2  15 235.677 14.6592   2
  -1   2  15 239.552 15.6313  20
  -1   2  15 240.339 17.8521   3
  -1   2  15 232.796 13.7172  15
  -1   2  15 235.307 13.2432  13
  -1   2  15 236.725 13.0433   9
   0  -2 -15 135.337 8.96751   2
   0  -2 -15 149.768 7.88220   9
   0  -2 -15 152.048 13.6463  17
   0   2  15 138.096 8.09863   9
   0   2  15 134.914 9.65927   2
   0   2  15 134.105 7.89670  13
  -1  -2 -15 1107.43 56.3668   9
   1   2  15 1129.37 58.2005   2
  -2  -2 -15 531.156 28.3866   2
  -2  -2 -15 555.548 27.3107  13
  -2  -2 -15 561.751 27.4864   9
  -2  -2 -15 498.117 27.9173  21
   2   2  15 542.648 28.7596   2
   2   2  15 539.760 36.7589   4
  -3  -2 -15 24.8662 1.61181  13
  -3  -2 -15 27.3055 1.89476   9
   3   2  15 23.7925 1.95774   2
   5  -3 -15 145.829 8.44702   8
   4  -3 -15 861.365 41.2986   8
   4  -3 -15 812.483 48.8048  12
  -4   3  15 758.059 43.6252   3
  -4   3  15 766.037 40.7866  13
  -4   3  15 745.637 40.7505  21
  -4   3  15 715.614 41.3384  20
   3  -3 -15 1373.45 66.1386   2
   3  -3 -15 1261.38 67.2074   8
  -3   3  15 1359.38 67.9665  21
  -3   3  15 1309.49 68.6781  20
  -3   3  15 1234.62 65.8430   9
  -3   3  15 1333.71 66.2126  13
  -3   3  15 1294.81 71.5140   3
   2  -3 -15 762.903 36.8041   2
  -2   3  15 698.754 37.8827  21
  -2   3  15 693.787 36.1670  13
  -2   3  15 685.056 38.6099  20
  -2   3  15 691.419 35.9256   9
  -2   3  15 689.691 41.4276   3
   1  -3 -15 691.474 35.7177   2
  -1   3  15 692.445 36.9752   2
  -1   3  15 689.567 34.8741  13
  -1   3  15 667.811 37.4210  20
  -1   3  15 637.528 39.7293   3
  -1   3  15 690.894 34.7584   9
  -1   3  15 681.524 36.3399  21
   0  -3 -15 349.051 22.5265   2
   0  -3 -15 374.784 19.3055   9
   0   3  15 386.854 20.9546   2
   0   3  15 352.057 18.7610  13
  -1  -3 -15 195.957 11.3860   2
  -1  -3 -15 196.269 10.3315   9
   1   3  15 194.953 11.8692   2
   1   3  15 186.248 10.2986   9
   1   3  15 190.870 19.8171   4
  -2  -3 -15 918.506 48.5092   2
  -2  -3 -15 984.699 47.9817   9
   2   3  15 964.926 48.8558   2
   4  -4 -15 309.086 16.6529   8
   4  -4 -15 324.639 22.8347  12
  -4   4  15 303.041 17.0553  21
  -4   4  15 277.183 19.0435   3
  -4   4  15 311.452 15.9780  13
   3  -4 -15 685.888 35.8745   8
   3  -4 -15 606.776 34.4089  18
  -3   4  15 623.400 36.9741  20
  -3   4  15 620.984 37.7266   3
  -3   4  15 666.634 33.3037  13
  -3   4  15 671.698 33.9488   9
  -3   4  15 668.945 34.7682  21
   2  -4 -15 45.0161 3.70680   2
  -2   4  15 44.2410 4.81695  21
  -2   4  15 41.7809 6.49898   3
  -2   4  15 46.0982 3.42707   9
  -2   4  15 46.4323 3.69633  13
  -2   4  15 44.5939 5.23572  20
   1  -4 -15 1960.16 90.8444   2
  -1   4  15 1811.49 89.7938  13
  -1   4  15 1700.07 90.8096  21
  -1   4  15 1535.13 93.6129   3
  -1   4  15 1947.79 89.9260   9
   0  -4 -15 377.926 20.0622   2
   0  -4 -15 364.804 18.9159   9
   0   4  15 368.148 19.1681   9
  -1  -4 -15 13.4949 1.92211   2
  -1  -4 -15 8.94668 1.18432   9
   1   4  15 11.2124 2.26575   2
   1   4  15 10.9514 1.16101   9
   4  -5 -15 73.9689 7.30666  12
  -4   5  15 67.2983 3.87608  13
  -4   5  15 57.0246 5.36132  21
   3  -5 -15 1186.55 64.5837  12
   3  -5 -15 1112.08 59.5183  18
  -3   5  15 1175.96 57.5441  13
  -3   5  15 1101.72 58.4358  21
   2  -5 -15 480.802 24.2503   2
  -2   5  15 484.650 24.1792  13
  -2   5  15 446.326 24.9728  21
  -2   5  15 476.310 24.1211   9
   1  -5 -15 428.328 22.0702   2
  -1   5  15 416.312 21.6153   9
   0  -5 -15 372.007 18.2617   2
   0   5  15 324.949 18.2759   2
   0   6 -16 0.25233 0.47829   9
   0   6 -16 0.73137 0.67718   2
   0  -6  16 0.46722 0.79519   2
  -1   6 -16 315.624 15.6617   9
   1  -6  16 299.616 16.0667   2
  -2   6 -16 1141.32 52.2467   9
  -2   6 -16 934.325 51.7299  13
   2   5 -16 15.2714 1.49828   2
  -2  -5  16 13.4421 1.17070   9
   1   5 -16 522.201 26.4238   2
   1   5 -16 490.574 25.5630   9
  -1  -5  16 504.312 26.4745   2
  -1  -5  16 516.386 25.6423   9
   0   5 -16 940.647 48.4388   2
   0   5 -16 970.147 47.6422   9
   0  -5  16 935.286 48.5245   2
  -1   5 -16 150.655 8.04216   9
  -1   5 -16 142.799 7.87272  13
   1  -5  16 153.741 8.89257   2
  -2   5 -16 485.383 23.0065   9
  -2   5 -16 456.276 23.6372  21
  -2   5 -16 407.041 26.1956   3
   2  -5  16 458.060 23.2857   2
   2  -5  16 437.226 24.2514  14
  -3   5 -16 2.72530 0.70648  13
   3  -5  16 2.42245 2.06116  10
   3   4 -16 612.633 31.5030   2
   3   4 -16 584.802 32.4883   8
  -3  -4  16 686.732 31.5324   9
   2   4 -16 220.243 13.1102   8
  -2  -4  16 245.827 13.0807   2
   1   4 -16 570.187 30.2554   2
   1   4 -16 581.954 29.2190   9
  -1  -4  16 564.087 30.3802   2
  -1  -4  16 595.960 29.3909   9
   0   4 -16 498.966 25.3275  13
   0   4 -16 509.216 25.6276   9
   0   4 -16 497.230 26.6189   2
   0  -4  16 516.801 25.5741   9
   0  -4  16 490.273 26.6774   2
  -1   4 -16 196.455 11.6136   2
  -1   4 -16 206.721 10.7115  13
  -1   4 -16 187.779 14.1569   3
  -1   4 -16 185.426 12.6628  20
  -1   4 -16 208.425 10.8041   9
  -1   4 -16 231.451 13.3815  21
   1  -4  16 203.329 11.8054   2
  -2   4 -16 1214.53 57.5411   9
  -2   4 -16 1171.01 57.5225  13
  -2   4 -16 1164.65 58.5422  21
  -2   4 -16 1057.42 63.4289   3
  -2   4 -16 1086.88 59.5406  20
   2  -4  16 1176.99 58.3122   2
  -3   4 -16 276.426 15.1386  21
  -3   4 -16 265.452 17.2904   3
  -3   4 -16 290.489 14.6462  13
   3  -4  16 269.933 16.4927  10
  -4   4 -16 84.6017 4.36283  13
   4  -4  16 75.4735 5.01273  10
   3   3 -16 338.864 18.1012   2
   3   3 -16 347.076 19.0703   8
  -3  -3  16 369.604 17.9279   9
  -3  -3  16 334.334 18.7287  21
  -3  -3  16 353.680 17.9236  13
   2   3 -16 178.229 11.3245   8
   2   3 -16 185.749 10.7281   2
  -2  -3  16 191.772 10.0924  13
  -2  -3  16 188.385 11.1590   2
  -2  -3  16 183.990 11.1621  21
  -2  -3  16 186.721 10.0225   9
   1   3 -16 475.025 25.1108   9
   1   3 -16 477.348 26.0785   2
  -1  -3  16 535.254 27.0920   2
  -1  -3  16 476.800 25.1399   9
   0   3 -16 1781.17 86.2105   9
   0   3 -16 1719.91 87.2871   2
   0   3 -16 1666.52 85.9859  13
   0  -3  16 1703.90 87.3645   2
   0  -3  16 1737.12 86.2040   9
  -1   3 -16 13.1243 2.10313   2
  -1   3 -16 11.7337 1.66342   9
  -1   3 -16 11.0876 1.61436  13
  -1   3 -16 10.0711 2.95711  20
  -1   3 -16 10.8647 3.42125   3
   1  -3  16 12.8208 2.66100   2
  -2   3 -16 766.179 42.0078  20
  -2   3 -16 778.645 44.1688   3
  -2   3 -16 798.908 39.9303  13
  -2   3 -16 807.075 39.9200   9
   2  -3  16 797.183 40.8940   2
  -3   3 -16 371.818 23.2736   3
  -3   3 -16 381.495 21.5890  20
  -3   3 -16 427.534 20.9927  21
  -3   3 -16 414.212 19.8878  13
   3  -3  16 377.588 21.7108  10
   3  -3  16 347.101 19.8853   2
  -4   3 -16 108.100 6.69398  21
   4   2 -16 67.5332 5.07339   8
  -4  -2  16 62.1161 5.06442  21
  -4  -2  16 69.2804 4.03149  13
  -4  -2  16 69.2123 3.81916   9
   3   2 -16 813.343 39.8012   2
   3   2 -16 794.458 41.0575   8
  -3  -2  16 702.275 41.9884  20
  -3  -2  16 761.860 40.9250  21
  -3  -2  16 810.104 39.6376  13
  -3  -2  16 734.695 44.1932   3
  -3  -2  16 840.872 39.4871   9
   2   2 -16 108.496 6.99388   2
  -2  -2  16 110.624 7.39904   2
  -2  -2  16 112.951 6.59394  13
  -2  -2  16 103.884 10.3735   3
  -2  -2  16 108.344 6.32100   9
  -2  -2  16 110.870 7.93767  21
  -1  -2  16 2.90680 1.66767  21
  -1  -2  16 2.35501 1.53070   2
  -1  -2  16 3.95063 1.20146  13
  -1  -2  16 5.00680 1.18717   9
   0   2 -16 1042.77 53.6126   2
   0   2 -16 1012.88 52.3724  13
   0   2 -16 1075.87 52.5589   9
   0  -2  16 1064.60 52.6121   9
   0  -2  16 1023.28 53.8022   2
  -1   2 -16 495.008 25.6012  21
  -1   2 -16 480.872 28.6349   3
  -1   2 -16 439.286 25.3422   2
  -1   2 -16 487.881 24.4769   9
  -1   2 -16 503.484 24.4697  13
  -1   2 -16 459.288 26.4669  20
   1  -2  16 492.789 25.7667   2
   1  -2  16 460.790 24.3538   9
  -2   2 -16 965.028 47.8898  13
  -2   2 -16 960.394 48.9989  21
  -2   2 -16 898.689 52.0436   3
  -2   2 -16 946.630 48.1249   9
   2  -2  16 965.558 49.1174   2
  -3   2 -16 702.275 35.7916  21
  -3   2 -16 669.350 38.4384   3
  -3   2 -16 687.894 38.6543  20
  -3   2 -16 699.115 34.6500   9
   3  -2  16 674.816 35.3887   2
   3  -2  16 680.031 46.6180   4
  -4   2 -16 25.9803 1.91044  13
  -4   2 -16 23.2484 2.42591  21
   4  -2  16 24.8600 6.42746   4
   4   1 -16 400.552 22.0898   8
  -4  -1  16 420.764 20.8097   9
  -4  -1  16 392.676 26.6500   3
  -4  -1  16 426.892 21.1196  13
  -4  -1  16 402.061 22.3595  21
   3   1 -16 2736.17 137.207   2
   3   1 -16 2775.21 138.668   8
  -3  -1  16 2573.52 139.696  20
  -3  -1  16 2989.31 136.935   9
  -3  -1  16 2652.98 142.509   3
  -3  -1  16 2763.58 137.092  13
  -3  -1  16 2694.64 138.620  21
   2   1 -16 265.601 15.9593   8
   2   1 -16 279.241 15.2630   2
  -2  -1  16 271.864 17.3481  20
  -2  -1  16 283.417 16.4597  21
  -2  -1  16 279.710 14.8390  13
  -2  -1  16 276.206 14.5796   9
   1   1 -16 827.736 43.8048   9
   1   1 -16 865.603 44.8877   2
   1   1 -16 992.171 59.9841   5
  -1  -1  16 840.713 45.8285  21
  -1  -1  16 864.345 44.0307   9
  -1  -1  16 893.522 50.9941  20
  -1  -1  16 852.844 45.3183   2
  -1  -1  16 847.365 44.1928  13
  -1  -1  16 852.693 49.2601   3
   0   1 -16 845.709 42.3555   9
   0   1 -16 848.261 43.4706   2
   0  -1  16 852.954 42.4624   9
   0  -1  16 861.923 43.8050   2
   0  -1  16 784.026 42.7553  15
  -1   1 -16 321.056 16.5949  13
  -1   1 -16 315.680 18.6869  20
  -1   1 -16 336.589 16.6927   9
  -1   1 -16 310.646 17.6417   2
  -1   1 -16 322.133 20.5711   3
  -1   1 -16 323.021 17.7206  21
   1  -1  16 303.155 17.2985  15
   1  -1  16 313.557 16.6343   9
   1  -1  16 329.064 18.1041   2
  -2   1 -16 14.8118 3.84729   3
  -2   1 -16 17.1584 2.04764   9
  -2   1 -16 15.5630 2.99962  21
   2  -1  16 20.4167 3.20593   2
  -3   1 -16 648.916 38.2691   3
  -3   1 -16 715.188 34.6450   9
  -3   1 -16 707.289 35.7201  21
  -3   1 -16 710.481 34.7054  13
  -3   1 -16 632.545 36.4999  20
   3  -1  16 692.922 46.7940   4
   3  -1  16 683.768 35.4227   2
  -4   1 -16 4.05207 1.44636  21
  -4   1 -16 3.31274 0.77421  13
   4  -1  16 2.71729 2.89731   4
  -5   0  16 550.743 27.8559  13
  -4   0  16 360.916 23.5421   3
  -4   0  16 398.130 19.8972  13
  -4   0  16 362.161 20.6585  21
  -4   0  16 364.260 18.9892   9
   3   0 -16 38.3928 4.11657   8
   3   0 -16 41.3774 3.09216   2
  -3   0  16 33.6030 4.43693  21
  -3   0  16 39.1553 2.89350   9
  -3   0  16 39.0424 6.26095   3
  -3   0  16 36.2661 5.30920  20
   2   0 -16 4770.32 261.630   8
  -2   0  16 5378.99 260.393   9
  -2   0  16 5318.84 263.465  20
  -2   0  16 5233.74 262.270  21
  -2   0  16 5429.97 260.660  13
  -2   0  16 5230.45 266.503   3
   1   0 -16 5.03708 5.36636   5
   1   0 -16 3.16807 1.34825   2
  -1   0  16 4.53156 1.49635  13
  -1   0  16 4.26596 1.20459   9
  -1   0  16 6.45954 2.40871  21
  -1   0  16 6.14856 3.39517   3
   0   0 -16 146.838 9.18829   2
   0   0 -16 155.882 8.19287   9
   0   0  16 148.512 9.75219   2
   0   0  16 155.426 8.37468   9
   0   0  16 140.170 8.64894  15
  -1   0 -16 1623.03 83.0357  21
  -1   0 -16 1621.11 83.2547   2
  -1   0 -16 1683.71 82.0854   9
  -1   0 -16 1570.46 84.1512  20
  -1   0 -16 1607.10 86.2423   3
  -1   0 -16 1646.95 82.0380  13
   1   0  16 1648.82 82.1181   9
   1   0  16 1699.54 83.7190   2
  -2   0 -16 309.282 16.1074  13
  -2   0 -16 309.067 16.1100   9
  -2   0 -16 290.010 19.8826   3
  -2   0 -16 318.181 17.2420  21
  -2   0 -16 302.220 18.1815  20
   2   0  16 318.919 17.6576   2
  -3   0 -16 1478.21 72.3828  13
  -3   0 -16 1455.37 73.1530  21
  -3   0 -16 1368.41 77.0259   3
  -3   0 -16 1443.41 72.7222   9
   3   0  16 1466.00 72.7775   2
   5  -1 -16 1125.96 57.5694   8
  -5   1  16 1151.24 57.0135  13
  -4   1  16 10.2068 2.13075  13
  -4   1  16 14.3961 1.63200   9
  -4   1  16 14.2435 3.21827  20
  -4   1  16 12.2167 3.05308  21
   3  -1 -16 129.703 8.99066   8
   3  -1 -16 141.392 8.05487   2
  -3   1  16 140.278 9.62234  21
  -3   1  16 138.082 12.2675   3
  -3   1  16 136.035 7.66843   9
   2  -1 -16 75.9098 5.19180   2
  -2   1  16 69.2605 4.96967  13
  -2   1  16 76.7610 8.75443   3
  -2   1  16 72.9063 6.96306  20
  -2   1  16 68.0367 6.33851  21
  -2   1  16 71.6854 4.59311   9
   1  -1 -16 1366.82 70.8616   9
   1  -1 -16 1439.54 72.0289   2
  -1   1  16 1388.14 72.6563   2
  -1   1  16 1454.31 71.4162  13
  -1   1  16 1409.66 71.1549   9
  -1   1  16 1426.28 76.8324   3
  -1   1  16 1420.82 74.0622  20
   0  -1 -16 648.946 32.0132   9
   0  -1 -16 663.157 33.2910   2
   0  -1 -16 591.886 41.7004  17
   0   1  16 605.831 32.0398  13
   0   1  16 645.528 32.2247   9
   0   1  16 611.746 32.7327  15
   0   1  16 637.396 33.7670   2
  -1  -1 -16 949.650 48.4991  13
  -1  -1 -16 950.471 49.8499   2
  -1  -1 -16 937.088 49.3691  21
   1   1  16 1019.61 50.4823   2
   1   1  16 962.001 48.6831   9
  -2  -1 -16 33.6092 2.72128   9
  -2  -1 -16 32.4115 4.75454   3
  -2  -1 -16 36.5820 2.71680  13
  -2  -1 -16 36.1607 3.49385  21
   2   1  16 33.7223 3.97411   2
   2   1  16 35.0400 9.62533   4
  -3  -1 -16 795.638 39.5564   9
  -3  -1 -16 811.211 39.5168  13
   3   1  16 739.039 39.7827   2
   3   1  16 801.035 46.7768   4
   5  -2 -16 366.096 18.9749   8
  -5   2  16 356.110 18.4564  13
   4  -2 -16 1942.24 105.545  12
  -4   2  16 1914.62 98.7926   9
  -4   2  16 2053.82 100.641  21
  -4   2  16 1957.65 101.857  20
  -4   2  16 2022.46 103.795   3
   3  -2 -16 437.180 21.7012   2
   3  -2 -16 382.985 22.5492   8
  -3   2  16 411.714 24.0638  20
  -3   2  16 429.683 26.8552   3
  -3   2  16 412.253 23.3191  21
  -3   2  16 423.506 21.6985  13
  -3   2  16 394.074 21.3022   9
   2  -2 -16 1025.31 54.0535   2
  -2   2  16 1113.18 55.5286  21
  -2   2  16 1030.51 59.0883   3
  -2   2  16 1021.40 53.3576   9
  -2   2  16 1082.47 53.7007  13
  -2   2  16 1066.97 56.3549  20
   1  -2 -16 46.0155 3.07646   9
   1  -2 -16 44.9237 4.18999   2
  -1   2  16 47.3573 3.81419  13
  -1   2  16 52.0208 5.62060  20
  -1   2  16 53.8420 5.21225  21
  -1   2  16 48.3078 8.21311   3
  -1   2  16 42.7345 4.69525   2
   0  -2 -16 227.067 11.8157   9
   0  -2 -16 222.300 13.0263   2
   0   2  16 210.693 11.7076  13
   0   2  16 232.385 12.0913   9
   0   2  16 217.906 13.6141   2
  -1  -2 -16 1079.84 55.7064   2
  -1  -2 -16 1104.37 54.5693   9
   1   2  16 1113.12 56.2754   2
   1   2  16 1035.68 54.4894   9
  -2  -2 -16 386.265 20.7495  13
  -2  -2 -16 429.748 21.2166   9
   2   2  16 389.343 28.0088   4
   2   2  16 439.361 22.4596   2
  -3  -2 -16 259.216 13.1612   9
   4  -3 -16 586.376 35.0755  12
   4  -3 -16 548.160 28.8380   8
  -4   3  16 467.101 27.7540   9
  -4   3  16 586.569 29.5374  21
  -4   3  16 579.751 28.1610  13
  -4   3  16 527.797 31.7956   3
   3  -3 -16 7.89957 2.30607   8
   3  -3 -16 8.81878 1.47488   2
  -3   3  16 11.2823 3.83989   3
  -3   3  16 13.6322 3.36959  21
  -3   3  16 12.3823 2.27620  13
  -3   3  16 8.41986 1.70970   9
   2  -3 -16 1282.32 63.4237   2
  -2   3  16 1207.86 68.1021   3
  -2   3  16 1249.87 62.7333   9
  -2   3  16 1203.77 65.3435  20
  -2   3  16 1261.55 64.5340  21
  -2   3  16 1262.20 62.9638  13
   1  -3 -16 734.622 36.9365   2
  -1   3  16 644.087 40.3100   3
  -1   3  16 725.987 36.0442  13
  -1   3  16 700.134 37.3022  21
  -1   3  16 654.993 38.4149  20
  -1   3  16 751.883 36.0832   9
  -1   3  16 726.033 37.5952   2
   0  -3 -16 67.2634 4.12445   9
   0  -3 -16 70.3549 5.29443   2
   0   3  16 70.7066 5.86642   2
   0   3  16 65.9566 4.50326   9
  -1  -3 -16 819.995 37.8949   2
  -1  -3 -16 664.831 36.5965   9
   1   3  16 728.252 37.8919   2
   1   3  16 683.138 36.4222   9
  -2  -3 -16 38.7338 2.48341   9
   2   3  16 37.1978 2.98996   2
   4  -4 -16 942.558 48.9822   8
   4  -4 -16 1007.24 54.4734  12
  -4   4  16 933.099 49.5240  21
  -4   4  16 983.544 48.6596  13
   3  -4 -16 731.898 38.2874   8
  -3   4  16 732.595 37.7609  21
  -3   4  16 699.502 40.5336   3
  -3   4  16 703.673 36.2507   9
   2  -4 -16 568.735 28.6409   2
  -2   4  16 572.111 28.3763  13
  -2   4  16 535.099 29.4763  21
  -2   4  16 579.388 28.2723   9
  -2   4  16 505.468 32.1729   3
   1  -4 -16 692.679 35.4532   2
  -1   4  16 668.377 35.8863   2
  -1   4  16 669.601 35.6794  21
  -1   4  16 681.764 34.6745  13
  -1   4  16 707.877 34.8022   9
   0  -4 -16 31.2156 2.92061   2
   0   4  16 29.8435 3.30538   2
   0   4  16 27.9866 2.42014   9
  -1  -4 -16 300.969 17.5891   9
  -1  -4 -16 356.287 18.2667   2
   1   4  16 393.618 20.2413   2
   3  -5 -16 330.821 21.3136  12
  -3   5  16 296.419 16.1276   9
  -3   5  16 324.562 16.3290  13
  -2   5  16 10.4433 2.75968  21
  -2   5  16 15.3605 1.58076  13
  -2   5  16 11.9827 1.34832   9
   1  -5 -16 1085.78 54.6752   2
  -1   5  16 1084.33 54.3642   9
   0  -5 -16 9.53890 1.17614   2
   0  -6  17 4.82284 1.08771   2
  -1   6 -17 1141.74 56.2834   9
   1  -6  17 1114.25 56.5698   2
  -2   6 -17 1.47876 0.42687   9
   1   5 -17 740.442 36.7891   2
  -1  -5  17 699.213 36.1125   9
  -1  -5  17 725.796 36.9065   2
   0   5 -17 7.70628 1.55125   2
   0   5 -17 6.06192 1.16351   9
   0  -5  17 7.01603 1.88101   2
  -1   5 -17 1628.54 83.5172  13
  -1   5 -17 1825.20 83.8968   9
   1  -5  17 1486.97 85.6158  14
   1  -5  17 1763.02 84.5295   2
  -2   5 -17 85.4607 4.60712  13
  -2   5 -17 86.5947 4.65425   9
  -2   5 -17 78.4193 5.19741  21
   2  -5  17 83.6113 4.96979   2
  -3   5 -17 194.748 9.86382  13
   3  -5  17 189.284 10.9710  10
   2   4 -17 70.2332 4.85022   8
   2   4 -17 77.8994 4.80389   2
  -2  -4  17 75.5983 4.34427   9
  -2  -4  17 80.4328 5.07555   2
   1   4 -17 1371.55 69.0946   2
  -1  -4  17 1322.73 69.1852   2
  -1  -4  17 1395.31 68.2768   9
   0   4 -17 1.54521 1.04895   2
   0   4 -17 1.60106 0.82840   9
   0  -4  17 0.88978 1.12733   2
   0  -4  17 0.86337 0.76482   9
  -1   4 -17 336.899 25.5152   3
  -1   4 -17 380.814 21.0467  21
  -1   4 -17 429.410 21.9431   2
  -1   4 -17 416.310 20.4212   9
  -1   4 -17 411.063 20.2973  13
   1  -4  17 411.663 21.4072   2
  -2   4 -17 750.228 37.3319  21
  -2   4 -17 745.772 36.4277  13
  -2   4 -17 633.331 39.5046   3
  -2   4 -17 756.552 36.4542   9
   2  -4  17 724.186 37.1043   2
  -3   4 -17 78.0311 5.23559  21
  -3   4 -17 84.0277 4.51824  13
  -3   4 -17 80.8003 4.42346   9
   3  -4  17 77.3947 6.11038  10
   3   3 -17 566.794 29.4803   2
   3   3 -17 576.647 30.4969   8
  -3  -3  17 613.071 29.3710   9
  -3  -3  17 569.596 29.3568  13
   2   3 -17 219.714 12.9478   8
   2   3 -17 227.162 12.5021   2
  -2  -3  17 222.029 11.8621   9
  -2  -3  17 233.219 12.9457   2
  -2  -3  17 223.190 11.8263  13
   1   3 -17 804.333 40.8210   2
   1   3 -17 785.146 39.7137   9
  -1  -3  17 779.985 40.9934   2
  -1  -3  17 786.039 39.8902   9
   0   3 -17 67.0476 5.53145   2
   0   3 -17 68.3629 3.96683  13
   0  -3  17 78.3261 5.17031   9
  -1   3 -17 380.837 18.2564   9
  -1   3 -17 337.242 18.3552  21
  -1   3 -17 350.783 17.6120  13
  -1   3 -17 319.737 18.2537   2
  -1   3 -17 306.687 19.2997  20
  -1   3 -17 320.100 20.9689   3
   1  -3  17 345.645 19.1406   2
  -2   3 -17 1422.23 67.6981   9
  -2   3 -17 1420.48 68.7600  21
  -2   3 -17 1201.52 73.3972   3
  -2   3 -17 1408.07 67.6816  13
  -2   3 -17 1235.86 69.5018  20
   2  -3  17 1407.37 68.6424   2
  -3   3 -17 37.1665 2.38546   9
  -3   3 -17 29.9215 4.87655   3
  -3   3 -17 35.2112 3.31210  21
   3  -3  17 35.8566 7.47339   4
   3  -3  17 35.5686 4.05911  10
   4   2 -17 988.604 52.6224   8
  -4  -2  17 1044.47 51.9926  13
  -4  -2  17 1085.12 51.9974   9
   3   2 -17 87.0673 5.67758   2
   3   2 -17 77.3513 5.74711   8
  -3  -2  17 68.1554 8.19410   3
  -3  -2  17 79.3207 5.91968  21
  -3  -2  17 82.4898 4.86545  13
  -3  -2  17 76.6016 4.77623   9
   2   2 -17 3.59676 1.22111   2
   2   2 -17 5.40241 1.82308   8
  -2  -2  17 5.50996 1.18367   9
  -2  -2  17 3.69910 1.21680  13
  -2  -2  17 5.22332 3.05396   3
  -2  -2  17 6.80149 2.79583  20
  -2  -2  17 5.58873 1.75356   2
   1   2 -17 2012.89 100.976   9
   1   2 -17 2050.34 102.111   2
  -1  -2  17 2040.77 101.171   9
  -1  -2  17 1998.73 101.178  13
  -1  -2  17 2006.23 102.408   2
   0   2 -17 642.815 33.7210   2
   0   2 -17 652.579 32.6832   9
   0  -2  17 640.528 33.9742   2
   0  -2  17 639.138 32.7232   9
  -1   2 -17 316.434 16.9747   2
  -1   2 -17 318.236 20.6985  20
  -1   2 -17 275.094 16.0985  21
  -1   2 -17 268.041 18.7144   3
  -1   2 -17 284.648 15.1188  13
  -1   2 -17 290.500 15.2019   9
   1  -2  17 284.881 16.4008   2
  -2   2 -17 208.682 13.8063  20
  -2   2 -17 261.432 15.2606  21
  -2   2 -17 224.015 11.9355  13
  -2   2 -17 214.465 15.4865   3
   2  -2  17 221.894 13.0277   2
  -3   2 -17 32.1650 2.32614   9
  -3   2 -17 35.5708 3.39309  21
  -3   2 -17 29.9733 4.33144   3
   3  -2  17 37.2697 9.81962   4
   3  -2  17 28.8111 2.46164   2
   3  -2  17 30.5354 3.47057  10
  -4   2 -17 1009.60 50.5080  13
   4   1 -17 13.3348 2.14896   8
  -4  -1  17 14.2658 1.85531  13
  -4  -1  17 13.8587 2.52487  21
   3   1 -17 4206.56 210.423   2
   3   1 -17 4227.69 211.530   8
  -3  -1  17 4215.53 210.280  13
  -3  -1  17 4089.64 215.807   3
  -3  -1  17 4028.40 211.610  21
  -3  -1  17 4188.41 214.088  20
  -3  -1  17 4558.13 210.149   9
   2   1 -17 19.2405 2.96495   8
   2   1 -17 22.3238 2.67995   2
  -2  -1  17 24.0864 2.64101  13
  -2  -1  17 27.6644 3.88886  21
  -2  -1  17 21.9341 4.69431   3
  -2  -1  17 26.0421 2.32688   9
   1   1 -17 585.357 30.5485   2
  -1  -1  17 575.082 29.7925  13
  -1  -1  17 591.525 29.6886   9
  -1  -1  17 577.800 30.9984   2
  -1  -1  17 574.431 31.1275  21
   0   1 -17 1552.00 76.8957   9
   0   1 -17 1537.95 77.9681   2
   0   1 -17 1472.38 76.6459  13
   0  -1  17 1555.26 78.3465   2
   0  -1  17 1552.49 76.9801   9
  -1   1 -17 121.989 8.08933   2
  -1   1 -17 140.650 8.27190  21
  -1   1 -17 124.627 10.4322   3
   1  -1  17 126.025 7.15738   9
   1  -1  17 132.916 8.74603   2
  -2   1 -17 1194.85 58.7886  13
  -2   1 -17 1128.25 60.9020  20
  -2   1 -17 1229.37 58.7780   9
  -2   1 -17 1156.08 62.9486   3
   2  -1  17 1063.29 60.4138  10
   2  -1  17 1240.57 60.0944   2
  -3   1 -17 565.050 27.7725   9
  -3   1 -17 578.200 28.1121  13
  -3   1 -17 536.909 28.6377  21
  -3   1 -17 471.743 30.9613   3
   3  -1  17 630.489 40.5591   4
   3  -1  17 507.998 27.9942   2
   4   0 -17 95.4322 6.36412   8
  -4   0  17 95.0782 7.07404  21
  -4   0  17 99.7150 5.29243   9
  -4   0  17 101.540 5.70241  13
  -4   0  17 83.5627 9.48937   3
   3   0 -17 62.7225 5.33920   8
   3   0 -17 67.2168 4.39797   2
  -3   0  17 70.4294 4.26578   9
  -3   0  17 68.5543 4.59971  13
  -3   0  17 64.6612 6.37413  20
  -3   0  17 67.2542 7.83199   3
   2   0 -17 745.374 37.9081   2
  -2   0  17 724.021 39.0168  21
  -2   0  17 709.115 39.9864  20
  -2   0  17 750.741 37.2604   9
  -2   0  17 713.085 42.6201   3
  -2   0  17 753.915 37.5039  13
   1   0 -17 5.75570 1.21217   9
   1   0 -17 5.81001 1.89243   2
  -1   0  17 5.35980 3.15835   3
  -1   0  17 2.72578 1.72302   2
  -1   0  17 4.23060 1.97183  21
  -1   0  17 4.10501 1.39198  13
  -1   0  17 5.03574 1.25785   9
   0   0 -17 1324.44 67.0487   2
   0   0 -17 1294.40 65.8900   9
   0   0  17 1313.02 67.5159   2
   0   0  17 1320.81 66.0669   9
  -1   0 -17 76.7032 5.32757  21
  -1   0 -17 80.2979 6.71231   2
  -1   0 -17 67.6747 4.44527   9
  -1   0 -17 69.7432 4.36342  13
   1   0  17 73.7509 5.53082   9
   1   0  17 65.5067 5.91013   2
  -2   0 -17 1633.68 82.0055  21
  -2   0 -17 1690.07 81.0874  13
  -2   0 -17 1459.38 83.6938  20
  -2   0 -17 1683.79 81.1150   9
  -2   0 -17 1481.30 84.6638   3
   2   0  17 1762.76 82.5352   2
  -3   0 -17 139.554 7.19413   9
  -3   0 -17 140.604 7.19889  13
  -3   0 -17 136.057 7.85476  21
   3   0  17 116.869 7.32318   2
   3   0  17 134.375 14.0945   4
   4  -1 -17 93.9730 6.49323   8
  -4   1  17 106.075 9.13443   3
  -4   1  17 87.7532 6.84063  21
  -4   1  17 100.485 5.84637  13
  -4   1  17 100.218 5.44511   9
   3  -1 -17 802.657 41.9996   2
   3  -1 -17 757.200 42.8661   8
  -3   1  17 954.845 47.0480  21
  -3   1  17 794.251 44.3959  20
  -3   1  17 808.446 47.0726   3
  -3   1  17 833.420 42.0518  13
  -3   1  17 830.295 41.7519   9
   2  -1 -17 846.150 43.7246   2
  -2   1  17 859.569 45.0264  21
  -2   1  17 864.828 43.1090   9
  -2   1  17 843.016 45.9409  20
  -2   1  17 858.912 43.3613  13
  -2   1  17 828.694 48.5573   3
   1  -1 -17 1658.57 84.9763   9
   1  -1 -17 1771.79 86.2544   2
  -1   1  17 1684.56 86.9080  21
  -1   1  17 1680.96 86.7903   2
  -1   1  17 1709.92 88.2328  20
  -1   1  17 1739.34 85.3336   9
  -1   1  17 1699.11 85.4571  13
  -1   1  17 1655.61 90.6483   3
   0  -1 -17 1194.16 60.0096   9
   0  -1 -17 1166.73 61.1636   2
   0   1  17 1219.24 61.8057   2
   0   1  17 1196.61 60.2002   9
  -1  -1 -17 238.646 14.0326   2
  -1  -1 -17 247.566 12.9791   9
  -1  -1 -17 242.937 12.7298  13
   1   1  17 256.189 14.7184   2
   1   1  17 241.168 12.9226   9
  -2  -1 -17 77.4787 4.70086  13
  -2  -1 -17 82.3872 4.74751   9
  -2  -1 -17 80.4718 5.71578  21
   2   1  17 78.3203 5.80836   2
   2   1  17 77.0768 11.9647   4
   3   1  17 404.868 25.0840   4
   4  -2 -17 50.1451 4.20140   8
   4  -2 -17 58.8263 9.44764  12
  -4   2  17 55.2099 5.26827  21
  -4   2  17 59.5766 7.89554   3
  -4   2  17 53.1310 3.76934  13
  -4   2  17 46.4097 3.60510   9
   3  -2 -17 294.741 15.7627   2
   3  -2 -17 289.653 16.9036   8
  -3   2  17 296.130 15.6173   9
  -3   2  17 301.271 18.1995  20
  -3   2  17 290.095 20.3728   3
  -3   2  17 307.508 15.9742  13
  -3   2  17 311.045 17.5189  21
   2  -2 -17 1987.78 99.3011   2
  -2   2  17 1960.09 101.386  20
  -2   2  17 1972.52 99.3106  13
  -2   2  17 1977.28 100.350  21
  -2   2  17 1920.98 98.5939   9
  -2   2  17 1975.30 104.204   3
   1  -2 -17 146.330 8.96007   2
  -1   2  17 122.948 11.2752   3
  -1   2  17 135.984 9.03409  21
  -1   2  17 122.661 8.90109   2
   0  -2 -17 1482.45 75.2407   9
   0  -2 -17 1517.70 76.5203   2
   0   2  17 1506.64 77.0189   2
   0   2  17 1501.32 75.4669   9
  -1  -2 -17 43.2520 3.88661   2
  -1  -2 -17 47.1866 3.13478   9
   1   2  17 42.4376 4.44381   2
   1   2  17 45.7123 3.12287   9
  -2  -2 -17 111.104 5.82078   9
   2   2  17 106.874 6.63960   2
   2   2  17 97.1177 13.5556   4
   4  -3 -17 424.694 22.7999   8
   4  -3 -17 433.921 27.0134  12
  -4   3  17 448.422 22.4326  13
  -4   3  17 440.787 23.4439  21
   3  -3 -17 249.978 14.4441   8
   3  -3 -17 250.946 13.5688   2
  -3   3  17 281.116 14.1624  13
  -3   3  17 284.823 15.5710  21
  -3   3  17 251.267 17.8413   3
   2  -3 -17 1115.86 55.6642   2
  -2   3  17 996.248 60.3103   3
  -2   3  17 1146.65 61.9451  20
  -2   3  17 1113.13 55.2888  13
  -2   3  17 1087.61 56.6507  21
  -2   3  17 1096.74 55.1023   9
   1  -3 -17 59.1427 4.59937   2
  -1   3  17 58.6437 3.94300  13
  -1   3  17 60.8022 4.09418   9
  -1   3  17 57.7362 5.76131   2
  -1   3  17 55.4442 4.80809  21
   0  -3 -17 1015.56 51.3078   2
   0   3  17 997.788 51.6921   2
   0   3  17 985.398 50.3642   9
  -1  -3 -17 338.306 16.8950   9
  -1  -3 -17 333.104 17.6889   2
   1   3  17 334.646 18.0252   2
   1   3  17 317.910 16.8177   9
   4  -4 -17 306.452 18.9572  12
  -4   4  17 278.402 17.3591  21
  -4   4  17 319.437 15.5071  13
   3  -4 -17 8.90424 4.38474  12
  -3   4  17 7.68509 1.36274   9
  -3   4  17 7.63377 1.73671  13
  -3   4  17 7.12334 2.45391  21
   2  -4 -17 839.663 42.9157   2
  -2   4  17 826.809 42.7866  13
  -2   4  17 905.430 45.2000  21
  -2   4  17 809.573 42.7142   9
   1  -4 -17 295.749 15.1708   2
  -1   4  17 243.253 15.1923   2
  -1   4  17 297.711 14.7594   9
   0  -4 -17 255.095 13.4526   2
   0   4  17 241.489 12.8014   9
  -1  -4 -17 791.226 39.9205   2
   3  -5 -17 2.50274 1.97277  12
  -3   5  17 2.36276 0.61904  13
   2  -5 -17 541.770 31.9447  12
  -2   5  17 586.797 28.4303   9
   1  -5 -17 394.064 19.9672   2
  -1   5  17 390.873 19.8114   9
   1   5 -18 254.561 13.0007   2
  -1  -5  18 238.589 13.0426   2
   0   5 -18 305.981 15.2182   9
   0   5 -18 291.492 15.7458   2
   0  -5  18 300.727 15.9297   2
  -1   5 -18 543.055 27.5952   9
   1  -5  18 552.204 28.1969   2
  -2   5 -18 45.3215 2.50582  13
  -2   5 -18 47.7285 2.66738   9
   2  -5  18 36.1051 2.52158   2
   2   4 -18 901.137 43.3750   2
  -2  -4  18 746.313 43.5672   2
  -2  -4  18 923.818 42.9593   9
   1   4 -18 83.7396 4.78325   9
   1   4 -18 92.4953 5.65434   2
  -1  -4  18 94.7362 5.94818   2
  -1  -4  18 87.1372 4.99100   9
   0   4 -18 46.2286 3.91446   2
   0   4 -18 39.1737 2.62420   9
   0  -4  18 36.8789 3.44633   2
   0  -4  18 37.8019 2.51152   9
  -1   4 -18 990.147 52.3805   2
  -1   4 -18 1055.98 51.7004   9
   1  -4  18 1043.15 52.5772   2
  -2   4 -18 445.529 22.5685  13
  -2   4 -18 464.439 22.6457   9
  -2   4 -18 419.887 23.2080  21
   2  -4  18 451.850 23.1664   2
  -3   4 -18 285.562 13.6969   9
  -3   4 -18 254.018 14.4853  21
   3  -4  18 268.627 14.7455  10
   3   3 -18 4.85175 0.79282   2
   2   3 -18 909.396 44.7946   2
  -2  -3  18 898.221 45.1168   2
  -2  -3  18 825.119 44.2316   9
   1   3 -18 196.132 10.3536   9
   1   3 -18 202.095 11.3396   2
  -1  -3  18 194.730 11.5563   2
  -1  -3  18 201.074 10.5484   9
   0   3 -18 74.7531 5.23915   2
   0   3 -18 73.4579 4.39958   9
   0  -3  18 75.4162 5.53195   2
   0  -3  18 73.7158 4.42782   9
  -1   3 -18 623.463 33.2979  21
  -1   3 -18 668.344 32.6536   9
  -1   3 -18 637.385 32.5029  13
  -1   3 -18 640.020 33.5374   2
   1  -3  18 650.691 33.7102   2
  -2   3 -18 233.626 11.7030  13
  -2   3 -18 227.406 12.5766  21
  -2   3 -18 200.092 14.5389   3
   2  -3  18 232.806 12.5498   2
  -3   3 -18 956.964 48.3861  21
  -3   3 -18 1036.55 47.7898  13
  -3   3 -18 1007.34 47.7056   9
   3  -3  18 861.679 49.1139  10
   3  -3  18 899.668 53.3963   4
   3   2 -18 84.9697 4.92027   2
  -3  -2  18 88.6664 4.83163   9
  -3  -2  18 84.9766 4.88994  13
  -3  -2  18 76.0212 5.59755  21
   2   2 -18 1001.32 49.8932   2
  -2  -2  18 913.766 50.2608  21
  -2  -2  18 1066.60 50.9300   2
  -2  -2  18 963.570 49.2557  13
  -2  -2  18 940.677 49.1765   9
   1   2 -18 1402.13 71.3996   9
   1   2 -18 1476.53 72.5203   2
  -1  -2  18 1435.86 72.8121   2
  -1  -2  18 1403.35 71.4602  13
  -1  -2  18 1417.23 71.5869   9
   0   2 -18 533.733 28.9953   2
  -1   2 -18 132.977 8.26046   2
  -1   2 -18 137.474 7.45806   9
   1  -2  18 131.872 8.64298   2
  -2   2 -18 605.479 31.8309  21
  -2   2 -18 645.896 30.9836   9
  -2   2 -18 552.945 34.2115   3
   2  -2  18 637.824 31.9941   2
  -3   2 -18 14.6900 2.20101  21
  -3   2 -18 15.1006 1.49024   9
  -3   2 -18 13.9507 1.57152  13
   3  -2  18 15.9250 6.00925   4
   4   1 -18 70.7015 4.89069   8
  -4  -1  18 78.8306 4.16035   9
  -4  -1  18 69.2794 5.05832  21
  -4  -1  18 84.9378 5.15623  13
   3   1 -18 1240.91 63.8682   2
   3   1 -18 1260.82 64.6129   8
  -3  -1  18 1245.92 64.9059  21
  -3  -1  18 1422.14 63.7094   9
  -3  -1  18 1308.76 63.7830  13
  -3  -1  18 1129.99 67.6113   3
   2   1 -18 3.06956 1.25635   2
  -2  -1  18 3.39974 2.47283   3
  -2  -1  18 2.61472 1.01151   9
  -2  -1  18 1.99872 1.08072  13
   1   1 -18 1135.97 56.2821   2
  -1  -1  18 1081.34 55.6406  13
  -1  -1  18 1078.06 55.3313   9
   0   1 -18 160.384 9.72177   2
   0  -1  18 160.964 10.2065   2
   0  -1  18 158.561 8.79270   9
  -1   1 -18 1927.41 93.8011  13
  -1   1 -18 1847.56 94.9059   2
   1  -1  18 1745.37 93.7177   9
   1  -1  18 1985.39 95.3741   2
  -2   1 -18 465.109 24.5768  21
  -2   1 -18 492.355 23.7573   9
  -2   1 -18 416.986 26.9716   3
  -2   1 -18 475.136 23.7167  13
   2  -1  18 472.871 24.8401   2
  -3   1 -18 3.64681 0.81587   9
  -3   1 -18 3.23125 1.18690  21
  -3   1 -18 5.62693 1.21547  13
   3  -1  18 3.39993 3.53026   4
   4   0 -18 169.001 10.5183   8
  -4   0  18 200.888 10.1282  13
  -4   0  18 198.605 11.1194  21
  -4   0  18 188.714 9.81744   9
   3   0 -18 133.284 7.61995   2
   3   0 -18 130.977 8.39414   8
  -3   0  18 138.395 7.74017  13
  -3   0  18 129.139 9.66645  20
  -3   0  18 127.131 11.0893   3
  -3   0  18 148.111 7.53424   9
  -3   0  18 135.381 8.96436  21
   2   0 -18 84.9764 5.78947   2
  -2   0  18 88.2583 5.55002  13
  -2   0  18 89.0048 6.85588  21
  -2   0  18 95.3300 5.36679   9
  -2   0  18 81.8231 8.77798   3
  -2   0  18 87.2708 7.43291  20
   1   0 -18 1627.00 79.8854   2
   1   0 -18 1444.46 79.3167   9
  -1   0  18 1618.66 79.0978  13
  -1   0  18 1633.38 79.0086   9
  -1   0  18 1543.36 80.2864  21
   0   0 -18 837.437 43.8200   2
   0   0 -18 835.330 42.6764   9
   0   0  18 855.127 42.8580   9
   0   0  18 853.696 44.3268   2
  -1   0 -18 330.321 17.2787  13
  -1   0 -18 338.887 17.4626   9
  -1   0 -18 336.973 18.5287   2
   1   0  18 328.844 17.3608   9
   1   0  18 348.997 19.0149   2
  -2   0 -18 579.106 28.5399  13
  -2   0 -18 578.573 28.6236   9
   2   0  18 561.816 29.6438   2
   2   0  18 532.270 38.7999   4
  -3   0 -18 4.10294 0.99264  13
   3   0  18 2.56133 3.89399   4
   4  -1 -18 729.416 39.6502   8
  -4   1  18 766.505 38.6359   9
  -4   1  18 815.905 38.9665  13
  -4   1  18 767.015 39.9882  21
   3  -1 -18 299.002 16.2348   2
   3  -1 -18 283.821 16.8758   8
  -3   1  18 319.099 16.1126   9
  -3   1  18 315.599 17.7783  21
  -3   1  18 283.888 20.2359   3
  -3   1  18 344.435 21.4226  20
  -3   1  18 321.015 16.3904  13
   2  -1 -18 244.397 13.6188   2
  -2   1  18 249.338 13.2915  13
  -2   1  18 242.254 15.5883  20
  -2   1  18 234.585 17.4259   3
  -2   1  18 246.706 14.7218  21
  -2   1  18 250.274 13.0523   9
   1  -1 -18 532.313 26.6680   9
  -1   1  18 518.944 28.4161   2
  -1   1  18 526.675 28.2696  21
   0  -1 -18 662.810 34.1689   9
   0  -1 -18 675.333 35.3733   2
   0   1  18 681.854 34.3801   9
   0   1  18 679.435 35.8778   2
  -1  -1 -18 39.8153 3.60346   2
  -1  -1 -18 38.2205 2.80736   9
   1   1  18 38.7562 4.25527   2
   1   1  18 36.7832 2.70237   9
  -2  -1 -18 842.245 41.1696   9
   2   1  18 801.732 49.3472   4
   2   1  18 809.462 42.0235   2
   4  -2 -18 526.438 28.6313   8
  -4   2  18 590.603 28.4426  13
  -4   2  18 557.389 29.4246  21
   3  -2 -18 1580.95 82.1061   2
  -3   2  18 1552.47 86.6713   3
  -3   2  18 1690.50 83.7535  21
  -3   2  18 1730.51 82.3697  13
   2  -2 -18 81.2734 5.07712   2
  -2   2  18 72.4781 4.55127   9
  -2   2  18 71.0268 4.76266  13
  -2   2  18 61.7355 5.83281  21
  -2   2  18 69.6179 9.29573   3
  -2   2  18 66.0375 6.58492  20
   1  -2 -18 233.556 13.0723   2
  -1   2  18 221.864 13.1899  21
  -1   2  18 223.563 13.6811   2
  -1   2  18 235.116 12.3165   9
  -1   2  18 229.719 12.2408  13
   0  -2 -18 440.897 23.3009   2
   0  -2 -18 422.641 22.1310   9
   0   2  18 437.761 23.7702   2
   0   2  18 436.145 22.3800   9
  -1  -2 -18 63.3962 4.45821   2
   1   2  18 58.1344 3.41398   9
   1   2  18 55.2358 9.10274   4
  -2  -2 -18 698.478 33.7550   9
   2   2  18 630.806 33.9715   2
   4  -3 -18 24.2136 3.84247  12
  -4   3  18 23.0338 2.65449  13
  -3   3  18 1135.00 57.5121  21
  -3   3  18 1155.04 55.6979  13
  -3   3  18 1093.50 55.4435   9
  -3   3  18 1035.18 59.9125   3
   2  -3 -18 148.828 8.47593   2
  -2   3  18 150.763 9.33754  21
  -2   3  18 127.467 11.3961   3
  -2   3  18 155.106 8.29052  13
  -2   3  18 153.064 8.15911   9
   1  -3 -18 36.6286 3.30708   2
  -1   3  18 43.1894 3.69843  13
  -1   3  18 33.1521 3.74242   2
  -1   3  18 35.2907 2.88470   9
   0  -3 -18 668.581 37.9538   9
   0  -3 -18 797.900 38.9671   2
   0   3  18 765.291 39.2303   2
   0   3  18 790.166 38.1230   9
  -1  -3 -18 16.5524 1.31866   9
  -1  -3 -18 16.6647 1.84423   2
   1   3  18 16.0816 2.19015   2
   3  -4 -18 760.008 43.3852  12
  -3   4  18 784.953 38.3422  13
  -3   4  18 738.992 38.1931   9
   2  -4 -18 537.518 28.1745   2
  -2   4  18 563.831 28.1171   9
  -2   4  18 563.517 28.0565  13
   1  -4 -18 434.723 22.4297   2
  -1   4  18 431.865 22.0347   9
   0  -4 -18 372.840 18.1564   2
   0   4  18 327.362 17.4582   9
   0   4  18 339.768 18.5095   2
   0   5 -19 629.238 31.9695   2
   0   5 -19 562.478 31.0856   9
   0  -5  19 674.359 31.9798   2
  -1   5 -19 100.442 5.69063   9
   2  -5  19 46.6212 3.67894  10
   2   4 -19 425.925 21.6937   2
  -2  -4  19 425.197 21.3821   9
   1   4 -19 181.575 9.85252   2
  -1  -4  19 176.848 9.27311   9
  -1  -4  19 177.078 10.0108   2
   0   4 -19 1238.94 62.1646   2
   0   4 -19 1243.66 61.4589   9
   0  -4  19 1204.46 62.2826   2
  -1   4 -19 395.539 19.2834   9
  -1   4 -19 344.932 19.8036   2
   1  -4  19 394.337 20.0604   2
   2  -4  19 722.701 36.6114   2
   2   3 -19 910.629 44.9908   2
  -2  -3  19 872.878 45.2007   2
  -2  -3  19 873.717 44.4469   9
   1   3 -19 107.690 6.78814   2
  -1  -3  19 121.022 8.31964   2
  -1  -3  19 106.409 6.16988   9
   0   3 -19 1069.83 52.6289   9
   0   3 -19 1049.65 53.4786   2
   0  -3  19 1026.33 53.6262   2
  -1   3 -19 266.566 14.8913   2
  -1   3 -19 280.018 14.1847   9
   1  -3  19 273.201 15.1219   2
  -2   3 -19 329.908 18.6704  21
  -2   3 -19 381.139 18.2131   9
   2  -3  19 342.589 24.9321   4
   2  -3  19 370.816 18.8590   2
  -3   3 -19 1151.95 57.3496  13
  -3   3 -19 1146.31 57.3454   9
   3   2 -19 9.63627 1.28925   2
  -3  -2  19 9.60423 1.34043   9
  -3  -2  19 8.05030 1.56574  13
   2   2 -19 492.474 25.4484   2
  -2  -2  19 499.232 24.8894   9
  -2  -2  19 475.939 25.1920  13
  -2  -2  19 486.736 25.8641   2
   1   2 -19 803.207 40.7907   2
  -1  -2  19 783.330 41.0829   2
  -1  -2  19 787.362 39.9610   9
   0   2 -19 1398.46 70.4394   2
   0  -2  19 1343.76 70.6159   2
   0  -2  19 1416.40 69.4809   9
  -1   2 -19 1850.13 85.7697   2
  -1   2 -19 1560.01 83.7322  13
   1  -2  19 1623.04 85.0268   2
  -2   2 -19 0.96642 1.19494  13
   2  -2  19 1.47691 1.73467  10
  -3   2 -19 202.466 9.94724  13
  -3   2 -19 185.136 9.69892   9
   3  -2  19 177.172 14.4354   4
   3   1 -19 117.653 6.54660   2
  -3  -1  19 129.125 6.52447   9
  -3  -1  19 108.329 7.37607  21
  -3  -1  19 115.555 6.56268  13
   2   1 -19 630.690 30.5771   2
  -2  -1  19 576.868 31.0103  21
  -2  -1  19 519.540 33.6562   3
  -2  -1  19 611.870 29.9093   9
  -2  -1  19 598.491 29.9608  13
   1   1 -19 376.974 19.9190   2
   1   1 -19 356.482 18.7876   9
  -1  -1  19 376.206 19.0922   9
  -1  -1  19 368.624 20.3356   2
  -1  -1  19 364.783 18.9400  13
   0   1 -19 7.42171 1.97749   2
   0   1 -19 7.07505 1.37315   9
   0  -1  19 7.87305 1.56530   9
   0  -1  19 5.47023 1.77162   2
  -1   1 -19 1050.20 53.3358  13
  -1   1 -19 1091.06 53.5400   9
  -1   1 -19 1036.87 54.4433   2
   1  -1  19 1081.02 54.8350   2
  -2   1 -19 78.9173 4.31602  13
  -2   1 -19 68.7937 4.83221  21
  -3   1 -19 602.312 30.5599  13
  -3   1 -19 620.177 30.6473   9
   3  -1  19 609.386 36.0647   4
  -4   0  19 609.853 30.3352  13
  -4   0  19 585.972 31.2555  21
   3   0 -19 107.705 6.21755   2
  -3   0  19 100.095 10.3823   3
  -3   0  19 120.420 6.91626  13
  -3   0  19 102.465 7.35852  21
  -3   0  19 119.484 6.41080   9
   2   0 -19 960.998 46.8209   2
  -2   0  19 913.145 47.5086  21
  -2   0  19 832.040 50.3037   3
  -2   0  19 934.030 46.2997  13
  -2   0  19 863.462 48.6957  20
  -2   0  19 983.162 46.2290   9
   1   0 -19 548.968 28.2949   2
   1   0 -19 527.358 27.1144   9
  -1   0  19 525.095 28.7227   2
  -1   0  19 531.922 27.3693  13
  -1   0  19 548.303 27.4546   9
   0   0 -19 31.3562 2.45318   9
   0   0 -19 32.7668 3.27882   2
   0   0  19 32.4387 2.68774   9
   0   0  19 33.1106 3.88404   2
  -1   0 -19 750.629 36.7567   9
  -1   0 -19 711.544 37.6620   2
   1   0  19 717.198 38.0123   2
  -2   0 -19 172.679 8.99290  13
  -2   0 -19 182.445 9.23733   9
   2   0  19 164.741 16.4934   4
   2   0  19 174.966 10.0562   2
  -4   1  19 951.346 48.3220  13
   3  -1 -19 566.669 37.1277  12
   3  -1 -19 585.300 29.8661   2
  -3   1  19 624.289 30.5693  13
  -3   1  19 582.586 31.1492  21
  -3   1  19 540.455 33.7133   3
  -3   1  19 627.725 29.8922   9
   2  -1 -19 1267.26 62.1379   2
  -2   1  19 1305.64 61.5879   9
  -2   1  19 1175.51 64.9628  20
  -2   1  19 1152.25 65.8984   3
  -2   1  19 1245.42 61.6684  13
  -2   1  19 1194.37 62.8488  21
   1  -1 -19 566.682 29.2400   2
  -1   1  19 548.514 28.3046  13
  -1   1  19 567.870 28.4408   9
  -1   1  19 538.976 29.6718   2
   0  -1 -19 2.26273 0.90637   9
   0  -1 -19 2.20293 1.17980   2
   0   1  19 2.14346 1.13023   9
  -1  -1 -19 311.380 17.3615   2
  -1  -1 -19 335.144 16.5801   9
   1   1  19 316.970 17.7634   2
  -2  -1 -19 406.565 20.6258   9
   2   1  19 386.203 21.2035   2
   2   1  19 428.020 29.0784   4
  -4   2  19 453.451 22.4907  13
  -4   2  19 430.903 23.2260  21
  -3   2  19 426.656 27.2772   3
  -3   2  19 489.664 23.9337  13
  -3   2  19 479.339 23.7273   9
  -2   2  19 19.3652 3.12359  21
  -2   2  19 20.5139 4.10826   3
  -2   2  19 19.0748 2.30901  13
  -2   2  19 23.2171 2.21370   9
   1  -2 -19 1412.21 71.0249   2
  -1   2  19 1394.92 70.2549   9
  -1   2  19 1391.11 71.5110   2
   0  -2 -19 18.4280 2.42468   2
   0  -2 -19 18.4432 1.64494   9
   0   2  19 20.8647 3.37852   2
   0   2  19 16.4360 2.78693   9
  -1  -2 -19 476.424 23.4965   9
  -1  -2 -19 500.086 24.3497   2
   1   2  19 418.181 31.6514   4
   1   2  19 463.148 24.4716   2
   3  -3 -19 626.045 37.1506  12
  -3   3  19 647.384 32.9882  21
  -3   3  19 579.626 32.2602   9
  -3   3  19 683.592 32.1641  13
   2  -3 -19 48.6522 3.37262   2
  -2   3  19 48.6507 3.29124   9
  -2   3  19 49.9619 3.90972  21
  -2   3  19 48.7911 3.25832  13
   1  -3 -19 1434.22 70.1521   2
  -1   3  19 1317.99 70.3642   2
  -1   3  19 1411.67 69.5464   9
   0  -3 -19 234.867 12.7514   2
   0   3  19 223.161 12.0478   9
   0   3  19 244.943 13.6342   2
  -1  -3 -19 70.8016 4.57108   2
   1   3  19 76.8927 4.56290   2
  -2   4  19 422.218 21.4597   9
   1  -4 -19 486.265 24.5417   2
  -1   4  19 476.443 24.2604   9
   1   4 -20 18.5925 1.77522   2
  -1  -4  20 17.6980 1.93337   2
   0   4 -20 166.792 9.32975   2
   0  -4  20 172.656 9.51847   2
   1  -4  20 7.31826 1.62116   2
  -2   4 -20 1853.69 85.3355   9
   2  -4  20 1570.64 86.0276  10
   2   3 -20 441.151 23.4549   2
  -2  -3  20 475.550 23.1549   9
   1   3 -20 1450.77 71.1200   2
   1   3 -20 1257.04 70.3283   9
  -1  -3  20 1464.61 71.4198   2
  -1  -3  20 1466.43 70.4612   9
   0   3 -20 342.690 18.7936   2
   0  -3  20 363.787 18.0326   9
   0  -3  20 357.700 19.1603   2
  -1   3 -20 188.942 10.7502   2
   1  -3  20 198.263 11.0057   2
  -2   3 -20 123.404 6.13569   9
  -2   3 -20 120.822 6.20603  13
   2  -3  20 104.489 6.89464  10
   2  -3  20 114.816 6.49611   2
   2  -3  20 105.247 10.2448   4
  -3  -2  20 414.972 20.9540   9
   2   2 -20 890.324 43.6757   2
  -2  -2  20 833.305 43.8946   2
  -2  -2  20 849.140 43.0916   9
   1   2 -20 634.200 32.7997   2
   1   2 -20 577.603 31.8073   9
  -1  -2  20 608.568 32.0509   9
  -1  -2  20 717.627 33.8397   2
   0   2 -20 146.251 8.69781   2
   0   2 -20 149.550 7.86828   9
   0  -2  20 144.019 8.99008   2
  -1   2 -20 82.6767 5.55665   2
  -1   2 -20 87.2327 4.89009   9
   1  -2  20 86.2687 5.89546   2
  -2   2 -20 39.6325 2.53726  13
  -2   2 -20 47.1890 2.72530   9
   2  -2  20 42.0308 7.76975   4
   2  -2  20 39.5981 3.24333   2
   3   1 -20 375.751 20.3819   2
  -3  -1  20 428.211 20.2940   9
  -3  -1  20 392.044 20.2410  13
   2   1 -20 552.726 28.4067   2
  -2  -1  20 561.819 27.8892   9
  -2  -1  20 532.194 27.9349  13
   1   1 -20 28.6895 2.87612   2
  -1  -1  20 26.7469 3.41392   2
  -1  -1  20 27.6355 2.37362   9
   0   1 -20 1568.24 79.3458   2
   0   1 -20 1569.99 78.3577   9
   0  -1  20 1529.83 79.6202   2
   0  -1  20 1599.18 78.4337   9
  -1   1 -20 218.917 11.1073   9
  -1   1 -20 203.762 11.8572   2
   1  -1  20 210.977 12.2102   2
  -2   1 -20 48.8570 2.90228   9
  -2   1 -20 47.1285 2.67758  13
   2  -1  20 43.3243 3.44728   2
   2  -1  20 43.4757 8.10199   4
   3   0 -20 238.859 12.7932   2
  -3   0  20 271.727 12.8027   9
  -3   0  20 227.355 13.5610  21
  -3   0  20 245.705 12.8294  13
   2   0 -20 835.832 43.1990   2
  -2   0  20 833.815 42.7101  13
  -2   0  20 868.332 42.6939   9
   1   0 -20 155.690 9.38230   2
  -1   0  20 160.616 9.93544   2
  -1   0  20 161.759 8.72101   9
   0   0 -20 358.887 19.6997   2
   0   0 -20 371.377 18.7379   9
   0   0  20 374.968 18.8482   9
   0   0  20 357.635 20.0895   2
  -1   0 -20 312.544 18.1557   2
   1   0  20 369.291 20.0565   2
  -2   0 -20 57.7770 3.24146   9
   2   0  20 53.3494 8.22419   4
   2   0  20 50.6998 3.72748   2
   3  -1 -20 30.7157 2.04945   2
  -3   1  20 27.5555 2.34263  13
  -3   1  20 31.2454 2.22982   9
  -3   1  20 24.5137 3.04985  21
   2  -1 -20 407.544 21.9550   2
  -2   1  20 430.960 21.5505   9
   1  -1 -20 80.2973 5.46279   2
  -1   1  20 82.1008 4.89105   9
  -1   1  20 77.5033 5.92029   2
   0  -1 -20 172.020 9.21842   9
   0  -1 -20 174.155 10.1215   2
  -1  -1 -20 1262.26 61.7376   9
  -1  -1 -20 1211.70 62.4408   2
   1   1  20 1227.84 62.7436   2
  -2  -1 -20 33.2936 1.97851   9
   2   1  20 31.3739 2.25866   2
   2   1  20 30.8864 5.75761   4
   3  -2 -20 27.3403 4.42233  12
  -3   2  20 19.9953 2.80438  21
  -3   2  20 25.4442 2.15204  13
  -3   2  20 24.5226 1.96491   9
   2  -2 -20 717.603 36.3625   2
  -2   2  20 722.894 35.9733  13
  -2   2  20 760.719 36.0577   9
  -2   2  20 649.348 36.5887  21
   1  -2 -20 697.451 34.7220   2
  -1   2  20 562.264 33.8593   2
  -1   2  20 697.348 33.6043   9
   0  -2 -20 209.485 10.8283   2
   0  -2 -20 180.757 9.75920   9
   0   2  20 186.510 10.9523   2
   0   2  20 183.807 9.92774   9
  -1  -2 -20 725.374 38.1889   2
  -1  -2 -20 752.859 37.6671   9
   1   2  20 783.382 39.1077   2
   3  -3 -20 141.062 10.5791  12
  -3   3  20 147.499 7.61143   9
  -3   3  20 149.283 7.65087  13
   2  -3 -20 388.348 19.8528   2
  -2   3  20 401.781 19.3819   9
  -2   3  20 349.544 19.1152  13
   1  -3 -20 939.740 47.7559   2
  -1   3  20 948.346 47.3349   9
   0  -3 -20 49.9138 3.28320   2
   0   3  20 50.9394 3.69227   2
   0   4 -21 126.285 6.87600   2
   0  -4  21 117.787 6.86722   2
  -1   4 -21 470.035 23.3904   9
   1  -4  21 461.835 23.7936   2
   2   3 -21 1.98570 0.57975   2
  -2  -3  21 2.59386 0.57622   9
   1   3 -21 680.950 33.9958   2
  -1  -3  21 635.537 33.7425   9
  -1  -3  21 684.128 34.1975   2
   0   3 -21 102.511 6.18775   2
   0   3 -21 109.552 5.61058   9
   0  -3  21 103.358 6.45711   2
  -1   3 -21 224.335 11.3733   9
   1  -3  21 218.028 12.0297   2
  -2   3 -21 268.851 13.6441   9
   2   2 -21 0.57849 0.66349   2
  -2  -2  21 0.78732 0.62686   9
   1   2 -21 298.039 15.8554   2
  -1  -2  21 293.698 16.1138   2
  -1  -2  21 299.722 15.2449   9
   0   2 -21 1536.32 79.1559   2
   0   2 -21 1570.10 78.3876   9
   0  -2  21 1525.92 79.3689   2
   0  -2  21 1648.88 78.4126   9
  -1   2 -21 48.9513 3.55878   2
  -1   2 -21 49.7224 3.03653   9
   1  -2  21 50.8734 3.89456   2
   2  -2  21 717.546 41.0726   4
   2  -2  21 711.597 36.0690   2
  -3  -1  21 485.932 24.4736   9
   2   1 -21 478.413 24.5284   2
  -2  -1  21 471.772 24.0961   9
  -1  -1  21 234.384 13.2411   2
   0   1 -21 452.068 24.2750   2
   0   1 -21 452.426 23.4126   9
   0  -1  21 496.506 24.9519   2
   0  -1  21 449.196 23.4373   9
  -1   1 -21 34.4676 2.42041   9
  -1   1 -21 36.3266 3.24475   2
   1  -1  21 35.9823 3.34004   2
  -2   1 -21 798.005 41.0298   9
   2  -1  21 841.939 46.9449   4
   2  -1  21 815.432 41.2820   2
  -3   0  21 537.790 26.1881   9
  -3   0  21 485.396 25.7251  13
   2   0 -21 128.402 7.15948   2
  -2   0  21 126.082 6.76145   9
  -2   0  21 114.354 6.52710  13
   1   0 -21 107.807 7.00659   2
  -1   0  21 86.0963 6.36776   2
   0   0 -21 1363.26 66.8444   2
   0   0 -21 1308.76 65.8473   9
   0   0  21 1309.26 65.9091   9
   0   0  21 1289.17 67.0377   2
  -1   0 -21 34.9713 2.82490   2
  -1   0 -21 36.8079 2.38502   9
   1   0  21 34.1937 3.26278   2
  -3   1  21 316.241 16.2154  13
  -3   1  21 318.629 16.2744   9
   2  -1 -21 519.383 26.6735   2
  -2   1  21 549.877 26.3662   9
  -2   1  21 486.969 26.1575  13
   1  -1 -21 30.8646 2.79247   2
  -1   1  21 30.7400 2.40469   9
  -1   1  21 27.6829 3.06638   2
   0  -1 -21 1421.75 71.7274   2
   0   1  21 1404.05 70.9277   9
   0   1  21 1434.41 72.0113   2
  -1  -1 -21 195.699 10.7995   2
  -1  -1 -21 205.149 10.2771   9
   1   1  21 187.881 14.9259   4
   1   1  21 212.726 11.2743   2
  -3   2  21 510.350 24.2866   9
  -3   2  21 453.506 24.1937  13
   2  -2 -21 964.535 50.5477   2
  -2   2  21 1045.73 50.4161   9
   1  -2 -21 30.2102 2.58014   2
  -1   2  21 28.8250 3.18071   2
  -1   2  21 30.0731 2.25879   9
   0  -2 -21 12.9599 2.13222   2
   0   2  21 16.4737 2.05188   2
  -2   3  21 982.760 49.1208   9
   1  -3 -21 12.6081 1.24927   2
  -1   3  21 10.8994 1.08034   9
   1   3 -22 370.124 19.0553   2
  -1  -3  22 373.011 19.2589   2
   0   3 -22 81.3993 4.77357   2
   0  -3  22 80.8919 4.94528   2
  -1   3 -22 587.109 29.5924   9
   1  -3  22 595.359 30.0586   2
   2   2 -22 165.761 8.94389   2
  -2  -2  22 174.604 8.74661   9
   1   2 -22 287.517 14.9849   2
  -1  -2  22 280.322 14.5906   9
  -1  -2  22 284.690 15.1814   2
   0   2 -22 1.26860 0.64893   9
   0   2 -22 1.89292 1.32167   2
   0  -2  22 1.70982 1.05600   2
   1  -2  22 431.342 22.5409   2
   2   1 -22 35.6095 2.63206   2
  -2  -1  22 34.5602 2.61240   9
   1   1 -22 962.752 50.4511   2
  -1  -1  22 1042.03 51.0825   2
  -1  -1  22 983.740 49.8808   9
   0   1 -22 2.49273 1.00477   2
   0  -1  22 2.49816 0.61971   9
   0  -1  22 3.43359 1.35677   2
  -1   1 -22 163.479 9.72729   2
   1  -1  22 190.672 9.91324   2
   2   0 -22 114.683 6.35243   2
  -2   0  22 110.309 6.06752   9
   1   0 -22 1150.68 56.4298   2
  -1   0  22 1067.23 56.5724   2
  -1   0  22 1124.77 55.7860   9
   0   0 -22 156.854 8.10784   9
   0   0 -22 160.557 8.91438   2
   0   0  22 153.872 9.13642   2
   0   0  22 159.438 8.14767   9
  -1   0 -22 22.0017 1.47224   9
   1   0  22 18.5203 5.07212   4
   1   0  22 22.1575 2.20796   2
   2  -1 -22 9.05522 1.81814   2
  -2   1  22 12.2244 1.50837   9
   1  -1 -22 97.1675 5.67642   2
  -1   1  22 97.5046 5.20472   9
  -1   1  22 88.6584 6.04641   2
   0  -1 -22 911.887 43.9540   2
   0   1  22 816.612 43.9384   2
  -2   2  22 306.932 15.5850   9
   1  -2 -22 710.121 35.4494   2
  -1   2  22 691.213 35.0774   9
   1   2 -23 198.439 10.4812   2
   0   2 -23 636.611 33.0703   2
   0  -2  23 637.355 32.3964   2
   1   1 -23 426.730 21.3758   2
  -1  -1  23 380.259 21.5004   2
  -1  -1  23 439.784 20.9290   9
   0   1 -23 26.1612 2.06311   2
   0  -1  23 25.6085 2.33618   2
   1   0 -23 1196.40 59.2467   2
  -1   0  23 1160.00 58.7684   9
   0   0 -23 5.64875 1.08970   2
   0   0  23 4.89639 1.33420   2
   1  -1 -23 227.727 11.9034   2
   0   0   0    0.00    0.00   0
;
_shelx_hkl_checksum              72651
loop_
_space_group_symop_operation_xyz
'x, y, z'
'-x, -y, -z'
loop_
_atom_site_label
_atom_site_type_symbol
_atom_site_fract_x
_atom_site_fract_y
_atom_site_fract_z
_atom_site_U_iso_or_equiv
_atom_site_adp_type
_atom_site_occupancy
_atom_site_site_symmetry_order
_atom_site_calc_flag
_atom_site_refinement_flags_posn
_atom_site_refinement_flags_adp
N1 N 0.7055(5) 0.5126(4) 0.68608(13) 0.0137(5) Uani 1 1 d . .
O1 O 0.9635(5) 0.3046(4) 0.65819(12) 0.0184(5) Uani 1 1 d . .
O2 O 0.4554(5) 0.7266(4) 0.71337(12) 0.0194(5) Uani 1 1 d . .
Br1 Br 0.18901(6) 0.95325(5) 0.61975(2) 0.01370(15) Uani 1 1 d . .
C1 C 0.5981(8) 0.1875(6) 0.92166(19) 0.0277(8) Uani 1 1 d . .
C2 C 0.7258(7) 0.3817(6) 0.88125(18) 0.0223(7) Uani 1 1 d . .
C3 C 0.6399(7) 0.3509(5) 0.79942(17) 0.0187(6) Uani 1 1 d . .
C4 C 0.8115(7) 0.5341(5) 0.76251(16) 0.0166(6) Uani 1 1 d . .
H4A H 0.809959 0.672069 0.786547 0.020 Uiso 1 1 calc R U
H4B H 1.003629 0.535240 0.767123 0.020 Uiso 1 1 calc R U
C5 C 0.8015(6) 0.3927(5) 0.63791(16) 0.0138(6) Uani 1 1 d . .
C6 C 0.6993(6) 0.3801(5) 0.56071(16) 0.0124(6) Uani 1 1 d . .
C7 C 0.7706(6) 0.2497(5) 0.51178(16) 0.0139(6) Uani 1 1 d . .
H7A H 0.874844 0.164266 0.528438 0.017 Uiso 1 1 calc R U
C8 C 0.5377(6) 0.5047(4) 0.53740(16) 0.0122(6) Uani 1 1 d . .
C9 C 0.4573(6) 0.6358(5) 0.58851(16) 0.0122(6) Uani 1 1 d . .
C10 C 0.3068(6) 0.7607(5) 0.56239(16) 0.0130(6) Uani 1 1 d . .
C11 C 0.5325(6) 0.6323(5) 0.66683(16) 0.0139(6) Uani 1 1 d . .
F1 F 0.6616(5) 0.1625(3) 0.77307(11) 0.0303(5) Uani 1 1 d . .
F2 F 0.9992(4) 0.4327(4) 0.89387(11) 0.0348(5) Uani 1 1 d . .
F3 F 0.6941(6) 0.0308(4) 0.90451(14) 0.0455(6) Uani 1 1 d . .
F4 F 0.6625(7) 0.2438(5) 0.99157(12) 0.0505(7) Uani 1 1 d . .
F5 F 0.3299(5) 0.1148(5) 0.90614(15) 0.0496(7) Uani 1 1 d . .
F6 F 0.6577(6) 0.5474(4) 0.90974(12) 0.0404(6) Uani 1 1 d . .
F7 F 0.3719(4) 0.3306(4) 0.78710(12) 0.0335(5) Uani 1 1 d . .
loop_
_atom_site_aniso_label
_atom_site_aniso_U_11
_atom_site_aniso_U_22
_atom_site_aniso_U_33
_atom_site_aniso_U_23
_atom_site_aniso_U_13
_atom_site_aniso_U_12
N1 0.0148(12) 0.0143(12) 0.0137(12) 0.0033(9) 0.0014(9) 0.0068(10)
O1 0.0191(11) 0.0227(11) 0.0175(11) 0.0043(9) 0.0009(8) 0.0128(9)
O2 0.0252(12) 0.0208(11) 0.0164(11) 0.0020(9) 0.0034(9) 0.0131(10)
Br1 0.0144(2) 0.01249(19) 0.0166(2) 0.00212(11) 0.00353(11) 0.00717(12)
C1 0.0304(19) 0.034(2) 0.0215(17) 0.0101(14) 0.0049(14) 0.0115(16)
C2 0.0261(18) 0.0257(17) 0.0178(16) 0.0033(13) 0.0032(13) 0.0119(14)
C3 0.0180(16) 0.0197(16) 0.0186(15) 0.0039(12) 0.0010(12) 0.0065(13)
C4 0.0182(15) 0.0196(15) 0.0137(14) 0.0028(11) 0.0006(11) 0.0089(12)
C5 0.0128(14) 0.0117(13) 0.0175(14) 0.0039(11) 0.0034(11) 0.0040(11)
C6 0.0090(13) 0.0107(13) 0.0176(14) 0.0050(11) 0.0031(11) 0.0022(11)
C7 0.0127(14) 0.0102(13) 0.0202(15) 0.0053(11) 0.0036(11) 0.0046(11)
C8 0.0098(13) 0.0094(13) 0.0172(15) 0.0029(10) 0.0026(10) 0.0026(11)
C9 0.0103(13) 0.0098(13) 0.0164(14) 0.0023(10) 0.0031(10) 0.0024(11)
C10 0.0094(13) 0.0106(13) 0.0196(14) 0.0032(11) 0.0043(11) 0.0027(11)
C11 0.0147(14) 0.0098(13) 0.0180(15) 0.0028(11) 0.0027(11) 0.0049(11)
F1 0.0515(14) 0.0168(10) 0.0211(10) 0.0025(8) 0.0074(9) 0.0085(9)
F2 0.0244(11) 0.0504(14) 0.0244(11) 0.0127(10) -0.0052(8) 0.0056(10)
F3 0.0694(18) 0.0397(14) 0.0430(14) 0.0233(11) 0.0194(13) 0.0317(13)
F4 0.076(2) 0.0538(16) 0.0178(11) 0.0132(10) 0.0071(11) 0.0127(14)
F5 0.0321(13) 0.0642(18) 0.0534(16) 0.0386(14) 0.0107(11) 0.0081(12)
F6 0.0712(18) 0.0323(12) 0.0266(11) 0.0032(9) 0.0192(11) 0.0256(12)
F7 0.0154(10) 0.0498(14) 0.0352(12) 0.0242(10) 0.0019(8) 0.0064(9)
loop_
_atom_type_symbol
_atom_type_description
_atom_type_scat_dispersion_real
_atom_type_scat_dispersion_imag
_atom_type_scat_source
C C 0.0181 0.0091 'International Tables Vol C Tables 4.2.6.8 and 6.1.1.4'
H H 0.0000 0.0000 'International Tables Vol C Tables 4.2.6.8 and 6.1.1.4'
N N 0.0311 0.0180 'International Tables Vol C Tables 4.2.6.8 and 6.1.1.4'
O O 0.0492 0.0322 'International Tables Vol C Tables 4.2.6.8 and 6.1.1.4'
F F 0.0727 0.0534 'International Tables Vol C Tables 4.2.6.8 and 6.1.1.4'
Br Br -0.6763 1.2805 'International Tables Vol C Tables 4.2.6.8 and 6.1.1.4'
loop_
_geom_angle_atom_site_label_1
_geom_angle_atom_site_label_2
_geom_angle_atom_site_label_3
_geom_angle
_geom_angle_site_symmetry_1
_geom_angle_site_symmetry_3
C5 N1 C11 125.2(3) . .
C5 N1 C4 117.6(2) . .
C11 N1 C4 117.0(2) . .
F5 C1 F4 109.1(3) . .
F5 C1 F3 108.5(3) . .
F4 C1 F3 107.7(3) . .
F5 C1 C2 111.1(3) . .
F4 C1 C2 109.6(3) . .
F3 C1 C2 110.7(3) . .
F2 C2 F6 108.2(3) . .
F2 C2 C3 108.6(3) . .
F6 C2 C3 108.2(3) . .
F2 C2 C1 107.6(3) . .
F6 C2 C1 107.9(3) . .
C3 C2 C1 116.2(3) . .
F1 C3 F7 106.5(3) . .
F1 C3 C4 110.9(3) . .
F7 C3 C4 110.6(3) . .
F1 C3 C2 107.7(3) . .
F7 C3 C2 108.4(3) . .
C4 C3 C2 112.4(3) . .
N1 C4 C3 111.1(3) . .
N1 C4 H4A 109.4 . .
C3 C4 H4A 109.4 . .
N1 C4 H4B 109.4 . .
C3 C4 H4B 109.4 . .
H4A C4 H4B 108.0 . .
O1 C5 N1 121.5(3) . .
O1 C5 C6 121.9(3) . .
N1 C5 C6 116.6(3) . .
C7 C6 C8 120.3(3) . .
C7 C6 C5 118.7(3) . .
C8 C6 C5 121.0(3) . .
C6 C7 C10 121.5(3) . 2_666
C6 C7 H7A 119.2 . .
C10 C7 H7A 119.2 2_666 .
C8 C8 C6 118.0(3) 2_666 .
C8 C8 C9 121.8(3) 2_666 .
C6 C8 C9 120.3(3) . .
C10 C9 C8 117.8(3) . .
C10 C9 C11 122.7(3) . .
C8 C9 C11 119.5(3) . .
C9 C10 C7 120.6(3) . 2_666
C9 C10 Br1 125.2(2) . .
C7 C10 Br1 114.3(2) 2_666 .
O2 C11 N1 119.6(3) . .
O2 C11 C9 123.4(3) . .
N1 C11 C9 117.0(3) . .
loop_
_geom_bond_atom_site_label_1
_geom_bond_atom_site_label_2
_geom_bond_distance
_geom_bond_site_symmetry_2
N1 C5 1.388(4) .
N1 C11 1.415(4) .
N1 C4 1.466(4) .
O1 C5 1.216(4) .
O2 C11 1.207(4) .
Br1 C10 1.890(3) .
C1 F5 1.314(5) .
C1 F4 1.317(4) .
C1 F3 1.319(5) .
C1 C2 1.543(5) .
C2 F2 1.341(4) .
C2 F6 1.345(4) .
C2 C3 1.538(4) .
C3 F1 1.349(4) .
C3 F7 1.349(4) .
C3 C4 1.521(4) .
C4 H4A 0.9900 .
C4 H4B 0.9900 .
C5 C6 1.482(4) .
C6 C7 1.369(4) .
C6 C8 1.416(4) .
C7 C10 1.403(4) 2_666
C7 H7A 0.9500 .
C8 C8 1.413(6) 2_666
C8 C9 1.424(4) .
C9 C10 1.393(4) .
C9 C11 1.490(4) .
loop_
_geom_torsion_atom_site_label_1
_geom_torsion_atom_site_label_2
_geom_torsion_atom_site_label_3
_geom_torsion_atom_site_label_4
_geom_torsion
_geom_torsion_site_symmetry_1
_geom_torsion_site_symmetry_4
F5 C1 C2 F2 -173.8(3) . .
F4 C1 C2 F2 65.6(4) . .
F3 C1 C2 F2 -53.1(4) . .
F5 C1 C2 F6 69.7(4) . .
F4 C1 C2 F6 -50.9(4) . .
F3 C1 C2 F6 -169.7(3) . .
F5 C1 C2 C3 -51.8(4) . .
F4 C1 C2 C3 -172.5(3) . .
F3 C1 C2 C3 68.8(4) . .
F2 C2 C3 F1 73.9(3) . .
F6 C2 C3 F1 -168.9(3) . .
C1 C2 C3 F1 -47.5(4) . .
F2 C2 C3 F7 -171.2(3) . .
F6 C2 C3 F7 -54.0(4) . .
C1 C2 C3 F7 67.4(4) . .
F2 C2 C3 C4 -48.6(4) . .
F6 C2 C3 C4 68.7(4) . .
C1 C2 C3 C4 -170.0(3) . .
C5 N1 C4 C3 -88.1(3) . .
C11 N1 C4 C3 97.5(3) . .
F1 C3 C4 N1 65.7(3) . .
F7 C3 C4 N1 -52.2(3) . .
C2 C3 C4 N1 -173.6(3) . .
C11 N1 C5 O1 175.4(3) . .
C4 N1 C5 O1 1.5(4) . .
C11 N1 C5 C6 -3.9(4) . .
C4 N1 C5 C6 -177.8(3) . .
O1 C5 C6 C7 6.0(4) . .
N1 C5 C6 C7 -174.8(3) . .
O1 C5 C6 C8 -172.2(3) . .
N1 C5 C6 C8 7.0(4) . .
C8 C6 C7 C10 1.7(4) . 2_666
C5 C6 C7 C10 -176.5(3) . 2_666
C7 C6 C8 C8 -2.3(5) . 2_666
C5 C6 C8 C8 175.9(3) . 2_666
C7 C6 C8 C9 178.3(3) . .
C5 C6 C8 C9 -3.5(4) . .
C8 C8 C9 C10 -1.7(5) 2_666 .
C6 C8 C9 C10 177.7(3) . .
C8 C8 C9 C11 177.4(3) 2_666 .
C6 C8 C9 C11 -3.1(4) . .
C8 C9 C10 C7 2.3(4) . 2_666
C11 C9 C10 C7 -176.8(3) . 2_666
C8 C9 C10 Br1 -177.8(2) . .
C11 C9 C10 Br1 3.1(4) . .
C5 N1 C11 O2 178.1(3) . .
C4 N1 C11 O2 -8.0(4) . .
C5 N1 C11 C9 -2.5(4) . .
C4 N1 C11 C9 171.4(3) . .
C10 C9 C11 O2 4.6(5) . .
C8 C9 C11 O2 -174.5(3) . .
C10 C9 C11 N1 -174.8(3) . .
C8 C9 C11 N1 6.1(4) . .
